# generated using pymatgen
data_Ti18VSi16Rh
_symmetry_space_group_name_H-M   'P 1'
_cell_length_a   6.67416667
_cell_length_b   6.66873009
_cell_length_c   12.13398636
_cell_angle_alpha   89.84429646
_cell_angle_beta   90.42308901
_cell_angle_gamma   89.90580705
_symmetry_Int_Tables_number   1
_chemical_formula_structural   Ti18VSi16Rh
_chemical_formula_sum   'Ti18 V1 Si16 Rh1'
_cell_volume   540.04462115
_cell_formula_units_Z   1
loop_
 _symmetry_equiv_pos_site_id
 _symmetry_equiv_pos_as_xyz
  1  'x, y, z'
loop_
 _atom_site_type_symbol
 _atom_site_label
 _atom_site_symmetry_multiplicity
 _atom_site_fract_x
 _atom_site_fract_y
 _atom_site_fract_z
 _atom_site_occupancy
  Ti  Ti0  1  0.353405  0.499470  0.868151  1
  Ti  Ti1  1  0.649676  0.503300  0.371890  1
  Ti  Ti2  1  0.500375  0.354018  0.131241  1
  Ti  Ti3  1  0.503195  0.648172  0.628565  1
  Ti  Ti4  1  0.003699  0.847827  0.120524  1
  Ti  Ti5  1  0.148158  0.996694  0.375650  1
  Ti  Ti6  1  0.847821  0.003326  0.880073  1
  Ti  Ti7  1  0.001053  0.347013  0.220018  1
  Ti  Ti8  1  0.154692  0.502056  0.469104  1
  Ti  Ti9  1  0.840100  0.498861  0.969249  1
  Ti  Ti10  1  0.501276  0.155469  0.531405  1
  Ti  Ti11  1  0.500311  0.839407  0.029980  1
  Ti  Ti12  1  0.999096  0.656444  0.720288  1
  Ti  Ti13  1  0.347697  0.000796  0.779104  1
  Ti  Ti14  1  0.656030  0.999216  0.280531  1
  Ti  Ti15  1  0.327528  0.672172  0.247528  1
  Ti  Ti16  1  0.671882  0.326088  0.751767  1
  Ti  Ti17  1  0.830308  0.830136  0.500844  1
  V  V18  1  0.993030  0.147824  0.624450  1
  Si  Si19  1  0.047567  0.297252  0.814359  1
  Si  Si20  1  0.200277  0.540333  0.060830  1
  Si  Si21  1  0.802309  0.452009  0.565242  1
  Si  Si22  1  0.540628  0.200219  0.938669  1
  Si  Si23  1  0.454027  0.801492  0.436008  1
  Si  Si24  1  0.956123  0.698815  0.314196  1
  Si  Si25  1  0.299248  0.047939  0.183255  1
  Si  Si26  1  0.702086  0.956396  0.685772  1
  Si  Si27  1  0.289464  0.354965  0.671461  1
  Si  Si28  1  0.140752  0.792181  0.921728  1
  Si  Si29  1  0.859182  0.205198  0.425616  1
  Si  Si30  1  0.791636  0.139994  0.078471  1
  Si  Si31  1  0.204171  0.863816  0.577640  1
  Si  Si32  1  0.705794  0.645487  0.173840  1
  Si  Si33  1  0.356812  0.295059  0.327102  1
  Si  Si34  1  0.644936  0.705635  0.826032  1
  Rh  Rh35  1  0.175657  0.174921  0.999417  1
