# generated using pymatgen
data_Tb3Ag5Rh
_symmetry_space_group_name_H-M   'P 1'
_cell_length_a   7.76577500
_cell_length_b   7.76577524
_cell_length_c   3.81512800
_cell_angle_alpha   90.00000000
_cell_angle_beta   90.00000000
_cell_angle_gamma   120.00000208
_symmetry_Int_Tables_number   1
_chemical_formula_structural   Tb3Ag5Rh
_chemical_formula_sum   'Tb3 Ag5 Rh1'
_cell_volume   199.25505889
_cell_formula_units_Z   1
loop_
 _symmetry_equiv_pos_site_id
 _symmetry_equiv_pos_as_xyz
  1  'x, y, z'
loop_
 _atom_site_type_symbol
 _atom_site_label
 _atom_site_symmetry_multiplicity
 _atom_site_fract_x
 _atom_site_fract_y
 _atom_site_fract_z
 _atom_site_occupancy
  Tb  Tb0  1  0.968367  0.581374  0.500000  1
  Tb  Tb1  1  0.418626  0.386993  0.500000  1
  Tb  Tb2  1  0.613007  0.031633  0.500000  1
  Ag  Ag3  1  0.731251  0.736503  0.000000  1
  Ag  Ag4  1  0.005251  0.268749  0.000000  1
  Ag  Ag5  1  0.263497  0.994749  0.000000  1
  Ag  Ag6  1  0.333333  0.666667  0.000000  1
  Ag  Ag7  1  0.000000  0.000000  0.500000  1
  Rh  Rh8  1  0.666667  0.333333  0.000000  1
