# generated using pymatgen
data_DyEr4(In2Ni)2
_symmetry_space_group_name_H-M   'P 1'
_cell_length_a   3.54173500
_cell_length_b   8.05488100
_cell_length_c   17.91654900
_cell_angle_alpha   90.00000000
_cell_angle_beta   90.00000000
_cell_angle_gamma   90.00000000
_symmetry_Int_Tables_number   1
_chemical_formula_structural   DyEr4(In2Ni)2
_chemical_formula_sum   'Dy2 Er8 In8 Ni4'
_cell_volume   511.12785993
_cell_formula_units_Z   2
loop_
 _symmetry_equiv_pos_site_id
 _symmetry_equiv_pos_as_xyz
  1  'x, y, z'
loop_
 _atom_site_type_symbol
 _atom_site_label
 _atom_site_symmetry_multiplicity
 _atom_site_fract_x
 _atom_site_fract_y
 _atom_site_fract_z
 _atom_site_occupancy
  Dy  Dy0  1  0.500000  0.500000  0.000000  1
  Dy  Dy1  1  0.500000  0.000000  0.500000  1
  Er  Er2  1  0.500000  0.382242  0.588754  1
  Er  Er3  1  0.500000  0.882242  0.911246  1
  Er  Er4  1  0.500000  0.117758  0.088754  1
  Er  Er5  1  0.500000  0.756301  0.720544  1
  Er  Er6  1  0.500000  0.256301  0.779456  1
  Er  Er7  1  0.500000  0.743699  0.220544  1
  Er  Er8  1  0.500000  0.243699  0.279456  1
  Er  Er9  1  0.500000  0.617758  0.411246  1
  In  In10  1  0.000000  0.797878  0.068228  1
  In  In11  1  0.000000  0.925933  0.346954  1
  In  In12  1  0.000000  0.074067  0.653046  1
  In  In13  1  0.000000  0.574067  0.846954  1
  In  In14  1  0.000000  0.702122  0.568228  1
  In  In15  1  0.000000  0.202122  0.931772  1
  In  In16  1  0.000000  0.297878  0.431772  1
  In  In17  1  0.000000  0.425933  0.153046  1
  Ni  Ni18  1  0.000000  0.976451  0.803662  1
  Ni  Ni19  1  0.000000  0.523549  0.303662  1
  Ni  Ni20  1  0.000000  0.476451  0.696338  1
  Ni  Ni21  1  0.000000  0.023549  0.196338  1
