# generated using pymatgen
data_Tb5Y(Tm2Pb3)2
_symmetry_space_group_name_H-M   'P 1'
_cell_length_a   6.57599500
_cell_length_b   9.05228170
_cell_length_c   9.05791700
_cell_angle_alpha   120.01370565
_cell_angle_beta   89.99956436
_cell_angle_gamma   90.00004069
_symmetry_Int_Tables_number   1
_chemical_formula_structural   Tb5Y(Tm2Pb3)2
_chemical_formula_sum   'Tb5 Y1 Tm4 Pb6'
_cell_volume   466.89423080
_cell_formula_units_Z   1
loop_
 _symmetry_equiv_pos_site_id
 _symmetry_equiv_pos_as_xyz
  1  'x, y, z'
loop_
 _atom_site_type_symbol
 _atom_site_label
 _atom_site_symmetry_multiplicity
 _atom_site_fract_x
 _atom_site_fract_y
 _atom_site_fract_z
 _atom_site_occupancy
  Tb  Tb0  1  0.750003  0.238628  0.999959  1
  Tb  Tb1  1  0.749996  0.761307  0.761304  1
  Tb  Tb2  1  0.750003  0.999979  0.238899  1
  Tb  Tb3  1  0.249999  0.761286  0.999945  1
  Tb  Tb4  1  0.250003  0.238766  0.238686  1
  Y  Y5  1  0.250006  0.999952  0.761185  1
  Tm  Tm6  1  0.499957  0.333337  0.666718  1
  Tm  Tm7  1  0.499965  0.666667  0.333344  1
  Tm  Tm8  1  0.000033  0.666688  0.333335  1
  Tm  Tm9  1  0.000038  0.333372  0.666721  1
  Pb  Pb10  1  0.749997  0.604630  0.999943  1
  Pb  Pb11  1  0.750005  0.395371  0.395311  1
  Pb  Pb12  1  0.750003  0.000031  0.604586  1
  Pb  Pb13  1  0.249996  0.394954  0.999751  1
  Pb  Pb14  1  0.250001  0.605032  0.604827  1
  Pb  Pb15  1  0.249997  0.999998  0.395487  1
