# generated using pymatgen
data_LaNd3(CdIn)4
_symmetry_space_group_name_H-M   'P 1'
_cell_length_a   7.77063868
_cell_length_b   4.96718500
_cell_length_c   8.68210200
_cell_angle_alpha   90.00000000
_cell_angle_beta   90.09934881
_cell_angle_gamma   90.00000000
_symmetry_Int_Tables_number   1
_chemical_formula_structural   LaNd3(CdIn)4
_chemical_formula_sum   'La1 Nd3 Cd4 In4'
_cell_volume   335.11300477
_cell_formula_units_Z   1
loop_
 _symmetry_equiv_pos_site_id
 _symmetry_equiv_pos_as_xyz
  1  'x, y, z'
loop_
 _atom_site_type_symbol
 _atom_site_label
 _atom_site_symmetry_multiplicity
 _atom_site_fract_x
 _atom_site_fract_y
 _atom_site_fract_z
 _atom_site_occupancy
  La  La0  1  0.002454  0.249999  0.753771  1
  Nd  Nd1  1  0.001881  0.750000  0.244136  1
  Nd  Nd2  1  0.502120  0.750000  0.253668  1
  Nd  Nd3  1  0.503027  0.249999  0.748076  1
  Cd  Cd4  1  0.702250  0.249999  0.083895  1
  Cd  Cd5  1  0.202948  0.249999  0.416090  1
  Cd  Cd6  1  0.708130  0.750000  0.583161  1
  Cd  Cd7  1  0.224145  0.750000  0.916877  1
  In  In8  1  0.290213  0.249999  0.086206  1
  In  In9  1  0.789668  0.249999  0.414622  1
  In  In10  1  0.288867  0.750000  0.581867  1
  In  In11  1  0.784294  0.750000  0.917633  1
