# generated using pymatgen
data_Pr5Nd5(Bi3P)2
_symmetry_space_group_name_H-M   'P 1'
_cell_length_a   9.57947441
_cell_length_b   9.57947488
_cell_length_c   6.87914400
_cell_angle_alpha   90.00000000
_cell_angle_beta   90.00000000
_cell_angle_gamma   119.96658662
_symmetry_Int_Tables_number   1
_chemical_formula_structural   Pr5Nd5(Bi3P)2
_chemical_formula_sum   'Pr5 Nd5 Bi6 P2'
_cell_volume   546.88315104
_cell_formula_units_Z   1
loop_
 _symmetry_equiv_pos_site_id
 _symmetry_equiv_pos_as_xyz
  1  'x, y, z'
loop_
 _atom_site_type_symbol
 _atom_site_label
 _atom_site_symmetry_multiplicity
 _atom_site_fract_x
 _atom_site_fract_y
 _atom_site_fract_z
 _atom_site_occupancy
  Pr  Pr0  1  0.666657  0.333290  0.000017  1
  Pr  Pr1  1  0.333290  0.666657  0.000017  1
  Pr  Pr2  1  0.333290  0.666657  0.499983  1
  Pr  Pr3  1  0.666657  0.333290  0.499983  1
  Pr  Pr4  1  0.760723  0.760723  0.750000  1
  Nd  Nd5  1  0.238483  0.000056  0.750000  1
  Nd  Nd6  1  0.000056  0.238483  0.750000  1
  Nd  Nd7  1  0.238543  0.238543  0.250000  1
  Nd  Nd8  1  0.761573  0.000072  0.250000  1
  Nd  Nd9  1  0.000072  0.761573  0.250000  1
  Bi  Bi10  1  0.396109  0.396109  0.750000  1
  Bi  Bi11  1  0.603435  0.000255  0.750000  1
  Bi  Bi12  1  0.000255  0.603435  0.750000  1
  Bi  Bi13  1  0.603523  0.603523  0.250000  1
  Bi  Bi14  1  0.396422  0.999993  0.250000  1
  Bi  Bi15  1  0.999993  0.396422  0.250000  1
  P  P16  1  0.000460  0.000460  0.000439  1
  P  P17  1  0.000460  0.000460  0.499561  1
