# generated using pymatgen
data_Rb5Ho(MoH9)3
_symmetry_space_group_name_H-M   'P 1'
_cell_length_a   9.87857766
_cell_length_b   9.58585406
_cell_length_c   5.47667800
_cell_angle_alpha   90.00000000
_cell_angle_beta   90.00000000
_cell_angle_gamma   119.02453936
_symmetry_Int_Tables_number   1
_chemical_formula_structural   Rb5Ho(MoH9)3
_chemical_formula_sum   'Rb5 Ho1 Mo3 H27'
_cell_volume   453.48042100
_cell_formula_units_Z   1
loop_
 _symmetry_equiv_pos_site_id
 _symmetry_equiv_pos_as_xyz
  1  'x, y, z'
loop_
 _atom_site_type_symbol
 _atom_site_label
 _atom_site_symmetry_multiplicity
 _atom_site_fract_x
 _atom_site_fract_y
 _atom_site_fract_z
 _atom_site_occupancy
  Rb  Rb0  1  0.736000  0.742407  0.500000  1
  Rb  Rb1  1  0.264000  0.006408  0.500000  1
  Rb  Rb2  1  0.000000  0.595179  0.000000  1
  Rb  Rb3  1  0.415806  0.396032  0.000000  1
  Rb  Rb4  1  0.584194  0.980227  0.000000  1
  Ho  Ho5  1  0.000000  0.263062  0.500000  1
  Mo  Mo6  1  0.698212  0.318996  0.500000  1
  Mo  Mo7  1  0.301788  0.620786  0.500000  1
  Mo  Mo8  1  0.000000  0.052284  0.000000  1
  H  H9  1  0.822955  0.294086  0.715255  1
  H  H10  1  0.715290  0.461266  0.716182  1
  H  H11  1  0.551119  0.212173  0.714208  1
  H  H12  1  0.177045  0.471132  0.284745  1
  H  H13  1  0.551119  0.212173  0.285792  1
  H  H14  1  0.822955  0.294086  0.284745  1
  H  H15  1  0.715290  0.461266  0.283818  1
  H  H16  1  0.284710  0.745977  0.716182  1
  H  H17  1  0.448881  0.661055  0.714208  1
  H  H18  1  0.172551  0.049356  0.000000  1
  H  H19  1  0.827449  0.876805  0.000000  1
  H  H20  1  0.000000  0.238130  0.000000  1
  H  H21  1  0.876858  0.048460  0.242436  1
  H  H22  1  0.123142  0.171603  0.757564  1
  H  H23  1  0.000000  0.912964  0.793925  1
  H  H24  1  0.000000  0.912964  0.206075  1
  H  H25  1  0.123142  0.171603  0.242436  1
  H  H26  1  0.876858  0.048460  0.757564  1
  H  H27  1  0.124514  0.621368  0.500000  1
  H  H28  1  0.441482  0.821902  0.500000  1
  H  H29  1  0.345789  0.464071  0.500000  1
  H  H30  1  0.558518  0.380420  0.500000  1
  H  H31  1  0.875486  0.496854  0.500000  1
  H  H32  1  0.654211  0.118282  0.500000  1
  H  H33  1  0.177045  0.471132  0.715255  1
  H  H34  1  0.284710  0.745977  0.283818  1
  H  H35  1  0.448881  0.661055  0.285792  1
