# generated using pymatgen
data_LiDy3YCo19P12
_symmetry_space_group_name_H-M   'P 1'
_cell_length_a   3.65919500
_cell_length_b   10.26375928
_cell_length_c   11.77606304
_cell_angle_alpha   90.11757470
_cell_angle_beta   90.00000000
_cell_angle_gamma   90.00000000
_symmetry_Int_Tables_number   1
_chemical_formula_structural   LiDy3YCo19P12
_chemical_formula_sum   'Li1 Dy3 Y1 Co19 P12'
_cell_volume   442.27380639
_cell_formula_units_Z   1
loop_
 _symmetry_equiv_pos_site_id
 _symmetry_equiv_pos_as_xyz
  1  'x, y, z'
loop_
 _atom_site_type_symbol
 _atom_site_label
 _atom_site_symmetry_multiplicity
 _atom_site_fract_x
 _atom_site_fract_y
 _atom_site_fract_z
 _atom_site_occupancy
  Li  Li0  1  0.250000  0.796042  0.490543  1
  Dy  Dy1  1  0.250000  0.918005  0.201609  1
  Dy  Dy2  1  0.750000  0.082654  0.797899  1
  Dy  Dy3  1  0.750000  0.418317  0.296929  1
  Y  Y4  1  0.250000  0.581309  0.703145  1
  Co  Co5  1  0.750000  0.211235  0.510204  1
  Co  Co6  1  0.750000  0.284221  0.007928  1
  Co  Co7  1  0.250000  0.715495  0.991767  1
  Co  Co8  1  0.250000  0.093972  0.988286  1
  Co  Co9  1  0.750000  0.906852  0.013023  1
  Co  Co10  1  0.750000  0.591273  0.512462  1
  Co  Co11  1  0.250000  0.403878  0.487639  1
  Co  Co12  1  0.250000  0.277285  0.675907  1
  Co  Co13  1  0.750000  0.719970  0.321492  1
  Co  Co14  1  0.750000  0.779671  0.827529  1
  Co  Co15  1  0.250000  0.221502  0.175644  1
  Co  Co16  1  0.250000  0.616223  0.196992  1
  Co  Co17  1  0.750000  0.381942  0.800760  1
  Co  Co18  1  0.750000  0.119421  0.301185  1
  Co  Co19  1  0.250000  0.881116  0.699966  1
  Co  Co20  1  0.250000  0.034755  0.432156  1
  Co  Co21  1  0.750000  0.966849  0.567141  1
  Co  Co22  1  0.750000  0.531612  0.066891  1
  Co  Co23  1  0.250000  0.467163  0.931517  1
  P  P24  1  0.250000  0.079016  0.612637  1
  P  P25  1  0.750000  0.921141  0.384421  1
  P  P26  1  0.750000  0.581002  0.887909  1
  P  P27  1  0.250000  0.418724  0.111425  1
  P  P28  1  0.250000  0.230374  0.368252  1
  P  P29  1  0.750000  0.770571  0.637104  1
  P  P30  1  0.750000  0.728360  0.130373  1
  P  P31  1  0.250000  0.270455  0.869341  1
  P  P32  1  0.250000  0.898598  0.893245  1
  P  P33  1  0.750000  0.102671  0.108309  1
  P  P34  1  0.750000  0.396843  0.607449  1
  P  P35  1  0.250000  0.601481  0.390920  1
