# generated using pymatgen
data_Na2PaI6
_symmetry_space_group_name_H-M   'P 1'
_cell_length_a   8.67866743
_cell_length_b   8.67866747
_cell_length_c   8.67866800
_cell_angle_alpha   54.62616456
_cell_angle_beta   54.62616211
_cell_angle_gamma   54.62615963
_symmetry_Int_Tables_number   1
_chemical_formula_structural   Na2PaI6
_chemical_formula_sum   'Na2 Pa1 I6'
_cell_volume   404.33618330
_cell_formula_units_Z   1
loop_
 _symmetry_equiv_pos_site_id
 _symmetry_equiv_pos_as_xyz
  1  'x, y, z'
loop_
 _atom_site_type_symbol
 _atom_site_label
 _atom_site_symmetry_multiplicity
 _atom_site_fract_x
 _atom_site_fract_y
 _atom_site_fract_z
 _atom_site_occupancy
  Na  Na0  1  0.498060  0.498060  0.498060  1
  Na  Na1  1  0.680884  0.680884  0.680884  1
  Pa  Pa2  1  0.999084  0.999084  0.999084  1
  I  I3  1  0.092456  0.769029  0.383921  1
  I  I4  1  0.383921  0.092456  0.769029  1
  I  I5  1  0.769029  0.383921  0.092456  1
  I  I6  1  0.904270  0.242055  0.615242  1
  I  I7  1  0.615242  0.904270  0.242055  1
  I  I8  1  0.242055  0.615242  0.904270  1
