# generated using pymatgen
data_Ac2GaSn3Pt2
_symmetry_space_group_name_H-M   'P 1'
_cell_length_a   10.41533459
_cell_length_b   10.52315796
_cell_length_c   10.52315800
_cell_angle_alpha   154.03917989
_cell_angle_beta   124.53661766
_cell_angle_gamma   62.29095720
_symmetry_Int_Tables_number   1
_chemical_formula_structural   Ac2GaSn3Pt2
_chemical_formula_sum   'Ac4 Ga2 Sn6 Pt4'
_cell_volume   412.69732412
_cell_formula_units_Z   2
loop_
 _symmetry_equiv_pos_site_id
 _symmetry_equiv_pos_as_xyz
  1  'x, y, z'
loop_
 _atom_site_type_symbol
 _atom_site_label
 _atom_site_symmetry_multiplicity
 _atom_site_fract_x
 _atom_site_fract_y
 _atom_site_fract_z
 _atom_site_occupancy
  Ac  Ac0  1  0.736648  0.001013  0.735635  1
  Ac  Ac1  1  0.263352  0.998987  0.264365  1
  Ac  Ac2  1  0.283388  0.791963  0.491424  1
  Ac  Ac3  1  0.716612  0.208037  0.508576  1
  Ga  Ga4  1  0.033568  0.195604  0.837964  1
  Ga  Ga5  1  0.966432  0.804396  0.162036  1
  Sn  Sn6  1  0.920061  0.416849  0.503212  1
  Sn  Sn7  1  0.079939  0.583151  0.496788  1
  Sn  Sn8  1  0.419280  0.421133  0.998147  1
  Sn  Sn9  1  0.580720  0.578867  0.001853  1
  Sn  Sn10  1  0.346953  0.196119  0.150834  1
  Sn  Sn11  1  0.653047  0.803881  0.849166  1
  Pt  Pt12  1  0.600279  0.353009  0.247270  1
  Pt  Pt13  1  0.399721  0.646991  0.752730  1
  Pt  Pt14  1  0.094219  0.345901  0.748319  1
  Pt  Pt15  1  0.905781  0.654099  0.251681  1
