# generated using pymatgen
data_Er13Tm3Cd4(IrRu)2
_symmetry_space_group_name_H-M   'P 1'
_cell_length_a   9.53568312
_cell_length_b   9.53868020
_cell_length_c   9.57819300
_cell_angle_alpha   59.86287990
_cell_angle_beta   59.85242482
_cell_angle_gamma   59.70721485
_symmetry_Int_Tables_number   1
_chemical_formula_structural   Er13Tm3Cd4(IrRu)2
_chemical_formula_sum   'Er13 Tm3 Cd4 Ir2 Ru2'
_cell_volume   613.34501071
_cell_formula_units_Z   1
loop_
 _symmetry_equiv_pos_site_id
 _symmetry_equiv_pos_as_xyz
  1  'x, y, z'
loop_
 _atom_site_type_symbol
 _atom_site_label
 _atom_site_symmetry_multiplicity
 _atom_site_fract_x
 _atom_site_fract_y
 _atom_site_fract_z
 _atom_site_occupancy
  Er  Er0  1  0.209314  0.596857  0.596914  1
  Er  Er1  1  0.061678  0.438017  0.440185  1
  Er  Er2  1  0.437993  0.061709  0.059961  1
  Er  Er3  1  0.437993  0.061709  0.440337  1
  Er  Er4  1  0.061678  0.438017  0.060120  1
  Er  Er5  1  0.437973  0.438402  0.061813  1
  Er  Er6  1  0.059313  0.059379  0.440654  1
  Er  Er7  1  0.187934  0.810336  0.813498  1
  Er  Er8  1  0.810290  0.187910  0.188486  1
  Er  Er9  1  0.810290  0.187910  0.813314  1
  Er  Er10  1  0.187934  0.810336  0.188231  1
  Er  Er11  1  0.811266  0.811460  0.188637  1
  Er  Er12  1  0.187967  0.187813  0.812110  1
  Tm  Tm13  1  0.598200  0.598170  0.597950  1
  Tm  Tm14  1  0.598200  0.598170  0.205678  1
  Tm  Tm15  1  0.596693  0.209690  0.596809  1
  Cd  Cd16  1  0.830269  0.830472  0.830501  1
  Cd  Cd17  1  0.830269  0.830472  0.508757  1
  Cd  Cd18  1  0.830733  0.507655  0.830806  1
  Cd  Cd19  1  0.507657  0.830871  0.830736  1
  Ir  Ir20  1  0.394552  0.826573  0.389437  1
  Ir  Ir21  1  0.826146  0.394085  0.389884  1
  Ru  Ru22  1  0.392828  0.391993  0.387536  1
  Ru  Ru23  1  0.392828  0.391993  0.827643  1
