# generated using pymatgen
data_Tb2Ce2Si3Rh4
_symmetry_space_group_name_H-M   'P 1'
_cell_length_a   10.69724009
_cell_length_b   10.69724072
_cell_length_c   7.86378427
_cell_angle_alpha   71.06538812
_cell_angle_beta   71.06538861
_cell_angle_gamma   29.98221004
_symmetry_Int_Tables_number   1
_chemical_formula_structural   Tb2Ce2Si3Rh4
_chemical_formula_sum   'Tb4 Ce4 Si6 Rh8'
_cell_volume   423.55676450
_cell_formula_units_Z   2
loop_
 _symmetry_equiv_pos_site_id
 _symmetry_equiv_pos_as_xyz
  1  'x, y, z'
loop_
 _atom_site_type_symbol
 _atom_site_label
 _atom_site_symmetry_multiplicity
 _atom_site_fract_x
 _atom_site_fract_y
 _atom_site_fract_z
 _atom_site_occupancy
  Tb  Tb0  1  0.793315  0.547278  0.600314  1
  Tb  Tb1  1  0.452722  0.206685  0.899686  1
  Tb  Tb2  1  0.206685  0.452722  0.399686  1
  Tb  Tb3  1  0.547278  0.793315  0.100314  1
  Ce  Ce4  1  0.791568  0.078429  0.170601  1
  Ce  Ce5  1  0.921571  0.208432  0.329399  1
  Ce  Ce6  1  0.208432  0.921571  0.829399  1
  Ce  Ce7  1  0.078429  0.791568  0.670601  1
  Si  Si8  1  0.950948  0.703953  0.057806  1
  Si  Si9  1  0.296047  0.049052  0.442194  1
  Si  Si10  1  0.049052  0.296047  0.942194  1
  Si  Si11  1  0.703953  0.950948  0.557806  1
  Si  Si12  1  0.650534  0.349466  0.750000  1
  Si  Si13  1  0.349466  0.650534  0.250000  1
  Rh  Rh14  1  0.569588  0.302999  0.518061  1
  Rh  Rh15  1  0.697001  0.430412  0.981939  1
  Rh  Rh16  1  0.430412  0.697001  0.481939  1
  Rh  Rh17  1  0.302999  0.569588  0.018061  1
  Rh  Rh18  1  0.634379  0.925907  0.312263  1
  Rh  Rh19  1  0.074093  0.365621  0.187737  1
  Rh  Rh20  1  0.365621  0.074093  0.687737  1
  Rh  Rh21  1  0.925907  0.634379  0.812263  1
