# generated using pymatgen
data_Li2Hg(SeO4)2
_symmetry_space_group_name_H-M   'P 1'
_cell_length_a   5.22605209
_cell_length_b   8.01951095
_cell_length_c   9.40712900
_cell_angle_alpha   90.00000000
_cell_angle_beta   90.00000000
_cell_angle_gamma   97.94426329
_symmetry_Int_Tables_number   1
_chemical_formula_structural   Li2Hg(SeO4)2
_chemical_formula_sum   'Li4 Hg2 Se4 O16'
_cell_volume   390.47268564
_cell_formula_units_Z   2
loop_
 _symmetry_equiv_pos_site_id
 _symmetry_equiv_pos_as_xyz
  1  'x, y, z'
loop_
 _atom_site_type_symbol
 _atom_site_label
 _atom_site_symmetry_multiplicity
 _atom_site_fract_x
 _atom_site_fract_y
 _atom_site_fract_z
 _atom_site_occupancy
  Li  Li0  1  0.453384  0.388243  0.880778  1
  Li  Li1  1  0.046616  0.111757  0.380778  1
  Li  Li2  1  0.546616  0.611757  0.119222  1
  Li  Li3  1  0.953384  0.888243  0.619222  1
  Hg  Hg4  1  0.500000  0.500000  0.500000  1
  Hg  Hg5  1  0.000000  0.000000  0.000000  1
  Se  Se6  1  0.529519  0.201573  0.196232  1
  Se  Se7  1  0.970481  0.298427  0.696232  1
  Se  Se8  1  0.470481  0.798427  0.803768  1
  Se  Se9  1  0.029519  0.701573  0.303768  1
  O  O10  1  0.521416  0.361806  0.084679  1
  O  O11  1  0.978584  0.138194  0.584679  1
  O  O12  1  0.478584  0.638194  0.915321  1
  O  O13  1  0.021416  0.861806  0.415321  1
  O  O14  1  0.399772  0.238975  0.354331  1
  O  O15  1  0.100228  0.261025  0.854331  1
  O  O16  1  0.600228  0.761025  0.645669  1
  O  O17  1  0.899772  0.738975  0.145669  1
  O  O18  1  0.353512  0.023453  0.133118  1
  O  O19  1  0.146488  0.476547  0.633118  1
  O  O20  1  0.646488  0.976547  0.866882  1
  O  O21  1  0.853512  0.523453  0.366882  1
  O  O22  1  0.831173  0.157513  0.214360  1
  O  O23  1  0.668827  0.342487  0.714360  1
  O  O24  1  0.168827  0.842487  0.785640  1
  O  O25  1  0.331173  0.657513  0.285640  1
