# generated using pymatgen
data_TmTh3ScPb3C
_symmetry_space_group_name_H-M   'P 1'
_cell_length_a   9.24030800
_cell_length_b   9.24030760
_cell_length_c   6.46735400
_cell_angle_alpha   90.00000000
_cell_angle_beta   90.00000000
_cell_angle_gamma   120.00000145
_symmetry_Int_Tables_number   1
_chemical_formula_structural   TmTh3ScPb3C
_chemical_formula_sum   'Tm2 Th6 Sc2 Pb6 C2'
_cell_volume   478.22264220
_cell_formula_units_Z   2
loop_
 _symmetry_equiv_pos_site_id
 _symmetry_equiv_pos_as_xyz
  1  'x, y, z'
loop_
 _atom_site_type_symbol
 _atom_site_label
 _atom_site_symmetry_multiplicity
 _atom_site_fract_x
 _atom_site_fract_y
 _atom_site_fract_z
 _atom_site_occupancy
  Tm  Tm0  1  0.333333  0.666667  0.500000  1
  Tm  Tm1  1  0.666667  0.333333  0.500000  1
  Th  Th2  1  0.778150  0.778150  0.750564  1
  Th  Th3  1  0.221850  0.000000  0.750564  1
  Th  Th4  1  0.000000  0.221850  0.750564  1
  Th  Th5  1  0.221850  0.221850  0.249436  1
  Th  Th6  1  0.778150  0.000000  0.249436  1
  Th  Th7  1  0.000000  0.778150  0.249436  1
  Sc  Sc8  1  0.666667  0.333333  0.000000  1
  Sc  Sc9  1  0.333333  0.666667  0.000000  1
  Pb  Pb10  1  0.409103  0.409103  0.754144  1
  Pb  Pb11  1  0.590897  0.000000  0.754144  1
  Pb  Pb12  1  0.000000  0.590897  0.754144  1
  Pb  Pb13  1  0.590897  0.590897  0.245856  1
  Pb  Pb14  1  0.409103  0.000000  0.245856  1
  Pb  Pb15  1  0.000000  0.409103  0.245856  1
  C  C16  1  0.000000  0.000000  0.000000  1
  C  C17  1  0.000000  0.000000  0.500000  1
