# generated using pymatgen
data_Pr2NdEr(AsPt)4
_symmetry_space_group_name_H-M   'P 1'
_cell_length_a   4.31451600
_cell_length_b   4.31451560
_cell_length_c   16.18071700
_cell_angle_alpha   90.00000000
_cell_angle_beta   90.00000000
_cell_angle_gamma   120.00000306
_symmetry_Int_Tables_number   1
_chemical_formula_structural   Pr2NdEr(AsPt)4
_chemical_formula_sum   'Pr2 Nd1 Er1 As4 Pt4'
_cell_volume   260.85100122
_cell_formula_units_Z   1
loop_
 _symmetry_equiv_pos_site_id
 _symmetry_equiv_pos_as_xyz
  1  'x, y, z'
loop_
 _atom_site_type_symbol
 _atom_site_label
 _atom_site_symmetry_multiplicity
 _atom_site_fract_x
 _atom_site_fract_y
 _atom_site_fract_z
 _atom_site_occupancy
  Pr  Pr0  1  0.000000  0.000000  0.505571  1
  Pr  Pr1  1  0.000000  0.000000  0.994429  1
  Nd  Nd2  1  0.000000  0.000000  0.250000  1
  Er  Er3  1  0.000000  0.000000  0.750000  1
  As  As4  1  0.333333  0.666667  0.877199  1
  As  As5  1  0.666667  0.333333  0.119449  1
  As  As6  1  0.666667  0.333333  0.380551  1
  As  As7  1  0.333333  0.666667  0.622801  1
  Pt  Pt8  1  0.333333  0.666667  0.371393  1
  Pt  Pt9  1  0.666667  0.333333  0.645496  1
  Pt  Pt10  1  0.666667  0.333333  0.854504  1
  Pt  Pt11  1  0.333333  0.666667  0.128607  1
