# generated using pymatgen
data_Np4Re5Si8Os
_symmetry_space_group_name_H-M   'P 1'
_cell_length_a   8.10337895
_cell_length_b   5.64024516
_cell_length_c   6.77538648
_cell_angle_alpha   75.94976418
_cell_angle_beta   90.49130803
_cell_angle_gamma   90.07877221
_symmetry_Int_Tables_number   1
_chemical_formula_structural   Np4Re5Si8Os
_chemical_formula_sum   'Np4 Re5 Si8 Os1'
_cell_volume   300.39390975
_cell_formula_units_Z   1
loop_
 _symmetry_equiv_pos_site_id
 _symmetry_equiv_pos_as_xyz
  1  'x, y, z'
loop_
 _atom_site_type_symbol
 _atom_site_label
 _atom_site_symmetry_multiplicity
 _atom_site_fract_x
 _atom_site_fract_y
 _atom_site_fract_z
 _atom_site_occupancy
  Np  Np0  1  0.943878  0.574889  0.256964  1
  Np  Np1  1  0.441850  0.926264  0.746486  1
  Np  Np2  1  0.056122  0.425111  0.743036  1
  Np  Np3  1  0.558150  0.073736  0.253514  1
  Re  Re4  1  0.293847  0.614423  0.109554  1
  Re  Re5  1  0.791043  0.883521  0.887420  1
  Re  Re6  1  0.706153  0.385577  0.890446  1
  Re  Re7  1  0.208957  0.116479  0.112580  1
  Re  Re8  1  0.000000  0.000000  0.500000  1
  Si  Si9  1  0.595246  0.618509  0.127778  1
  Si  Si10  1  0.094919  0.880703  0.873847  1
  Si  Si11  1  0.404754  0.381491  0.872222  1
  Si  Si12  1  0.905081  0.119297  0.126153  1
  Si  Si13  1  0.750911  0.721067  0.577877  1
  Si  Si14  1  0.251789  0.772703  0.421146  1
  Si  Si15  1  0.249089  0.278933  0.422123  1
  Si  Si16  1  0.748211  0.227297  0.578854  1
  Os  Os17  1  0.500000  0.500000  0.500000  1
