# generated using pymatgen
data_Pr3Nd(AuI6)4
_symmetry_space_group_name_H-M   'P 1'
_cell_length_a   9.01760530
_cell_length_b   11.40605032
_cell_length_c   16.38441600
_cell_angle_alpha   103.13551082
_cell_angle_beta   96.23952716
_cell_angle_gamma   112.48722393
_symmetry_Int_Tables_number   1
_chemical_formula_structural   Pr3Nd(AuI6)4
_chemical_formula_sum   'Pr3 Nd1 Au4 I24'
_cell_volume   1480.08282272
_cell_formula_units_Z   1
loop_
 _symmetry_equiv_pos_site_id
 _symmetry_equiv_pos_as_xyz
  1  'x, y, z'
loop_
 _atom_site_type_symbol
 _atom_site_label
 _atom_site_symmetry_multiplicity
 _atom_site_fract_x
 _atom_site_fract_y
 _atom_site_fract_z
 _atom_site_occupancy
  Pr  Pr0  1  0.576493  0.918222  0.622523  1
  Pr  Pr1  1  0.423264  0.081725  0.377256  1
  Pr  Pr2  1  0.976892  0.311795  0.870970  1
  Nd  Nd3  1  0.023423  0.688213  0.129276  1
  Au  Au4  1  0.293723  0.631795  0.763085  1
  Au  Au5  1  0.706547  0.368603  0.236599  1
  Au  Au6  1  0.499771  0.499760  0.499853  1
  Au  Au7  1  0.000079  0.999761  0.000476  1
  I  I8  1  0.607933  0.735116  0.750558  1
  I  I9  1  0.392540  0.265472  0.249469  1
  I  I10  1  0.275586  0.847215  0.734240  1
  I  I11  1  0.725062  0.153486  0.265724  1
  I  I12  1  0.977001  0.530709  0.771026  1
  I  I13  1  0.023167  0.470407  0.228241  1
  I  I14  1  0.311975  0.412964  0.787467  1
  I  I15  1  0.689070  0.587786  0.212361  1
  I  I16  1  0.688551  0.367144  0.507100  1
  I  I17  1  0.311056  0.632464  0.492721  1
  I  I18  1  0.762039  0.728720  0.527584  1
  I  I19  1  0.237492  0.270739  0.472062  1
  I  I20  1  0.791129  0.111426  0.979628  1
  I  I21  1  0.207980  0.887032  0.021143  1
  I  I22  1  0.768691  0.793565  0.031483  1
  I  I23  1  0.231819  0.205587  0.969296  1
  I  I24  1  0.615551  0.194925  0.744953  1
  I  I25  1  0.383102  0.804867  0.254716  1
  I  I26  1  0.951505  0.051999  0.727505  1
  I  I27  1  0.048343  0.947076  0.271885  1
  I  I28  1  0.730867  0.051352  0.481225  1
  I  I29  1  0.268722  0.948273  0.518429  1
  I  I30  1  0.759593  0.434138  0.977686  1
  I  I31  1  0.241036  0.567664  0.023460  1
