# generated using pymatgen
data_Ba2DyU3S10
_symmetry_space_group_name_H-M   'P 1'
_cell_length_a   7.58356000
_cell_length_b   8.36921220
_cell_length_c   11.85207300
_cell_angle_alpha   89.58061602
_cell_angle_beta   90.00000000
_cell_angle_gamma   90.00000000
_symmetry_Int_Tables_number   1
_chemical_formula_structural   Ba2DyU3S10
_chemical_formula_sum   'Ba4 Dy2 U6 S20'
_cell_volume   752.21222977
_cell_formula_units_Z   2
loop_
 _symmetry_equiv_pos_site_id
 _symmetry_equiv_pos_as_xyz
  1  'x, y, z'
loop_
 _atom_site_type_symbol
 _atom_site_label
 _atom_site_symmetry_multiplicity
 _atom_site_fract_x
 _atom_site_fract_y
 _atom_site_fract_z
 _atom_site_occupancy
  Ba  Ba0  1  0.052608  0.490628  0.330732  1
  Ba  Ba1  1  0.552608  0.509372  0.169268  1
  Ba  Ba2  1  0.945926  0.507578  0.668621  1
  Ba  Ba3  1  0.445926  0.492422  0.831379  1
  Dy  Dy4  1  0.028737  0.997656  0.318117  1
  Dy  Dy5  1  0.528737  0.002344  0.181883  1
  U  U6  1  0.977272  0.000804  0.676787  1
  U  U7  1  0.477272  0.999196  0.823213  1
  U  U8  1  0.060935  0.756720  0.006841  1
  U  U9  1  0.560935  0.243280  0.493159  1
  U  U10  1  0.934200  0.239455  0.994150  1
  U  U11  1  0.434200  0.760545  0.505850  1
  S  S12  1  0.662133  0.958581  0.407617  1
  S  S13  1  0.162133  0.041419  0.092383  1
  S  S14  1  0.338425  0.044025  0.601787  1
  S  S15  1  0.838425  0.955975  0.898213  1
  S  S16  1  0.445387  0.792508  0.999642  1
  S  S17  1  0.945387  0.207492  0.500358  1
  S  S18  1  0.555975  0.207163  0.994157  1
  S  S19  1  0.055975  0.792837  0.505843  1
  S  S20  1  0.843724  0.780205  0.185705  1
  S  S21  1  0.343724  0.219795  0.314295  1
  S  S22  1  0.152735  0.216523  0.810324  1
  S  S23  1  0.652735  0.783477  0.689676  1
  S  S24  1  0.316837  0.775304  0.288956  1
  S  S25  1  0.816837  0.224696  0.211044  1
  S  S26  1  0.683997  0.221113  0.712467  1
  S  S27  1  0.183997  0.778887  0.787533  1
  S  S28  1  0.173997  0.464277  0.068977  1
  S  S29  1  0.673997  0.535723  0.431023  1
  S  S30  1  0.827113  0.535507  0.927664  1
  S  S31  1  0.327113  0.464493  0.572336  1
