# generated using pymatgen
data_Tb2Ho3ErNi2
_symmetry_space_group_name_H-M   'P 1'
_cell_length_a   6.35293406
_cell_length_b   6.83018300
_cell_length_c   9.55116101
_cell_angle_alpha   90.00000000
_cell_angle_beta   90.06483629
_cell_angle_gamma   90.00000000
_symmetry_Int_Tables_number   1
_chemical_formula_structural   Tb2Ho3ErNi2
_chemical_formula_sum   'Tb4 Ho6 Er2 Ni4'
_cell_volume   414.44086892
_cell_formula_units_Z   2
loop_
 _symmetry_equiv_pos_site_id
 _symmetry_equiv_pos_as_xyz
  1  'x, y, z'
loop_
 _atom_site_type_symbol
 _atom_site_label
 _atom_site_symmetry_multiplicity
 _atom_site_fract_x
 _atom_site_fract_y
 _atom_site_fract_z
 _atom_site_occupancy
  Tb  Tb0  1  0.860452  0.533171  0.250194  1
  Tb  Tb1  1  0.639548  0.033171  0.249806  1
  Tb  Tb2  1  0.139222  0.466813  0.749902  1
  Tb  Tb3  1  0.360778  0.966813  0.750098  1
  Ho  Ho4  1  0.678512  0.321854  0.566974  1
  Ho  Ho5  1  0.821488  0.821854  0.933026  1
  Ho  Ho6  1  0.678701  0.322000  0.933154  1
  Ho  Ho7  1  0.821299  0.822000  0.566846  1
  Ho  Ho8  1  0.321503  0.678068  0.433475  1
  Ho  Ho9  1  0.178497  0.178068  0.066525  1
  Er  Er10  1  0.321184  0.678021  0.066522  1
  Er  Er11  1  0.178816  0.178021  0.433478  1
  Ni  Ni12  1  0.055427  0.891497  0.249953  1
  Ni  Ni13  1  0.444573  0.391497  0.250047  1
  Ni  Ni14  1  0.944122  0.108576  0.750332  1
  Ni  Ni15  1  0.555878  0.608576  0.749668  1
