# generated using pymatgen
data_Zr10AgSnBi4
_symmetry_space_group_name_H-M   'P 1'
_cell_length_a   5.67942272
_cell_length_b   8.56258157
_cell_length_c   8.56258132
_cell_angle_alpha   96.31452275
_cell_angle_beta   109.36846112
_cell_angle_gamma   70.63153269
_symmetry_Int_Tables_number   1
_chemical_formula_structural   Zr10AgSnBi4
_chemical_formula_sum   'Zr10 Ag1 Sn1 Bi4'
_cell_volume   370.60415463
_cell_formula_units_Z   1
loop_
 _symmetry_equiv_pos_site_id
 _symmetry_equiv_pos_as_xyz
  1  'x, y, z'
loop_
 _atom_site_type_symbol
 _atom_site_label
 _atom_site_symmetry_multiplicity
 _atom_site_fract_x
 _atom_site_fract_y
 _atom_site_fract_z
 _atom_site_occupancy
  Zr  Zr0  1  0.425110  0.856449  0.705536  1
  Zr  Zr1  1  0.576024  0.143551  0.294464  1
  Zr  Zr2  1  0.923976  0.294464  0.143551  1
  Zr  Zr3  1  0.074890  0.705536  0.856449  1
  Zr  Zr4  1  0.719573  0.705536  0.143551  1
  Zr  Zr5  1  0.281559  0.294464  0.856449  1
  Zr  Zr6  1  0.780427  0.143551  0.705536  1
  Zr  Zr7  1  0.218441  0.856449  0.294464  1
  Zr  Zr8  1  0.250000  0.500000  0.500000  1
  Zr  Zr9  1  0.750000  0.500000  0.500000  1
  Ag  Ag10  1  0.750000  0.000000  0.000000  1
  Sn  Sn11  1  0.250000  0.000000  0.000000  1
  Bi  Bi12  1  0.334918  0.500000  0.169837  1
  Bi  Bi13  1  0.665082  0.500000  0.830163  1
  Bi  Bi14  1  0.834918  0.830163  0.500000  1
  Bi  Bi15  1  0.165082  0.169837  0.500000  1
