# generated using pymatgen
data_Sc10SiAs3Ru2
_symmetry_space_group_name_H-M   'P 1'
_cell_length_a   5.85796000
_cell_length_b   7.77670888
_cell_length_c   7.94695841
_cell_angle_alpha   119.15908459
_cell_angle_beta   90.00000000
_cell_angle_gamma   90.00000000
_symmetry_Int_Tables_number   1
_chemical_formula_structural   Sc10SiAs3Ru2
_chemical_formula_sum   'Sc10 Si1 As3 Ru2'
_cell_volume   316.14902267
_cell_formula_units_Z   1
loop_
 _symmetry_equiv_pos_site_id
 _symmetry_equiv_pos_as_xyz
  1  'x, y, z'
loop_
 _atom_site_type_symbol
 _atom_site_label
 _atom_site_symmetry_multiplicity
 _atom_site_fract_x
 _atom_site_fract_y
 _atom_site_fract_z
 _atom_site_occupancy
  Sc  Sc0  1  0.998276  0.660626  0.326124  1
  Sc  Sc1  1  0.998322  0.337163  0.672228  1
  Sc  Sc2  1  0.501678  0.337163  0.672228  1
  Sc  Sc3  1  0.501724  0.660626  0.326124  1
  Sc  Sc4  1  0.750000  0.741512  0.765625  1
  Sc  Sc5  1  0.250000  0.257231  0.233465  1
  Sc  Sc6  1  0.750000  0.981710  0.235907  1
  Sc  Sc7  1  0.250000  0.023188  0.766178  1
  Sc  Sc8  1  0.750000  0.251221  0.002945  1
  Sc  Sc9  1  0.250000  0.749252  0.999961  1
  Si  Si10  1  0.750000  0.381703  0.390678  1
  As  As11  1  0.250000  0.619419  0.610524  1
  As  As12  1  0.750000  0.990634  0.611694  1
  As  As13  1  0.250000  0.008533  0.388521  1
  Ru  Ru14  1  0.750000  0.591166  0.999596  1
  Ru  Ru15  1  0.250000  0.408854  0.998201  1
