# generated using pymatgen
data_Er9Al(Ni2Bi)2
_symmetry_space_group_name_H-M   'P 1'
_cell_length_a   8.91446812
_cell_length_b   8.91446713
_cell_length_c   8.91446707
_cell_angle_alpha   131.91197757
_cell_angle_beta   131.91198226
_cell_angle_gamma   70.36808148
_symmetry_Int_Tables_number   1
_chemical_formula_structural   Er9Al(Ni2Bi)2
_chemical_formula_sum   'Er9 Al1 Ni4 Bi2'
_cell_volume   384.46264401
_cell_formula_units_Z   1
loop_
 _symmetry_equiv_pos_site_id
 _symmetry_equiv_pos_as_xyz
  1  'x, y, z'
loop_
 _atom_site_type_symbol
 _atom_site_label
 _atom_site_symmetry_multiplicity
 _atom_site_fract_x
 _atom_site_fract_y
 _atom_site_fract_z
 _atom_site_occupancy
  Er  Er0  1  0.500000  0.500000  0.000000  1
  Er  Er1  1  0.809487  0.277360  0.835659  1
  Er  Er2  1  0.190513  0.722640  0.164341  1
  Er  Er3  1  0.441700  0.973827  0.164341  1
  Er  Er4  1  0.277360  0.441700  0.467873  1
  Er  Er5  1  0.026173  0.190513  0.467873  1
  Er  Er6  1  0.558300  0.026173  0.835659  1
  Er  Er7  1  0.722640  0.558300  0.532127  1
  Er  Er8  1  0.973827  0.809487  0.532127  1
  Al  Al9  1  0.000000  0.000000  0.000000  1
  Ni  Ni10  1  0.125184  0.631514  0.756699  1
  Ni  Ni11  1  0.874816  0.368486  0.243301  1
  Ni  Ni12  1  0.631514  0.874816  0.506330  1
  Ni  Ni13  1  0.368486  0.125184  0.493670  1
  Bi  Bi14  1  0.269144  0.269144  0.000000  1
  Bi  Bi15  1  0.730856  0.730856  0.000000  1
