# generated using pymatgen
data_Ac4GaCo3I2
_symmetry_space_group_name_H-M   'P 1'
_cell_length_a   4.24627400
_cell_length_b   4.24627250
_cell_length_c   18.81561200
_cell_angle_alpha   90.00000000
_cell_angle_beta   90.00000000
_cell_angle_gamma   119.99999611
_symmetry_Int_Tables_number   1
_chemical_formula_structural   Ac4GaCo3I2
_chemical_formula_sum   'Ac4 Ga1 Co3 I2'
_cell_volume   293.80884987
_cell_formula_units_Z   1
loop_
 _symmetry_equiv_pos_site_id
 _symmetry_equiv_pos_as_xyz
  1  'x, y, z'
loop_
 _atom_site_type_symbol
 _atom_site_label
 _atom_site_symmetry_multiplicity
 _atom_site_fract_x
 _atom_site_fract_y
 _atom_site_fract_z
 _atom_site_occupancy
  Ac  Ac0  1  0.000000  0.000000  0.101826  1
  Ac  Ac1  1  0.000000  0.000000  0.897729  1
  Ac  Ac2  1  0.000000  0.000000  0.606720  1
  Ac  Ac3  1  0.000000  0.000000  0.394745  1
  Ga  Ga4  1  0.333333  0.666667  0.500513  1
  Co  Co5  1  0.666667  0.333333  0.499354  1
  Co  Co6  1  0.666667  0.333333  0.000016  1
  Co  Co7  1  0.333333  0.666667  0.999778  1
  I  I8  1  0.333333  0.666667  0.248993  1
  I  I9  1  0.666667  0.333333  0.750326  1
