# generated using pymatgen
data_Nd4Sn10IrRh5
_symmetry_space_group_name_H-M   'P 1'
_cell_length_a   13.63122605
_cell_length_b   13.63122556
_cell_length_c   7.36298475
_cell_angle_alpha   89.93995638
_cell_angle_beta   90.06004358
_cell_angle_gamma   161.04745725
_symmetry_Int_Tables_number   1
_chemical_formula_structural   Nd4Sn10IrRh5
_chemical_formula_sum   'Nd4 Sn10 Ir1 Rh5'
_cell_volume   444.34396719
_cell_formula_units_Z   1
loop_
 _symmetry_equiv_pos_site_id
 _symmetry_equiv_pos_as_xyz
  1  'x, y, z'
loop_
 _atom_site_type_symbol
 _atom_site_label
 _atom_site_symmetry_multiplicity
 _atom_site_fract_x
 _atom_site_fract_y
 _atom_site_fract_z
 _atom_site_occupancy
  Nd  Nd0  1  0.172673  0.827327  0.752826  1
  Nd  Nd1  1  0.827000  0.173000  0.252574  1
  Nd  Nd2  1  0.476314  0.523686  0.736338  1
  Nd  Nd3  1  0.524368  0.475632  0.240558  1
  Sn  Sn4  1  0.879706  0.120294  0.731258  1
  Sn  Sn5  1  0.120140  0.879860  0.232793  1
  Sn  Sn6  1  0.704824  0.295176  0.049003  1
  Sn  Sn7  1  0.295348  0.704652  0.549604  1
  Sn  Sn8  1  0.596687  0.403313  0.614988  1
  Sn  Sn9  1  0.403795  0.596205  0.113996  1
  Sn  Sn10  1  0.951387  0.048613  0.400402  1
  Sn  Sn11  1  0.048507  0.951493  0.902163  1
  Sn  Sn12  1  0.289462  0.710538  0.973501  1
  Sn  Sn13  1  0.710518  0.289482  0.473416  1
  Ir  Ir14  1  0.050652  0.949348  0.522433  1
  Rh  Rh15  1  0.948547  0.051453  0.022001  1
  Rh  Rh16  1  0.777744  0.222256  0.762006  1
  Rh  Rh17  1  0.222181  0.777819  0.262058  1
  Rh  Rh18  1  0.393667  0.606333  0.481484  1
  Rh  Rh19  1  0.606478  0.393522  0.982597  1
