# generated using pymatgen
data_K8BaSr3(SiP4)2
_symmetry_space_group_name_H-M   'P 1'
_cell_length_a   9.94694792
_cell_length_b   9.99445008
_cell_length_c   7.58589349
_cell_angle_alpha   89.02588390
_cell_angle_beta   88.40767204
_cell_angle_gamma   118.97709052
_symmetry_Int_Tables_number   1
_chemical_formula_structural   K8BaSr3(SiP4)2
_chemical_formula_sum   'K8 Ba1 Sr3 Si2 P8'
_cell_volume   659.08214964
_cell_formula_units_Z   1
loop_
 _symmetry_equiv_pos_site_id
 _symmetry_equiv_pos_as_xyz
  1  'x, y, z'
loop_
 _atom_site_type_symbol
 _atom_site_label
 _atom_site_symmetry_multiplicity
 _atom_site_fract_x
 _atom_site_fract_y
 _atom_site_fract_z
 _atom_site_occupancy
  K  K0  1  0.050757  0.522873  0.613327  1
  K  K1  1  0.524133  0.052259  0.112932  1
  K  K2  1  0.273368  0.135357  0.826623  1
  K  K3  1  0.868583  0.722773  0.776772  1
  K  K4  1  0.861965  0.149413  0.805083  1
  K  K5  1  0.723702  0.868371  0.276089  1
  K  K6  1  0.134915  0.273953  0.325807  1
  K  K7  1  0.147889  0.860763  0.304684  1
  Ba  Ba8  1  0.472186  0.946661  0.611945  1
  Sr  Sr9  1  0.472186  0.520340  0.614923  1
  Sr  Sr10  1  0.948618  0.474327  0.115228  1
  Sr  Sr11  1  0.522048  0.472450  0.114748  1
  Si  Si12  1  0.667678  0.338574  0.501310  1
  Si  Si13  1  0.336107  0.665318  0.002777  1
  P  P14  1  0.662836  0.345031  0.810443  1
  P  P15  1  0.344278  0.662027  0.308865  1
  P  P16  1  0.588137  0.780141  0.884317  1
  P  P17  1  0.212170  0.411433  0.920078  1
  P  P18  1  0.199494  0.784607  0.912190  1
  P  P19  1  0.411189  0.217214  0.418875  1
  P  P20  1  0.783929  0.585903  0.378810  1
  P  P21  1  0.793833  0.210213  0.401665  1
