# generated using pymatgen
data_PuPa5(Ni3Sb4)2
_symmetry_space_group_name_H-M   'P 1'
_cell_length_a   8.16216938
_cell_length_b   8.16216867
_cell_length_c   8.16216800
_cell_angle_alpha   109.53889278
_cell_angle_beta   109.53889846
_cell_angle_gamma   109.33595438
_symmetry_Int_Tables_number   1
_chemical_formula_structural   PuPa5(Ni3Sb4)2
_chemical_formula_sum   'Pu1 Pa5 Ni6 Sb8'
_cell_volume   418.59399756
_cell_formula_units_Z   1
loop_
 _symmetry_equiv_pos_site_id
 _symmetry_equiv_pos_as_xyz
  1  'x, y, z'
loop_
 _atom_site_type_symbol
 _atom_site_label
 _atom_site_symmetry_multiplicity
 _atom_site_fract_x
 _atom_site_fract_y
 _atom_site_fract_z
 _atom_site_occupancy
  Pu  Pu0  1  0.625006  0.374964  0.250007  1
  Pa  Pa1  1  0.375663  0.251417  0.627387  1
  Pa  Pa2  1  0.123973  0.748459  0.872576  1
  Pa  Pa3  1  0.748699  0.876001  0.124385  1
  Pa  Pa4  1  0.251757  0.624250  0.375611  1
  Pa  Pa5  1  0.875004  0.124897  0.749962  1
  Ni  Ni6  1  0.882312  0.246578  0.117588  1
  Ni  Ni7  1  0.375219  0.625091  0.750172  1
  Ni  Ni8  1  0.628714  0.765005  0.382410  1
  Ni  Ni9  1  0.753609  0.370919  0.636048  1
  Ni  Ni10  1  0.235267  0.117500  0.863935  1
  Ni  Ni11  1  0.124887  0.875127  0.250044  1
  Sb  Sb12  1  0.500088  0.002241  0.835630  1
  Sb  Sb13  1  0.168859  0.165908  0.167601  1
  Sb  Sb14  1  0.834195  0.501894  0.003047  1
  Sb  Sb15  1  0.998636  0.831037  0.496968  1
  Sb  Sb16  1  0.335502  0.499788  0.002234  1
  Sb  Sb17  1  0.997831  0.333476  0.497765  1
  Sb  Sb18  1  0.498160  0.001213  0.332315  1
  Sb  Sb19  1  0.666619  0.664235  0.664315  1
