# generated using pymatgen
data_Y2MgGa6Ni7Ir2
_symmetry_space_group_name_H-M   'P 1'
_cell_length_a   9.09158435
_cell_length_b   9.09158498
_cell_length_c   3.89168700
_cell_angle_alpha   90.00000000
_cell_angle_beta   90.00000000
_cell_angle_gamma   121.03027741
_symmetry_Int_Tables_number   1
_chemical_formula_structural   Y2MgGa6Ni7Ir2
_chemical_formula_sum   'Y2 Mg1 Ga6 Ni7 Ir2'
_cell_volume   275.64155688
_cell_formula_units_Z   1
loop_
 _symmetry_equiv_pos_site_id
 _symmetry_equiv_pos_as_xyz
  1  'x, y, z'
loop_
 _atom_site_type_symbol
 _atom_site_label
 _atom_site_symmetry_multiplicity
 _atom_site_fract_x
 _atom_site_fract_y
 _atom_site_fract_z
 _atom_site_occupancy
  Y  Y0  1  0.325565  0.674435  0.500000  1
  Y  Y1  1  0.674435  0.325565  0.500000  1
  Mg  Mg2  1  0.000000  0.000000  0.000000  1
  Ga  Ga3  1  0.326848  0.326848  0.500000  1
  Ga  Ga4  1  0.691335  0.993541  0.500000  1
  Ga  Ga5  1  0.673152  0.673152  0.500000  1
  Ga  Ga6  1  0.006459  0.308665  0.500000  1
  Ga  Ga7  1  0.993541  0.691335  0.500000  1
  Ga  Ga8  1  0.308665  0.006459  0.500000  1
  Ni  Ni9  1  0.179943  0.347667  0.000000  1
  Ni  Ni10  1  0.820057  0.652333  0.000000  1
  Ni  Ni11  1  0.166769  0.833231  0.000000  1
  Ni  Ni12  1  0.652333  0.820057  0.000000  1
  Ni  Ni13  1  0.347667  0.179943  0.000000  1
  Ni  Ni14  1  0.833231  0.166769  0.000000  1
  Ni  Ni15  1  0.500000  0.500000  0.000000  1
  Ir  Ir16  1  0.500000  0.000000  0.000000  1
  Ir  Ir17  1  0.000000  0.500000  0.000000  1
