# generated using pymatgen
data_CaZnCo4(AsO4)4
_symmetry_space_group_name_H-M   'P 1'
_cell_length_a   8.85393221
_cell_length_b   5.33916557
_cell_length_c   9.22216720
_cell_angle_alpha   60.62548662
_cell_angle_beta   89.99067309
_cell_angle_gamma   90.30105815
_symmetry_Int_Tables_number   1
_chemical_formula_structural   CaZnCo4(AsO4)4
_chemical_formula_sum   'Ca1 Zn1 Co4 As4 O16'
_cell_volume   379.89885064
_cell_formula_units_Z   1
loop_
 _symmetry_equiv_pos_site_id
 _symmetry_equiv_pos_as_xyz
  1  'x, y, z'
loop_
 _atom_site_type_symbol
 _atom_site_label
 _atom_site_symmetry_multiplicity
 _atom_site_fract_x
 _atom_site_fract_y
 _atom_site_fract_z
 _atom_site_occupancy
  Ca  Ca0  1  0.000000  0.500000  0.500000  1
  Zn  Zn1  1  0.500000  0.500000  0.000000  1
  Co  Co2  1  0.140454  0.471297  0.107066  1
  Co  Co3  1  0.633546  0.501580  0.392813  1
  Co  Co4  1  0.859546  0.528703  0.892934  1
  Co  Co5  1  0.366454  0.498420  0.607187  1
  As  As6  1  0.312156  0.839034  0.191867  1
  As  As7  1  0.791304  0.156870  0.291552  1
  As  As8  1  0.687844  0.160966  0.808133  1
  As  As9  1  0.208696  0.843130  0.708448  1
  O  O10  1  0.076124  0.682318  0.867472  1
  O  O11  1  0.570098  0.314311  0.636407  1
  O  O12  1  0.923876  0.317682  0.132528  1
  O  O13  1  0.429902  0.685689  0.363593  1
  O  O14  1  0.208232  0.202556  0.646393  1
  O  O15  1  0.696053  0.797941  0.877283  1
  O  O16  1  0.791768  0.797444  0.353607  1
  O  O17  1  0.303947  0.202059  0.122717  1
  O  O18  1  0.163441  0.790048  0.544857  1
  O  O19  1  0.636914  0.229398  0.965029  1
  O  O20  1  0.138939  0.661962  0.248790  1
  O  O21  1  0.619803  0.337349  0.234924  1
  O  O22  1  0.861061  0.338038  0.751210  1
  O  O23  1  0.380197  0.662651  0.765076  1
  O  O24  1  0.363086  0.770602  0.034971  1
  O  O25  1  0.836559  0.209952  0.455143  1
