# generated using pymatgen
data_Nd2B6Ir4Rh5
_symmetry_space_group_name_H-M   'P 1'
_cell_length_a   5.67438000
_cell_length_b   5.67452962
_cell_length_c   8.59520800
_cell_angle_alpha   90.00000000
_cell_angle_beta   90.00000000
_cell_angle_gamma   119.99912777
_symmetry_Int_Tables_number   1
_chemical_formula_structural   Nd2B6Ir4Rh5
_chemical_formula_sum   'Nd2 B6 Ir4 Rh5'
_cell_volume   239.68404380
_cell_formula_units_Z   1
loop_
 _symmetry_equiv_pos_site_id
 _symmetry_equiv_pos_as_xyz
  1  'x, y, z'
loop_
 _atom_site_type_symbol
 _atom_site_label
 _atom_site_symmetry_multiplicity
 _atom_site_fract_x
 _atom_site_fract_y
 _atom_site_fract_z
 _atom_site_occupancy
  Nd  Nd0  1  0.000000  0.000000  0.704554  1
  Nd  Nd1  1  0.000000  0.000000  0.294693  1
  B  B2  1  0.666007  0.332012  0.000052  1
  B  B3  1  0.333993  0.667988  0.000052  1
  B  B4  1  0.666188  0.332377  0.667602  1
  B  B5  1  0.333812  0.667623  0.667602  1
  B  B6  1  0.333227  0.666455  0.332373  1
  B  B7  1  0.666773  0.333545  0.332373  1
  Ir  Ir8  1  0.500000  0.000000  0.837617  1
  Ir  Ir9  1  0.500000  0.500000  0.499908  1
  Ir  Ir10  1  0.500000  0.000000  0.499194  1
  Ir  Ir11  1  0.000000  0.500000  0.499908  1
  Rh  Rh12  1  0.500000  0.500000  0.837770  1
  Rh  Rh13  1  0.000000  0.500000  0.837770  1
  Rh  Rh14  1  0.500000  0.500000  0.162613  1
  Rh  Rh15  1  0.500000  0.000000  0.163306  1
  Rh  Rh16  1  0.000000  0.500000  0.162613  1
