# generated using pymatgen
data_CuGePS
_symmetry_space_group_name_H-M   'P 1'
_cell_length_a   6.56259902
_cell_length_b   6.56259898
_cell_length_c   6.56259942
_cell_angle_alpha   33.58459730
_cell_angle_beta   33.58459844
_cell_angle_gamma   33.58459701
_symmetry_Int_Tables_number   1
_chemical_formula_structural   CuGePS
_chemical_formula_sum   'Cu1 Ge1 P1 S1'
_cell_volume   77.03774509
_cell_formula_units_Z   1
loop_
 _symmetry_equiv_pos_site_id
 _symmetry_equiv_pos_as_xyz
  1  'x, y, z'
loop_
 _atom_site_type_symbol
 _atom_site_label
 _atom_site_symmetry_multiplicity
 _atom_site_fract_x
 _atom_site_fract_y
 _atom_site_fract_z
 _atom_site_occupancy
  Cu  Cu0  1  0.997975  0.997975  0.997975  1
  Ge  Ge1  1  0.506143  0.506143  0.506143  1
  P  P2  1  0.119203  0.119203  0.119203  1
  S  S3  1  0.626681  0.626681  0.626681  1
