# generated using pymatgen
data_NdMnH5
_symmetry_space_group_name_H-M   'P 1'
_cell_length_a   4.50862400
_cell_length_b   4.47762400
_cell_length_c   11.50874900
_cell_angle_alpha   90.00000000
_cell_angle_beta   90.00000000
_cell_angle_gamma   90.00000000
_symmetry_Int_Tables_number   1
_chemical_formula_structural   NdMnH5
_chemical_formula_sum   'Nd4 Mn4 H20'
_cell_volume   232.33773898
_cell_formula_units_Z   4
loop_
 _symmetry_equiv_pos_site_id
 _symmetry_equiv_pos_as_xyz
  1  'x, y, z'
loop_
 _atom_site_type_symbol
 _atom_site_label
 _atom_site_symmetry_multiplicity
 _atom_site_fract_x
 _atom_site_fract_y
 _atom_site_fract_z
 _atom_site_occupancy
  Nd  Nd0  1  0.249923  0.255090  0.643415  1
  Nd  Nd1  1  0.749923  0.244910  0.356585  1
  Nd  Nd2  1  0.250077  0.744910  0.143415  1
  Nd  Nd3  1  0.750077  0.755090  0.856585  1
  Mn  Mn4  1  0.249738  0.214535  0.923240  1
  Mn  Mn5  1  0.749738  0.285465  0.076760  1
  Mn  Mn6  1  0.250262  0.785465  0.423240  1
  Mn  Mn7  1  0.750262  0.714535  0.576760  1
  H  H8  1  0.484399  0.532354  0.496299  1
  H  H9  1  0.984399  0.967646  0.503701  1
  H  H10  1  0.015601  0.467646  0.996299  1
  H  H11  1  0.515601  0.032354  0.003701  1
  H  H12  1  0.250137  0.910866  0.848771  1
  H  H13  1  0.750137  0.589134  0.151229  1
  H  H14  1  0.249863  0.089134  0.348771  1
  H  H15  1  0.749863  0.410866  0.651229  1
  H  H16  1  0.002667  0.286197  0.824154  1
  H  H17  1  0.502667  0.213803  0.175846  1
  H  H18  1  0.497333  0.713803  0.324154  1
  H  H19  1  0.997333  0.786197  0.675846  1
  H  H20  1  0.496185  0.287361  0.824100  1
  H  H21  1  0.996185  0.212639  0.175900  1
  H  H22  1  0.003815  0.712639  0.324100  1
  H  H23  1  0.503815  0.787361  0.675900  1
  H  H24  1  0.984070  0.032268  0.003780  1
  H  H25  1  0.484070  0.467732  0.996220  1
  H  H26  1  0.515930  0.967732  0.503780  1
  H  H27  1  0.015930  0.532268  0.496220  1
