# generated using pymatgen
data_Ce7PaO16
_symmetry_space_group_name_H-M   'P 1'
_cell_length_a   7.73522900
_cell_length_b   7.73522900
_cell_length_c   5.46941800
_cell_angle_alpha   90.00000000
_cell_angle_beta   90.00000000
_cell_angle_gamma   90.00000000
_symmetry_Int_Tables_number   1
_chemical_formula_structural   Ce7PaO16
_chemical_formula_sum   'Ce7 Pa1 O16'
_cell_volume   327.25588597
_cell_formula_units_Z   1
loop_
 _symmetry_equiv_pos_site_id
 _symmetry_equiv_pos_as_xyz
  1  'x, y, z'
loop_
 _atom_site_type_symbol
 _atom_site_label
 _atom_site_symmetry_multiplicity
 _atom_site_fract_x
 _atom_site_fract_y
 _atom_site_fract_z
 _atom_site_occupancy
  Ce  Ce0  1  0.251028  0.251028  0.500000  1
  Ce  Ce1  1  0.500000  0.000000  0.000000  1
  Ce  Ce2  1  0.748972  0.251028  0.500000  1
  Ce  Ce3  1  0.000000  0.500000  0.000000  1
  Ce  Ce4  1  0.251028  0.748972  0.500000  1
  Ce  Ce5  1  0.500000  0.500000  0.000000  1
  Ce  Ce6  1  0.748972  0.748972  0.500000  1
  Pa  Pa7  1  0.000000  0.000000  0.000000  1
  O  O8  1  0.000000  0.242741  0.244175  1
  O  O9  1  0.242741  0.000000  0.244175  1
  O  O10  1  0.242741  0.000000  0.755825  1
  O  O11  1  0.000000  0.242741  0.755825  1
  O  O12  1  0.500000  0.247549  0.250748  1
  O  O13  1  0.757259  0.000000  0.244175  1
  O  O14  1  0.757259  0.000000  0.755825  1
  O  O15  1  0.500000  0.247549  0.749252  1
  O  O16  1  0.000000  0.757259  0.244175  1
  O  O17  1  0.247549  0.500000  0.250748  1
  O  O18  1  0.247549  0.500000  0.749252  1
  O  O19  1  0.000000  0.757259  0.755825  1
  O  O20  1  0.500000  0.752451  0.250748  1
  O  O21  1  0.752451  0.500000  0.250748  1
  O  O22  1  0.752451  0.500000  0.749252  1
  O  O23  1  0.500000  0.752451  0.749252  1
