# generated using pymatgen
data_NdEr4(FeB3)2
_symmetry_space_group_name_H-M   'P 1'
_cell_length_a   8.25131576
_cell_length_b   8.25131572
_cell_length_c   8.25131504
_cell_angle_alpha   38.24994766
_cell_angle_beta   38.24995122
_cell_angle_gamma   38.24994204
_symmetry_Int_Tables_number   1
_chemical_formula_structural   NdEr4(FeB3)2
_chemical_formula_sum   'Nd1 Er4 Fe2 B6'
_cell_volume   193.36881051
_cell_formula_units_Z   1
loop_
 _symmetry_equiv_pos_site_id
 _symmetry_equiv_pos_as_xyz
  1  'x, y, z'
loop_
 _atom_site_type_symbol
 _atom_site_label
 _atom_site_symmetry_multiplicity
 _atom_site_fract_x
 _atom_site_fract_y
 _atom_site_fract_z
 _atom_site_occupancy
  Nd  Nd0  1  0.000000  0.000000  0.000000  1
  Er  Er1  1  0.582418  0.582418  0.582418  1
  Er  Er2  1  0.417582  0.417582  0.417582  1
  Er  Er3  1  0.750104  0.750104  0.750104  1
  Er  Er4  1  0.249896  0.249896  0.249896  1
  Fe  Fe5  1  0.883681  0.883681  0.883681  1
  Fe  Fe6  1  0.116319  0.116319  0.116319  1
  B  B7  1  0.500000  0.831992  0.168008  1
  B  B8  1  0.168008  0.500000  0.831992  1
  B  B9  1  0.831992  0.168008  0.500000  1
  B  B10  1  0.500000  0.168008  0.831992  1
  B  B11  1  0.831992  0.500000  0.168008  1
  B  B12  1  0.168008  0.831992  0.500000  1
