# generated using pymatgen
data_Li3Ca3HoSi8Ag
_symmetry_space_group_name_H-M   'P 1'
_cell_length_a   3.80880500
_cell_length_b   7.82764047
_cell_length_c   10.47711572
_cell_angle_alpha   90.13174921
_cell_angle_beta   90.00000000
_cell_angle_gamma   90.00000000
_symmetry_Int_Tables_number   1
_chemical_formula_structural   Li3Ca3HoSi8Ag
_chemical_formula_sum   'Li3 Ca3 Ho1 Si8 Ag1'
_cell_volume   312.36344314
_cell_formula_units_Z   1
loop_
 _symmetry_equiv_pos_site_id
 _symmetry_equiv_pos_as_xyz
  1  'x, y, z'
loop_
 _atom_site_type_symbol
 _atom_site_label
 _atom_site_symmetry_multiplicity
 _atom_site_fract_x
 _atom_site_fract_y
 _atom_site_fract_z
 _atom_site_occupancy
  Li  Li0  1  0.750000  0.999487  0.609065  1
  Li  Li1  1  0.250000  0.497959  0.108114  1
  Li  Li2  1  0.750000  0.509318  0.888801  1
  Ca  Ca3  1  0.750000  0.866280  0.135600  1
  Ca  Ca4  1  0.250000  0.635891  0.636757  1
  Ca  Ca5  1  0.750000  0.362360  0.365439  1
  Ho  Ho6  1  0.250000  0.127403  0.865779  1
  Si  Si7  1  0.750000  0.268012  0.061633  1
  Si  Si8  1  0.250000  0.739683  0.931921  1
  Si  Si9  1  0.750000  0.761744  0.435498  1
  Si  Si10  1  0.250000  0.225843  0.573874  1
  Si  Si11  1  0.750000  0.844896  0.823388  1
  Si  Si12  1  0.250000  0.164710  0.169536  1
  Si  Si13  1  0.750000  0.326923  0.683134  1
  Si  Si14  1  0.250000  0.663129  0.323230  1
  Ag  Ag15  1  0.250000  0.006365  0.388230  1
