# generated using pymatgen
data_LiMg3(GePd5)2
_symmetry_space_group_name_H-M   'P 1'
_cell_length_a   4.14942500
_cell_length_b   5.47787382
_cell_length_c   10.72128951
_cell_angle_alpha   90.96642176
_cell_angle_beta   90.00000000
_cell_angle_gamma   90.00000000
_symmetry_Int_Tables_number   1
_chemical_formula_structural   LiMg3(GePd5)2
_chemical_formula_sum   'Li1 Mg3 Ge2 Pd10'
_cell_volume   243.66053013
_cell_formula_units_Z   1
loop_
 _symmetry_equiv_pos_site_id
 _symmetry_equiv_pos_as_xyz
  1  'x, y, z'
loop_
 _atom_site_type_symbol
 _atom_site_label
 _atom_site_symmetry_multiplicity
 _atom_site_fract_x
 _atom_site_fract_y
 _atom_site_fract_z
 _atom_site_occupancy
  Li  Li0  1  0.500000  0.164677  0.141746  1
  Mg  Mg1  1  0.500000  0.838191  0.861350  1
  Mg  Mg2  1  0.500000  0.335986  0.642349  1
  Mg  Mg3  1  0.500000  0.662470  0.354314  1
  Ge  Ge4  1  0.000000  0.000489  0.497713  1
  Ge  Ge5  1  0.000000  0.493096  0.004163  1
  Pd  Pd6  1  0.500000  0.179896  0.391782  1
  Pd  Pd7  1  0.500000  0.819313  0.604073  1
  Pd  Pd8  1  0.500000  0.320451  0.896606  1
  Pd  Pd9  1  0.500000  0.687223  0.104352  1
  Pd  Pd10  1  0.000000  0.411171  0.234934  1
  Pd  Pd11  1  0.000000  0.582406  0.764794  1
  Pd  Pd12  1  0.000000  0.080100  0.737955  1
  Pd  Pd13  1  0.000000  0.917511  0.260919  1
  Pd  Pd14  1  0.000000  0.007443  0.003915  1
  Pd  Pd15  1  0.000000  0.499575  0.499035  1
