# generated using pymatgen
data_Hg13Pb5
_symmetry_space_group_name_H-M   'P 1'
_cell_length_a   16.70755654
_cell_length_b   16.70755588
_cell_length_c   7.48569800
_cell_angle_alpha   95.06599326
_cell_angle_beta   95.06599306
_cell_angle_gamma   14.34502674
_symmetry_Int_Tables_number   1
_chemical_formula_structural   Hg13Pb5
_chemical_formula_sum   'Hg13 Pb5'
_cell_volume   515.65982162
_cell_formula_units_Z   1
loop_
 _symmetry_equiv_pos_site_id
 _symmetry_equiv_pos_as_xyz
  1  'x, y, z'
loop_
 _atom_site_type_symbol
 _atom_site_label
 _atom_site_symmetry_multiplicity
 _atom_site_fract_x
 _atom_site_fract_y
 _atom_site_fract_z
 _atom_site_occupancy
  Hg  Hg0  1  0.111251  0.111251  0.073014  1
  Hg  Hg1  1  0.225626  0.225626  0.103450  1
  Hg  Hg2  1  0.331261  0.331261  0.155913  1
  Hg  Hg3  1  0.444294  0.444294  0.198879  1
  Hg  Hg4  1  0.554445  0.554445  0.296808  1
  Hg  Hg5  1  0.777138  0.777138  0.380310  1
  Hg  Hg6  1  0.000000  0.000000  0.500000  1
  Hg  Hg7  1  0.222862  0.222862  0.619691  1
  Hg  Hg8  1  0.445555  0.445555  0.703192  1
  Hg  Hg9  1  0.555706  0.555706  0.801120  1
  Hg  Hg10  1  0.668738  0.668738  0.844087  1
  Hg  Hg11  1  0.774373  0.774373  0.896549  1
  Hg  Hg12  1  0.888750  0.888750  0.926987  1
  Pb  Pb13  1  0.000000  0.000000  0.000000  1
  Pb  Pb14  1  0.669964  0.669964  0.326925  1
  Pb  Pb15  1  0.890553  0.890553  0.408574  1
  Pb  Pb16  1  0.109447  0.109447  0.591427  1
  Pb  Pb17  1  0.330036  0.330036  0.673075  1
