# generated using pymatgen
data_Yb7HoSi12Pd3Pt
_symmetry_space_group_name_H-M   'P 1'
_cell_length_a   8.22703600
_cell_length_b   8.22703498
_cell_length_c   8.21647200
_cell_angle_alpha   90.00000000
_cell_angle_beta   90.00000000
_cell_angle_gamma   120.00000409
_symmetry_Int_Tables_number   1
_chemical_formula_structural   Yb7HoSi12Pd3Pt
_chemical_formula_sum   'Yb7 Ho1 Si12 Pd3 Pt1'
_cell_volume   481.61802803
_cell_formula_units_Z   1
loop_
 _symmetry_equiv_pos_site_id
 _symmetry_equiv_pos_as_xyz
  1  'x, y, z'
loop_
 _atom_site_type_symbol
 _atom_site_label
 _atom_site_symmetry_multiplicity
 _atom_site_fract_x
 _atom_site_fract_y
 _atom_site_fract_z
 _atom_site_occupancy
  Yb  Yb0  1  0.501003  0.002005  0.249976  1
  Yb  Yb1  1  0.497874  0.995751  0.749946  1
  Yb  Yb2  1  0.997995  0.498997  0.249976  1
  Yb  Yb3  1  0.004249  0.502126  0.749946  1
  Yb  Yb4  1  0.501003  0.498997  0.249976  1
  Yb  Yb5  1  0.497874  0.502126  0.749946  1
  Yb  Yb6  1  0.000000  0.000000  0.250419  1
  Ho  Ho7  1  0.000000  0.000000  0.749387  1
  Si  Si8  1  0.164825  0.329648  0.997995  1
  Si  Si9  1  0.835479  0.670958  0.996294  1
  Si  Si10  1  0.670352  0.835175  0.997995  1
  Si  Si11  1  0.835699  0.671400  0.503811  1
  Si  Si12  1  0.329042  0.164521  0.996294  1
  Si  Si13  1  0.164117  0.328236  0.502616  1
  Si  Si14  1  0.164825  0.835175  0.997995  1
  Si  Si15  1  0.328600  0.164301  0.503811  1
  Si  Si16  1  0.835479  0.164521  0.996294  1
  Si  Si17  1  0.671764  0.835883  0.502616  1
  Si  Si18  1  0.835699  0.164301  0.503811  1
  Si  Si19  1  0.164117  0.835883  0.502616  1
  Pd  Pd20  1  0.666667  0.333333  0.994776  1
  Pd  Pd21  1  0.666667  0.333333  0.505593  1
  Pd  Pd22  1  0.333333  0.666667  0.494674  1
  Pt  Pt23  1  0.333333  0.666667  0.003228  1
