# generated using pymatgen
data_Dy9Ho3Tc4
_symmetry_space_group_name_H-M   'P 1'
_cell_length_a   6.27844507
_cell_length_b   7.39544728
_cell_length_c   9.16276200
_cell_angle_alpha   89.95941891
_cell_angle_beta   90.12130923
_cell_angle_gamma   90.03570082
_symmetry_Int_Tables_number   1
_chemical_formula_structural   Dy9Ho3Tc4
_chemical_formula_sum   'Dy9 Ho3 Tc4'
_cell_volume   425.44339398
_cell_formula_units_Z   1
loop_
 _symmetry_equiv_pos_site_id
 _symmetry_equiv_pos_as_xyz
  1  'x, y, z'
loop_
 _atom_site_type_symbol
 _atom_site_label
 _atom_site_symmetry_multiplicity
 _atom_site_fract_x
 _atom_site_fract_y
 _atom_site_fract_z
 _atom_site_occupancy
  Dy  Dy0  1  0.338193  0.676236  0.063238  1
  Dy  Dy1  1  0.161141  0.176523  0.437095  1
  Dy  Dy2  1  0.661700  0.323870  0.562470  1
  Dy  Dy3  1  0.838694  0.823792  0.937070  1
  Dy  Dy4  1  0.660230  0.324191  0.937277  1
  Dy  Dy5  1  0.872402  0.542193  0.250671  1
  Dy  Dy6  1  0.627718  0.041955  0.250004  1
  Dy  Dy7  1  0.127951  0.458093  0.749716  1
  Dy  Dy8  1  0.371423  0.957345  0.749450  1
  Ho  Ho9  1  0.840007  0.824425  0.562576  1
  Ho  Ho10  1  0.339748  0.675446  0.437681  1
  Ho  Ho11  1  0.160755  0.175446  0.062619  1
  Tc  Tc12  1  0.040384  0.886423  0.251670  1
  Tc  Tc13  1  0.459117  0.386276  0.249178  1
  Tc  Tc14  1  0.960890  0.113625  0.751310  1
  Tc  Tc15  1  0.539649  0.614163  0.747973  1
