# generated using pymatgen
data_RbNb2TcTe3
_symmetry_space_group_name_H-M   'P 1'
_cell_length_a   10.28497313
_cell_length_b   4.73371800
_cell_length_c   10.16163855
_cell_angle_alpha   90.00000000
_cell_angle_beta   121.15471714
_cell_angle_gamma   90.00000000
_symmetry_Int_Tables_number   1
_chemical_formula_structural   RbNb2TcTe3
_chemical_formula_sum   'Rb2 Nb4 Tc2 Te6'
_cell_volume   423.37779224
_cell_formula_units_Z   2
loop_
 _symmetry_equiv_pos_site_id
 _symmetry_equiv_pos_as_xyz
  1  'x, y, z'
loop_
 _atom_site_type_symbol
 _atom_site_label
 _atom_site_symmetry_multiplicity
 _atom_site_fract_x
 _atom_site_fract_y
 _atom_site_fract_z
 _atom_site_occupancy
  Rb  Rb0  1  0.170519  0.750000  0.334940  1
  Rb  Rb1  1  0.837300  0.250001  0.667269  1
  Nb  Nb2  1  0.628118  0.250001  0.154907  1
  Nb  Nb3  1  0.371615  0.750000  0.845362  1
  Nb  Nb4  1  0.533008  0.250001  0.848022  1
  Nb  Nb5  1  0.316836  0.250001  0.972068  1
  Tc  Tc6  1  0.667379  0.750000  0.026666  1
  Tc  Tc7  1  0.469322  0.750000  0.139378  1
  Te  Te8  1  0.854037  0.250001  0.063857  1
  Te  Te9  1  0.448544  0.250001  0.300525  1
  Te  Te10  1  0.780136  0.750000  0.339057  1
  Te  Te11  1  0.203600  0.250001  0.644750  1
  Te  Te12  1  0.567907  0.750000  0.712281  1
  Te  Te13  1  0.151679  0.750000  0.950918  1
