# generated using pymatgen
data_TmLu(PaAl5)3
_symmetry_space_group_name_H-M   'P 1'
_cell_length_a   12.59671989
_cell_length_b   12.59671952
_cell_length_c   12.59672000
_cell_angle_alpha   28.08510282
_cell_angle_beta   28.08510599
_cell_angle_gamma   28.08510788
_symmetry_Int_Tables_number   1
_chemical_formula_structural   TmLu(PaAl5)3
_chemical_formula_sum   'Tm1 Lu1 Pa3 Al15'
_cell_volume   391.33092242
_cell_formula_units_Z   1
loop_
 _symmetry_equiv_pos_site_id
 _symmetry_equiv_pos_as_xyz
  1  'x, y, z'
loop_
 _atom_site_type_symbol
 _atom_site_label
 _atom_site_symmetry_multiplicity
 _atom_site_fract_x
 _atom_site_fract_y
 _atom_site_fract_z
 _atom_site_occupancy
  Tm  Tm0  1  0.999636  0.999636  0.999636  1
  Lu  Lu1  1  0.599444  0.599444  0.599444  1
  Pa  Pa2  1  0.130970  0.130970  0.130970  1
  Pa  Pa3  1  0.869277  0.869277  0.869277  1
  Pa  Pa4  1  0.400815  0.400815  0.400815  1
  Al  Al5  1  0.132769  0.635327  0.635327  1
  Al  Al6  1  0.635327  0.635327  0.132769  1
  Al  Al7  1  0.635327  0.132769  0.635327  1
  Al  Al8  1  0.365119  0.871758  0.365119  1
  Al  Al9  1  0.365119  0.365119  0.871758  1
  Al  Al10  1  0.871758  0.365119  0.365119  1
  Al  Al11  1  0.427742  0.883705  0.883705  1
  Al  Al12  1  0.883705  0.883705  0.427742  1
  Al  Al13  1  0.883705  0.427742  0.883705  1
  Al  Al14  1  0.116125  0.569629  0.116125  1
  Al  Al15  1  0.116125  0.116125  0.569629  1
  Al  Al16  1  0.569629  0.116125  0.116125  1
  Al  Al17  1  0.497843  0.497843  0.001721  1
  Al  Al18  1  0.497843  0.001721  0.497843  1
  Al  Al19  1  0.001721  0.497843  0.497843  1
