# generated using pymatgen
data_Np2V(Fe3P2)3
_symmetry_space_group_name_H-M   'P 1'
_cell_length_a   3.59351800
_cell_length_b   10.20386200
_cell_length_c   11.71567500
_cell_angle_alpha   90.00000000
_cell_angle_beta   90.00000000
_cell_angle_gamma   90.00000000
_symmetry_Int_Tables_number   1
_chemical_formula_structural   Np2V(Fe3P2)3
_chemical_formula_sum   'Np4 V2 Fe18 P12'
_cell_volume   429.58757983
_cell_formula_units_Z   2
loop_
 _symmetry_equiv_pos_site_id
 _symmetry_equiv_pos_as_xyz
  1  'x, y, z'
loop_
 _atom_site_type_symbol
 _atom_site_label
 _atom_site_symmetry_multiplicity
 _atom_site_fract_x
 _atom_site_fract_y
 _atom_site_fract_z
 _atom_site_occupancy
  Np  Np0  1  0.250000  0.578636  0.700619  1
  Np  Np1  1  0.250000  0.921364  0.200619  1
  Np  Np2  1  0.750000  0.420167  0.293329  1
  Np  Np3  1  0.750000  0.079833  0.793329  1
  V  V4  1  0.250000  0.699847  0.994287  1
  V  V5  1  0.250000  0.800153  0.494287  1
  Fe  Fe6  1  0.750000  0.295953  0.007202  1
  Fe  Fe7  1  0.750000  0.204047  0.507202  1
  Fe  Fe8  1  0.250000  0.402769  0.485096  1
  Fe  Fe9  1  0.250000  0.097231  0.985096  1
  Fe  Fe10  1  0.750000  0.591795  0.522667  1
  Fe  Fe11  1  0.750000  0.908205  0.022667  1
  Fe  Fe12  1  0.250000  0.222433  0.171300  1
  Fe  Fe13  1  0.250000  0.277567  0.671300  1
  Fe  Fe14  1  0.750000  0.785095  0.830332  1
  Fe  Fe15  1  0.750000  0.714905  0.330332  1
  Fe  Fe16  1  0.250000  0.887080  0.702811  1
  Fe  Fe17  1  0.250000  0.612920  0.202811  1
  Fe  Fe18  1  0.750000  0.119359  0.298694  1
  Fe  Fe19  1  0.750000  0.380641  0.798694  1
  Fe  Fe20  1  0.250000  0.462823  0.929592  1
  Fe  Fe21  1  0.250000  0.037177  0.429592  1
  Fe  Fe22  1  0.750000  0.532480  0.064700  1
  Fe  Fe23  1  0.750000  0.967520  0.564700  1
  P  P24  1  0.250000  0.419184  0.109955  1
  P  P25  1  0.250000  0.080816  0.609955  1
  P  P26  1  0.750000  0.581604  0.883323  1
  P  P27  1  0.750000  0.918396  0.383323  1
  P  P28  1  0.250000  0.267189  0.863251  1
  P  P29  1  0.250000  0.232811  0.363251  1
  P  P30  1  0.750000  0.725672  0.141755  1
  P  P31  1  0.750000  0.774328  0.641755  1
  P  P32  1  0.250000  0.598704  0.395218  1
  P  P33  1  0.250000  0.901296  0.895218  1
  P  P34  1  0.750000  0.388813  0.605866  1
  P  P35  1  0.750000  0.111187  0.105866  1
