# generated using pymatgen
data_SmEuBO4
_symmetry_space_group_name_H-M   'P 1'
_cell_length_a   3.75607200
_cell_length_b   9.82000900
_cell_length_c   10.97379200
_cell_angle_alpha   90.00000000
_cell_angle_beta   90.00000000
_cell_angle_gamma   90.00000000
_symmetry_Int_Tables_number   1
_chemical_formula_structural   SmEuBO4
_chemical_formula_sum   'Sm4 Eu4 B4 O16'
_cell_volume   404.76459610
_cell_formula_units_Z   4
loop_
 _symmetry_equiv_pos_site_id
 _symmetry_equiv_pos_as_xyz
  1  'x, y, z'
loop_
 _atom_site_type_symbol
 _atom_site_label
 _atom_site_symmetry_multiplicity
 _atom_site_fract_x
 _atom_site_fract_y
 _atom_site_fract_z
 _atom_site_occupancy
  Sm  Sm0  1  0.250000  0.086077  0.112238  1
  Sm  Sm1  1  0.750000  0.913923  0.887762  1
  Sm  Sm2  1  0.750000  0.586077  0.387762  1
  Sm  Sm3  1  0.250000  0.413923  0.612238  1
  Eu  Eu4  1  0.250000  0.658546  0.079885  1
  Eu  Eu5  1  0.750000  0.341454  0.920115  1
  Eu  Eu6  1  0.750000  0.158546  0.420115  1
  Eu  Eu7  1  0.250000  0.841454  0.579885  1
  B  B8  1  0.250000  0.365523  0.206450  1
  B  B9  1  0.750000  0.634477  0.793550  1
  B  B10  1  0.750000  0.865523  0.293550  1
  B  B11  1  0.250000  0.134477  0.706450  1
  O  O12  1  0.250000  0.493753  0.259071  1
  O  O13  1  0.750000  0.506247  0.740929  1
  O  O14  1  0.750000  0.993753  0.240929  1
  O  O15  1  0.250000  0.006247  0.759071  1
  O  O16  1  0.250000  0.246908  0.276768  1
  O  O17  1  0.750000  0.753092  0.723232  1
  O  O18  1  0.750000  0.746908  0.223232  1
  O  O19  1  0.250000  0.253092  0.776768  1
  O  O20  1  0.250000  0.352929  0.078423  1
  O  O21  1  0.750000  0.647071  0.921577  1
  O  O22  1  0.750000  0.852929  0.421577  1
  O  O23  1  0.250000  0.147071  0.578423  1
  O  O24  1  0.250000  0.615467  0.503671  1
  O  O25  1  0.750000  0.384533  0.496329  1
  O  O26  1  0.750000  0.115467  0.996329  1
  O  O27  1  0.250000  0.884533  0.003671  1
