# generated using pymatgen
data_EuDy3Co(Si2Pt)5
_symmetry_space_group_name_H-M   'P 1'
_cell_length_a   5.97414281
_cell_length_b   8.14738702
_cell_length_c   8.15126743
_cell_angle_alpha   75.66246179
_cell_angle_beta   68.50285260
_cell_angle_gamma   68.49210032
_symmetry_Int_Tables_number   1
_chemical_formula_structural   EuDy3Co(Si2Pt)5
_chemical_formula_sum   'Eu1 Dy3 Co1 Si10 Pt5'
_cell_volume   340.49361086
_cell_formula_units_Z   1
loop_
 _symmetry_equiv_pos_site_id
 _symmetry_equiv_pos_as_xyz
  1  'x, y, z'
loop_
 _atom_site_type_symbol
 _atom_site_label
 _atom_site_symmetry_multiplicity
 _atom_site_fract_x
 _atom_site_fract_y
 _atom_site_fract_z
 _atom_site_occupancy
  Eu  Eu0  1  0.870479  0.864349  0.394693  1
  Dy  Dy1  1  0.130097  0.136856  0.602950  1
  Dy  Dy2  1  0.370646  0.398321  0.860390  1
  Dy  Dy3  1  0.630528  0.601495  0.137448  1
  Co  Co4  1  0.862839  0.521271  0.753053  1
  Si  Si5  1  0.223018  0.501649  0.514893  1
  Si  Si6  1  0.760440  0.501649  0.514893  1
  Si  Si7  1  0.018276  0.229702  0.227145  1
  Si  Si8  1  0.502841  0.756020  0.769982  1
  Si  Si9  1  0.971157  0.756020  0.769982  1
  Si  Si10  1  0.524877  0.229702  0.227145  1
  Si  Si11  1  0.611623  0.040638  0.736116  1
  Si  Si12  1  0.389335  0.958468  0.262862  1
  Si  Si13  1  0.113602  0.737631  0.035167  1
  Si  Si14  1  0.888366  0.276115  0.947152  1
  Pt  Pt15  1  0.248510  0.003940  0.996248  1
  Pt  Pt16  1  0.751303  0.003940  0.996248  1
  Pt  Pt17  1  0.631248  0.258227  0.479276  1
  Pt  Pt18  1  0.363115  0.747475  0.526297  1
  Pt  Pt19  1  0.137703  0.476533  0.248062  1
