# generated using pymatgen
data_Li2Pa2Ge6Rh7
_symmetry_space_group_name_H-M   'P 1'
_cell_length_a   7.11819169
_cell_length_b   7.11819094
_cell_length_c   7.17347115
_cell_angle_alpha   109.33330819
_cell_angle_beta   109.33330494
_cell_angle_gamma   109.43467501
_symmetry_Int_Tables_number   1
_chemical_formula_structural   Li2Pa2Ge6Rh7
_chemical_formula_sum   'Li2 Pa2 Ge6 Rh7'
_cell_volume   280.87265870
_cell_formula_units_Z   1
loop_
 _symmetry_equiv_pos_site_id
 _symmetry_equiv_pos_as_xyz
  1  'x, y, z'
loop_
 _atom_site_type_symbol
 _atom_site_label
 _atom_site_symmetry_multiplicity
 _atom_site_fract_x
 _atom_site_fract_y
 _atom_site_fract_z
 _atom_site_occupancy
  Li  Li0  1  0.500000  0.500000  0.500000  1
  Li  Li1  1  0.000000  0.000000  0.500000  1
  Pa  Pa2  1  0.000000  0.500000  0.000000  1
  Pa  Pa3  1  0.500000  0.000000  0.000000  1
  Ge  Ge4  1  0.687835  0.978422  0.666257  1
  Ge  Ge5  1  0.688668  0.688668  0.000000  1
  Ge  Ge6  1  0.311332  0.311332  0.000000  1
  Ge  Ge7  1  0.978422  0.687835  0.666257  1
  Ge  Ge8  1  0.021578  0.312165  0.333743  1
  Ge  Ge9  1  0.312165  0.021578  0.333743  1
  Rh  Rh10  1  0.748603  0.496213  0.244816  1
  Rh  Rh11  1  0.503787  0.251397  0.755184  1
  Rh  Rh12  1  0.750000  0.250000  0.500000  1
  Rh  Rh13  1  0.250000  0.750000  0.500000  1
  Rh  Rh14  1  0.251397  0.503787  0.755184  1
  Rh  Rh15  1  0.496213  0.748603  0.244816  1
  Rh  Rh16  1  0.000000  0.000000  0.000000  1
