# generated using pymatgen
data_Tb3V4P6Rh5
_symmetry_space_group_name_H-M   'P 1'
_cell_length_a   3.86198800
_cell_length_b   10.86642900
_cell_length_c   13.30910700
_cell_angle_alpha   90.00000000
_cell_angle_beta   90.00000000
_cell_angle_gamma   90.00000000
_symmetry_Int_Tables_number   1
_chemical_formula_structural   Tb3V4P6Rh5
_chemical_formula_sum   'Tb6 V8 P12 Rh10'
_cell_volume   558.53022926
_cell_formula_units_Z   2
loop_
 _symmetry_equiv_pos_site_id
 _symmetry_equiv_pos_as_xyz
  1  'x, y, z'
loop_
 _atom_site_type_symbol
 _atom_site_label
 _atom_site_symmetry_multiplicity
 _atom_site_fract_x
 _atom_site_fract_y
 _atom_site_fract_z
 _atom_site_occupancy
  Tb  Tb0  1  0.000000  0.500000  0.516912  1
  Tb  Tb1  1  0.500000  0.000000  0.483088  1
  Tb  Tb2  1  0.500000  0.818172  0.211153  1
  Tb  Tb3  1  0.500000  0.181828  0.211153  1
  Tb  Tb4  1  0.000000  0.681828  0.788847  1
  Tb  Tb5  1  0.000000  0.318172  0.788847  1
  V  V6  1  0.500000  0.500000  0.163912  1
  V  V7  1  0.000000  0.000000  0.836088  1
  V  V8  1  0.000000  0.500000  0.989533  1
  V  V9  1  0.500000  0.000000  0.010467  1
  V  V10  1  0.500000  0.332633  0.998750  1
  V  V11  1  0.500000  0.667367  0.998750  1
  V  V12  1  0.000000  0.167367  0.001250  1
  V  V13  1  0.000000  0.832633  0.001250  1
  P  P14  1  0.500000  0.500000  0.875798  1
  P  P15  1  0.000000  0.000000  0.124202  1
  P  P16  1  0.500000  0.500000  0.347989  1
  P  P17  1  0.000000  0.000000  0.652011  1
  P  P18  1  0.500000  0.314300  0.614507  1
  P  P19  1  0.500000  0.685700  0.614507  1
  P  P20  1  0.000000  0.185700  0.385493  1
  P  P21  1  0.000000  0.814300  0.385493  1
  P  P22  1  0.500000  0.845277  0.882667  1
  P  P23  1  0.500000  0.154723  0.882667  1
  P  P24  1  0.000000  0.654723  0.117333  1
  P  P25  1  0.000000  0.345277  0.117333  1
  Rh  Rh26  1  0.500000  0.500000  0.698162  1
  Rh  Rh27  1  0.000000  0.000000  0.301838  1
  Rh  Rh28  1  0.500000  0.295019  0.433534  1
  Rh  Rh29  1  0.500000  0.704981  0.433534  1
  Rh  Rh30  1  0.000000  0.204981  0.566466  1
  Rh  Rh31  1  0.000000  0.795019  0.566466  1
  Rh  Rh32  1  0.500000  0.874545  0.705822  1
  Rh  Rh33  1  0.500000  0.125455  0.705822  1
  Rh  Rh34  1  0.000000  0.625455  0.294178  1
  Rh  Rh35  1  0.000000  0.374545  0.294178  1
