# generated using pymatgen
data_DyEr19(Cd3Ru)2
_symmetry_space_group_name_H-M   'P 1'
_cell_length_a   9.49223003
_cell_length_b   9.49223135
_cell_length_c   9.77501000
_cell_angle_alpha   90.00000000
_cell_angle_beta   90.00000000
_cell_angle_gamma   120.00870356
_symmetry_Int_Tables_number   1
_chemical_formula_structural   DyEr19(Cd3Ru)2
_chemical_formula_sum   'Dy1 Er19 Cd6 Ru2'
_cell_volume   762.68694924
_cell_formula_units_Z   1
loop_
 _symmetry_equiv_pos_site_id
 _symmetry_equiv_pos_as_xyz
  1  'x, y, z'
loop_
 _atom_site_type_symbol
 _atom_site_label
 _atom_site_symmetry_multiplicity
 _atom_site_fract_x
 _atom_site_fract_y
 _atom_site_fract_z
 _atom_site_occupancy
  Dy  Dy0  1  0.541038  0.458962  0.250000  1
  Er  Er1  1  0.999975  0.000025  0.500030  1
  Er  Er2  1  0.999975  0.000025  0.999970  1
  Er  Er3  1  0.210055  0.789945  0.440888  1
  Er  Er4  1  0.209727  0.420107  0.441038  1
  Er  Er5  1  0.579893  0.790273  0.441038  1
  Er  Er6  1  0.789977  0.210023  0.559274  1
  Er  Er7  1  0.790163  0.579923  0.559386  1
  Er  Er8  1  0.420077  0.209837  0.559386  1
  Er  Er9  1  0.789977  0.210023  0.940726  1
  Er  Er10  1  0.790163  0.579923  0.940614  1
  Er  Er11  1  0.420077  0.209837  0.940614  1
  Er  Er12  1  0.210055  0.789945  0.059112  1
  Er  Er13  1  0.209727  0.420107  0.058962  1
  Er  Er14  1  0.579893  0.790273  0.058962  1
  Er  Er15  1  0.540960  0.081566  0.250000  1
  Er  Er16  1  0.918434  0.459040  0.250000  1
  Er  Er17  1  0.459077  0.540923  0.750000  1
  Er  Er18  1  0.459110  0.918116  0.750000  1
  Er  Er19  1  0.081884  0.540890  0.750000  1
  Cd  Cd20  1  0.885315  0.114685  0.250000  1
  Cd  Cd21  1  0.885872  0.771105  0.250000  1
  Cd  Cd22  1  0.228895  0.114128  0.250000  1
  Cd  Cd23  1  0.114657  0.885343  0.750000  1
  Cd  Cd24  1  0.114542  0.229361  0.750000  1
  Cd  Cd25  1  0.770639  0.885458  0.750000  1
  Ru  Ru26  1  0.333234  0.666766  0.250000  1
  Ru  Ru27  1  0.666607  0.333393  0.750000  1
