# generated using pymatgen
data_DyLu(WN2)2
_symmetry_space_group_name_H-M   'P 1'
_cell_length_a   3.18280400
_cell_length_b   5.68443900
_cell_length_c   10.50879500
_cell_angle_alpha   90.00000000
_cell_angle_beta   90.00000000
_cell_angle_gamma   90.00000000
_symmetry_Int_Tables_number   1
_chemical_formula_structural   DyLu(WN2)2
_chemical_formula_sum   'Dy2 Lu2 W4 N8'
_cell_volume   190.12990261
_cell_formula_units_Z   2
loop_
 _symmetry_equiv_pos_site_id
 _symmetry_equiv_pos_as_xyz
  1  'x, y, z'
loop_
 _atom_site_type_symbol
 _atom_site_label
 _atom_site_symmetry_multiplicity
 _atom_site_fract_x
 _atom_site_fract_y
 _atom_site_fract_z
 _atom_site_occupancy
  Dy  Dy0  1  0.750000  0.420135  0.644488  1
  Dy  Dy1  1  0.750000  0.920135  0.855512  1
  Lu  Lu2  1  0.250000  0.578605  0.353706  1
  Lu  Lu3  1  0.250000  0.078605  0.146294  1
  W  W4  1  0.250000  0.932093  0.594346  1
  W  W5  1  0.250000  0.432093  0.905654  1
  W  W6  1  0.750000  0.067517  0.403800  1
  W  W7  1  0.750000  0.567517  0.096200  1
  N  N8  1  0.250000  0.665462  0.749266  1
  N  N9  1  0.250000  0.165462  0.750734  1
  N  N10  1  0.750000  0.336070  0.252434  1
  N  N11  1  0.750000  0.836070  0.247566  1
  N  N12  1  0.250000  0.265006  0.490664  1
  N  N13  1  0.250000  0.765006  0.009336  1
  N  N14  1  0.750000  0.735111  0.503002  1
  N  N15  1  0.750000  0.235111  0.996998  1
