# generated using pymatgen
data_LaNd3(Si4Ni7)2
_symmetry_space_group_name_H-M   'P 1'
_cell_length_a   3.82267100
_cell_length_b   9.26625124
_cell_length_c   10.67589750
_cell_angle_alpha   89.72446861
_cell_angle_beta   90.00000000
_cell_angle_gamma   90.00000000
_symmetry_Int_Tables_number   1
_chemical_formula_structural   LaNd3(Si4Ni7)2
_chemical_formula_sum   'La1 Nd3 Si8 Ni14'
_cell_volume   378.15545280
_cell_formula_units_Z   1
loop_
 _symmetry_equiv_pos_site_id
 _symmetry_equiv_pos_as_xyz
  1  'x, y, z'
loop_
 _atom_site_type_symbol
 _atom_site_label
 _atom_site_symmetry_multiplicity
 _atom_site_fract_x
 _atom_site_fract_y
 _atom_site_fract_z
 _atom_site_occupancy
  La  La0  1  0.500000  0.444118  0.511477  1
  Nd  Nd1  1  0.500000  0.065154  0.279867  1
  Nd  Nd2  1  0.000000  0.935583  0.779702  1
  Nd  Nd3  1  0.000000  0.558300  0.012125  1
  Si  Si4  1  0.000000  0.815837  0.277482  1
  Si  Si5  1  0.000000  0.179730  0.469411  1
  Si  Si6  1  0.500000  0.185466  0.777107  1
  Si  Si7  1  0.000000  0.163022  0.086532  1
  Si  Si8  1  0.500000  0.478299  0.226992  1
  Si  Si9  1  0.500000  0.818207  0.969302  1
  Si  Si10  1  0.500000  0.836320  0.587519  1
  Si  Si11  1  0.000000  0.520437  0.732768  1
  Ni  Ni12  1  0.500000  0.311785  0.070235  1
  Ni  Ni13  1  0.500000  0.743919  0.397838  1
  Ni  Ni14  1  0.500000  0.418897  0.824407  1
  Ni  Ni15  1  0.500000  0.070824  0.974722  1
  Ni  Ni16  1  0.500000  0.680318  0.764285  1
  Ni  Ni17  1  0.000000  0.268450  0.668462  1
  Ni  Ni18  1  0.000000  0.257513  0.897301  1
  Ni  Ni19  1  0.000000  0.688969  0.574502  1
  Ni  Ni20  1  0.500000  0.089560  0.576008  1
  Ni  Ni21  1  0.000000  0.319902  0.259974  1
  Ni  Ni22  1  0.000000  0.581078  0.317651  1
  Ni  Ni23  1  0.000000  0.909179  0.075322  1
  Ni  Ni24  1  0.000000  0.928061  0.475052  1
  Ni  Ni25  1  0.500000  0.731073  0.169359  1
