# generated using pymatgen
data_La13Dy3Cd4(RuPt)2
_symmetry_space_group_name_H-M   'P 1'
_cell_length_a   10.04261130
_cell_length_b   10.04261118
_cell_length_c   10.01783209
_cell_angle_alpha   59.92180267
_cell_angle_beta   59.92180388
_cell_angle_gamma   60.77267541
_symmetry_Int_Tables_number   1
_chemical_formula_structural   La13Dy3Cd4(RuPt)2
_chemical_formula_sum   'La13 Dy3 Cd4 Ru2 Pt2'
_cell_volume   717.63507072
_cell_formula_units_Z   1
loop_
 _symmetry_equiv_pos_site_id
 _symmetry_equiv_pos_as_xyz
  1  'x, y, z'
loop_
 _atom_site_type_symbol
 _atom_site_label
 _atom_site_symmetry_multiplicity
 _atom_site_fract_x
 _atom_site_fract_y
 _atom_site_fract_z
 _atom_site_occupancy
  La  La0  1  0.446978  0.063279  0.061111  1
  La  La1  1  0.309711  0.689648  0.311307  1
  La  La2  1  0.690689  0.690689  0.306050  1
  La  La3  1  0.689648  0.309711  0.311307  1
  La  La4  1  0.297060  0.890334  0.904760  1
  La  La5  1  0.890334  0.297060  0.904760  1
  La  La6  1  0.307116  0.689390  0.692129  1
  La  La7  1  0.901062  0.901062  0.293373  1
  La  La8  1  0.063279  0.446978  0.061111  1
  La  La9  1  0.308559  0.308559  0.692599  1
  La  La10  1  0.064301  0.444490  0.430621  1
  La  La11  1  0.444490  0.064301  0.430621  1
  La  La12  1  0.689390  0.307116  0.692129  1
  Dy  Dy13  1  0.903418  0.903418  0.903060  1
  Dy  Dy14  1  0.441704  0.441704  0.059436  1
  Dy  Dy15  1  0.055866  0.055866  0.444991  1
  Cd  Cd16  1  0.671435  0.671435  0.987897  1
  Cd  Cd17  1  0.987571  0.675043  0.670723  1
  Cd  Cd18  1  0.675043  0.987571  0.670723  1
  Cd  Cd19  1  0.669514  0.669514  0.673198  1
  Ru  Ru20  1  0.108842  0.669648  0.106920  1
  Ru  Ru21  1  0.669648  0.108842  0.106920  1
  Pt  Pt22  1  0.104938  0.104938  0.674456  1
  Pt  Pt23  1  0.109402  0.109402  0.109796  1
