# generated using pymatgen
data_Sc2CoSn2Pt
_symmetry_space_group_name_H-M   'P 1'
_cell_length_a   7.47594600
_cell_length_b   7.47594637
_cell_length_c   6.88495400
_cell_angle_alpha   90.00000000
_cell_angle_beta   90.00000000
_cell_angle_gamma   120.00000722
_symmetry_Int_Tables_number   1
_chemical_formula_structural   Sc2CoSn2Pt
_chemical_formula_sum   'Sc6 Co3 Sn6 Pt3'
_cell_volume   333.24525619
_cell_formula_units_Z   3
loop_
 _symmetry_equiv_pos_site_id
 _symmetry_equiv_pos_as_xyz
  1  'x, y, z'
loop_
 _atom_site_type_symbol
 _atom_site_label
 _atom_site_symmetry_multiplicity
 _atom_site_fract_x
 _atom_site_fract_y
 _atom_site_fract_z
 _atom_site_occupancy
  Sc  Sc0  1  0.399139  0.008033  0.246207  1
  Sc  Sc1  1  0.608894  0.600861  0.246207  1
  Sc  Sc2  1  0.991967  0.391106  0.246207  1
  Sc  Sc3  1  0.397175  0.005201  0.753761  1
  Sc  Sc4  1  0.608025  0.602825  0.753761  1
  Sc  Sc5  1  0.994799  0.391975  0.753761  1
  Co  Co6  1  0.000000  0.000000  0.768370  1
  Co  Co7  1  0.000000  0.000000  0.231079  1
  Co  Co8  1  0.666667  0.333333  0.999003  1
  Sn  Sn9  1  0.278340  0.269268  0.000037  1
  Sn  Sn10  1  0.990928  0.721660  0.000037  1
  Sn  Sn11  1  0.003120  0.746405  0.499623  1
  Sn  Sn12  1  0.743285  0.996880  0.499623  1
  Sn  Sn13  1  0.253595  0.256715  0.499623  1
  Sn  Sn14  1  0.730732  0.009072  0.000037  1
  Pt  Pt15  1  0.333333  0.666667  0.498313  1
  Pt  Pt16  1  0.333333  0.666667  0.001901  1
  Pt  Pt17  1  0.666667  0.333333  0.502450  1
