# generated using pymatgen
data_PrYU(SnRh)3
_symmetry_space_group_name_H-M   'P 1'
_cell_length_a   7.53999285
_cell_length_b   7.66987060
_cell_length_c   3.96237200
_cell_angle_alpha   90.00000000
_cell_angle_beta   90.00000000
_cell_angle_gamma   120.66882345
_symmetry_Int_Tables_number   1
_chemical_formula_structural   PrYU(SnRh)3
_chemical_formula_sum   'Pr1 Y1 U1 Sn3 Rh3'
_cell_volume   197.09621567
_cell_formula_units_Z   1
loop_
 _symmetry_equiv_pos_site_id
 _symmetry_equiv_pos_as_xyz
  1  'x, y, z'
loop_
 _atom_site_type_symbol
 _atom_site_label
 _atom_site_symmetry_multiplicity
 _atom_site_fract_x
 _atom_site_fract_y
 _atom_site_fract_z
 _atom_site_occupancy
  Pr  Pr0  1  0.408483  0.409911  0.500000  1
  Y  Y1  1  0.594021  0.001348  0.500000  1
  U  U2  1  0.000406  0.585315  0.500000  1
  Sn  Sn3  1  0.735661  0.747690  0.000000  1
  Sn  Sn4  1  0.267013  0.008223  0.000000  1
  Sn  Sn5  1  0.995435  0.240458  0.000000  1
  Rh  Rh6  1  0.706272  0.365479  0.000000  1
  Rh  Rh7  1  0.295378  0.662990  0.000000  1
  Rh  Rh8  1  0.997331  0.978585  0.500000  1
