# generated using pymatgen
data_DyFe3MoP3Ir
_symmetry_space_group_name_H-M   'P 1'
_cell_length_a   3.77092200
_cell_length_b   10.49525400
_cell_length_c   12.17929100
_cell_angle_alpha   90.00000000
_cell_angle_beta   90.00000000
_cell_angle_gamma   90.00000000
_symmetry_Int_Tables_number   1
_chemical_formula_structural   DyFe3MoP3Ir
_chemical_formula_sum   'Dy4 Fe12 Mo4 P12 Ir4'
_cell_volume   482.01717167
_cell_formula_units_Z   4
loop_
 _symmetry_equiv_pos_site_id
 _symmetry_equiv_pos_as_xyz
  1  'x, y, z'
loop_
 _atom_site_type_symbol
 _atom_site_label
 _atom_site_symmetry_multiplicity
 _atom_site_fract_x
 _atom_site_fract_y
 _atom_site_fract_z
 _atom_site_occupancy
  Dy  Dy0  1  0.250000  0.582909  0.712624  1
  Dy  Dy1  1  0.250000  0.917091  0.212624  1
  Dy  Dy2  1  0.750000  0.417091  0.287376  1
  Dy  Dy3  1  0.750000  0.082909  0.787376  1
  Fe  Fe4  1  0.250000  0.218061  0.175331  1
  Fe  Fe5  1  0.250000  0.281939  0.675331  1
  Fe  Fe6  1  0.750000  0.781939  0.824669  1
  Fe  Fe7  1  0.750000  0.718061  0.324669  1
  Fe  Fe8  1  0.250000  0.878985  0.696849  1
  Fe  Fe9  1  0.250000  0.621015  0.196849  1
  Fe  Fe10  1  0.750000  0.121015  0.303151  1
  Fe  Fe11  1  0.750000  0.378985  0.803151  1
  Fe  Fe12  1  0.250000  0.462857  0.935220  1
  Fe  Fe13  1  0.250000  0.037143  0.435220  1
  Fe  Fe14  1  0.750000  0.537143  0.064780  1
  Fe  Fe15  1  0.750000  0.962857  0.564780  1
  Mo  Mo16  1  0.250000  0.701829  0.985397  1
  Mo  Mo17  1  0.250000  0.798171  0.485397  1
  Mo  Mo18  1  0.750000  0.298171  0.014603  1
  Mo  Mo19  1  0.750000  0.201829  0.514603  1
  P  P20  1  0.250000  0.425357  0.112161  1
  P  P21  1  0.250000  0.074643  0.612161  1
  P  P22  1  0.750000  0.574643  0.887839  1
  P  P23  1  0.750000  0.925357  0.387839  1
  P  P24  1  0.250000  0.274173  0.859720  1
  P  P25  1  0.250000  0.225827  0.359720  1
  P  P26  1  0.750000  0.725827  0.140280  1
  P  P27  1  0.750000  0.774173  0.640280  1
  P  P28  1  0.250000  0.602315  0.379649  1
  P  P29  1  0.250000  0.897685  0.879649  1
  P  P30  1  0.750000  0.397685  0.620351  1
  P  P31  1  0.750000  0.102315  0.120351  1
  Ir  Ir32  1  0.250000  0.403594  0.478396  1
  Ir  Ir33  1  0.250000  0.096406  0.978396  1
  Ir  Ir34  1  0.750000  0.596406  0.521604  1
  Ir  Ir35  1  0.750000  0.903594  0.021604  1
