# generated using pymatgen
data_ErLuB6Ir
_symmetry_space_group_name_H-M   'P 1'
_cell_length_a   3.59932700
_cell_length_b   9.09579800
_cell_length_c   11.44462500
_cell_angle_alpha   90.00000000
_cell_angle_beta   90.00000000
_cell_angle_gamma   90.00000000
_symmetry_Int_Tables_number   1
_chemical_formula_structural   ErLuB6Ir
_chemical_formula_sum   'Er4 Lu4 B24 Ir4'
_cell_volume   374.68273192
_cell_formula_units_Z   4
loop_
 _symmetry_equiv_pos_site_id
 _symmetry_equiv_pos_as_xyz
  1  'x, y, z'
loop_
 _atom_site_type_symbol
 _atom_site_label
 _atom_site_symmetry_multiplicity
 _atom_site_fract_x
 _atom_site_fract_y
 _atom_site_fract_z
 _atom_site_occupancy
  Er  Er0  1  0.000000  0.320429  0.413750  1
  Er  Er1  1  0.000000  0.679571  0.586250  1
  Er  Er2  1  0.000000  0.820429  0.086250  1
  Er  Er3  1  0.000000  0.179571  0.913750  1
  Lu  Lu4  1  0.000000  0.944091  0.374181  1
  Lu  Lu5  1  0.000000  0.055909  0.625819  1
  Lu  Lu6  1  0.000000  0.444091  0.125819  1
  Lu  Lu7  1  0.000000  0.555909  0.874181  1
  B  B8  1  0.500000  0.553632  0.434376  1
  B  B9  1  0.500000  0.446368  0.565624  1
  B  B10  1  0.500000  0.053632  0.065624  1
  B  B11  1  0.500000  0.946368  0.934376  1
  B  B12  1  0.500000  0.750753  0.420740  1
  B  B13  1  0.500000  0.249247  0.579260  1
  B  B14  1  0.500000  0.250753  0.079260  1
  B  B15  1  0.500000  0.749247  0.920740  1
  B  B16  1  0.500000  0.793691  0.264657  1
  B  B17  1  0.500000  0.206309  0.735343  1
  B  B18  1  0.500000  0.293691  0.235343  1
  B  B19  1  0.500000  0.706309  0.764657  1
  B  B20  1  0.500000  0.631003  0.183185  1
  B  B21  1  0.500000  0.368997  0.816815  1
  B  B22  1  0.500000  0.131003  0.316815  1
  B  B23  1  0.500000  0.868997  0.683185  1
  B  B24  1  0.500000  0.981010  0.213700  1
  B  B25  1  0.500000  0.018990  0.786300  1
  B  B26  1  0.500000  0.481010  0.286300  1
  B  B27  1  0.500000  0.518990  0.713700  1
  B  B28  1  0.500000  0.606159  0.028959  1
  B  B29  1  0.500000  0.393841  0.971041  1
  B  B30  1  0.500000  0.106159  0.471041  1
  B  B31  1  0.500000  0.893841  0.528959  1
  Ir  Ir32  1  0.000000  0.638780  0.320647  1
  Ir  Ir33  1  0.000000  0.361220  0.679353  1
  Ir  Ir34  1  0.000000  0.138780  0.179353  1
  Ir  Ir35  1  0.000000  0.861220  0.820647  1
