# generated using pymatgen
data_Yb2HfUH12
_symmetry_space_group_name_H-M   'P 1'
_cell_length_a   6.44850000
_cell_length_b   6.40057600
_cell_length_c   6.44850000
_cell_angle_alpha   90.00000000
_cell_angle_beta   90.00000000
_cell_angle_gamma   90.00000000
_symmetry_Int_Tables_number   1
_chemical_formula_structural   Yb2HfUH12
_chemical_formula_sum   'Yb4 Hf2 U2 H24'
_cell_volume   266.15612630
_cell_formula_units_Z   2
loop_
 _symmetry_equiv_pos_site_id
 _symmetry_equiv_pos_as_xyz
  1  'x, y, z'
loop_
 _atom_site_type_symbol
 _atom_site_label
 _atom_site_symmetry_multiplicity
 _atom_site_fract_x
 _atom_site_fract_y
 _atom_site_fract_z
 _atom_site_occupancy
  Yb  Yb0  1  0.242610  0.000000  0.500000  1
  Yb  Yb1  1  0.757390  0.000000  0.500000  1
  Yb  Yb2  1  0.000000  0.500000  0.257390  1
  Yb  Yb3  1  0.000000  0.500000  0.742610  1
  Hf  Hf4  1  0.000000  0.000000  0.000000  1
  Hf  Hf5  1  0.500000  0.500000  0.500000  1
  U  U6  1  0.500000  0.750000  0.000000  1
  U  U7  1  0.500000  0.250000  0.000000  1
  H  H8  1  0.000000  0.151208  0.280194  1
  H  H9  1  0.500000  0.218455  0.660321  1
  H  H10  1  0.500000  0.781545  0.339679  1
  H  H11  1  0.780194  0.651208  0.500000  1
  H  H12  1  0.219806  0.651208  0.500000  1
  H  H13  1  0.354072  0.500000  0.801457  1
  H  H14  1  0.645928  0.500000  0.801457  1
  H  H15  1  0.301457  0.000000  0.145928  1
  H  H16  1  0.160321  0.281545  0.000000  1
  H  H17  1  0.839679  0.718455  0.000000  1
  H  H18  1  0.301457  0.000000  0.854072  1
  H  H19  1  0.839679  0.281545  0.000000  1
  H  H20  1  0.698543  0.000000  0.145928  1
  H  H21  1  0.698543  0.000000  0.854072  1
  H  H22  1  0.160321  0.718455  0.000000  1
  H  H23  1  0.000000  0.848792  0.719806  1
  H  H24  1  0.000000  0.151208  0.719806  1
  H  H25  1  0.000000  0.848792  0.280194  1
  H  H26  1  0.645928  0.500000  0.198543  1
  H  H27  1  0.354072  0.500000  0.198543  1
  H  H28  1  0.780194  0.348792  0.500000  1
  H  H29  1  0.219806  0.348792  0.500000  1
  H  H30  1  0.500000  0.781545  0.660321  1
  H  H31  1  0.500000  0.218455  0.339679  1
