# generated using pymatgen
data_Tm2Lu2GaCo4Si3
_symmetry_space_group_name_H-M   'P 1'
_cell_length_a   4.17706200
_cell_length_b   6.77854962
_cell_length_c   6.94200220
_cell_angle_alpha   89.56194510
_cell_angle_beta   90.00000000
_cell_angle_gamma   90.00000000
_symmetry_Int_Tables_number   1
_chemical_formula_structural   Tm2Lu2GaCo4Si3
_chemical_formula_sum   'Tm2 Lu2 Ga1 Co4 Si3'
_cell_volume   196.55303529
_cell_formula_units_Z   1
loop_
 _symmetry_equiv_pos_site_id
 _symmetry_equiv_pos_as_xyz
  1  'x, y, z'
loop_
 _atom_site_type_symbol
 _atom_site_label
 _atom_site_symmetry_multiplicity
 _atom_site_fract_x
 _atom_site_fract_y
 _atom_site_fract_z
 _atom_site_occupancy
  Tm  Tm0  1  0.250000  0.490360  0.193250  1
  Tm  Tm1  1  0.250000  0.984310  0.308350  1
  Lu  Lu2  1  0.750000  0.518719  0.805272  1
  Lu  Lu3  1  0.750000  0.014439  0.692447  1
  Ga  Ga4  1  0.750000  0.199281  0.104308  1
  Co  Co5  1  0.750000  0.355141  0.446978  1
  Co  Co6  1  0.750000  0.833401  0.063831  1
  Co  Co7  1  0.250000  0.651101  0.564949  1
  Co  Co8  1  0.250000  0.147414  0.923136  1
  Si  Si9  1  0.750000  0.699407  0.395463  1
  Si  Si10  1  0.250000  0.802843  0.893880  1
  Si  Si11  1  0.250000  0.303584  0.608133  1
