# generated using pymatgen
data_TiAg2(TeO4)3
_symmetry_space_group_name_H-M   'P 1'
_cell_length_a   7.22602035
_cell_length_b   7.22602128
_cell_length_c   7.25998736
_cell_angle_alpha   60.52690167
_cell_angle_beta   60.52689788
_cell_angle_gamma   60.13044189
_symmetry_Int_Tables_number   1
_chemical_formula_structural   TiAg2(TeO4)3
_chemical_formula_sum   'Ti1 Ag2 Te3 O12'
_cell_volume   270.43663132
_cell_formula_units_Z   1
loop_
 _symmetry_equiv_pos_site_id
 _symmetry_equiv_pos_as_xyz
  1  'x, y, z'
loop_
 _atom_site_type_symbol
 _atom_site_label
 _atom_site_symmetry_multiplicity
 _atom_site_fract_x
 _atom_site_fract_y
 _atom_site_fract_z
 _atom_site_occupancy
  Ti  Ti0  1  0.522172  0.477828  0.000000  1
  Ag  Ag1  1  0.540783  0.968118  0.497775  1
  Ag  Ag2  1  0.031882  0.459217  0.502225  1
  Te  Te3  1  0.021778  0.478516  0.998830  1
  Te  Te4  1  0.521484  0.978222  0.001170  1
  Te  Te5  1  0.521759  0.478241  0.500000  1
  O  O6  1  0.197909  0.154437  0.066444  1
  O  O7  1  0.591433  0.545040  0.678316  1
  O  O8  1  0.205427  0.540817  0.064463  1
  O  O9  1  0.592417  0.152220  0.674018  1
  O  O10  1  0.586134  0.158863  0.068567  1
  O  O11  1  0.195668  0.549469  0.672089  1
  O  O12  1  0.845563  0.802091  0.933556  1
  O  O13  1  0.454960  0.408567  0.321684  1
  O  O14  1  0.841137  0.413866  0.931433  1
  O  O15  1  0.450531  0.804332  0.327911  1
  O  O16  1  0.459183  0.794573  0.935537  1
  O  O17  1  0.847780  0.407583  0.325982  1
