# generated using pymatgen
data_Ba2Ir3(Pd2O9)2
_symmetry_space_group_name_H-M   'P 1'
_cell_length_a   6.89657803
_cell_length_b   7.16504802
_cell_length_c   7.66455821
_cell_angle_alpha   93.19100862
_cell_angle_beta   95.09108777
_cell_angle_gamma   114.72241194
_symmetry_Int_Tables_number   1
_chemical_formula_structural   Ba2Ir3(Pd2O9)2
_chemical_formula_sum   'Ba2 Ir3 Pd4 O18'
_cell_volume   340.86183469
_cell_formula_units_Z   1
loop_
 _symmetry_equiv_pos_site_id
 _symmetry_equiv_pos_as_xyz
  1  'x, y, z'
loop_
 _atom_site_type_symbol
 _atom_site_label
 _atom_site_symmetry_multiplicity
 _atom_site_fract_x
 _atom_site_fract_y
 _atom_site_fract_z
 _atom_site_occupancy
  Ba  Ba0  1  0.324010  0.696204  0.625914  1
  Ba  Ba1  1  0.675990  0.303796  0.374086  1
  Ir  Ir2  1  0.000000  0.000000  0.500000  1
  Ir  Ir3  1  0.828283  0.622121  0.807864  1
  Ir  Ir4  1  0.171717  0.377879  0.192136  1
  Pd  Pd5  1  0.401860  0.285701  0.883572  1
  Pd  Pd6  1  0.811659  0.129419  0.816684  1
  Pd  Pd7  1  0.188341  0.870581  0.183316  1
  Pd  Pd8  1  0.598140  0.714299  0.116428  1
  O  O9  1  0.922703  0.729607  0.578762  1
  O  O10  1  0.281492  0.174403  0.115607  1
  O  O11  1  0.306580  0.512777  0.977444  1
  O  O12  1  0.463013  0.549679  0.312558  1
  O  O13  1  0.494922  0.926336  0.179770  1
  O  O14  1  0.904897  0.407645  0.723365  1
  O  O15  1  0.718508  0.825597  0.884393  1
  O  O16  1  0.895742  0.221144  0.076106  1
  O  O17  1  0.693420  0.487223  0.022556  1
  O  O18  1  0.077297  0.270393  0.421238  1
  O  O19  1  0.100452  0.128253  0.746520  1
  O  O20  1  0.729332  0.999626  0.562780  1
  O  O21  1  0.095103  0.592355  0.276635  1
  O  O22  1  0.899548  0.871747  0.253480  1
  O  O23  1  0.104258  0.778856  0.923894  1
  O  O24  1  0.505078  0.073664  0.820230  1
  O  O25  1  0.270668  0.000374  0.437220  1
  O  O26  1  0.536987  0.450321  0.687442  1
