# generated using pymatgen
data_Cs2ThBr6
_symmetry_space_group_name_H-M   'P 1'
_cell_length_a   8.14090900
_cell_length_b   8.14090900
_cell_length_c   11.60161300
_cell_angle_alpha   90.00000000
_cell_angle_beta   90.00000000
_cell_angle_gamma   90.00000000
_symmetry_Int_Tables_number   1
_chemical_formula_structural   Cs2ThBr6
_chemical_formula_sum   'Cs4 Th2 Br12'
_cell_volume   768.88993302
_cell_formula_units_Z   2
loop_
 _symmetry_equiv_pos_site_id
 _symmetry_equiv_pos_as_xyz
  1  'x, y, z'
loop_
 _atom_site_type_symbol
 _atom_site_label
 _atom_site_symmetry_multiplicity
 _atom_site_fract_x
 _atom_site_fract_y
 _atom_site_fract_z
 _atom_site_occupancy
  Cs  Cs0  1  0.500000  0.000000  0.750000  1
  Cs  Cs1  1  0.500000  0.000000  0.250000  1
  Cs  Cs2  1  0.000000  0.500000  0.250000  1
  Cs  Cs3  1  0.000000  0.500000  0.750000  1
  Th  Th4  1  0.000000  0.000000  0.000000  1
  Th  Th5  1  0.500000  0.500000  0.500000  1
  Br  Br6  1  0.786448  0.277120  0.000000  1
  Br  Br7  1  0.213552  0.722880  0.000000  1
  Br  Br8  1  0.500000  0.500000  0.254208  1
  Br  Br9  1  0.286448  0.222880  0.500000  1
  Br  Br10  1  0.277120  0.213552  0.000000  1
  Br  Br11  1  0.777120  0.286448  0.500000  1
  Br  Br12  1  0.000000  0.000000  0.245792  1
  Br  Br13  1  0.713552  0.777120  0.500000  1
  Br  Br14  1  0.222880  0.713552  0.500000  1
  Br  Br15  1  0.500000  0.500000  0.745792  1
  Br  Br16  1  0.722880  0.786448  0.000000  1
  Br  Br17  1  0.000000  0.000000  0.754208  1
