# generated using pymatgen
data_Zr5SbP2H
_symmetry_space_group_name_H-M   'P 1'
_cell_length_a   8.03226010
_cell_length_b   8.03225980
_cell_length_c   8.03226000
_cell_angle_alpha   128.36166014
_cell_angle_beta   128.36165843
_cell_angle_gamma   76.03987897
_symmetry_Int_Tables_number   1
_chemical_formula_structural   Zr5SbP2H
_chemical_formula_sum   'Zr10 Sb2 P4 H2'
_cell_volume   309.76192482
_cell_formula_units_Z   2
loop_
 _symmetry_equiv_pos_site_id
 _symmetry_equiv_pos_as_xyz
  1  'x, y, z'
loop_
 _atom_site_type_symbol
 _atom_site_label
 _atom_site_symmetry_multiplicity
 _atom_site_fract_x
 _atom_site_fract_y
 _atom_site_fract_z
 _atom_site_occupancy
  Zr  Zr0  1  0.500000  0.500000  0.000000  1
  Zr  Zr1  1  0.000000  0.000000  0.000000  1
  Zr  Zr2  1  0.519276  0.019276  0.816005  1
  Zr  Zr3  1  0.203273  0.703273  0.183995  1
  Zr  Zr4  1  0.019276  0.203273  0.500000  1
  Zr  Zr5  1  0.703273  0.519276  0.500000  1
  Zr  Zr6  1  0.480724  0.980724  0.183995  1
  Zr  Zr7  1  0.796727  0.296727  0.816005  1
  Zr  Zr8  1  0.980724  0.796727  0.500000  1
  Zr  Zr9  1  0.296727  0.480724  0.500000  1
  Sb  Sb10  1  0.250000  0.250000  0.000000  1
  Sb  Sb11  1  0.750000  0.750000  0.000000  1
  P  P12  1  0.860779  0.360779  0.221558  1
  P  P13  1  0.139221  0.639221  0.778442  1
  P  P14  1  0.360779  0.139221  0.500000  1
  P  P15  1  0.639221  0.860779  0.500000  1
  H  H16  1  0.250000  0.750000  0.500000  1
  H  H17  1  0.750000  0.250000  0.500000  1
