# generated using pymatgen
data_Nd2ZnSiI
_symmetry_space_group_name_H-M   'P 1'
_cell_length_a   4.15659200
_cell_length_b   4.15659264
_cell_length_c   17.43282200
_cell_angle_alpha   90.00000000
_cell_angle_beta   90.00000000
_cell_angle_gamma   119.99999494
_symmetry_Int_Tables_number   1
_chemical_formula_structural   Nd2ZnSiI
_chemical_formula_sum   'Nd4 Zn2 Si2 I2'
_cell_volume   260.83941104
_cell_formula_units_Z   2
loop_
 _symmetry_equiv_pos_site_id
 _symmetry_equiv_pos_as_xyz
  1  'x, y, z'
loop_
 _atom_site_type_symbol
 _atom_site_label
 _atom_site_symmetry_multiplicity
 _atom_site_fract_x
 _atom_site_fract_y
 _atom_site_fract_z
 _atom_site_occupancy
  Nd  Nd0  1  0.000000  0.000000  0.114852  1
  Nd  Nd1  1  0.000000  0.000000  0.614852  1
  Nd  Nd2  1  0.000000  0.000000  0.884140  1
  Nd  Nd3  1  0.000000  0.000000  0.384140  1
  Zn  Zn4  1  0.333333  0.666667  0.006948  1
  Zn  Zn5  1  0.666667  0.333333  0.506948  1
  Si  Si6  1  0.666667  0.333333  0.994109  1
  Si  Si7  1  0.333333  0.666667  0.494109  1
  I  I8  1  0.666667  0.333333  0.249950  1
  I  I9  1  0.333333  0.666667  0.749950  1
