# generated using pymatgen
data_Ca(Tc2P)2
_symmetry_space_group_name_H-M   'P 1'
_cell_length_a   7.42353500
_cell_length_b   7.42353500
_cell_length_c   3.94694200
_cell_angle_alpha   90.00000000
_cell_angle_beta   90.00000000
_cell_angle_gamma   90.00000000
_symmetry_Int_Tables_number   1
_chemical_formula_structural   Ca(Tc2P)2
_chemical_formula_sum   'Ca2 Tc8 P4'
_cell_volume   217.51152106
_cell_formula_units_Z   2
loop_
 _symmetry_equiv_pos_site_id
 _symmetry_equiv_pos_as_xyz
  1  'x, y, z'
loop_
 _atom_site_type_symbol
 _atom_site_label
 _atom_site_symmetry_multiplicity
 _atom_site_fract_x
 _atom_site_fract_y
 _atom_site_fract_z
 _atom_site_occupancy
  Ca  Ca0  1  0.000000  0.000000  0.000000  1
  Ca  Ca1  1  0.500000  0.500000  0.500000  1
  Tc  Tc2  1  0.663368  0.916605  0.500000  1
  Tc  Tc3  1  0.163368  0.583395  0.000000  1
  Tc  Tc4  1  0.416605  0.836632  0.000000  1
  Tc  Tc5  1  0.916605  0.663368  0.500000  1
  Tc  Tc6  1  0.836632  0.416605  0.000000  1
  Tc  Tc7  1  0.583395  0.163368  0.000000  1
  Tc  Tc8  1  0.083395  0.336632  0.500000  1
  Tc  Tc9  1  0.336632  0.083395  0.500000  1
  P  P10  1  0.289732  0.289732  0.000000  1
  P  P11  1  0.710268  0.710268  0.000000  1
  P  P12  1  0.789732  0.210268  0.500000  1
  P  P13  1  0.210268  0.789732  0.500000  1
