# generated using pymatgen
data_Ho3Tm7OsRu3
_symmetry_space_group_name_H-M   'P 1'
_cell_length_a   6.27023471
_cell_length_b   7.27104017
_cell_length_c   8.35291385
_cell_angle_alpha   96.82524496
_cell_angle_beta   112.11279803
_cell_angle_gamma   90.09224798
_symmetry_Int_Tables_number   1
_chemical_formula_structural   Ho3Tm7OsRu3
_chemical_formula_sum   'Ho3 Tm7 Os1 Ru3'
_cell_volume   349.86233018
_cell_formula_units_Z   1
loop_
 _symmetry_equiv_pos_site_id
 _symmetry_equiv_pos_as_xyz
  1  'x, y, z'
loop_
 _atom_site_type_symbol
 _atom_site_label
 _atom_site_symmetry_multiplicity
 _atom_site_fract_x
 _atom_site_fract_y
 _atom_site_fract_z
 _atom_site_occupancy
  Ho  Ho0  1  0.791536  0.082931  0.813204  1
  Ho  Ho1  1  0.975672  0.415867  0.183708  1
  Ho  Ho2  1  0.208381  0.915638  0.186204  1
  Tm  Tm3  1  0.023633  0.584209  0.814070  1
  Tm  Tm4  1  0.206159  0.184474  0.565780  1
  Tm  Tm5  1  0.640142  0.317054  0.436551  1
  Tm  Tm6  1  0.794859  0.815858  0.434691  1
  Tm  Tm7  1  0.358894  0.683784  0.564825  1
  Tm  Tm8  1  0.419540  0.250143  0.999341  1
  Tm  Tm9  1  0.580426  0.750130  0.999818  1
  Os  Os10  1  0.602533  0.423738  0.780744  1
  Ru  Ru11  1  0.823150  0.076712  0.221188  1
  Ru  Ru12  1  0.397823  0.576734  0.220306  1
  Ru  Ru13  1  0.177252  0.922727  0.779571  1
