# generated using pymatgen
data_Hf4VGaRh10
_symmetry_space_group_name_H-M   'P 1'
_cell_length_a   4.12462600
_cell_length_b   5.55446961
_cell_length_c   10.86755839
_cell_angle_alpha   90.23344966
_cell_angle_beta   90.00000000
_cell_angle_gamma   90.00000000
_symmetry_Int_Tables_number   1
_chemical_formula_structural   Hf4VGaRh10
_chemical_formula_sum   'Hf4 V1 Ga1 Rh10'
_cell_volume   248.97488895
_cell_formula_units_Z   1
loop_
 _symmetry_equiv_pos_site_id
 _symmetry_equiv_pos_as_xyz
  1  'x, y, z'
loop_
 _atom_site_type_symbol
 _atom_site_label
 _atom_site_symmetry_multiplicity
 _atom_site_fract_x
 _atom_site_fract_y
 _atom_site_fract_z
 _atom_site_occupancy
  Hf  Hf0  1  0.500000  0.179218  0.639169  1
  Hf  Hf1  1  0.500000  0.820782  0.360831  1
  Hf  Hf2  1  0.500000  0.668270  0.856336  1
  Hf  Hf3  1  0.500000  0.331730  0.143664  1
  V  V4  1  0.000000  0.000000  0.000000  1
  Ga  Ga5  1  0.000000  0.500000  0.500000  1
  Rh  Rh6  1  0.500000  0.179445  0.899029  1
  Rh  Rh7  1  0.500000  0.820555  0.100971  1
  Rh  Rh8  1  0.500000  0.689763  0.609673  1
  Rh  Rh9  1  0.500000  0.310237  0.390327  1
  Rh  Rh10  1  0.000000  0.424871  0.743875  1
  Rh  Rh11  1  0.000000  0.575129  0.256125  1
  Rh  Rh12  1  0.000000  0.000000  0.500000  1
  Rh  Rh13  1  0.000000  0.500000  0.000000  1
  Rh  Rh14  1  0.000000  0.074723  0.237821  1
  Rh  Rh15  1  0.000000  0.925277  0.762179  1
