# generated using pymatgen
data_Tm12Fe2Co2BiIr
_symmetry_space_group_name_H-M   'P 1'
_cell_length_a   8.22062412
_cell_length_b   8.22062338
_cell_length_c   8.22062331
_cell_angle_alpha   110.97696893
_cell_angle_beta   112.09125221
_cell_angle_gamma   105.42189117
_symmetry_Int_Tables_number   1
_chemical_formula_structural   Tm12Fe2Co2BiIr
_chemical_formula_sum   'Tm12 Fe2 Co2 Bi1 Ir1'
_cell_volume   426.02309891
_cell_formula_units_Z   1
loop_
 _symmetry_equiv_pos_site_id
 _symmetry_equiv_pos_as_xyz
  1  'x, y, z'
loop_
 _atom_site_type_symbol
 _atom_site_label
 _atom_site_symmetry_multiplicity
 _atom_site_fract_x
 _atom_site_fract_y
 _atom_site_fract_z
 _atom_site_occupancy
  Tm  Tm0  1  0.281260  0.183894  0.465153  1
  Tm  Tm1  1  0.718740  0.816106  0.534847  1
  Tm  Tm2  1  0.281260  0.816106  0.097365  1
  Tm  Tm3  1  0.718740  0.183894  0.902635  1
  Tm  Tm4  1  0.620360  0.311643  0.308717  1
  Tm  Tm5  1  0.379640  0.688357  0.691283  1
  Tm  Tm6  1  0.002927  0.311643  0.691283  1
  Tm  Tm7  1  0.997073  0.688357  0.308717  1
  Tm  Tm8  1  0.213686  0.412752  0.199066  1
  Tm  Tm9  1  0.786314  0.587248  0.800934  1
  Tm  Tm10  1  0.213686  0.014620  0.800934  1
  Tm  Tm11  1  0.786314  0.985380  0.199066  1
  Fe  Fe12  1  0.000000  0.381982  0.381982  1
  Fe  Fe13  1  0.000000  0.618018  0.618018  1
  Co  Co14  1  0.389322  0.889322  0.500000  1
  Co  Co15  1  0.610678  0.110678  0.500000  1
  Bi  Bi16  1  0.500000  0.500000  0.000000  1
  Ir  Ir17  1  0.000000  0.000000  0.000000  1
