# generated using pymatgen
data_Y3Er2AlSb2
_symmetry_space_group_name_H-M   'P 1'
_cell_length_a   8.85763615
_cell_length_b   8.85661301
_cell_length_c   6.38312000
_cell_angle_alpha   90.00000000
_cell_angle_beta   90.00000000
_cell_angle_gamma   119.99617493
_symmetry_Int_Tables_number   1
_chemical_formula_structural   Y3Er2AlSb2
_chemical_formula_sum   'Y6 Er4 Al2 Sb4'
_cell_volume   433.67649497
_cell_formula_units_Z   2
loop_
 _symmetry_equiv_pos_site_id
 _symmetry_equiv_pos_as_xyz
  1  'x, y, z'
loop_
 _atom_site_type_symbol
 _atom_site_label
 _atom_site_symmetry_multiplicity
 _atom_site_fract_x
 _atom_site_fract_y
 _atom_site_fract_z
 _atom_site_occupancy
  Y  Y0  1  0.008412  0.764958  0.750000  1
  Y  Y1  1  0.008412  0.243454  0.250000  1
  Y  Y2  1  0.755088  0.756189  0.250000  1
  Y  Y3  1  0.755088  0.998899  0.750000  1
  Y  Y4  1  0.242473  0.233361  0.750000  1
  Y  Y5  1  0.242473  0.009112  0.250000  1
  Er  Er6  1  0.335588  0.667795  0.500000  1
  Er  Er7  1  0.656003  0.328001  0.000000  1
  Er  Er8  1  0.656003  0.328001  0.500000  1
  Er  Er9  1  0.335588  0.667795  0.000000  1
  Al  Al10  1  0.398313  0.997132  0.750000  1
  Al  Al11  1  0.398313  0.401180  0.250000  1
  Sb  Sb12  1  0.998707  0.606250  0.250000  1
  Sb  Sb13  1  0.998707  0.392458  0.750000  1
  Sb  Sb14  1  0.605416  0.604524  0.750000  1
  Sb  Sb15  1  0.605416  0.000892  0.250000  1
