# generated using pymatgen
data_DyHo9Ir5Au
_symmetry_space_group_name_H-M   'P 1'
_cell_length_a   11.01244804
_cell_length_b   10.94567500
_cell_length_c   6.31989706
_cell_angle_alpha   90.00000000
_cell_angle_beta   89.86721238
_cell_angle_gamma   90.00000000
_symmetry_Int_Tables_number   1
_chemical_formula_structural   DyHo9Ir5Au
_chemical_formula_sum   'Dy2 Ho18 Ir10 Au2'
_cell_volume   761.78998614
_cell_formula_units_Z   2
loop_
 _symmetry_equiv_pos_site_id
 _symmetry_equiv_pos_as_xyz
  1  'x, y, z'
loop_
 _atom_site_type_symbol
 _atom_site_label
 _atom_site_symmetry_multiplicity
 _atom_site_fract_x
 _atom_site_fract_y
 _atom_site_fract_z
 _atom_site_occupancy
  Dy  Dy0  1  0.292199  0.088480  0.371770  1
  Dy  Dy1  1  0.292199  0.911520  0.871770  1
  Ho  Ho2  1  0.697965  0.092298  0.865661  1
  Ho  Ho3  1  0.697965  0.907702  0.365661  1
  Ho  Ho4  1  0.578095  0.789381  0.876975  1
  Ho  Ho5  1  0.578095  0.210619  0.376975  1
  Ho  Ho6  1  0.408258  0.790664  0.376891  1
  Ho  Ho7  1  0.408258  0.209336  0.876891  1
  Ho  Ho8  1  0.209732  0.411112  0.621496  1
  Ho  Ho9  1  0.209732  0.588888  0.121496  1
  Ho  Ho10  1  0.789040  0.419566  0.123358  1
  Ho  Ho11  1  0.789040  0.580434  0.623358  1
  Ho  Ho12  1  0.917468  0.705193  0.139038  1
  Ho  Ho13  1  0.917468  0.294807  0.639038  1
  Ho  Ho14  1  0.096121  0.702531  0.624161  1
  Ho  Ho15  1  0.096121  0.297469  0.124161  1
  Ho  Ho16  1  0.009514  0.997414  0.499826  1
  Ho  Ho17  1  0.009514  0.002586  0.999826  1
  Ho  Ho18  1  0.499859  0.498800  0.000697  1
  Ho  Ho19  1  0.499859  0.501200  0.500697  1
  Ir  Ir20  1  0.153769  0.154070  0.750331  1
  Ir  Ir21  1  0.153769  0.845930  0.250331  1
  Ir  Ir22  1  0.655593  0.346093  0.748211  1
  Ir  Ir23  1  0.655593  0.653907  0.248211  1
  Ir  Ir24  1  0.347265  0.346333  0.251520  1
  Ir  Ir25  1  0.347265  0.653667  0.751520  1
  Ir  Ir26  1  0.500057  0.999762  0.121259  1
  Ir  Ir27  1  0.500057  0.000238  0.621259  1
  Ir  Ir28  1  0.999681  0.500942  0.878561  1
  Ir  Ir29  1  0.999681  0.499058  0.378561  1
  Au  Au30  1  0.845384  0.154870  0.250246  1
  Au  Au31  1  0.845384  0.845130  0.750246  1
