# generated using pymatgen
data_Ca5Er3Cd8
_symmetry_space_group_name_H-M   'P 1'
_cell_length_a   7.54264600
_cell_length_b   7.54505600
_cell_length_c   7.47392800
_cell_angle_alpha   90.00000000
_cell_angle_beta   89.99972654
_cell_angle_gamma   90.00000000
_symmetry_Int_Tables_number   1
_chemical_formula_structural   Ca5Er3Cd8
_chemical_formula_sum   'Ca5 Er3 Cd8'
_cell_volume   425.33889909
_cell_formula_units_Z   1
loop_
 _symmetry_equiv_pos_site_id
 _symmetry_equiv_pos_as_xyz
  1  'x, y, z'
loop_
 _atom_site_type_symbol
 _atom_site_label
 _atom_site_symmetry_multiplicity
 _atom_site_fract_x
 _atom_site_fract_y
 _atom_site_fract_z
 _atom_site_occupancy
  Ca  Ca0  1  0.750011  0.250000  0.000202  1
  Ca  Ca1  1  0.250048  0.750000  0.499825  1
  Ca  Ca2  1  0.749888  0.250000  0.500176  1
  Ca  Ca3  1  0.249775  0.750000  0.999812  1
  Ca  Ca4  1  0.752251  0.750000  0.500022  1
  Er  Er5  1  0.251419  0.250000  0.000024  1
  Er  Er6  1  0.748858  0.750000  0.999951  1
  Er  Er7  1  0.248619  0.250000  0.500015  1
  Cd  Cd8  1  0.003561  0.496386  0.243863  1
  Cd  Cd9  1  0.003561  0.003613  0.243863  1
  Cd  Cd10  1  0.496433  0.003640  0.247751  1
  Cd  Cd11  1  0.496433  0.496361  0.247751  1
  Cd  Cd12  1  0.496198  0.496450  0.752235  1
  Cd  Cd13  1  0.496198  0.003549  0.752235  1
  Cd  Cd14  1  0.003373  0.003719  0.756133  1
  Cd  Cd15  1  0.003373  0.496282  0.756133  1
