# generated using pymatgen
data_Gd6MgSn5Pd6
_symmetry_space_group_name_H-M   'P 1'
_cell_length_a   7.69317500
_cell_length_b   7.70050945
_cell_length_c   7.75846900
_cell_angle_alpha   89.99590027
_cell_angle_beta   90.00000000
_cell_angle_gamma   119.96849349
_symmetry_Int_Tables_number   1
_chemical_formula_structural   Gd6MgSn5Pd6
_chemical_formula_sum   'Gd6 Mg1 Sn5 Pd6'
_cell_volume   398.17090448
_cell_formula_units_Z   1
loop_
 _symmetry_equiv_pos_site_id
 _symmetry_equiv_pos_as_xyz
  1  'x, y, z'
loop_
 _atom_site_type_symbol
 _atom_site_label
 _atom_site_symmetry_multiplicity
 _atom_site_fract_x
 _atom_site_fract_y
 _atom_site_fract_z
 _atom_site_occupancy
  Gd  Gd0  1  0.406166  0.001561  0.246874  1
  Gd  Gd1  1  0.595183  0.594186  0.248560  1
  Gd  Gd2  1  0.998028  0.404397  0.248573  1
  Gd  Gd3  1  0.404605  0.998439  0.753126  1
  Gd  Gd4  1  0.593630  0.595603  0.751427  1
  Gd  Gd5  1  0.000996  0.405814  0.751440  1
  Mg  Mg6  1  0.750584  0.000000  0.000000  1
  Sn  Sn7  1  0.266521  0.264792  0.499983  1
  Sn  Sn8  1  0.001729  0.735208  0.500017  1
  Sn  Sn9  1  0.994035  0.745837  0.999898  1
  Sn  Sn10  1  0.248198  0.254163  0.000102  1
  Sn  Sn11  1  0.735156  0.000000  0.500000  1
  Pd  Pd12  1  0.333990  0.669237  0.002502  1
  Pd  Pd13  1  0.333534  0.664880  0.497079  1
  Pd  Pd14  1  0.664754  0.330763  0.997498  1
  Pd  Pd15  1  0.668656  0.335120  0.502921  1
  Pd  Pd16  1  0.002081  0.999925  0.258937  1
  Pd  Pd17  1  0.002157  0.000075  0.741063  1
