# generated using pymatgen
data_Tm8Re3OsC8
_symmetry_space_group_name_H-M   'P 1'
_cell_length_a   5.03028900
_cell_length_b   6.49240580
_cell_length_c   9.73292222
_cell_angle_alpha   90.10660243
_cell_angle_beta   90.00000000
_cell_angle_gamma   90.00000000
_symmetry_Int_Tables_number   1
_chemical_formula_structural   Tm8Re3OsC8
_chemical_formula_sum   'Tm8 Re3 Os1 C8'
_cell_volume   317.86381772
_cell_formula_units_Z   1
loop_
 _symmetry_equiv_pos_site_id
 _symmetry_equiv_pos_as_xyz
  1  'x, y, z'
loop_
 _atom_site_type_symbol
 _atom_site_label
 _atom_site_symmetry_multiplicity
 _atom_site_fract_x
 _atom_site_fract_y
 _atom_site_fract_z
 _atom_site_occupancy
  Tm  Tm0  1  0.250000  0.821664  0.942743  1
  Tm  Tm1  1  0.250000  0.320947  0.557927  1
  Tm  Tm2  1  0.750000  0.178541  0.056876  1
  Tm  Tm3  1  0.750000  0.677254  0.443459  1
  Tm  Tm4  1  0.250000  0.465991  0.217569  1
  Tm  Tm5  1  0.250000  0.967897  0.284393  1
  Tm  Tm6  1  0.750000  0.532545  0.782761  1
  Tm  Tm7  1  0.750000  0.032077  0.717545  1
  Re  Re8  1  0.250000  0.281120  0.868937  1
  Re  Re9  1  0.250000  0.780678  0.631343  1
  Re  Re10  1  0.750000  0.718769  0.132490  1
  Os  Os11  1  0.750000  0.219163  0.367713  1
  C  C12  1  0.250000  0.047797  0.740335  1
  C  C13  1  0.250000  0.548113  0.759335  1
  C  C14  1  0.750000  0.952798  0.258027  1
  C  C15  1  0.750000  0.452752  0.240514  1
  C  C16  1  0.250000  0.674898  0.445018  1
  C  C17  1  0.250000  0.175028  0.054595  1
  C  C18  1  0.750000  0.326447  0.551703  1
  C  C19  1  0.750000  0.825519  0.946719  1
