# generated using pymatgen
data_Li4Ca8Al4SiGe7
_symmetry_space_group_name_H-M   'P 1'
_cell_length_a   4.36743800
_cell_length_b   7.10358125
_cell_length_c   16.52191300
_cell_angle_alpha   90.10071549
_cell_angle_beta   90.00000000
_cell_angle_gamma   90.00000000
_symmetry_Int_Tables_number   1
_chemical_formula_structural   Li4Ca8Al4SiGe7
_chemical_formula_sum   'Li4 Ca8 Al4 Si1 Ge7'
_cell_volume   512.58248328
_cell_formula_units_Z   1
loop_
 _symmetry_equiv_pos_site_id
 _symmetry_equiv_pos_as_xyz
  1  'x, y, z'
loop_
 _atom_site_type_symbol
 _atom_site_label
 _atom_site_symmetry_multiplicity
 _atom_site_fract_x
 _atom_site_fract_y
 _atom_site_fract_z
 _atom_site_occupancy
  Li  Li0  1  0.250000  0.984296  0.068631  1
  Li  Li1  1  0.750000  0.514921  0.568056  1
  Li  Li2  1  0.250000  0.485033  0.431878  1
  Li  Li3  1  0.750000  0.014961  0.931980  1
  Ca  Ca4  1  0.750000  0.158459  0.438709  1
  Ca  Ca5  1  0.250000  0.001437  0.776810  1
  Ca  Ca6  1  0.250000  0.341553  0.938988  1
  Ca  Ca7  1  0.750000  0.659045  0.061904  1
  Ca  Ca8  1  0.250000  0.841518  0.561002  1
  Ca  Ca9  1  0.750000  0.997551  0.222839  1
  Ca  Ca10  1  0.750000  0.499223  0.276433  1
  Ca  Ca11  1  0.250000  0.501436  0.723224  1
  Al  Al12  1  0.250000  0.340872  0.156489  1
  Al  Al13  1  0.750000  0.163106  0.656234  1
  Al  Al14  1  0.250000  0.835091  0.342103  1
  Al  Al15  1  0.750000  0.663052  0.843838  1
  Si  Si16  1  0.250000  0.707730  0.189809  1
  Ge  Ge17  1  0.250000  0.209992  0.311159  1
  Ge  Ge18  1  0.250000  0.266552  0.571498  1
  Ge  Ge19  1  0.750000  0.733593  0.428259  1
  Ge  Ge20  1  0.750000  0.290011  0.811301  1
  Ge  Ge21  1  0.750000  0.789914  0.688665  1
  Ge  Ge22  1  0.750000  0.233981  0.071658  1
  Ge  Ge23  1  0.250000  0.766673  0.928532  1
