# generated using pymatgen
data_Ca3Nd(SiPd14)2
_symmetry_space_group_name_H-M   'P 1'
_cell_length_a   8.95432600
_cell_length_b   8.95432600
_cell_length_c   7.10822100
_cell_angle_alpha   90.00000000
_cell_angle_beta   90.00000000
_cell_angle_gamma   90.00000000
_symmetry_Int_Tables_number   1
_chemical_formula_structural   Ca3Nd(SiPd14)2
_chemical_formula_sum   'Ca3 Nd1 Si2 Pd28'
_cell_volume   569.93683361
_cell_formula_units_Z   1
loop_
 _symmetry_equiv_pos_site_id
 _symmetry_equiv_pos_as_xyz
  1  'x, y, z'
loop_
 _atom_site_type_symbol
 _atom_site_label
 _atom_site_symmetry_multiplicity
 _atom_site_fract_x
 _atom_site_fract_y
 _atom_site_fract_z
 _atom_site_occupancy
  Ca  Ca0  1  0.000000  0.500000  0.061457  1
  Ca  Ca1  1  0.000000  0.000000  0.499945  1
  Ca  Ca2  1  0.500000  0.500000  0.499945  1
  Nd  Nd3  1  0.500000  0.000000  0.938920  1
  Si  Si4  1  0.500000  0.000000  0.448257  1
  Si  Si5  1  0.000000  0.500000  0.551756  1
  Pd  Pd6  1  0.333683  0.833683  0.616474  1
  Pd  Pd7  1  0.333683  0.166317  0.616474  1
  Pd  Pd8  1  0.666317  0.833683  0.616474  1
  Pd  Pd9  1  0.666317  0.166317  0.616474  1
  Pd  Pd10  1  0.166081  0.666081  0.382885  1
  Pd  Pd11  1  0.166081  0.333919  0.382885  1
  Pd  Pd12  1  0.833919  0.666081  0.382885  1
  Pd  Pd13  1  0.833919  0.333919  0.382885  1
  Pd  Pd14  1  0.500000  0.770223  0.257794  1
  Pd  Pd15  1  0.500000  0.229777  0.257794  1
  Pd  Pd16  1  0.270223  0.000000  0.257794  1
  Pd  Pd17  1  0.729777  0.000000  0.257794  1
  Pd  Pd18  1  0.000000  0.729581  0.742614  1
  Pd  Pd19  1  0.000000  0.270419  0.742614  1
  Pd  Pd20  1  0.229581  0.500000  0.742614  1
  Pd  Pd21  1  0.770419  0.500000  0.742614  1
  Pd  Pd22  1  0.500000  0.348796  0.856465  1
  Pd  Pd23  1  0.500000  0.651204  0.856465  1
  Pd  Pd24  1  0.848796  0.000000  0.856465  1
  Pd  Pd25  1  0.151204  0.000000  0.856465  1
  Pd  Pd26  1  0.000000  0.151278  0.143674  1
  Pd  Pd27  1  0.000000  0.848722  0.143674  1
  Pd  Pd28  1  0.651278  0.500000  0.143674  1
  Pd  Pd29  1  0.348722  0.500000  0.143674  1
  Pd  Pd30  1  0.249907  0.749907  0.000024  1
  Pd  Pd31  1  0.249907  0.250093  0.000024  1
  Pd  Pd32  1  0.750093  0.749907  0.000024  1
  Pd  Pd33  1  0.750093  0.250093  0.000024  1
