# generated using pymatgen
data_Ho10Ge3Pb3O2
_symmetry_space_group_name_H-M   'P 1'
_cell_length_a   8.86628439
_cell_length_b   8.86628519
_cell_length_c   8.83912411
_cell_angle_alpha   126.08816657
_cell_angle_beta   126.08815640
_cell_angle_gamma   79.95335249
_symmetry_Int_Tables_number   1
_chemical_formula_structural   Ho10Ge3Pb3O2
_chemical_formula_sum   'Ho10 Ge3 Pb3 O2'
_cell_volume   437.65153949
_cell_formula_units_Z   1
loop_
 _symmetry_equiv_pos_site_id
 _symmetry_equiv_pos_as_xyz
  1  'x, y, z'
loop_
 _atom_site_type_symbol
 _atom_site_label
 _atom_site_symmetry_multiplicity
 _atom_site_fract_x
 _atom_site_fract_y
 _atom_site_fract_z
 _atom_site_occupancy
  Ho  Ho0  1  0.007036  0.208801  0.500000  1
  Ho  Ho1  1  0.793085  0.301999  0.804326  1
  Ho  Ho2  1  0.502326  0.011241  0.804326  1
  Ho  Ho3  1  0.488759  0.997674  0.195674  1
  Ho  Ho4  1  0.001168  0.786310  0.500000  1
  Ho  Ho5  1  0.495730  0.493123  0.988852  1
  Ho  Ho6  1  0.198001  0.706915  0.195674  1
  Ho  Ho7  1  0.713690  0.498832  0.500000  1
  Ho  Ho8  1  0.291199  0.492964  0.500000  1
  Ho  Ho9  1  0.006877  0.004270  0.011148  1
  Ge  Ge10  1  0.851060  0.350262  0.201321  1
  Ge  Ge11  1  0.149738  0.648940  0.798679  1
  Ge  Ge12  1  0.351646  0.148354  0.500000  1
  Pb  Pb13  1  0.749459  0.750541  0.000000  1
  Pb  Pb14  1  0.646757  0.853243  0.500000  1
  Pb  Pb15  1  0.249459  0.250541  0.000000  1
  O  O16  1  0.751445  0.247436  0.500000  1
  O  O17  1  0.252564  0.748555  0.500000  1
