# generated using pymatgen
data_DyEr2Mg3Si2Au
_symmetry_space_group_name_H-M   'P 1'
_cell_length_a   7.20729300
_cell_length_b   7.22040986
_cell_length_c   4.28795400
_cell_angle_alpha   90.00000000
_cell_angle_beta   90.00000000
_cell_angle_gamma   119.93992892
_symmetry_Int_Tables_number   1
_chemical_formula_structural   DyEr2Mg3Si2Au
_chemical_formula_sum   'Dy1 Er2 Mg3 Si2 Au1'
_cell_volume   193.36476736
_cell_formula_units_Z   1
loop_
 _symmetry_equiv_pos_site_id
 _symmetry_equiv_pos_as_xyz
  1  'x, y, z'
loop_
 _atom_site_type_symbol
 _atom_site_label
 _atom_site_symmetry_multiplicity
 _atom_site_fract_x
 _atom_site_fract_y
 _atom_site_fract_z
 _atom_site_occupancy
  Dy  Dy0  1  0.582170  0.000000  0.000000  1
  Er  Er1  1  0.999581  0.582253  0.000000  1
  Er  Er2  1  0.417328  0.417747  0.000000  1
  Mg  Mg3  1  0.246040  0.000000  0.500000  1
  Mg  Mg4  1  0.000445  0.247278  0.500000  1
  Mg  Mg5  1  0.753167  0.752722  0.500000  1
  Si  Si6  1  0.332476  0.664722  0.500000  1
  Si  Si7  1  0.667755  0.335278  0.500000  1
  Au  Au8  1  0.001038  0.000000  0.000000  1
