# generated using pymatgen
data_Th3Al24CrPd8
_symmetry_space_group_name_H-M   'P 1'
_cell_length_a   8.53297235
_cell_length_b   8.53297170
_cell_length_c   8.53297100
_cell_angle_alpha   89.94210642
_cell_angle_beta   89.94211314
_cell_angle_gamma   89.94212182
_symmetry_Int_Tables_number   1
_chemical_formula_structural   Th3Al24CrPd8
_chemical_formula_sum   'Th3 Al24 Cr1 Pd8'
_cell_volume   621.29841988
_cell_formula_units_Z   1
loop_
 _symmetry_equiv_pos_site_id
 _symmetry_equiv_pos_as_xyz
  1  'x, y, z'
loop_
 _atom_site_type_symbol
 _atom_site_label
 _atom_site_symmetry_multiplicity
 _atom_site_fract_x
 _atom_site_fract_y
 _atom_site_fract_z
 _atom_site_occupancy
  Th  Th0  1  0.000000  0.500000  0.000000  1
  Th  Th1  1  0.500000  0.000000  0.000000  1
  Th  Th2  1  0.000000  0.000000  0.500000  1
  Al  Al3  1  0.991622  0.639320  0.639320  1
  Al  Al4  1  0.639320  0.639320  0.991622  1
  Al  Al5  1  0.639320  0.991622  0.639320  1
  Al  Al6  1  0.008378  0.360680  0.360680  1
  Al  Al7  1  0.360680  0.360680  0.008378  1
  Al  Al8  1  0.360680  0.008378  0.360680  1
  Al  Al9  1  0.730199  0.500000  0.269801  1
  Al  Al10  1  0.269801  0.500000  0.730199  1
  Al  Al11  1  0.500000  0.269801  0.730199  1
  Al  Al12  1  0.500000  0.730199  0.269801  1
  Al  Al13  1  0.269801  0.730199  0.500000  1
  Al  Al14  1  0.730199  0.269801  0.500000  1
  Al  Al15  1  0.833651  0.147036  0.833651  1
  Al  Al16  1  0.147036  0.833651  0.833651  1
  Al  Al17  1  0.833651  0.833651  0.147036  1
  Al  Al18  1  0.166349  0.852964  0.166349  1
  Al  Al19  1  0.852964  0.166349  0.166349  1
  Al  Al20  1  0.166349  0.166349  0.852964  1
  Al  Al21  1  0.725376  0.492057  0.725376  1
  Al  Al22  1  0.492057  0.725376  0.725376  1
  Al  Al23  1  0.725376  0.725376  0.492057  1
  Al  Al24  1  0.274624  0.507943  0.274624  1
  Al  Al25  1  0.507943  0.274624  0.274624  1
  Al  Al26  1  0.274624  0.274624  0.507943  1
  Cr  Cr27  1  0.500000  0.500000  0.500000  1
  Pd  Pd28  1  0.831435  0.831435  0.831435  1
  Pd  Pd29  1  0.168565  0.168565  0.168565  1
  Pd  Pd30  1  0.663246  0.336754  0.000000  1
  Pd  Pd31  1  0.000000  0.336754  0.663246  1
  Pd  Pd32  1  0.336754  0.000000  0.663246  1
  Pd  Pd33  1  0.336754  0.663246  0.000000  1
  Pd  Pd34  1  0.000000  0.663246  0.336754  1
  Pd  Pd35  1  0.663246  0.000000  0.336754  1
