# generated using pymatgen
data_SrAc3V4O12
_symmetry_space_group_name_H-M   'P 1'
_cell_length_a   5.62953448
_cell_length_b   5.67175315
_cell_length_c   8.06673462
_cell_angle_alpha   90.03959199
_cell_angle_beta   90.30540923
_cell_angle_gamma   90.37566543
_symmetry_Int_Tables_number   1
_chemical_formula_structural   SrAc3V4O12
_chemical_formula_sum   'Sr1 Ac3 V4 O12'
_cell_volume   257.55616771
_cell_formula_units_Z   1
loop_
 _symmetry_equiv_pos_site_id
 _symmetry_equiv_pos_as_xyz
  1  'x, y, z'
loop_
 _atom_site_type_symbol
 _atom_site_label
 _atom_site_symmetry_multiplicity
 _atom_site_fract_x
 _atom_site_fract_y
 _atom_site_fract_z
 _atom_site_occupancy
  Sr  Sr0  1  0.515516  0.503608  0.752017  1
  Ac  Ac1  1  0.015000  0.998870  0.753057  1
  Ac  Ac2  1  0.483085  0.497856  0.247060  1
  Ac  Ac3  1  0.983833  0.999633  0.247581  1
  V  V4  1  0.000355  0.500480  0.503213  1
  V  V5  1  0.500510  0.999995  0.502947  1
  V  V6  1  0.998604  0.499990  0.998164  1
  V  V7  1  0.498914  0.999374  0.996625  1
  O  O8  1  0.998541  0.442556  0.743328  1
  O  O9  1  0.492407  0.047916  0.746583  1
  O  O10  1  0.000340  0.553147  0.255713  1
  O  O11  1  0.507113  0.951815  0.252933  1
  O  O12  1  0.272972  0.726070  0.977420  1
  O  O13  1  0.258096  0.718588  0.521889  1
  O  O14  1  0.774900  0.773012  0.525109  1
  O  O15  1  0.779965  0.775677  0.972109  1
  O  O16  1  0.742643  0.280945  0.472792  1
  O  O17  1  0.725647  0.272930  0.028921  1
  O  O18  1  0.222617  0.227658  0.033320  1
  O  O19  1  0.228942  0.229880  0.469220  1
