# generated using pymatgen
data_Tb2SnB2Ru5
_symmetry_space_group_name_H-M   'P 1'
_cell_length_a   9.77676500
_cell_length_b   9.77676500
_cell_length_c   3.13759000
_cell_angle_alpha   90.00000000
_cell_angle_beta   90.00000000
_cell_angle_gamma   90.00000000
_symmetry_Int_Tables_number   1
_chemical_formula_structural   Tb2SnB2Ru5
_chemical_formula_sum   'Tb4 Sn2 B4 Ru10'
_cell_volume   299.90696016
_cell_formula_units_Z   2
loop_
 _symmetry_equiv_pos_site_id
 _symmetry_equiv_pos_as_xyz
  1  'x, y, z'
loop_
 _atom_site_type_symbol
 _atom_site_label
 _atom_site_symmetry_multiplicity
 _atom_site_fract_x
 _atom_site_fract_y
 _atom_site_fract_z
 _atom_site_occupancy
  Tb  Tb0  1  0.824544  0.675456  0.000000  1
  Tb  Tb1  1  0.175456  0.324544  0.000000  1
  Tb  Tb2  1  0.324544  0.824544  0.000000  1
  Tb  Tb3  1  0.675456  0.175456  0.000000  1
  Sn  Sn4  1  0.500000  0.500000  0.000000  1
  Sn  Sn5  1  0.000000  0.000000  0.000000  1
  B  B6  1  0.619888  0.880112  0.000000  1
  B  B7  1  0.380112  0.119888  0.000000  1
  B  B8  1  0.119888  0.619888  0.000000  1
  B  B9  1  0.880112  0.380112  0.000000  1
  Ru  Ru10  1  0.569754  0.723570  0.500000  1
  Ru  Ru11  1  0.430246  0.276430  0.500000  1
  Ru  Ru12  1  0.069754  0.776430  0.500000  1
  Ru  Ru13  1  0.930246  0.223570  0.500000  1
  Ru  Ru14  1  0.276430  0.569754  0.500000  1
  Ru  Ru15  1  0.723570  0.430246  0.500000  1
  Ru  Ru16  1  0.223570  0.069754  0.500000  1
  Ru  Ru17  1  0.776430  0.930246  0.500000  1
  Ru  Ru18  1  0.500000  0.000000  0.500000  1
  Ru  Ru19  1  0.000000  0.500000  0.500000  1
