# generated using pymatgen
data_La16Tb3DySn16
_symmetry_space_group_name_H-M   'P 1'
_cell_length_a   8.41061501
_cell_length_b   8.56186101
_cell_length_c   16.29625200
_cell_angle_alpha   90.00000000
_cell_angle_beta   90.00000000
_cell_angle_gamma   90.00406443
_symmetry_Int_Tables_number   1
_chemical_formula_structural   La16Tb3DySn16
_chemical_formula_sum   'La16 Tb3 Dy1 Sn16'
_cell_volume   1173.50152295
_cell_formula_units_Z   1
loop_
 _symmetry_equiv_pos_site_id
 _symmetry_equiv_pos_as_xyz
  1  'x, y, z'
loop_
 _atom_site_type_symbol
 _atom_site_label
 _atom_site_symmetry_multiplicity
 _atom_site_fract_x
 _atom_site_fract_y
 _atom_site_fract_z
 _atom_site_occupancy
  La  La0  1  0.368987  0.840657  0.880796  1
  La  La1  1  0.869141  0.659246  0.619216  1
  La  La2  1  0.630927  0.159294  0.380839  1
  La  La3  1  0.130939  0.340682  0.119142  1
  La  La4  1  0.630927  0.159294  0.119161  1
  La  La5  1  0.130939  0.340682  0.380858  1
  La  La6  1  0.368987  0.840657  0.619204  1
  La  La7  1  0.869141  0.659246  0.880784  1
  La  La8  1  0.520526  0.318127  0.900996  1
  La  La9  1  0.020632  0.181958  0.598991  1
  La  La10  1  0.479436  0.681911  0.401044  1
  La  La11  1  0.979423  0.818114  0.098968  1
  La  La12  1  0.479436  0.681911  0.098956  1
  La  La13  1  0.979423  0.818114  0.401032  1
  La  La14  1  0.520526  0.318127  0.599004  1
  La  La15  1  0.020632  0.181958  0.901009  1
  Tb  Tb16  1  0.701656  0.998295  0.750000  1
  Tb  Tb17  1  0.798340  0.498237  0.250000  1
  Tb  Tb18  1  0.298365  0.001753  0.250000  1
  Dy  Dy19  1  0.201841  0.501765  0.750000  1
  Sn  Sn20  1  0.289161  0.032817  0.046095  1
  Sn  Sn21  1  0.789132  0.467170  0.453904  1
  Sn  Sn22  1  0.710834  0.967201  0.546107  1
  Sn  Sn23  1  0.210857  0.532783  0.953774  1
  Sn  Sn24  1  0.710834  0.967201  0.953893  1
  Sn  Sn25  1  0.210857  0.532783  0.546226  1
  Sn  Sn26  1  0.289161  0.032817  0.453905  1
  Sn  Sn27  1  0.789132  0.467170  0.046096  1
  Sn  Sn28  1  0.564962  0.617106  0.750000  1
  Sn  Sn29  1  0.065224  0.882695  0.750000  1
  Sn  Sn30  1  0.434768  0.382803  0.250000  1
  Sn  Sn31  1  0.934787  0.117215  0.250000  1
  Sn  Sn32  1  0.325073  0.148264  0.750000  1
  Sn  Sn33  1  0.825158  0.351985  0.750000  1
  Sn  Sn34  1  0.674912  0.852005  0.250000  1
  Sn  Sn35  1  0.174926  0.647955  0.250000  1
