# generated using pymatgen
data_La9Th3(Si7Br3)2
_symmetry_space_group_name_H-M   'P 1'
_cell_length_a   4.14339500
_cell_length_b   11.88639480
_cell_length_c   16.84926988
_cell_angle_alpha   89.79576619
_cell_angle_beta   90.00000000
_cell_angle_gamma   90.00000000
_symmetry_Int_Tables_number   1
_chemical_formula_structural   La9Th3(Si7Br3)2
_chemical_formula_sum   'La9 Th3 Si14 Br6'
_cell_volume   829.82175429
_cell_formula_units_Z   1
loop_
 _symmetry_equiv_pos_site_id
 _symmetry_equiv_pos_as_xyz
  1  'x, y, z'
loop_
 _atom_site_type_symbol
 _atom_site_label
 _atom_site_symmetry_multiplicity
 _atom_site_fract_x
 _atom_site_fract_y
 _atom_site_fract_z
 _atom_site_occupancy
  La  La0  1  0.500000  0.341434  0.502334  1
  La  La1  1  0.000000  0.657409  0.999299  1
  La  La2  1  0.000000  0.640319  0.744192  1
  La  La3  1  0.500000  0.357951  0.244201  1
  La  La4  1  0.000000  0.640687  0.255930  1
  La  La5  1  0.500000  0.067668  0.879206  1
  La  La6  1  0.000000  0.933565  0.619544  1
  La  La7  1  0.500000  0.067106  0.118275  1
  La  La8  1  0.000000  0.931570  0.380578  1
  Th  Th9  1  0.500000  0.365778  0.758532  1
  Th  Th10  1  0.500000  0.357479  0.999442  1
  Th  Th11  1  0.000000  0.641330  0.501409  1
  Si  Si12  1  0.000000  0.156143  0.998149  1
  Si  Si13  1  0.500000  0.843484  0.500554  1
  Si  Si14  1  0.500000  0.565456  0.876334  1
  Si  Si15  1  0.000000  0.430324  0.626154  1
  Si  Si16  1  0.500000  0.563380  0.121356  1
  Si  Si17  1  0.000000  0.435938  0.378883  1
  Si  Si18  1  0.000000  0.256386  0.871702  1
  Si  Si19  1  0.500000  0.744127  0.625419  1
  Si  Si20  1  0.000000  0.255443  0.123579  1
  Si  Si21  1  0.500000  0.743205  0.375913  1
  Si  Si22  1  0.000000  0.459601  0.879149  1
  Si  Si23  1  0.500000  0.538854  0.622726  1
  Si  Si24  1  0.500000  0.540826  0.378012  1
  Si  Si25  1  0.000000  0.458103  0.122510  1
  Br  Br26  1  0.500000  0.115894  0.692038  1
  Br  Br27  1  0.000000  0.892018  0.806909  1
  Br  Br28  1  0.000000  0.136957  0.499360  1
  Br  Br29  1  0.500000  0.862399  0.999312  1
  Br  Br30  1  0.500000  0.107758  0.306878  1
  Br  Br31  1  0.000000  0.891410  0.192119  1
