# generated using pymatgen
data_YbErTh2(Al3Ir)6
_symmetry_space_group_name_H-M   'P 1'
_cell_length_a   7.61033620
_cell_length_b   7.61931164
_cell_length_c   9.50916300
_cell_angle_alpha   90.00000000
_cell_angle_beta   90.00000000
_cell_angle_gamma   119.40987804
_symmetry_Int_Tables_number   1
_chemical_formula_structural   YbErTh2(Al3Ir)6
_chemical_formula_sum   'Yb1 Er1 Th2 Al18 Ir6'
_cell_volume   480.33521300
_cell_formula_units_Z   1
loop_
 _symmetry_equiv_pos_site_id
 _symmetry_equiv_pos_as_xyz
  1  'x, y, z'
loop_
 _atom_site_type_symbol
 _atom_site_label
 _atom_site_symmetry_multiplicity
 _atom_site_fract_x
 _atom_site_fract_y
 _atom_site_fract_z
 _atom_site_occupancy
  Yb  Yb0  1  0.326945  0.005372  0.750000  1
  Er  Er1  1  0.002424  0.326473  0.750000  1
  Th  Th2  1  0.996535  0.672527  0.250000  1
  Th  Th3  1  0.670900  0.994538  0.250000  1
  Al  Al4  1  0.135885  0.134656  0.250000  1
  Al  Al5  1  0.872289  0.874083  0.750000  1
  Al  Al6  1  0.005759  0.335608  0.070356  1
  Al  Al7  1  0.000831  0.664862  0.918081  1
  Al  Al8  1  0.000831  0.664862  0.581919  1
  Al  Al9  1  0.335916  0.006008  0.432304  1
  Al  Al10  1  0.005759  0.335608  0.429644  1
  Al  Al11  1  0.663096  0.000061  0.581853  1
  Al  Al12  1  0.663096  0.000061  0.918147  1
  Al  Al13  1  0.335916  0.006008  0.067696  1
  Al  Al14  1  0.331896  0.332024  0.555602  1
  Al  Al15  1  0.663562  0.663115  0.458293  1
  Al  Al16  1  0.663562  0.663115  0.041707  1
  Al  Al17  1  0.331896  0.332024  0.944398  1
  Al  Al18  1  0.341183  0.542677  0.250000  1
  Al  Al19  1  0.660834  0.449094  0.750000  1
  Al  Al20  1  0.544089  0.339228  0.250000  1
  Al  Al21  1  0.446290  0.656779  0.750000  1
  Ir  Ir22  1  0.674198  0.329363  0.001288  1
  Ir  Ir23  1  0.328216  0.671992  0.002013  1
  Ir  Ir24  1  0.328216  0.671992  0.497987  1
  Ir  Ir25  1  0.674198  0.329363  0.498712  1
  Ir  Ir26  1  0.997837  0.999253  0.001746  1
  Ir  Ir27  1  0.997837  0.999253  0.498254  1
