# generated using pymatgen
data_Tb4ThAgPd14
_symmetry_space_group_name_H-M   'P 1'
_cell_length_a   4.17622900
_cell_length_b   4.12437900
_cell_length_c   20.66741700
_cell_angle_alpha   90.00000000
_cell_angle_beta   90.00000000
_cell_angle_gamma   90.00000000
_symmetry_Int_Tables_number   1
_chemical_formula_structural   Tb4ThAgPd14
_chemical_formula_sum   'Tb4 Th1 Ag1 Pd14'
_cell_volume   355.98284853
_cell_formula_units_Z   1
loop_
 _symmetry_equiv_pos_site_id
 _symmetry_equiv_pos_as_xyz
  1  'x, y, z'
loop_
 _atom_site_type_symbol
 _atom_site_label
 _atom_site_symmetry_multiplicity
 _atom_site_fract_x
 _atom_site_fract_y
 _atom_site_fract_z
 _atom_site_occupancy
  Tb  Tb0  1  0.000000  0.000000  0.202812  1
  Tb  Tb1  1  0.000000  0.000000  0.396100  1
  Tb  Tb2  1  0.000000  0.000000  0.603900  1
  Tb  Tb3  1  0.000000  0.000000  0.797188  1
  Th  Th4  1  0.000000  0.000000  0.000000  1
  Ag  Ag5  1  0.500000  0.000000  0.500000  1
  Pd  Pd6  1  0.500000  0.500000  0.000000  1
  Pd  Pd7  1  0.500000  0.500000  0.201447  1
  Pd  Pd8  1  0.500000  0.500000  0.400298  1
  Pd  Pd9  1  0.500000  0.500000  0.599702  1
  Pd  Pd10  1  0.500000  0.500000  0.798553  1
  Pd  Pd11  1  0.500000  0.000000  0.101199  1
  Pd  Pd12  1  0.500000  0.000000  0.300959  1
  Pd  Pd13  1  0.500000  0.000000  0.699041  1
  Pd  Pd14  1  0.500000  0.000000  0.898801  1
  Pd  Pd15  1  0.000000  0.500000  0.101263  1
  Pd  Pd16  1  0.000000  0.500000  0.300861  1
  Pd  Pd17  1  0.000000  0.500000  0.500000  1
  Pd  Pd18  1  0.000000  0.500000  0.699139  1
  Pd  Pd19  1  0.000000  0.500000  0.898737  1
