# generated using pymatgen
data_Gd4TmGa3
_symmetry_space_group_name_H-M   'P 1'
_cell_length_a   7.65623400
_cell_length_b   7.65623400
_cell_length_c   14.37380000
_cell_angle_alpha   90.00000000
_cell_angle_beta   90.00000000
_cell_angle_gamma   90.00000000
_symmetry_Int_Tables_number   1
_chemical_formula_structural   Gd4TmGa3
_chemical_formula_sum   'Gd16 Tm4 Ga12'
_cell_volume   842.56224502
_cell_formula_units_Z   4
loop_
 _symmetry_equiv_pos_site_id
 _symmetry_equiv_pos_as_xyz
  1  'x, y, z'
loop_
 _atom_site_type_symbol
 _atom_site_label
 _atom_site_symmetry_multiplicity
 _atom_site_fract_x
 _atom_site_fract_y
 _atom_site_fract_z
 _atom_site_occupancy
  Gd  Gd0  1  0.816919  0.841960  0.603022  1
  Gd  Gd1  1  0.183081  0.841960  0.103022  1
  Gd  Gd2  1  0.158040  0.816919  0.396978  1
  Gd  Gd3  1  0.841960  0.183081  0.396978  1
  Gd  Gd4  1  0.683081  0.658040  0.396978  1
  Gd  Gd5  1  0.658040  0.316919  0.603022  1
  Gd  Gd6  1  0.341960  0.683081  0.603022  1
  Gd  Gd7  1  0.658040  0.683081  0.103022  1
  Gd  Gd8  1  0.683081  0.341960  0.896978  1
  Gd  Gd9  1  0.841960  0.816919  0.896978  1
  Gd  Gd10  1  0.316919  0.341960  0.396978  1
  Gd  Gd11  1  0.183081  0.158040  0.603022  1
  Gd  Gd12  1  0.816919  0.158040  0.103022  1
  Gd  Gd13  1  0.316919  0.658040  0.896978  1
  Gd  Gd14  1  0.341960  0.316919  0.103022  1
  Gd  Gd15  1  0.158040  0.183081  0.896978  1
  Tm  Tm16  1  0.000000  0.500000  0.729346  1
  Tm  Tm17  1  0.000000  0.500000  0.229346  1
  Tm  Tm18  1  0.500000  0.000000  0.270654  1
  Tm  Tm19  1  0.500000  0.000000  0.770654  1
  Ga  Ga20  1  0.623025  0.376975  0.250000  1
  Ga  Ga21  1  0.123025  0.876975  0.750000  1
  Ga  Ga22  1  0.376975  0.376975  0.750000  1
  Ga  Ga23  1  0.376975  0.623025  0.250000  1
  Ga  Ga24  1  0.876975  0.876975  0.250000  1
  Ga  Ga25  1  0.623025  0.623025  0.750000  1
  Ga  Ga26  1  0.000000  0.500000  0.509420  1
  Ga  Ga27  1  0.876975  0.123025  0.750000  1
  Ga  Ga28  1  0.500000  0.000000  0.490580  1
  Ga  Ga29  1  0.500000  0.000000  0.990580  1
  Ga  Ga30  1  0.123025  0.123025  0.250000  1
  Ga  Ga31  1  0.000000  0.500000  0.009420  1
