# generated using pymatgen
data_YbGd7(Pt2Pb)4
_symmetry_space_group_name_H-M   'P 1'
_cell_length_a   7.99973100
_cell_length_b   7.99973060
_cell_length_c   7.38563300
_cell_angle_alpha   90.00000000
_cell_angle_beta   90.00000000
_cell_angle_gamma   90.34330128
_symmetry_Int_Tables_number   1
_chemical_formula_structural   YbGd7(Pt2Pb)4
_chemical_formula_sum   'Yb1 Gd7 Pt8 Pb4'
_cell_volume   472.64021681
_cell_formula_units_Z   1
loop_
 _symmetry_equiv_pos_site_id
 _symmetry_equiv_pos_as_xyz
  1  'x, y, z'
loop_
 _atom_site_type_symbol
 _atom_site_label
 _atom_site_symmetry_multiplicity
 _atom_site_fract_x
 _atom_site_fract_y
 _atom_site_fract_z
 _atom_site_occupancy
  Yb  Yb0  1  0.170062  0.829938  0.500000  1
  Gd  Gd1  1  0.670934  0.670203  0.000000  1
  Gd  Gd2  1  0.331393  0.333130  0.500000  1
  Gd  Gd3  1  0.829367  0.170633  0.500000  1
  Gd  Gd4  1  0.666870  0.668607  0.500000  1
  Gd  Gd5  1  0.329797  0.329066  0.000000  1
  Gd  Gd6  1  0.832558  0.167442  0.000000  1
  Gd  Gd7  1  0.169243  0.830757  0.000000  1
  Pt  Pt8  1  0.871869  0.873628  0.748829  1
  Pt  Pt9  1  0.126372  0.128131  0.748829  1
  Pt  Pt10  1  0.629134  0.370866  0.752785  1
  Pt  Pt11  1  0.629134  0.370866  0.247215  1
  Pt  Pt12  1  0.375052  0.624948  0.245396  1
  Pt  Pt13  1  0.126372  0.128131  0.251171  1
  Pt  Pt14  1  0.871869  0.873628  0.251171  1
  Pt  Pt15  1  0.375052  0.624948  0.754604  1
  Pb  Pb16  1  0.496371  0.998911  0.746883  1
  Pb  Pb17  1  0.496371  0.998911  0.253117  1
  Pb  Pb18  1  0.001089  0.503629  0.746883  1
  Pb  Pb19  1  0.001089  0.503629  0.253117  1
