# generated using pymatgen
data_La2NpU3(Sb4Pt3)2
_symmetry_space_group_name_H-M   'P 1'
_cell_length_a   8.55005907
_cell_length_b   8.54962366
_cell_length_c   8.56659446
_cell_angle_alpha   109.73224781
_cell_angle_beta   109.62999213
_cell_angle_gamma   109.16756443
_symmetry_Int_Tables_number   1
_chemical_formula_structural   La2NpU3(Sb4Pt3)2
_chemical_formula_sum   'La2 Np1 U3 Sb8 Pt6'
_cell_volume   481.35933789
_cell_formula_units_Z   1
loop_
 _symmetry_equiv_pos_site_id
 _symmetry_equiv_pos_as_xyz
  1  'x, y, z'
loop_
 _atom_site_type_symbol
 _atom_site_label
 _atom_site_symmetry_multiplicity
 _atom_site_fract_x
 _atom_site_fract_y
 _atom_site_fract_z
 _atom_site_occupancy
  La  La0  1  0.626814  0.751267  0.375400  1
  La  La1  1  0.249758  0.126505  0.875097  1
  Np  Np2  1  0.871231  0.250250  0.124719  1
  U  U3  1  0.748702  0.376230  0.625679  1
  U  U4  1  0.123709  0.873274  0.246568  1
  U  U5  1  0.376549  0.623986  0.750256  1
  Sb  Sb6  1  0.675917  0.499181  0.001959  1
  Sb  Sb7  1  0.498091  0.996599  0.672095  1
  Sb  Sb8  1  0.002570  0.672745  0.499156  1
  Sb  Sb9  1  0.828580  0.831679  0.829825  1
  Sb  Sb10  1  0.493947  0.993551  0.166288  1
  Sb  Sb11  1  0.174057  0.503374  0.004568  1
  Sb  Sb12  1  0.005531  0.176069  0.500795  1
  Sb  Sb13  1  0.323188  0.325019  0.324662  1
  Pt  Pt14  1  0.388500  0.254956  0.618709  1
  Pt  Pt15  1  0.111049  0.729080  0.864365  1
  Pt  Pt16  1  0.245477  0.622384  0.378861  1
  Pt  Pt17  1  0.751416  0.877645  0.119090  1
  Pt  Pt18  1  0.638836  0.372591  0.269899  1
  Pt  Pt19  1  0.866076  0.143615  0.752009  1
