# generated using pymatgen
data_DyYTm2(NiB4)4
_symmetry_space_group_name_H-M   'P 1'
_cell_length_a   6.80148616
_cell_length_b   6.80148182
_cell_length_c   6.80148720
_cell_angle_alpha   112.99796533
_cell_angle_beta   113.00158356
_cell_angle_gamma   102.62362076
_symmetry_Int_Tables_number   1
_chemical_formula_structural   DyYTm2(NiB4)4
_chemical_formula_sum   'Dy1 Y1 Tm2 Ni4 B16'
_cell_volume   239.65674084
_cell_formula_units_Z   1
loop_
 _symmetry_equiv_pos_site_id
 _symmetry_equiv_pos_as_xyz
  1  'x, y, z'
loop_
 _atom_site_type_symbol
 _atom_site_label
 _atom_site_symmetry_multiplicity
 _atom_site_fract_x
 _atom_site_fract_y
 _atom_site_fract_z
 _atom_site_occupancy
  Dy  Dy0  1  0.249828  0.749828  0.500000  1
  Y  Y1  1  0.797138  0.797138  0.000000  1
  Tm  Tm2  1  0.204192  0.204191  0.999999  1
  Tm  Tm3  1  0.749831  0.249831  0.500000  1
  Ni  Ni4  1  0.270492  0.498998  0.771493  1
  Ni  Ni5  1  0.727506  0.498998  0.228506  1
  Ni  Ni6  1  0.500345  0.728834  0.228488  1
  Ni  Ni7  1  0.500346  0.271857  0.771511  1
  B  B8  1  0.275800  0.111516  0.387356  1
  B  B9  1  0.724159  0.888444  0.612643  1
  B  B10  1  0.275801  0.888444  0.164285  1
  B  B11  1  0.724158  0.111516  0.835714  1
  B  B12  1  0.111798  0.724433  0.835716  1
  B  B13  1  0.888717  0.276082  0.164284  1
  B  B14  1  0.111798  0.276082  0.387364  1
  B  B15  1  0.888717  0.724433  0.612636  1
  B  B16  1  0.113407  0.114340  0.534079  1
  B  B17  1  0.580262  0.579328  0.465921  1
  B  B18  1  0.113407  0.579328  0.999067  1
  B  B19  1  0.580261  0.114340  0.000934  1
  B  B20  1  0.886350  0.887289  0.467621  1
  B  B21  1  0.419669  0.418730  0.532380  1
  B  B22  1  0.886350  0.418730  0.999062  1
  B  B23  1  0.419669  0.887289  0.000939  1
