# generated using pymatgen
data_Ho8In3Ag
_symmetry_space_group_name_H-M   'P 1'
_cell_length_a   10.63042800
_cell_length_b   10.63042653
_cell_length_c   6.83057800
_cell_angle_alpha   90.00000000
_cell_angle_beta   90.00000000
_cell_angle_gamma   120.00000458
_symmetry_Int_Tables_number   1
_chemical_formula_structural   Ho8In3Ag
_chemical_formula_sum   'Ho16 In6 Ag2'
_cell_volume   668.48167600
_cell_formula_units_Z   2
loop_
 _symmetry_equiv_pos_site_id
 _symmetry_equiv_pos_as_xyz
  1  'x, y, z'
loop_
 _atom_site_type_symbol
 _atom_site_label
 _atom_site_symmetry_multiplicity
 _atom_site_fract_x
 _atom_site_fract_y
 _atom_site_fract_z
 _atom_site_occupancy
  Ho  Ho0  1  0.521527  0.043051  0.518818  1
  Ho  Ho1  1  0.956949  0.478473  0.518818  1
  Ho  Ho2  1  0.521527  0.478473  0.518818  1
  Ho  Ho3  1  0.478473  0.956949  0.018818  1
  Ho  Ho4  1  0.043051  0.521527  0.018818  1
  Ho  Ho5  1  0.478473  0.521527  0.018818  1
  Ho  Ho6  1  0.171772  0.343545  0.732922  1
  Ho  Ho7  1  0.656455  0.828228  0.732922  1
  Ho  Ho8  1  0.171772  0.828228  0.732922  1
  Ho  Ho9  1  0.828228  0.656455  0.232922  1
  Ho  Ho10  1  0.343545  0.171772  0.232922  1
  Ho  Ho11  1  0.828228  0.171772  0.232922  1
  Ho  Ho12  1  0.666667  0.333333  0.870522  1
  Ho  Ho13  1  0.333333  0.666667  0.370522  1
  Ho  Ho14  1  0.000000  0.000000  0.498461  1
  Ho  Ho15  1  0.000000  0.000000  0.998461  1
  In  In16  1  0.835761  0.671522  0.751514  1
  In  In17  1  0.328478  0.164239  0.751514  1
  In  In18  1  0.835761  0.164239  0.751514  1
  In  In19  1  0.164239  0.328478  0.251514  1
  In  In20  1  0.671522  0.835761  0.251514  1
  In  In21  1  0.164239  0.835761  0.251514  1
  Ag  Ag22  1  0.666667  0.333333  0.293356  1
  Ag  Ag23  1  0.333333  0.666667  0.793356  1
