# generated using pymatgen
data_SrMn4(CoO6)2
_symmetry_space_group_name_H-M   'P 1'
_cell_length_a   7.96118349
_cell_length_b   7.95942991
_cell_length_c   9.32040429
_cell_angle_alpha   56.57090970
_cell_angle_beta   56.62553328
_cell_angle_gamma   66.06142276
_symmetry_Int_Tables_number   1
_chemical_formula_structural   SrMn4(CoO6)2
_chemical_formula_sum   'Sr2 Mn8 Co4 O24'
_cell_volume   407.12143626
_cell_formula_units_Z   2
loop_
 _symmetry_equiv_pos_site_id
 _symmetry_equiv_pos_as_xyz
  1  'x, y, z'
loop_
 _atom_site_type_symbol
 _atom_site_label
 _atom_site_symmetry_multiplicity
 _atom_site_fract_x
 _atom_site_fract_y
 _atom_site_fract_z
 _atom_site_occupancy
  Sr  Sr0  1  0.734940  0.273972  0.999097  1
  Sr  Sr1  1  0.273082  0.722362  0.000653  1
  Mn  Mn2  1  0.667497  0.662882  0.171521  1
  Mn  Mn3  1  0.327317  0.002467  0.173115  1
  Mn  Mn4  1  0.135679  0.138183  0.534488  1
  Mn  Mn5  1  0.473289  0.805549  0.532138  1
  Mn  Mn6  1  0.806085  0.471599  0.530783  1
  Mn  Mn7  1  0.858949  0.858777  0.470857  1
  Mn  Mn8  1  0.189717  0.521849  0.475468  1
  Mn  Mn9  1  0.522637  0.191229  0.474646  1
  Co  Co10  1  0.335423  0.337617  0.824390  1
  Co  Co11  1  0.003464  0.669460  0.822999  1
  Co  Co12  1  0.670320  0.003197  0.821789  1
  Co  Co13  1  0.998847  0.331423  0.173108  1
  O  O14  1  0.366304  0.367428  0.594368  1
  O  O15  1  0.032930  0.698776  0.594048  1
  O  O16  1  0.698676  0.031964  0.594507  1
  O  O17  1  0.970362  0.303793  0.403570  1
  O  O18  1  0.636224  0.636038  0.403439  1
  O  O19  1  0.304121  0.972082  0.402936  1
  O  O20  1  0.336179  0.337133  0.352668  1
  O  O21  1  0.004887  0.668932  0.351923  1
  O  O22  1  0.668687  0.005073  0.352105  1
  O  O23  1  0.993595  0.329408  0.651925  1
  O  O24  1  0.661642  0.661821  0.651567  1
  O  O25  1  0.329792  0.993013  0.652045  1
  O  O26  1  0.624217  0.288822  0.746616  1
  O  O27  1  0.289223  0.624300  0.747851  1
  O  O28  1  0.954786  0.956007  0.743299  1
  O  O29  1  0.710344  0.374965  0.252118  1
  O  O30  1  0.374632  0.709801  0.252886  1
  O  O31  1  0.042512  0.044656  0.254623  1
  O  O32  1  0.959168  0.625208  0.065227  1
  O  O33  1  0.625121  0.959851  0.065369  1
  O  O34  1  0.294427  0.295388  0.064716  1
  O  O35  1  0.375363  0.042372  0.931870  1
  O  O36  1  0.042956  0.376964  0.932811  1
  O  O37  1  0.706607  0.705640  0.932462  1
