# generated using pymatgen
data_Dy4Tm4Re(TcB8)3
_symmetry_space_group_name_H-M   'P 1'
_cell_length_a   3.66226300
_cell_length_b   9.12113797
_cell_length_c   11.50771801
_cell_angle_alpha   90.02455660
_cell_angle_beta   90.00000000
_cell_angle_gamma   90.00000000
_symmetry_Int_Tables_number   1
_chemical_formula_structural   Dy4Tm4Re(TcB8)3
_chemical_formula_sum   'Dy4 Tm4 Re1 Tc3 B24'
_cell_volume   384.40384743
_cell_formula_units_Z   1
loop_
 _symmetry_equiv_pos_site_id
 _symmetry_equiv_pos_as_xyz
  1  'x, y, z'
loop_
 _atom_site_type_symbol
 _atom_site_label
 _atom_site_symmetry_multiplicity
 _atom_site_fract_x
 _atom_site_fract_y
 _atom_site_fract_z
 _atom_site_occupancy
  Dy  Dy0  1  0.000000  0.323689  0.414112  1
  Dy  Dy1  1  0.000000  0.676534  0.585794  1
  Dy  Dy2  1  0.000000  0.823499  0.086034  1
  Dy  Dy3  1  0.000000  0.176784  0.914246  1
  Tm  Tm4  1  0.000000  0.942894  0.369246  1
  Tm  Tm5  1  0.000000  0.057609  0.629847  1
  Tm  Tm6  1  0.000000  0.442879  0.130780  1
  Tm  Tm7  1  0.000000  0.556105  0.869747  1
  Re  Re8  1  0.000000  0.861239  0.820140  1
  Tc  Tc9  1  0.000000  0.639125  0.320009  1
  Tc  Tc10  1  0.000000  0.360954  0.679936  1
  Tc  Tc11  1  0.000000  0.139075  0.180041  1
  B  B12  1  0.500000  0.553682  0.432633  1
  B  B13  1  0.500000  0.446500  0.567392  1
  B  B14  1  0.500000  0.053666  0.067498  1
  B  B15  1  0.500000  0.946535  0.932807  1
  B  B16  1  0.500000  0.750120  0.418249  1
  B  B17  1  0.500000  0.250094  0.581655  1
  B  B18  1  0.500000  0.250062  0.081781  1
  B  B19  1  0.500000  0.749525  0.918438  1
  B  B20  1  0.500000  0.792477  0.265179  1
  B  B21  1  0.500000  0.207490  0.734658  1
  B  B22  1  0.500000  0.292458  0.234913  1
  B  B23  1  0.500000  0.707156  0.765237  1
  B  B24  1  0.500000  0.630208  0.185145  1
  B  B25  1  0.500000  0.369562  0.814878  1
  B  B26  1  0.500000  0.130275  0.314931  1
  B  B27  1  0.500000  0.869926  0.684900  1
  B  B28  1  0.500000  0.981977  0.212234  1
  B  B29  1  0.500000  0.018371  0.787560  1
  B  B30  1  0.500000  0.481964  0.287823  1
  B  B31  1  0.500000  0.517937  0.712334  1
  B  B32  1  0.500000  0.598202  0.027444  1
  B  B33  1  0.500000  0.401231  0.972795  1
  B  B34  1  0.500000  0.098526  0.472368  1
  B  B35  1  0.500000  0.901671  0.527215  1
