# generated using pymatgen
data_Ho5Lu11(In3Co)2
_symmetry_space_group_name_H-M   'P 1'
_cell_length_a   10.19493142
_cell_length_b   10.19503651
_cell_length_c   6.90854900
_cell_angle_alpha   90.00142680
_cell_angle_beta   89.99784248
_cell_angle_gamma   120.03261017
_symmetry_Int_Tables_number   1
_chemical_formula_structural   Ho5Lu11(In3Co)2
_chemical_formula_sum   'Ho5 Lu11 In6 Co2'
_cell_volume   621.65261419
_cell_formula_units_Z   1
loop_
 _symmetry_equiv_pos_site_id
 _symmetry_equiv_pos_as_xyz
  1  'x, y, z'
loop_
 _atom_site_type_symbol
 _atom_site_label
 _atom_site_symmetry_multiplicity
 _atom_site_fract_x
 _atom_site_fract_y
 _atom_site_fract_z
 _atom_site_occupancy
  Ho  Ho0  1  0.533707  0.067485  0.521717  1
  Ho  Ho1  1  0.932524  0.466298  0.521732  1
  Ho  Ho2  1  0.533507  0.466484  0.522078  1
  Ho  Ho3  1  0.466263  0.932250  0.021728  1
  Ho  Ho4  1  0.067743  0.533726  0.021728  1
  Lu  Lu5  1  0.465876  0.534133  0.022343  1
  Lu  Lu6  1  0.179247  0.357657  0.729518  1
  Lu  Lu7  1  0.642349  0.820764  0.729529  1
  Lu  Lu8  1  0.178546  0.821456  0.728944  1
  Lu  Lu9  1  0.820759  0.642553  0.228403  1
  Lu  Lu10  1  0.357437  0.179222  0.228398  1
  Lu  Lu11  1  0.821514  0.178496  0.228832  1
  Lu  Lu12  1  0.666355  0.333632  0.912925  1
  Lu  Lu13  1  0.333623  0.666377  0.412463  1
  Lu  Lu14  1  0.000046  0.999968  0.507568  1
  Lu  Lu15  1  0.999925  0.000058  0.007658  1
  In  In16  1  0.837099  0.674233  0.770140  1
  In  In17  1  0.325786  0.162927  0.770150  1
  In  In18  1  0.837112  0.162898  0.770008  1
  In  In19  1  0.163397  0.326146  0.269712  1
  In  In20  1  0.673846  0.836619  0.269736  1
  In  In21  1  0.162826  0.837133  0.270167  1
  Co  Co22  1  0.666729  0.333270  0.294878  1
  Co  Co23  1  0.333783  0.666216  0.795324  1
