# generated using pymatgen
data_YbPr5YCoI12
_symmetry_space_group_name_H-M   'P 1'
_cell_length_a   9.93650383
_cell_length_b   10.06629523
_cell_length_c   10.04340266
_cell_angle_alpha   106.82393069
_cell_angle_beta   107.07411713
_cell_angle_gamma   107.02072556
_symmetry_Int_Tables_number   1
_chemical_formula_structural   YbPr5YCoI12
_chemical_formula_sum   'Yb1 Pr5 Y1 Co1 I12'
_cell_volume   837.23682525
_cell_formula_units_Z   1
loop_
 _symmetry_equiv_pos_site_id
 _symmetry_equiv_pos_as_xyz
  1  'x, y, z'
loop_
 _atom_site_type_symbol
 _atom_site_label
 _atom_site_symmetry_multiplicity
 _atom_site_fract_x
 _atom_site_fract_y
 _atom_site_fract_z
 _atom_site_occupancy
  Yb  Yb0  1  0.500637  0.500174  0.499618  1
  Pr  Pr1  1  0.025287  0.100182  0.305442  1
  Pr  Pr2  1  0.100927  0.303674  0.024863  1
  Pr  Pr3  1  0.289580  0.024450  0.093753  1
  Pr  Pr4  1  0.899089  0.695897  0.974765  1
  Pr  Pr5  1  0.709448  0.974519  0.902186  1
  Y  Y6  1  0.974076  0.901717  0.704585  1
  Co  Co7  1  0.999128  0.999623  0.999864  1
  I  I8  1  0.533898  0.615473  0.837687  1
  I  I9  1  0.465972  0.384611  0.161524  1
  I  I10  1  0.309057  0.925456  0.768994  1
  I  I11  1  0.385963  0.160221  0.462056  1
  I  I12  1  0.928563  0.775794  0.325958  1
  I  I13  1  0.677510  0.071354  0.222306  1
  I  I14  1  0.068790  0.213540  0.678165  1
  I  I15  1  0.772022  0.319431  0.926376  1
  I  I16  1  0.227899  0.680564  0.073283  1
  I  I17  1  0.847517  0.548415  0.617286  1
  I  I18  1  0.158918  0.463308  0.382822  1
  I  I19  1  0.625719  0.841597  0.538467  1
