# generated using pymatgen
data_Eu2B2Pd7Pb
_symmetry_space_group_name_H-M   'P 1'
_cell_length_a   8.34932239
_cell_length_b   8.34932272
_cell_length_c   8.34932328
_cell_angle_alpha   39.18776446
_cell_angle_beta   39.18776108
_cell_angle_gamma   39.18776278
_symmetry_Int_Tables_number   1
_chemical_formula_structural   Eu2B2Pd7Pb
_chemical_formula_sum   'Eu2 B2 Pd7 Pb1'
_cell_volume   209.05785808
_cell_formula_units_Z   1
loop_
 _symmetry_equiv_pos_site_id
 _symmetry_equiv_pos_as_xyz
  1  'x, y, z'
loop_
 _atom_site_type_symbol
 _atom_site_label
 _atom_site_symmetry_multiplicity
 _atom_site_fract_x
 _atom_site_fract_y
 _atom_site_fract_z
 _atom_site_occupancy
  Eu  Eu0  1  0.495170  0.495170  0.495170  1
  Eu  Eu1  1  0.648603  0.648603  0.648603  1
  B  B2  1  0.167876  0.167876  0.167876  1
  B  B3  1  0.833533  0.833533  0.833533  1
  Pd  Pd4  1  0.000873  0.000873  0.000873  1
  Pd  Pd5  1  0.564674  0.064389  0.064388  1
  Pd  Pd6  1  0.064389  0.564674  0.064388  1
  Pd  Pd7  1  0.937240  0.937240  0.436489  1
  Pd  Pd8  1  0.064389  0.064389  0.564673  1
  Pd  Pd9  1  0.937240  0.436488  0.937241  1
  Pd  Pd10  1  0.436488  0.937240  0.937241  1
  Pb  Pb11  1  0.349526  0.349526  0.349526  1
