# generated using pymatgen
data_Hf16Re3TcNi4
_symmetry_space_group_name_H-M   'P 1'
_cell_length_a   8.66046231
_cell_length_b   8.66046213
_cell_length_c   8.66046240
_cell_angle_alpha   60.00235090
_cell_angle_beta   60.00235298
_cell_angle_gamma   60.00235152
_symmetry_Int_Tables_number   1
_chemical_formula_structural   Hf16Re3TcNi4
_chemical_formula_sum   'Hf16 Re3 Tc1 Ni4'
_cell_volume   459.33694946
_cell_formula_units_Z   1
loop_
 _symmetry_equiv_pos_site_id
 _symmetry_equiv_pos_as_xyz
  1  'x, y, z'
loop_
 _atom_site_type_symbol
 _atom_site_label
 _atom_site_symmetry_multiplicity
 _atom_site_fract_x
 _atom_site_fract_y
 _atom_site_fract_z
 _atom_site_occupancy
  Hf  Hf0  1  0.688065  0.103795  0.103795  1
  Hf  Hf1  1  0.103795  0.688065  0.103795  1
  Hf  Hf2  1  0.103795  0.103795  0.688065  1
  Hf  Hf3  1  0.103437  0.103437  0.103437  1
  Hf  Hf4  1  0.316268  0.316268  0.684520  1
  Hf  Hf5  1  0.684204  0.684204  0.316301  1
  Hf  Hf6  1  0.316268  0.684520  0.316268  1
  Hf  Hf7  1  0.684204  0.316301  0.684204  1
  Hf  Hf8  1  0.684520  0.316268  0.316268  1
  Hf  Hf9  1  0.316301  0.684204  0.684204  1
  Hf  Hf10  1  0.955217  0.955217  0.544856  1
  Hf  Hf11  1  0.544919  0.544919  0.954482  1
  Hf  Hf12  1  0.955217  0.544856  0.955217  1
  Hf  Hf13  1  0.544919  0.954482  0.544919  1
  Hf  Hf14  1  0.544856  0.955217  0.955217  1
  Hf  Hf15  1  0.954482  0.544919  0.544919  1
  Re  Re16  1  0.000952  0.332594  0.332594  1
  Re  Re17  1  0.332594  0.000952  0.332594  1
  Re  Re18  1  0.332594  0.332594  0.000952  1
  Tc  Tc19  1  0.333472  0.333472  0.333472  1
  Ni  Ni20  1  0.325779  0.891232  0.891232  1
  Ni  Ni21  1  0.891232  0.325779  0.891232  1
  Ni  Ni22  1  0.891232  0.891232  0.325779  1
  Ni  Ni23  1  0.891672  0.891672  0.891672  1
