# generated using pymatgen
data_CaLa15MgHg3Ir4
_symmetry_space_group_name_H-M   'P 1'
_cell_length_a   10.13549873
_cell_length_b   10.11591858
_cell_length_c   10.08759806
_cell_angle_alpha   59.90708998
_cell_angle_beta   59.97518436
_cell_angle_gamma   60.06388398
_symmetry_Int_Tables_number   1
_chemical_formula_structural   CaLa15MgHg3Ir4
_chemical_formula_sum   'Ca1 La15 Mg1 Hg3 Ir4'
_cell_volume   731.04617607
_cell_formula_units_Z   1
loop_
 _symmetry_equiv_pos_site_id
 _symmetry_equiv_pos_as_xyz
  1  'x, y, z'
loop_
 _atom_site_type_symbol
 _atom_site_label
 _atom_site_symmetry_multiplicity
 _atom_site_fract_x
 _atom_site_fract_y
 _atom_site_fract_z
 _atom_site_occupancy
  Ca  Ca0  1  0.439139  0.060037  0.440787  1
  La  La1  1  0.805804  0.808420  0.192848  1
  La  La2  1  0.061609  0.438886  0.060620  1
  La  La3  1  0.191151  0.808258  0.192332  1
  La  La4  1  0.805804  0.192928  0.192848  1
  La  La5  1  0.060911  0.059965  0.440987  1
  La  La6  1  0.653240  0.653786  0.652793  1
  La  La7  1  0.653240  0.040180  0.652793  1
  La  La8  1  0.189006  0.810816  0.810651  1
  La  La9  1  0.040958  0.652911  0.653218  1
  La  La10  1  0.060911  0.438138  0.440987  1
  La  La11  1  0.189006  0.189528  0.810651  1
  La  La12  1  0.650548  0.650012  0.049429  1
  La  La13  1  0.438847  0.061879  0.060989  1
  La  La14  1  0.810933  0.188053  0.812962  1
  La  La15  1  0.438847  0.438285  0.060989  1
  Mg  Mg16  1  0.430276  0.430265  0.709195  1
  Hg  Hg17  1  0.753026  0.413687  0.419599  1
  Hg  Hg18  1  0.413661  0.413343  0.419642  1
  Hg  Hg19  1  0.413661  0.753353  0.419642  1
  Ir  Ir20  1  0.858540  0.858614  0.860308  1
  Ir  Ir21  1  0.858540  0.422539  0.860308  1
  Ir  Ir22  1  0.859916  0.858277  0.423530  1
  Ir  Ir23  1  0.422427  0.857839  0.861896  1
