# generated using pymatgen
data_NdTm2Ir7Rh2
_symmetry_space_group_name_H-M   'P 1'
_cell_length_a   5.31555120
_cell_length_b   5.31614250
_cell_length_c   17.43002500
_cell_angle_alpha   90.00000000
_cell_angle_beta   90.00000000
_cell_angle_gamma   120.00822067
_symmetry_Int_Tables_number   1
_chemical_formula_structural   NdTm2Ir7Rh2
_chemical_formula_sum   'Nd2 Tm4 Ir14 Rh4'
_cell_volume   426.51821230
_cell_formula_units_Z   2
loop_
 _symmetry_equiv_pos_site_id
 _symmetry_equiv_pos_as_xyz
  1  'x, y, z'
loop_
 _atom_site_type_symbol
 _atom_site_label
 _atom_site_symmetry_multiplicity
 _atom_site_fract_x
 _atom_site_fract_y
 _atom_site_fract_z
 _atom_site_occupancy
  Nd  Nd0  1  0.333341  0.666674  0.750000  1
  Nd  Nd1  1  0.666659  0.333326  0.250000  1
  Tm  Tm2  1  0.333318  0.666683  0.540368  1
  Tm  Tm3  1  0.666682  0.333317  0.040368  1
  Tm  Tm4  1  0.666682  0.333317  0.459632  1
  Tm  Tm5  1  0.333318  0.666683  0.959632  1
  Ir  Ir6  1  0.167860  0.335679  0.124344  1
  Ir  Ir7  1  0.832140  0.664321  0.624344  1
  Ir  Ir8  1  0.664340  0.832145  0.124327  1
  Ir  Ir9  1  0.167872  0.832123  0.124357  1
  Ir  Ir10  1  0.832128  0.167877  0.624357  1
  Ir  Ir11  1  0.335660  0.167855  0.624327  1
  Ir  Ir12  1  0.832140  0.664321  0.875656  1
  Ir  Ir13  1  0.832128  0.167877  0.875643  1
  Ir  Ir14  1  0.335660  0.167855  0.875673  1
  Ir  Ir15  1  0.664340  0.832145  0.375673  1
  Ir  Ir16  1  0.167872  0.832123  0.375643  1
  Ir  Ir17  1  0.167860  0.335679  0.375656  1
  Ir  Ir18  1  0.000000  0.000000  0.000000  1
  Ir  Ir19  1  0.000000  0.000000  0.500000  1
  Rh  Rh20  1  0.999877  0.999998  0.250000  1
  Rh  Rh21  1  0.000123  0.000002  0.750000  1
  Rh  Rh22  1  0.333463  0.666630  0.250000  1
  Rh  Rh23  1  0.666537  0.333370  0.750000  1
