# generated using pymatgen
data_Th6Cu6Sn7Sb
_symmetry_space_group_name_H-M   'P 1'
_cell_length_a   8.46170865
_cell_length_b   8.46170861
_cell_length_c   8.46170855
_cell_angle_alpha   109.42392485
_cell_angle_beta   109.42392830
_cell_angle_gamma   109.42392646
_symmetry_Int_Tables_number   1
_chemical_formula_structural   Th6Cu6Sn7Sb
_chemical_formula_sum   'Th6 Cu6 Sn7 Sb1'
_cell_volume   467.20818124
_cell_formula_units_Z   1
loop_
 _symmetry_equiv_pos_site_id
 _symmetry_equiv_pos_as_xyz
  1  'x, y, z'
loop_
 _atom_site_type_symbol
 _atom_site_label
 _atom_site_symmetry_multiplicity
 _atom_site_fract_x
 _atom_site_fract_y
 _atom_site_fract_z
 _atom_site_occupancy
  Th  Th0  1  0.874054  0.249199  0.124858  1
  Th  Th1  1  0.626411  0.750355  0.376082  1
  Th  Th2  1  0.249199  0.124858  0.874054  1
  Th  Th3  1  0.750355  0.376082  0.626411  1
  Th  Th4  1  0.124858  0.874054  0.249199  1
  Th  Th5  1  0.376082  0.626411  0.750355  1
  Cu  Cu6  1  0.373243  0.249079  0.625838  1
  Cu  Cu7  1  0.125391  0.751125  0.874958  1
  Cu  Cu8  1  0.249079  0.625838  0.373243  1
  Cu  Cu9  1  0.751125  0.874958  0.125391  1
  Cu  Cu10  1  0.625838  0.373243  0.249079  1
  Cu  Cu11  1  0.874958  0.125391  0.751125  1
  Sn  Sn12  1  0.664105  0.500977  0.000531  1
  Sn  Sn13  1  0.500977  0.000531  0.664105  1
  Sn  Sn14  1  0.000531  0.664105  0.500977  1
  Sn  Sn15  1  0.834256  0.834256  0.834256  1
  Sn  Sn16  1  0.500550  0.999244  0.162889  1
  Sn  Sn17  1  0.162889  0.500550  0.999244  1
  Sn  Sn18  1  0.999244  0.162889  0.500550  1
  Sb  Sb19  1  0.336856  0.336856  0.336856  1
