# generated using pymatgen
data_Er3TmAs6Ru7
_symmetry_space_group_name_H-M   'P 1'
_cell_length_a   7.20256928
_cell_length_b   7.20588891
_cell_length_c   7.20256810
_cell_angle_alpha   109.48056192
_cell_angle_beta   109.46188025
_cell_angle_gamma   109.48055659
_symmetry_Int_Tables_number   1
_chemical_formula_structural   Er3TmAs6Ru7
_chemical_formula_sum   'Er3 Tm1 As6 Ru7'
_cell_volume   287.73349695
_cell_formula_units_Z   1
loop_
 _symmetry_equiv_pos_site_id
 _symmetry_equiv_pos_as_xyz
  1  'x, y, z'
loop_
 _atom_site_type_symbol
 _atom_site_label
 _atom_site_symmetry_multiplicity
 _atom_site_fract_x
 _atom_site_fract_y
 _atom_site_fract_z
 _atom_site_occupancy
  Er  Er0  1  0.000000  0.000000  0.500000  1
  Er  Er1  1  0.500000  0.000000  0.000000  1
  Er  Er2  1  0.500000  0.500000  0.500000  1
  Tm  Tm3  1  0.000000  0.500000  0.000000  1
  As  As4  1  0.315413  0.999864  0.315413  1
  As  As5  1  0.000000  0.315549  0.315413  1
  As  As6  1  0.000000  0.684451  0.684587  1
  As  As7  1  0.315413  0.315549  0.000000  1
  As  As8  1  0.684587  0.684451  0.000000  1
  As  As9  1  0.684587  0.000136  0.684587  1
  Ru  Ru10  1  0.750124  0.500000  0.249876  1
  Ru  Ru11  1  0.499752  0.749876  0.249876  1
  Ru  Ru12  1  0.500248  0.250124  0.750124  1
  Ru  Ru13  1  0.750124  0.250124  0.500248  1
  Ru  Ru14  1  0.249876  0.749876  0.499752  1
  Ru  Ru15  1  0.249876  0.500000  0.750124  1
  Ru  Ru16  1  0.000000  0.000000  0.000000  1
