# generated using pymatgen
data_Dy9Er(In2Rh)4
_symmetry_space_group_name_H-M   'P 1'
_cell_length_a   3.63609100
_cell_length_b   8.01870713
_cell_length_c   18.33123429
_cell_angle_alpha   90.02030129
_cell_angle_beta   90.00000000
_cell_angle_gamma   90.00000000
_symmetry_Int_Tables_number   1
_chemical_formula_structural   Dy9Er(In2Rh)4
_chemical_formula_sum   'Dy9 Er1 In8 Rh4'
_cell_volume   534.47915999
_cell_formula_units_Z   1
loop_
 _symmetry_equiv_pos_site_id
 _symmetry_equiv_pos_as_xyz
  1  'x, y, z'
loop_
 _atom_site_type_symbol
 _atom_site_label
 _atom_site_symmetry_multiplicity
 _atom_site_fract_x
 _atom_site_fract_y
 _atom_site_fract_z
 _atom_site_occupancy
  Dy  Dy0  1  0.500000  0.882840  0.911754  1
  Dy  Dy1  1  0.500000  0.117222  0.088251  1
  Dy  Dy2  1  0.500000  0.753456  0.721291  1
  Dy  Dy3  1  0.500000  0.253739  0.778533  1
  Dy  Dy4  1  0.500000  0.499994  0.000008  1
  Dy  Dy5  1  0.500000  0.746419  0.221352  1
  Dy  Dy6  1  0.500000  0.246435  0.278646  1
  Dy  Dy7  1  0.500000  0.000107  0.500011  1
  Dy  Dy8  1  0.500000  0.617218  0.411836  1
  Er  Er9  1  0.500000  0.383135  0.588597  1
  In  In10  1  0.000000  0.792267  0.068856  1
  In  In11  1  0.000000  0.927743  0.349212  1
  In  In12  1  0.000000  0.072751  0.650703  1
  In  In13  1  0.000000  0.572196  0.849145  1
  In  In14  1  0.000000  0.706991  0.568815  1
  In  In15  1  0.000000  0.207780  0.931176  1
  In  In16  1  0.000000  0.292370  0.431345  1
  In  In17  1  0.000000  0.427815  0.150803  1
  Rh  Rh18  1  0.000000  0.976063  0.805264  1
  Rh  Rh19  1  0.000000  0.523903  0.305267  1
  Rh  Rh20  1  0.000000  0.475576  0.694346  1
  Rh  Rh21  1  0.000000  0.023983  0.194791  1
