# generated using pymatgen
data_KSr3Mg2(ReN4)2
_symmetry_space_group_name_H-M   'P 1'
_cell_length_a   6.03935700
_cell_length_b   6.38998820
_cell_length_c   6.78548928
_cell_angle_alpha   74.45354321
_cell_angle_beta   90.00000000
_cell_angle_gamma   90.00000000
_symmetry_Int_Tables_number   1
_chemical_formula_structural   KSr3Mg2(ReN4)2
_chemical_formula_sum   'K1 Sr3 Mg2 Re2 N8'
_cell_volume   252.28105221
_cell_formula_units_Z   1
loop_
 _symmetry_equiv_pos_site_id
 _symmetry_equiv_pos_as_xyz
  1  'x, y, z'
loop_
 _atom_site_type_symbol
 _atom_site_label
 _atom_site_symmetry_multiplicity
 _atom_site_fract_x
 _atom_site_fract_y
 _atom_site_fract_z
 _atom_site_occupancy
  K  K0  1  0.250000  0.239818  0.069533  1
  Sr  Sr1  1  0.750000  0.764151  0.935091  1
  Sr  Sr2  1  0.750000  0.780190  0.430393  1
  Sr  Sr3  1  0.250000  0.214826  0.575741  1
  Mg  Mg4  1  0.750000  0.307767  0.294325  1
  Mg  Mg5  1  0.250000  0.684848  0.704235  1
  Re  Re6  1  0.250000  0.708306  0.202628  1
  Re  Re7  1  0.750000  0.291687  0.797072  1
  N  N8  1  0.511054  0.474791  0.744831  1
  N  N9  1  0.000017  0.538342  0.250134  1
  N  N10  1  0.499983  0.538342  0.250134  1
  N  N11  1  0.988946  0.474791  0.744831  1
  N  N12  1  0.750000  0.117128  0.611094  1
  N  N13  1  0.250000  0.874658  0.393104  1
  N  N14  1  0.750000  0.125733  0.069655  1
  N  N15  1  0.250000  0.864621  0.927199  1
