# generated using pymatgen
data_Dy16Lu3MgIr12
_symmetry_space_group_name_H-M   'P 1'
_cell_length_a   10.82473900
_cell_length_b   10.82473900
_cell_length_c   6.29290200
_cell_angle_alpha   90.00000000
_cell_angle_beta   90.00000000
_cell_angle_gamma   90.00000000
_symmetry_Int_Tables_number   1
_chemical_formula_structural   Dy16Lu3MgIr12
_chemical_formula_sum   'Dy16 Lu3 Mg1 Ir12'
_cell_volume   737.37063087
_cell_formula_units_Z   1
loop_
 _symmetry_equiv_pos_site_id
 _symmetry_equiv_pos_as_xyz
  1  'x, y, z'
loop_
 _atom_site_type_symbol
 _atom_site_label
 _atom_site_symmetry_multiplicity
 _atom_site_fract_x
 _atom_site_fract_y
 _atom_site_fract_z
 _atom_site_occupancy
  Dy  Dy0  1  0.283878  0.084660  0.379900  1
  Dy  Dy1  1  0.290035  0.911921  0.880270  1
  Dy  Dy2  1  0.709965  0.088079  0.880270  1
  Dy  Dy3  1  0.716122  0.915340  0.379900  1
  Dy  Dy4  1  0.589005  0.791471  0.880839  1
  Dy  Dy5  1  0.587583  0.208573  0.378866  1
  Dy  Dy6  1  0.412417  0.791427  0.378866  1
  Dy  Dy7  1  0.410995  0.208529  0.880839  1
  Dy  Dy8  1  0.208573  0.412417  0.621134  1
  Dy  Dy9  1  0.208529  0.589005  0.119161  1
  Dy  Dy10  1  0.791471  0.410995  0.119161  1
  Dy  Dy11  1  0.791427  0.587583  0.621134  1
  Dy  Dy12  1  0.911921  0.709965  0.119730  1
  Dy  Dy13  1  0.915340  0.283878  0.620100  1
  Dy  Dy14  1  0.084660  0.716122  0.620100  1
  Dy  Dy15  1  0.088079  0.290035  0.119730  1
  Lu  Lu16  1  0.000000  0.000000  0.000000  1
  Lu  Lu17  1  0.500000  0.500000  0.000000  1
  Lu  Lu18  1  0.500000  0.500000  0.500000  1
  Mg  Mg19  1  0.000000  0.000000  0.500000  1
  Ir  Ir20  1  0.847640  0.153159  0.246805  1
  Ir  Ir21  1  0.846841  0.847640  0.753195  1
  Ir  Ir22  1  0.153159  0.152360  0.753195  1
  Ir  Ir23  1  0.152360  0.846841  0.246805  1
  Ir  Ir24  1  0.652890  0.347623  0.748162  1
  Ir  Ir25  1  0.652377  0.652890  0.251838  1
  Ir  Ir26  1  0.347623  0.347110  0.251838  1
  Ir  Ir27  1  0.347110  0.652377  0.748162  1
  Ir  Ir28  1  0.500000  0.000000  0.125207  1
  Ir  Ir29  1  0.500000  0.000000  0.621253  1
  Ir  Ir30  1  0.000000  0.500000  0.874793  1
  Ir  Ir31  1  0.000000  0.500000  0.378747  1
