# generated using pymatgen
data_CsNa(SiAs)6
_symmetry_space_group_name_H-M   'P 1'
_cell_length_a   3.70493300
_cell_length_b   10.18112424
_cell_length_c   19.74066981
_cell_angle_alpha   94.58205648
_cell_angle_beta   90.00000000
_cell_angle_gamma   90.00000000
_symmetry_Int_Tables_number   1
_chemical_formula_structural   CsNa(SiAs)6
_chemical_formula_sum   'Cs2 Na2 Si12 As12'
_cell_volume   742.24576511
_cell_formula_units_Z   2
loop_
 _symmetry_equiv_pos_site_id
 _symmetry_equiv_pos_as_xyz
  1  'x, y, z'
loop_
 _atom_site_type_symbol
 _atom_site_label
 _atom_site_symmetry_multiplicity
 _atom_site_fract_x
 _atom_site_fract_y
 _atom_site_fract_z
 _atom_site_occupancy
  Cs  Cs0  1  0.000000  0.193025  0.798780  1
  Cs  Cs1  1  0.000000  0.806975  0.201220  1
  Na  Na2  1  0.000000  0.321915  0.302195  1
  Na  Na3  1  0.000000  0.678085  0.697805  1
  Si  Si4  1  0.500000  0.413136  0.036216  1
  Si  Si5  1  0.500000  0.586864  0.963784  1
  Si  Si6  1  0.500000  0.101143  0.532604  1
  Si  Si7  1  0.500000  0.898857  0.467396  1
  Si  Si8  1  0.000000  0.112828  0.018626  1
  Si  Si9  1  0.000000  0.887172  0.981374  1
  Si  Si10  1  0.000000  0.389463  0.511769  1
  Si  Si11  1  0.000000  0.610537  0.488231  1
  Si  Si12  1  0.000000  0.196437  0.134491  1
  Si  Si13  1  0.000000  0.803563  0.865509  1
  Si  Si14  1  0.000000  0.346021  0.626567  1
  Si  Si15  1  0.000000  0.653979  0.373433  1
  As  As16  1  0.500000  0.137173  0.199998  1
  As  As17  1  0.500000  0.862827  0.800002  1
  As  As18  1  0.500000  0.425030  0.692262  1
  As  As19  1  0.500000  0.574970  0.307738  1
  As  As20  1  0.500000  0.276568  0.454912  1
  As  As21  1  0.500000  0.723432  0.545088  1
  As  As22  1  0.500000  0.210059  0.963260  1
  As  As23  1  0.500000  0.789941  0.036740  1
  As  As24  1  0.000000  0.430582  0.114104  1
  As  As25  1  0.000000  0.569418  0.885896  1
  As  As26  1  0.000000  0.105986  0.609923  1
  As  As27  1  0.000000  0.894014  0.390077  1
