# generated using pymatgen
data_Zr2TaNb3C5
_symmetry_space_group_name_H-M   'P 1'
_cell_length_a   5.60856456
_cell_length_b   5.61139085
_cell_length_c   5.55447231
_cell_angle_alpha   81.02061474
_cell_angle_beta   80.83749602
_cell_angle_gamma   120.53739865
_symmetry_Int_Tables_number   1
_chemical_formula_structural   Zr2TaNb3C5
_chemical_formula_sum   'Zr2 Ta1 Nb3 C5'
_cell_volume   142.75219546
_cell_formula_units_Z   1
loop_
 _symmetry_equiv_pos_site_id
 _symmetry_equiv_pos_as_xyz
  1  'x, y, z'
loop_
 _atom_site_type_symbol
 _atom_site_label
 _atom_site_symmetry_multiplicity
 _atom_site_fract_x
 _atom_site_fract_y
 _atom_site_fract_z
 _atom_site_occupancy
  Zr  Zr0  1  0.744477  0.745424  0.743108  1
  Zr  Zr1  1  0.255583  0.255068  0.256453  1
  Ta  Ta2  1  0.087957  0.443136  0.744637  1
  Nb  Nb3  1  0.557931  0.912507  0.254384  1
  Nb  Nb4  1  0.911796  0.557137  0.255028  1
  Nb  Nb5  1  0.442650  0.088317  0.745297  1
  C  C6  1  0.496816  0.499784  0.501449  1
  C  C7  1  0.674024  0.330166  0.998038  1
  C  C8  1  0.327186  0.669369  0.997994  1
  C  C9  1  0.830534  0.173148  0.501840  1
  C  C10  1  0.171045  0.825944  0.501773  1
