# generated using pymatgen
data_Li3Sm2Ni9P7
_symmetry_space_group_name_H-M   'P 1'
_cell_length_a   9.18956200
_cell_length_b   9.18956238
_cell_length_c   3.75140500
_cell_angle_alpha   90.00000000
_cell_angle_beta   90.00000000
_cell_angle_gamma   120.00000584
_symmetry_Int_Tables_number   1
_chemical_formula_structural   Li3Sm2Ni9P7
_chemical_formula_sum   'Li3 Sm2 Ni9 P7'
_cell_volume   274.35583505
_cell_formula_units_Z   1
loop_
 _symmetry_equiv_pos_site_id
 _symmetry_equiv_pos_as_xyz
  1  'x, y, z'
loop_
 _atom_site_type_symbol
 _atom_site_label
 _atom_site_symmetry_multiplicity
 _atom_site_fract_x
 _atom_site_fract_y
 _atom_site_fract_z
 _atom_site_occupancy
  Li  Li0  1  0.212370  0.106525  0.500000  1
  Li  Li1  1  0.893475  0.105844  0.500000  1
  Li  Li2  1  0.894156  0.787630  0.500000  1
  Sm  Sm3  1  0.333333  0.666667  0.000000  1
  Sm  Sm4  1  0.666667  0.333333  0.500000  1
  Ni  Ni5  1  0.121283  0.279423  0.000000  1
  Ni  Ni6  1  0.720577  0.841860  0.000000  1
  Ni  Ni7  1  0.158140  0.878717  0.000000  1
  Ni  Ni8  1  0.427797  0.371204  0.000000  1
  Ni  Ni9  1  0.628796  0.056596  0.000000  1
  Ni  Ni10  1  0.943404  0.572203  0.000000  1
  Ni  Ni11  1  0.045421  0.436863  0.500000  1
  Ni  Ni12  1  0.563137  0.608558  0.500000  1
  Ni  Ni13  1  0.391442  0.954579  0.500000  1
  P  P14  1  0.287203  0.404455  0.500000  1
  P  P15  1  0.595545  0.882747  0.500000  1
  P  P16  1  0.117253  0.712797  0.500000  1
  P  P17  1  0.410271  0.107689  0.000000  1
  P  P18  1  0.892311  0.302582  0.000000  1
  P  P19  1  0.697418  0.589729  0.000000  1
  P  P20  1  0.000000  0.000000  0.000000  1
