# generated using pymatgen
data_Sr4AlTlPt4
_symmetry_space_group_name_H-M   'P 1'
_cell_length_a   5.91650110
_cell_length_b   5.91650162
_cell_length_c   8.31265800
_cell_angle_alpha   79.14989248
_cell_angle_beta   79.14990139
_cell_angle_gamma   61.50558680
_symmetry_Int_Tables_number   1
_chemical_formula_structural   Sr4AlTlPt4
_chemical_formula_sum   'Sr4 Al1 Tl1 Pt4'
_cell_volume   249.52528932
_cell_formula_units_Z   1
loop_
 _symmetry_equiv_pos_site_id
 _symmetry_equiv_pos_as_xyz
  1  'x, y, z'
loop_
 _atom_site_type_symbol
 _atom_site_label
 _atom_site_symmetry_multiplicity
 _atom_site_fract_x
 _atom_site_fract_y
 _atom_site_fract_z
 _atom_site_occupancy
  Sr  Sr0  1  0.786021  0.512255  0.852939  1
  Sr  Sr1  1  0.487745  0.213979  0.647061  1
  Sr  Sr2  1  0.214160  0.490362  0.146931  1
  Sr  Sr3  1  0.509638  0.785840  0.353069  1
  Al  Al4  1  0.895034  0.104966  0.250000  1
  Tl  Tl5  1  0.145867  0.854133  0.750000  1
  Pt  Pt6  1  0.986505  0.737792  0.485050  1
  Pt  Pt7  1  0.262208  0.013495  0.014950  1
  Pt  Pt8  1  0.984099  0.271275  0.478710  1
  Pt  Pt9  1  0.728725  0.015901  0.021290  1
