# generated using pymatgen
data_YPa3(Pd2Pb)2
_symmetry_space_group_name_H-M   'P 1'
_cell_length_a   7.89258842
_cell_length_b   7.89258842
_cell_length_c   3.69021100
_cell_angle_alpha   90.00000000
_cell_angle_beta   90.00000000
_cell_angle_gamma   89.43651992
_symmetry_Int_Tables_number   1
_chemical_formula_structural   YPa3(Pd2Pb)2
_chemical_formula_sum   'Y1 Pa3 Pd4 Pb2'
_cell_volume   229.86302008
_cell_formula_units_Z   1
loop_
 _symmetry_equiv_pos_site_id
 _symmetry_equiv_pos_as_xyz
  1  'x, y, z'
loop_
 _atom_site_type_symbol
 _atom_site_label
 _atom_site_symmetry_multiplicity
 _atom_site_fract_x
 _atom_site_fract_y
 _atom_site_fract_z
 _atom_site_occupancy
  Y  Y0  1  0.325458  0.825458  0.500000  1
  Pa  Pa1  1  0.671664  0.171664  0.500000  1
  Pa  Pa2  1  0.174377  0.326275  0.500000  1
  Pa  Pa3  1  0.826275  0.674377  0.500000  1
  Pd  Pd4  1  0.868072  0.368072  0.000000  1
  Pd  Pd5  1  0.379071  0.135281  0.000000  1
  Pd  Pd6  1  0.635281  0.879071  0.000000  1
  Pd  Pd7  1  0.115453  0.615453  0.000000  1
  Pb  Pb8  1  0.007033  0.997315  0.000000  1
  Pb  Pb9  1  0.497315  0.507033  0.000000  1
