# generated using pymatgen
data_Ti5VSi6Tc5Os
_symmetry_space_group_name_H-M   'P 1'
_cell_length_a   7.49905112
_cell_length_b   7.54196664
_cell_length_c   7.49891535
_cell_angle_alpha   126.37145188
_cell_angle_beta   129.38227827
_cell_angle_gamma   76.73768010
_symmetry_Int_Tables_number   1
_chemical_formula_structural   Ti5VSi6Tc5Os
_chemical_formula_sum   'Ti5 V1 Si6 Tc5 Os1'
_cell_volume   256.49979461
_cell_formula_units_Z   1
loop_
 _symmetry_equiv_pos_site_id
 _symmetry_equiv_pos_as_xyz
  1  'x, y, z'
loop_
 _atom_site_type_symbol
 _atom_site_label
 _atom_site_symmetry_multiplicity
 _atom_site_fract_x
 _atom_site_fract_y
 _atom_site_fract_z
 _atom_site_occupancy
  Ti  Ti0  1  0.552159  0.001955  0.951628  1
  Ti  Ti1  1  0.048948  0.002751  0.451274  1
  Ti  Ti2  1  0.949529  0.405862  0.955263  1
  Ti  Ti3  1  0.247413  0.597574  0.852455  1
  Ti  Ti4  1  0.749101  0.599095  0.348645  1
  V  V5  1  0.452092  0.409049  0.459201  1
  Si  Si6  1  0.251825  0.005265  0.255556  1
  Si  Si7  1  0.749845  0.003821  0.751439  1
  Si  Si8  1  0.169616  0.669315  0.505762  1
  Si  Si9  1  0.828629  0.336805  0.501378  1
  Si  Si10  1  0.663332  0.667866  0.997770  1
  Si  Si11  1  0.334450  0.335034  0.008493  1
  Tc  Tc12  1  0.001715  0.265014  0.264047  1
  Tc  Tc13  1  0.499768  0.264488  0.764377  1
  Tc  Tc14  1  0.370680  0.742547  0.374087  1
  Tc  Tc15  1  0.628985  0.004199  0.370119  1
  Tc  Tc16  1  0.869248  0.743719  0.871930  1
  Os  Os17  1  0.132664  0.003643  0.874576  1
