# generated using pymatgen
data_Tm5CoRuO12
_symmetry_space_group_name_H-M   'P 1'
_cell_length_a   6.70319071
_cell_length_b   6.70319139
_cell_length_c   7.11342803
_cell_angle_alpha   74.48940046
_cell_angle_beta   74.48940584
_cell_angle_gamma   51.00716860
_symmetry_Int_Tables_number   1
_chemical_formula_structural   Tm5CoRuO12
_chemical_formula_sum   'Tm5 Co1 Ru1 O12'
_cell_volume   237.26684324
_cell_formula_units_Z   1
loop_
 _symmetry_equiv_pos_site_id
 _symmetry_equiv_pos_as_xyz
  1  'x, y, z'
loop_
 _atom_site_type_symbol
 _atom_site_label
 _atom_site_symmetry_multiplicity
 _atom_site_fract_x
 _atom_site_fract_y
 _atom_site_fract_z
 _atom_site_occupancy
  Tm  Tm0  1  0.685139  0.693721  0.669687  1
  Tm  Tm1  1  0.679274  0.714025  0.141639  1
  Tm  Tm2  1  0.995052  0.004948  0.000000  1
  Tm  Tm3  1  0.285975  0.320726  0.858361  1
  Tm  Tm4  1  0.306279  0.314861  0.330313  1
  Co  Co5  1  0.260812  0.739188  0.500000  1
  Ru  Ru6  1  0.771604  0.228396  0.500000  1
  O  O7  1  0.396195  0.913261  0.922432  1
  O  O8  1  0.574226  0.102221  0.583532  1
  O  O9  1  0.897779  0.425774  0.416468  1
  O  O10  1  0.086739  0.603805  0.077568  1
  O  O11  1  0.017681  0.982270  0.320645  1
  O  O12  1  0.503860  0.495818  0.686213  1
  O  O13  1  0.892814  0.405169  0.930092  1
  O  O14  1  0.097089  0.567263  0.583241  1
  O  O15  1  0.432737  0.902911  0.416759  1
  O  O16  1  0.594831  0.107186  0.069908  1
  O  O17  1  0.504182  0.496140  0.313787  1
  O  O18  1  0.017730  0.982319  0.679355  1
