# generated using pymatgen
data_Tb4MnV(FeB8)2
_symmetry_space_group_name_H-M   'P 1'
_cell_length_a   3.42538200
_cell_length_b   5.93282992
_cell_length_c   11.46185296
_cell_angle_alpha   90.17824426
_cell_angle_beta   90.00000000
_cell_angle_gamma   90.00000000
_symmetry_Int_Tables_number   1
_chemical_formula_structural   Tb4MnV(FeB8)2
_chemical_formula_sum   'Tb4 Mn1 V1 Fe2 B16'
_cell_volume   232.92904220
_cell_formula_units_Z   1
loop_
 _symmetry_equiv_pos_site_id
 _symmetry_equiv_pos_as_xyz
  1  'x, y, z'
loop_
 _atom_site_type_symbol
 _atom_site_label
 _atom_site_symmetry_multiplicity
 _atom_site_fract_x
 _atom_site_fract_y
 _atom_site_fract_z
 _atom_site_occupancy
  Tb  Tb0  1  0.500000  0.373510  0.148413  1
  Tb  Tb1  1  0.500000  0.626264  0.850555  1
  Tb  Tb2  1  0.500000  0.123587  0.652956  1
  Tb  Tb3  1  0.500000  0.874635  0.347547  1
  Mn  Mn4  1  0.500000  0.622601  0.582690  1
  V  V5  1  0.500000  0.375939  0.418824  1
  Fe  Fe6  1  0.500000  0.134638  0.911742  1
  Fe  Fe7  1  0.500000  0.866564  0.085659  1
  B  B8  1  0.000000  0.111335  0.045127  1
  B  B9  1  0.000000  0.888710  0.953878  1
  B  B10  1  0.000000  0.389973  0.548798  1
  B  B11  1  0.000000  0.615850  0.455940  1
  B  B12  1  0.000000  0.135058  0.468718  1
  B  B13  1  0.000000  0.861319  0.534292  1
  B  B14  1  0.000000  0.360053  0.967777  1
  B  B15  1  0.000000  0.640353  0.031600  1
  B  B16  1  0.000000  0.023937  0.188630  1
  B  B17  1  0.000000  0.975020  0.810648  1
  B  B18  1  0.000000  0.477567  0.691689  1
  B  B19  1  0.000000  0.526613  0.307869  1
  B  B20  1  0.000000  0.215276  0.313623  1
  B  B21  1  0.000000  0.779919  0.683722  1
  B  B22  1  0.000000  0.280301  0.817196  1
  B  B23  1  0.000000  0.720980  0.182108  1
