# generated using pymatgen
data_Ca3Lu(NbN3)2
_symmetry_space_group_name_H-M   'P 1'
_cell_length_a   5.66573381
_cell_length_b   5.66573386
_cell_length_c   5.89947812
_cell_angle_alpha   99.17135849
_cell_angle_beta   99.17135786
_cell_angle_gamma   120.00930555
_symmetry_Int_Tables_number   1
_chemical_formula_structural   Ca3Lu(NbN3)2
_chemical_formula_sum   'Ca3 Lu1 Nb2 N6'
_cell_volume   155.43166506
_cell_formula_units_Z   1
loop_
 _symmetry_equiv_pos_site_id
 _symmetry_equiv_pos_as_xyz
  1  'x, y, z'
loop_
 _atom_site_type_symbol
 _atom_site_label
 _atom_site_symmetry_multiplicity
 _atom_site_fract_x
 _atom_site_fract_y
 _atom_site_fract_z
 _atom_site_occupancy
  Ca  Ca0  1  0.833553  0.166447  0.500000  1
  Ca  Ca1  1  0.166447  0.833553  0.500000  1
  Ca  Ca2  1  0.500000  0.500000  0.500000  1
  Lu  Lu3  1  0.000000  0.000000  0.000000  1
  Nb  Nb4  1  0.333141  0.666859  0.000000  1
  Nb  Nb5  1  0.666859  0.333141  0.000000  1
  N  N6  1  0.419740  0.070656  0.214635  1
  N  N7  1  0.929344  0.580260  0.785365  1
  N  N8  1  0.580260  0.929344  0.785365  1
  N  N9  1  0.070656  0.419740  0.214635  1
  N  N10  1  0.722549  0.722549  0.214358  1
  N  N11  1  0.277451  0.277451  0.785642  1
