# generated using pymatgen
data_K2Rb3Sb2Pt
_symmetry_space_group_name_H-M   'P 1'
_cell_length_a   10.31469184
_cell_length_b   10.31469197
_cell_length_c   10.31469144
_cell_angle_alpha   34.30645348
_cell_angle_beta   34.30645031
_cell_angle_gamma   34.30644908
_symmetry_Int_Tables_number   1
_chemical_formula_structural   K2Rb3Sb2Pt
_chemical_formula_sum   'K2 Rb3 Sb2 Pt1'
_cell_volume   310.90199152
_cell_formula_units_Z   1
loop_
 _symmetry_equiv_pos_site_id
 _symmetry_equiv_pos_as_xyz
  1  'x, y, z'
loop_
 _atom_site_type_symbol
 _atom_site_label
 _atom_site_symmetry_multiplicity
 _atom_site_fract_x
 _atom_site_fract_y
 _atom_site_fract_z
 _atom_site_occupancy
  K  K0  1  0.218296  0.218296  0.218296  1
  K  K1  1  0.781704  0.781704  0.781704  1
  Rb  Rb2  1  0.500000  0.500000  0.500000  1
  Rb  Rb3  1  0.360335  0.360335  0.360335  1
  Rb  Rb4  1  0.639665  0.639665  0.639665  1
  Sb  Sb5  1  0.089555  0.089555  0.089555  1
  Sb  Sb6  1  0.910445  0.910445  0.910445  1
  Pt  Pt7  1  0.000000  0.000000  0.000000  1
