# generated using pymatgen
data_TbEr(Hg2O)2
_symmetry_space_group_name_H-M   'P 1'
_cell_length_a   5.58584517
_cell_length_b   5.60739641
_cell_length_c   11.05610500
_cell_angle_alpha   86.02172684
_cell_angle_beta   90.01399098
_cell_angle_gamma   89.99968321
_symmetry_Int_Tables_number   1
_chemical_formula_structural   TbEr(Hg2O)2
_chemical_formula_sum   'Tb2 Er2 Hg8 O4'
_cell_volume   345.46540920
_cell_formula_units_Z   2
loop_
 _symmetry_equiv_pos_site_id
 _symmetry_equiv_pos_as_xyz
  1  'x, y, z'
loop_
 _atom_site_type_symbol
 _atom_site_label
 _atom_site_symmetry_multiplicity
 _atom_site_fract_x
 _atom_site_fract_y
 _atom_site_fract_z
 _atom_site_occupancy
  Tb  Tb0  1  0.574937  0.486886  0.098148  1
  Tb  Tb1  1  0.074957  0.987355  0.098145  1
  Er  Er2  1  0.574803  0.012431  0.903574  1
  Er  Er3  1  0.074775  0.512997  0.903551  1
  Hg  Hg4  1  0.575125  0.968097  0.276248  1
  Hg  Hg5  1  0.075092  0.966024  0.413900  1
  Hg  Hg6  1  0.575051  0.034114  0.587384  1
  Hg  Hg7  1  0.074760  0.031428  0.724915  1
  Hg  Hg8  1  0.075315  0.461234  0.276491  1
  Hg  Hg9  1  0.575460  0.474697  0.413459  1
  Hg  Hg10  1  0.075369  0.525083  0.587878  1
  Hg  Hg11  1  0.574995  0.539008  0.724687  1
  O  O12  1  0.824170  0.250320  0.997718  1
  O  O13  1  0.825480  0.750016  0.998111  1
  O  O14  1  0.325524  0.250241  0.997578  1
  O  O15  1  0.324231  0.750068  0.998217  1
