# generated using pymatgen
data_Tb4Nd(FeO6)2
_symmetry_space_group_name_H-M   'P 1'
_cell_length_a   6.84882430
_cell_length_b   6.84882335
_cell_length_c   7.36435958
_cell_angle_alpha   74.50391077
_cell_angle_beta   74.50391295
_cell_angle_gamma   50.82681122
_symmetry_Int_Tables_number   1
_chemical_formula_structural   Tb4Nd(FeO6)2
_chemical_formula_sum   'Tb4 Nd1 Fe2 O12'
_cell_volume   255.81199569
_cell_formula_units_Z   1
loop_
 _symmetry_equiv_pos_site_id
 _symmetry_equiv_pos_as_xyz
  1  'x, y, z'
loop_
 _atom_site_type_symbol
 _atom_site_label
 _atom_site_symmetry_multiplicity
 _atom_site_fract_x
 _atom_site_fract_y
 _atom_site_fract_z
 _atom_site_occupancy
  Tb  Tb0  1  0.306031  0.306031  0.358080  1
  Tb  Tb1  1  0.693969  0.693969  0.641920  1
  Tb  Tb2  1  0.304996  0.304996  0.835146  1
  Tb  Tb3  1  0.695004  0.695004  0.164854  1
  Nd  Nd4  1  0.000000  0.000000  0.500000  1
  Fe  Fe5  1  0.755855  0.244145  0.000000  1
  Fe  Fe6  1  0.244145  0.755855  0.000000  1
  O  O7  1  0.896908  0.420094  0.923133  1
  O  O8  1  0.420094  0.896908  0.923133  1
  O  O9  1  0.103092  0.579906  0.076867  1
  O  O10  1  0.579906  0.103092  0.076867  1
  O  O11  1  0.094988  0.587839  0.581783  1
  O  O12  1  0.587839  0.094988  0.581783  1
  O  O13  1  0.905012  0.412161  0.418217  1
  O  O14  1  0.412161  0.905012  0.418217  1
  O  O15  1  0.001614  0.001614  0.822544  1
  O  O16  1  0.998386  0.998386  0.177456  1
  O  O17  1  0.499470  0.499470  0.817947  1
  O  O18  1  0.500530  0.500530  0.182053  1
