# generated using pymatgen
data_Th6ReAu7
_symmetry_space_group_name_H-M   'P 1'
_cell_length_a   8.31643372
_cell_length_b   8.31643462
_cell_length_c   8.31643508
_cell_angle_alpha   114.12516497
_cell_angle_beta   114.12516056
_cell_angle_gamma   114.12514985
_symmetry_Int_Tables_number   1
_chemical_formula_structural   Th6ReAu7
_chemical_formula_sum   'Th6 Re1 Au7'
_cell_volume   346.19095661
_cell_formula_units_Z   1
loop_
 _symmetry_equiv_pos_site_id
 _symmetry_equiv_pos_as_xyz
  1  'x, y, z'
loop_
 _atom_site_type_symbol
 _atom_site_label
 _atom_site_symmetry_multiplicity
 _atom_site_fract_x
 _atom_site_fract_y
 _atom_site_fract_z
 _atom_site_occupancy
  Th  Th0  1  0.016128  0.380989  0.267513  1
  Th  Th1  1  0.380989  0.267513  0.016128  1
  Th  Th2  1  0.732487  0.983872  0.619011  1
  Th  Th3  1  0.267513  0.016128  0.380989  1
  Th  Th4  1  0.619011  0.732487  0.983872  1
  Th  Th5  1  0.983872  0.619011  0.732487  1
  Re  Re6  1  0.000000  0.000000  0.000000  1
  Au  Au7  1  0.500000  0.500000  0.500000  1
  Au  Au8  1  0.432164  0.928829  0.767281  1
  Au  Au9  1  0.928829  0.767281  0.432164  1
  Au  Au10  1  0.232719  0.567836  0.071171  1
  Au  Au11  1  0.767281  0.432164  0.928829  1
  Au  Au12  1  0.071171  0.232719  0.567836  1
  Au  Au13  1  0.567836  0.071171  0.232719  1
