# generated using pymatgen
data_Ho3TmOs7W
_symmetry_space_group_name_H-M   'P 1'
_cell_length_a   5.27784761
_cell_length_b   5.28108450
_cell_length_c   8.90386807
_cell_angle_alpha   89.99540710
_cell_angle_beta   89.99389143
_cell_angle_gamma   62.02891123
_symmetry_Int_Tables_number   1
_chemical_formula_structural   Ho3TmOs7W
_chemical_formula_sum   'Ho3 Tm1 Os7 W1'
_cell_volume   219.18460833
_cell_formula_units_Z   1
loop_
 _symmetry_equiv_pos_site_id
 _symmetry_equiv_pos_as_xyz
  1  'x, y, z'
loop_
 _atom_site_type_symbol
 _atom_site_label
 _atom_site_symmetry_multiplicity
 _atom_site_fract_x
 _atom_site_fract_y
 _atom_site_fract_z
 _atom_site_occupancy
  Ho  Ho0  1  0.670262  0.670604  0.437933  1
  Ho  Ho1  1  0.670396  0.670677  0.062227  1
  Ho  Ho2  1  0.332975  0.333474  0.933296  1
  Tm  Tm3  1  0.332595  0.333180  0.566528  1
  Os  Os4  1  0.006556  0.008552  0.502715  1
  Os  Os5  1  0.006537  0.008386  0.997502  1
  Os  Os6  1  0.827240  0.338504  0.749399  1
  Os  Os7  1  0.340906  0.825574  0.749394  1
  Os  Os8  1  0.823862  0.823443  0.749468  1
  Os  Os9  1  0.174070  0.650200  0.250565  1
  Os  Os10  1  0.650547  0.173691  0.250570  1
  W  W11  1  0.164055  0.163712  0.250400  1
