# generated using pymatgen
data_YbDy2Al3Ge2Pt
_symmetry_space_group_name_H-M   'P 1'
_cell_length_a   7.04010300
_cell_length_b   6.98247942
_cell_length_c   4.24362500
_cell_angle_alpha   90.00000000
_cell_angle_beta   90.00000000
_cell_angle_gamma   120.27337598
_symmetry_Int_Tables_number   1
_chemical_formula_structural   YbDy2Al3Ge2Pt
_chemical_formula_sum   'Yb1 Dy2 Al3 Ge2 Pt1'
_cell_volume   180.15791468
_cell_formula_units_Z   1
loop_
 _symmetry_equiv_pos_site_id
 _symmetry_equiv_pos_as_xyz
  1  'x, y, z'
loop_
 _atom_site_type_symbol
 _atom_site_label
 _atom_site_symmetry_multiplicity
 _atom_site_fract_x
 _atom_site_fract_y
 _atom_site_fract_z
 _atom_site_occupancy
  Yb  Yb0  1  0.416459  0.000000  0.000000  1
  Dy  Dy1  1  0.000740  0.416835  0.000000  1
  Dy  Dy2  1  0.583904  0.583165  0.000000  1
  Al  Al3  1  0.768186  0.000000  0.500000  1
  Al  Al4  1  0.230719  0.235357  0.500000  1
  Al  Al5  1  0.995361  0.764643  0.500000  1
  Ge  Ge6  1  0.670740  0.336683  0.500000  1
  Ge  Ge7  1  0.334057  0.663316  0.500000  1
  Pt  Pt8  1  0.999834  0.000000  0.000000  1
