# generated using pymatgen
data_Ho4ErLu5Pb6
_symmetry_space_group_name_H-M   'P 1'
_cell_length_a   6.50405301
_cell_length_b   8.95948281
_cell_length_c   8.96737501
_cell_angle_alpha   120.03838308
_cell_angle_beta   90.00435754
_cell_angle_gamma   89.99989076
_symmetry_Int_Tables_number   1
_chemical_formula_structural   Ho4ErLu5Pb6
_chemical_formula_sum   'Ho4 Er1 Lu5 Pb6'
_cell_volume   452.37112043
_cell_formula_units_Z   1
loop_
 _symmetry_equiv_pos_site_id
 _symmetry_equiv_pos_as_xyz
  1  'x, y, z'
loop_
 _atom_site_type_symbol
 _atom_site_label
 _atom_site_symmetry_multiplicity
 _atom_site_fract_x
 _atom_site_fract_y
 _atom_site_fract_z
 _atom_site_occupancy
  Ho  Ho0  1  0.750007  0.763127  0.762749  1
  Ho  Ho1  1  0.750012  0.000064  0.237759  1
  Ho  Ho2  1  0.250002  0.762820  0.999766  1
  Ho  Ho3  1  0.249991  0.237128  0.236895  1
  Er  Er4  1  0.750014  0.236925  0.999677  1
  Lu  Lu5  1  0.249992  0.000004  0.762910  1
  Lu  Lu6  1  0.499885  0.333308  0.666715  1
  Lu  Lu7  1  0.499877  0.666643  0.333362  1
  Lu  Lu8  1  0.000106  0.666674  0.333341  1
  Lu  Lu9  1  0.000095  0.333334  0.666709  1
  Pb  Pb10  1  0.749998  0.604084  0.999971  1
  Pb  Pb11  1  0.750014  0.395845  0.395752  1
  Pb  Pb12  1  0.750016  0.000056  0.604079  1
  Pb  Pb13  1  0.249993  0.394436  0.999081  1
  Pb  Pb14  1  0.250027  0.605520  0.604558  1
  Pb  Pb15  1  0.249972  0.000032  0.396674  1
