# generated using pymatgen
data_Ti8Ga15Co5Rh2
_symmetry_space_group_name_H-M   'P 1'
_cell_length_a   8.50057919
_cell_length_b   8.50057968
_cell_length_c   8.50057924
_cell_angle_alpha   120.25711621
_cell_angle_beta   119.80226219
_cell_angle_gamma   89.94903422
_symmetry_Int_Tables_number   1
_chemical_formula_structural   Ti8Ga15Co5Rh2
_chemical_formula_sum   'Ti8 Ga15 Co5 Rh2'
_cell_volume   434.13710589
_cell_formula_units_Z   1
loop_
 _symmetry_equiv_pos_site_id
 _symmetry_equiv_pos_as_xyz
  1  'x, y, z'
loop_
 _atom_site_type_symbol
 _atom_site_label
 _atom_site_symmetry_multiplicity
 _atom_site_fract_x
 _atom_site_fract_y
 _atom_site_fract_z
 _atom_site_occupancy
  Ti  Ti0  1  0.789711  0.285781  0.066819  1
  Ti  Ti1  1  0.218961  0.285781  0.496070  1
  Ti  Ti2  1  0.208855  0.708855  0.500000  1
  Ti  Ti3  1  0.218961  0.722892  0.933181  1
  Ti  Ti4  1  0.789711  0.722892  0.503930  1
  Ti  Ti5  1  0.776443  0.276443  0.500000  1
  Ti  Ti6  1  0.377791  0.126564  0.748774  1
  Ti  Ti7  1  0.377791  0.629018  0.251226  1
  Ga  Ga8  1  0.993303  0.493303  0.500000  1
  Ga  Ga9  1  0.156414  0.356240  0.199825  1
  Ga  Ga10  1  0.156414  0.956590  0.800175  1
  Ga  Ga11  1  0.152468  0.349738  0.802730  1
  Ga  Ga12  1  0.547007  0.349738  0.197270  1
  Ga  Ga13  1  0.844530  0.642568  0.798039  1
  Ga  Ga14  1  0.844530  0.046491  0.201961  1
  Ga  Ga15  1  0.847156  0.652038  0.195119  1
  Ga  Ga16  1  0.456919  0.652038  0.804881  1
  Ga  Ga17  1  0.379468  0.127871  0.251597  1
  Ga  Ga18  1  0.876274  0.127871  0.748403  1
  Ga  Ga19  1  0.621495  0.866264  0.244769  1
  Ga  Ga20  1  0.621495  0.376725  0.755231  1
  Ga  Ga21  1  0.611217  0.871961  0.739255  1
  Ga  Ga22  1  0.132705  0.871961  0.260745  1
  Co  Co23  1  0.004280  0.001978  0.504584  1
  Co  Co24  1  0.497395  0.001978  0.997699  1
  Co  Co25  1  0.495205  0.495205  0.000000  1
  Co  Co26  1  0.497395  0.499696  0.495416  1
  Co  Co27  1  0.004280  0.499696  0.002301  1
  Rh  Rh28  1  0.998511  0.998511  0.000000  1
  Rh  Rh29  1  0.503312  0.003312  0.500000  1
