# generated using pymatgen
data_Dy6B14OsRu
_symmetry_space_group_name_H-M   'P 1'
_cell_length_a   8.06885113
_cell_length_b   8.06885106
_cell_length_c   9.34280800
_cell_angle_alpha   90.00000000
_cell_angle_beta   90.00000000
_cell_angle_gamma   154.80149064
_symmetry_Int_Tables_number   1
_chemical_formula_structural   Dy6B14OsRu
_chemical_formula_sum   'Dy6 B14 Os1 Ru1'
_cell_volume   258.97709142
_cell_formula_units_Z   1
loop_
 _symmetry_equiv_pos_site_id
 _symmetry_equiv_pos_as_xyz
  1  'x, y, z'
loop_
 _atom_site_type_symbol
 _atom_site_label
 _atom_site_symmetry_multiplicity
 _atom_site_fract_x
 _atom_site_fract_y
 _atom_site_fract_z
 _atom_site_occupancy
  Dy  Dy0  1  0.894043  0.105957  0.439852  1
  Dy  Dy1  1  0.105921  0.894079  0.559917  1
  Dy  Dy2  1  0.894043  0.105957  0.060148  1
  Dy  Dy3  1  0.105921  0.894079  0.940083  1
  Dy  Dy4  1  0.244027  0.755973  0.250000  1
  Dy  Dy5  1  0.755544  0.244456  0.750000  1
  B  B6  1  0.727346  0.272654  0.465961  1
  B  B7  1  0.272773  0.727227  0.533973  1
  B  B8  1  0.727346  0.272654  0.034039  1
  B  B9  1  0.272773  0.727227  0.966027  1
  B  B10  1  0.631841  0.368159  0.151044  1
  B  B11  1  0.367932  0.632068  0.849433  1
  B  B12  1  0.631841  0.368159  0.348956  1
  B  B13  1  0.367932  0.632068  0.650567  1
  B  B14  1  0.520986  0.479014  0.096598  1
  B  B15  1  0.479113  0.520887  0.903581  1
  B  B16  1  0.520986  0.479014  0.403402  1
  B  B17  1  0.479113  0.520887  0.596419  1
  B  B18  1  0.457638  0.542362  0.250000  1
  B  B19  1  0.542859  0.457141  0.750000  1
  Os  Os20  1  0.945740  0.054260  0.750000  1
  Ru  Ru21  1  0.054280  0.945720  0.250000  1
