# generated using pymatgen
data_Lu12Cr(Si4Ir)3
_symmetry_space_group_name_H-M   'P 1'
_cell_length_a   4.16695300
_cell_length_b   10.51863108
_cell_length_c   12.07846169
_cell_angle_alpha   90.10097262
_cell_angle_beta   90.00000000
_cell_angle_gamma   90.00000000
_symmetry_Int_Tables_number   1
_chemical_formula_structural   Lu12Cr(Si4Ir)3
_chemical_formula_sum   'Lu12 Cr1 Si12 Ir3'
_cell_volume   529.40590025
_cell_formula_units_Z   1
loop_
 _symmetry_equiv_pos_site_id
 _symmetry_equiv_pos_as_xyz
  1  'x, y, z'
loop_
 _atom_site_type_symbol
 _atom_site_label
 _atom_site_symmetry_multiplicity
 _atom_site_fract_x
 _atom_site_fract_y
 _atom_site_fract_z
 _atom_site_occupancy
  Lu  Lu0  1  0.250000  0.878747  0.020854  1
  Lu  Lu1  1  0.250000  0.621886  0.521052  1
  Lu  Lu2  1  0.750000  0.119149  0.980636  1
  Lu  Lu3  1  0.750000  0.379311  0.478390  1
  Lu  Lu4  1  0.250000  0.920958  0.601952  1
  Lu  Lu5  1  0.250000  0.579890  0.103355  1
  Lu  Lu6  1  0.750000  0.079228  0.395423  1
  Lu  Lu7  1  0.750000  0.420328  0.897692  1
  Lu  Lu8  1  0.250000  0.663147  0.800275  1
  Lu  Lu9  1  0.250000  0.839614  0.300033  1
  Lu  Lu10  1  0.750000  0.340920  0.199304  1
  Lu  Lu11  1  0.750000  0.158425  0.700130  1
  Cr  Cr12  1  0.250000  0.388252  0.679557  1
  Si  Si13  1  0.250000  0.011396  0.821668  1
  Si  Si14  1  0.250000  0.487743  0.322345  1
  Si  Si15  1  0.750000  0.986559  0.178735  1
  Si  Si16  1  0.750000  0.516967  0.678425  1
  Si  Si17  1  0.250000  0.247501  0.843110  1
  Si  Si18  1  0.250000  0.251750  0.340412  1
  Si  Si19  1  0.750000  0.751925  0.158720  1
  Si  Si20  1  0.750000  0.751910  0.658025  1
  Si  Si21  1  0.250000  0.195601  0.541751  1
  Si  Si22  1  0.250000  0.300076  0.044498  1
  Si  Si23  1  0.750000  0.802553  0.455342  1
  Si  Si24  1  0.750000  0.697755  0.957050  1
  Ir  Ir25  1  0.250000  0.108531  0.178640  1
  Ir  Ir26  1  0.750000  0.610047  0.320317  1
  Ir  Ir27  1  0.750000  0.889832  0.822309  1
