# generated using pymatgen
data_TbGd5(GaIr2)6
_symmetry_space_group_name_H-M   'P 1'
_cell_length_a   5.68066600
_cell_length_b   5.68066408
_cell_length_c   16.13386000
_cell_angle_alpha   90.00000000
_cell_angle_beta   90.00000000
_cell_angle_gamma   119.99998791
_symmetry_Int_Tables_number   1
_chemical_formula_structural   TbGd5(GaIr2)6
_chemical_formula_sum   'Tb1 Gd5 Ga6 Ir12'
_cell_volume   450.88660373
_cell_formula_units_Z   1
loop_
 _symmetry_equiv_pos_site_id
 _symmetry_equiv_pos_as_xyz
  1  'x, y, z'
loop_
 _atom_site_type_symbol
 _atom_site_label
 _atom_site_symmetry_multiplicity
 _atom_site_fract_x
 _atom_site_fract_y
 _atom_site_fract_z
 _atom_site_occupancy
  Tb  Tb0  1  0.333333  0.666667  0.750000  1
  Gd  Gd1  1  0.333333  0.666667  0.540546  1
  Gd  Gd2  1  0.666667  0.333333  0.459237  1
  Gd  Gd3  1  0.666667  0.333333  0.040763  1
  Gd  Gd4  1  0.333333  0.666667  0.959454  1
  Gd  Gd5  1  0.666667  0.333333  0.250000  1
  Ga  Ga6  1  0.000000  0.000000  0.250000  1
  Ga  Ga7  1  0.000000  0.000000  0.750000  1
  Ga  Ga8  1  0.333333  0.666667  0.250000  1
  Ga  Ga9  1  0.666667  0.333333  0.750000  1
  Ga  Ga10  1  0.000000  0.000000  0.000016  1
  Ga  Ga11  1  0.000000  0.000000  0.499984  1
  Ir  Ir12  1  0.169436  0.338873  0.126316  1
  Ir  Ir13  1  0.830447  0.660897  0.873852  1
  Ir  Ir14  1  0.661127  0.830564  0.126316  1
  Ir  Ir15  1  0.830447  0.660897  0.626148  1
  Ir  Ir16  1  0.339103  0.169553  0.873852  1
  Ir  Ir17  1  0.169436  0.338873  0.373684  1
  Ir  Ir18  1  0.169436  0.830564  0.126316  1
  Ir  Ir19  1  0.339103  0.169553  0.626148  1
  Ir  Ir20  1  0.830447  0.169553  0.873852  1
  Ir  Ir21  1  0.661127  0.830564  0.373684  1
  Ir  Ir22  1  0.830447  0.169553  0.626148  1
  Ir  Ir23  1  0.169436  0.830564  0.373684  1
