# generated using pymatgen
data_Gd5HoFeCl10
_symmetry_space_group_name_H-M   'P 1'
_cell_length_a   7.24992704
_cell_length_b   8.94805301
_cell_length_c   9.09829600
_cell_angle_alpha   109.25863167
_cell_angle_beta   96.74326307
_cell_angle_gamma   105.77344515
_symmetry_Int_Tables_number   1
_chemical_formula_structural   Gd5HoFeCl10
_chemical_formula_sum   'Gd5 Ho1 Fe1 Cl10'
_cell_volume   522.10387718
_cell_formula_units_Z   1
loop_
 _symmetry_equiv_pos_site_id
 _symmetry_equiv_pos_as_xyz
  1  'x, y, z'
loop_
 _atom_site_type_symbol
 _atom_site_label
 _atom_site_symmetry_multiplicity
 _atom_site_fract_x
 _atom_site_fract_y
 _atom_site_fract_z
 _atom_site_occupancy
  Gd  Gd0  1  0.133440  0.858525  0.806777  1
  Gd  Gd1  1  0.532525  0.703557  0.903851  1
  Gd  Gd2  1  0.470033  0.296974  0.098469  1
  Gd  Gd3  1  0.632494  0.053730  0.763395  1
  Gd  Gd4  1  0.369274  0.947771  0.238037  1
  Ho  Ho5  1  0.862412  0.137540  0.188579  1
  Fe  Fe6  1  0.497988  0.999634  0.999034  1
  Cl  Cl7  1  0.740636  0.083401  0.443604  1
  Cl  Cl8  1  0.266292  0.921195  0.551352  1
  Cl  Cl9  1  0.952023  0.832644  0.076778  1
  Cl  Cl10  1  0.043255  0.172954  0.931304  1
  Cl  Cl11  1  0.277158  0.245991  0.336826  1
  Cl  Cl12  1  0.712533  0.751318  0.659068  1
  Cl  Cl13  1  0.589844  0.370058  0.842278  1
  Cl  Cl14  1  0.412810  0.631329  0.160141  1
  Cl  Cl15  1  0.849414  0.443399  0.275573  1
  Cl  Cl16  1  0.157868  0.549979  0.724936  1
