# generated using pymatgen
data_Er4Tm8Tc3Pt
_symmetry_space_group_name_H-M   'P 1'
_cell_length_a   6.21785521
_cell_length_b   7.33829201
_cell_length_c   9.01602400
_cell_angle_alpha   90.00000000
_cell_angle_beta   90.00000000
_cell_angle_gamma   89.98196093
_symmetry_Int_Tables_number   1
_chemical_formula_structural   Er4Tm8Tc3Pt
_chemical_formula_sum   'Er4 Tm8 Tc3 Pt1'
_cell_volume   411.38706448
_cell_formula_units_Z   1
loop_
 _symmetry_equiv_pos_site_id
 _symmetry_equiv_pos_as_xyz
  1  'x, y, z'
loop_
 _atom_site_type_symbol
 _atom_site_label
 _atom_site_symmetry_multiplicity
 _atom_site_fract_x
 _atom_site_fract_y
 _atom_site_fract_z
 _atom_site_occupancy
  Er  Er0  1  0.874633  0.541941  0.250000  1
  Er  Er1  1  0.620994  0.037269  0.250000  1
  Er  Er2  1  0.127470  0.456046  0.750000  1
  Er  Er3  1  0.373486  0.964924  0.750000  1
  Tm  Tm4  1  0.331232  0.675880  0.066306  1
  Tm  Tm5  1  0.162938  0.177283  0.436618  1
  Tm  Tm6  1  0.665377  0.318549  0.558466  1
  Tm  Tm7  1  0.838985  0.828028  0.940746  1
  Tm  Tm8  1  0.665377  0.318549  0.941534  1
  Tm  Tm9  1  0.838985  0.828028  0.559254  1
  Tm  Tm10  1  0.331232  0.675880  0.433694  1
  Tm  Tm11  1  0.162938  0.177283  0.063382  1
  Tc  Tc12  1  0.038462  0.884824  0.250000  1
  Tc  Tc13  1  0.463826  0.386066  0.250000  1
  Tc  Tc14  1  0.958048  0.115351  0.750000  1
  Pt  Pt15  1  0.546015  0.614100  0.750000  1
