# generated using pymatgen
data_TbNd7InPd24
_symmetry_space_group_name_H-M   'P 1'
_cell_length_a   8.53806158
_cell_length_b   8.53806158
_cell_length_c   8.53806158
_cell_angle_alpha   89.93695643
_cell_angle_beta   89.93695643
_cell_angle_gamma   89.93695643
_symmetry_Int_Tables_number   1
_chemical_formula_structural   TbNd7InPd24
_chemical_formula_sum   'Tb1 Nd7 In1 Pd24'
_cell_volume   622.41071516
_cell_formula_units_Z   1
loop_
 _symmetry_equiv_pos_site_id
 _symmetry_equiv_pos_as_xyz
  1  'x, y, z'
loop_
 _atom_site_type_symbol
 _atom_site_label
 _atom_site_symmetry_multiplicity
 _atom_site_fract_x
 _atom_site_fract_y
 _atom_site_fract_z
 _atom_site_occupancy
  Tb  Tb0  1  0.251549  0.251549  0.251549  1
  Nd  Nd1  1  0.749216  0.749216  0.749216  1
  Nd  Nd2  1  0.748778  0.748778  0.251202  1
  Nd  Nd3  1  0.748778  0.251202  0.748778  1
  Nd  Nd4  1  0.250942  0.250942  0.749219  1
  Nd  Nd5  1  0.250942  0.749219  0.250942  1
  Nd  Nd6  1  0.251202  0.748778  0.748778  1
  Nd  Nd7  1  0.749219  0.250942  0.250942  1
  In  In8  1  0.999978  0.999978  0.999978  1
  Pd  Pd9  1  0.267594  0.498071  0.002764  1
  Pd  Pd10  1  0.732467  0.499796  0.000015  1
  Pd  Pd11  1  0.002764  0.267594  0.498071  1
  Pd  Pd12  1  0.498071  0.267594  0.002764  1
  Pd  Pd13  1  0.000015  0.732467  0.499796  1
  Pd  Pd14  1  0.499796  0.732467  0.000015  1
  Pd  Pd15  1  0.498071  0.002764  0.267594  1
  Pd  Pd16  1  0.267594  0.002764  0.498071  1
  Pd  Pd17  1  0.499796  0.000015  0.732467  1
  Pd  Pd18  1  0.732467  0.000015  0.499796  1
  Pd  Pd19  1  0.002764  0.498071  0.267594  1
  Pd  Pd20  1  0.000015  0.499796  0.732467  1
  Pd  Pd21  1  0.255749  0.497401  0.497401  1
  Pd  Pd22  1  0.744277  0.499929  0.499929  1
  Pd  Pd23  1  0.497401  0.255749  0.497401  1
  Pd  Pd24  1  0.499929  0.744277  0.499929  1
  Pd  Pd25  1  0.497401  0.497401  0.255749  1
  Pd  Pd26  1  0.499929  0.499929  0.744277  1
  Pd  Pd27  1  0.314360  0.002026  0.002026  1
  Pd  Pd28  1  0.684898  0.999993  0.999993  1
  Pd  Pd29  1  0.002026  0.314360  0.002026  1
  Pd  Pd30  1  0.999993  0.684898  0.999993  1
  Pd  Pd31  1  0.002026  0.002026  0.314360  1
  Pd  Pd32  1  0.999993  0.999993  0.684898  1
