# generated using pymatgen
data_Dy20Ir2Ru3Rh7
_symmetry_space_group_name_H-M   'P 1'
_cell_length_a   10.85572948
_cell_length_b   10.85578308
_cell_length_c   6.41648924
_cell_angle_alpha   90.00230431
_cell_angle_beta   90.03124773
_cell_angle_gamma   89.98662545
_symmetry_Int_Tables_number   1
_chemical_formula_structural   Dy20Ir2Ru3Rh7
_chemical_formula_sum   'Dy20 Ir2 Ru3 Rh7'
_cell_volume   756.16672490
_cell_formula_units_Z   1
loop_
 _symmetry_equiv_pos_site_id
 _symmetry_equiv_pos_as_xyz
  1  'x, y, z'
loop_
 _atom_site_type_symbol
 _atom_site_label
 _atom_site_symmetry_multiplicity
 _atom_site_fract_x
 _atom_site_fract_y
 _atom_site_fract_z
 _atom_site_occupancy
  Dy  Dy0  1  0.294418  0.087971  0.377821  1
  Dy  Dy1  1  0.294408  0.912312  0.878034  1
  Dy  Dy2  1  0.705382  0.086260  0.878232  1
  Dy  Dy3  1  0.705436  0.913430  0.378101  1
  Dy  Dy4  1  0.584942  0.793903  0.878233  1
  Dy  Dy5  1  0.585382  0.206095  0.377875  1
  Dy  Dy6  1  0.412619  0.793941  0.379225  1
  Dy  Dy7  1  0.413092  0.206102  0.879691  1
  Dy  Dy8  1  0.209120  0.413277  0.623429  1
  Dy  Dy9  1  0.208659  0.586829  0.118544  1
  Dy  Dy10  1  0.792789  0.412076  0.118908  1
  Dy  Dy11  1  0.792307  0.587762  0.624209  1
  Dy  Dy12  1  0.912476  0.707440  0.118902  1
  Dy  Dy13  1  0.912496  0.292171  0.624195  1
  Dy  Dy14  1  0.089149  0.707723  0.624794  1
  Dy  Dy15  1  0.089136  0.292611  0.119677  1
  Dy  Dy16  1  0.000064  0.999988  0.499163  1
  Dy  Dy17  1  0.000084  0.999955  0.999457  1
  Dy  Dy18  1  0.499542  0.500191  0.999285  1
  Dy  Dy19  1  0.499507  0.499923  0.498870  1
  Ir  Ir20  1  0.346548  0.347554  0.250251  1
  Ir  Ir21  1  0.346835  0.653002  0.749596  1
  Ru  Ru22  1  0.500707  0.999873  0.124224  1
  Ru  Ru23  1  0.500645  0.000101  0.623805  1
  Ru  Ru24  1  0.998700  0.499908  0.877064  1
  Rh  Rh25  1  0.848384  0.153163  0.250135  1
  Rh  Rh26  1  0.847873  0.847031  0.749652  1
  Rh  Rh27  1  0.151799  0.152674  0.750035  1
  Rh  Rh28  1  0.151206  0.847193  0.250638  1
  Rh  Rh29  1  0.653628  0.347910  0.749947  1
  Rh  Rh30  1  0.653766  0.651569  0.250557  1
  Rh  Rh31  1  0.998903  0.500061  0.377452  1
