# generated using pymatgen
data_Dy4Ga17SiIr6
_symmetry_space_group_name_H-M   'P 1'
_cell_length_a   7.59237246
_cell_length_b   7.57289439
_cell_length_c   9.49031526
_cell_angle_alpha   90.06605717
_cell_angle_beta   89.80495865
_cell_angle_gamma   119.91271946
_symmetry_Int_Tables_number   1
_chemical_formula_structural   Dy4Ga17SiIr6
_chemical_formula_sum   'Dy4 Ga17 Si1 Ir6'
_cell_volume   472.96539238
_cell_formula_units_Z   1
loop_
 _symmetry_equiv_pos_site_id
 _symmetry_equiv_pos_as_xyz
  1  'x, y, z'
loop_
 _atom_site_type_symbol
 _atom_site_label
 _atom_site_symmetry_multiplicity
 _atom_site_fract_x
 _atom_site_fract_y
 _atom_site_fract_z
 _atom_site_occupancy
  Dy  Dy0  1  0.996945  0.665358  0.248510  1
  Dy  Dy1  1  0.002972  0.331413  0.751100  1
  Dy  Dy2  1  0.672573  0.001162  0.248507  1
  Dy  Dy3  1  0.331059  0.002749  0.750131  1
  Ga  Ga4  1  0.128869  0.128303  0.250775  1
  Ga  Ga5  1  0.873433  0.874211  0.750596  1
  Ga  Ga6  1  0.999721  0.670018  0.917739  1
  Ga  Ga7  1  0.000873  0.666151  0.580348  1
  Ga  Ga8  1  0.333839  0.998411  0.419563  1
  Ga  Ga9  1  0.999227  0.334349  0.420587  1
  Ga  Ga10  1  0.665411  0.000355  0.580405  1
  Ga  Ga11  1  0.660337  0.995807  0.917857  1
  Ga  Ga12  1  0.333828  0.998208  0.081389  1
  Ga  Ga13  1  0.332222  0.331653  0.564832  1
  Ga  Ga14  1  0.668395  0.668748  0.434788  1
  Ga  Ga15  1  0.668146  0.668810  0.066785  1
  Ga  Ga16  1  0.336877  0.332387  0.933736  1
  Ga  Ga17  1  0.340644  0.546045  0.251309  1
  Ga  Ga18  1  0.661094  0.452558  0.750813  1
  Ga  Ga19  1  0.547018  0.339523  0.250368  1
  Ga  Ga20  1  0.452224  0.659866  0.750236  1
  Si  Si21  1  0.999324  0.334237  0.073726  1
  Ir  Ir22  1  0.683864  0.329561  0.003225  1
  Ir  Ir23  1  0.314224  0.657091  0.001677  1
  Ir  Ir24  1  0.327853  0.671045  0.500039  1
  Ir  Ir25  1  0.671555  0.328453  0.499880  1
  Ir  Ir26  1  0.998163  0.013356  0.001490  1
  Ir  Ir27  1  0.999308  0.000168  0.499590  1
