# generated using pymatgen
data_Ca6Cd32Pt
_symmetry_space_group_name_H-M   'P 1'
_cell_length_a   9.74746800
_cell_length_b   9.74746800
_cell_length_c   9.74746800
_cell_angle_alpha   90.00000000
_cell_angle_beta   90.00000000
_cell_angle_gamma   90.00000000
_symmetry_Int_Tables_number   1
_chemical_formula_structural   Ca6Cd32Pt
_chemical_formula_sum   'Ca6 Cd32 Pt1'
_cell_volume   926.13746776
_cell_formula_units_Z   1
loop_
 _symmetry_equiv_pos_site_id
 _symmetry_equiv_pos_as_xyz
  1  'x, y, z'
loop_
 _atom_site_type_symbol
 _atom_site_label
 _atom_site_symmetry_multiplicity
 _atom_site_fract_x
 _atom_site_fract_y
 _atom_site_fract_z
 _atom_site_occupancy
  Ca  Ca0  1  0.205207  0.000000  0.500000  1
  Ca  Ca1  1  0.794793  0.000000  0.500000  1
  Ca  Ca2  1  0.500000  0.205207  0.000000  1
  Ca  Ca3  1  0.500000  0.794793  0.000000  1
  Ca  Ca4  1  0.000000  0.500000  0.205207  1
  Ca  Ca5  1  0.000000  0.500000  0.794793  1
  Cd  Cd6  1  0.323906  0.500000  0.000000  1
  Cd  Cd7  1  0.676094  0.500000  0.000000  1
  Cd  Cd8  1  0.000000  0.323906  0.500000  1
  Cd  Cd9  1  0.000000  0.676094  0.500000  1
  Cd  Cd10  1  0.500000  0.000000  0.323906  1
  Cd  Cd11  1  0.500000  0.000000  0.676094  1
  Cd  Cd12  1  0.281812  0.281812  0.281812  1
  Cd  Cd13  1  0.718188  0.718188  0.718188  1
  Cd  Cd14  1  0.718188  0.718188  0.281812  1
  Cd  Cd15  1  0.718188  0.281812  0.718188  1
  Cd  Cd16  1  0.281812  0.281812  0.718188  1
  Cd  Cd17  1  0.281812  0.718188  0.281812  1
  Cd  Cd18  1  0.281812  0.718188  0.718188  1
  Cd  Cd19  1  0.718188  0.281812  0.281812  1
  Cd  Cd20  1  0.259967  0.500000  0.500000  1
  Cd  Cd21  1  0.740033  0.500000  0.500000  1
  Cd  Cd22  1  0.500000  0.259967  0.500000  1
  Cd  Cd23  1  0.500000  0.740033  0.500000  1
  Cd  Cd24  1  0.500000  0.500000  0.259967  1
  Cd  Cd25  1  0.500000  0.500000  0.740033  1
  Cd  Cd26  1  0.000000  0.151828  0.261119  1
  Cd  Cd27  1  0.000000  0.848172  0.738881  1
  Cd  Cd28  1  0.000000  0.848172  0.261119  1
  Cd  Cd29  1  0.000000  0.151828  0.738881  1
  Cd  Cd30  1  0.261119  0.000000  0.151828  1
  Cd  Cd31  1  0.738881  0.000000  0.848172  1
  Cd  Cd32  1  0.261119  0.000000  0.848172  1
  Cd  Cd33  1  0.738881  0.000000  0.151828  1
  Cd  Cd34  1  0.151828  0.261119  0.000000  1
  Cd  Cd35  1  0.848172  0.738881  0.000000  1
  Cd  Cd36  1  0.151828  0.738881  0.000000  1
  Cd  Cd37  1  0.848172  0.261119  0.000000  1
  Pt  Pt38  1  0.000000  0.000000  0.000000  1
