# generated using pymatgen
data_GdErI6
_symmetry_space_group_name_H-M   'P 1'
_cell_length_a   8.85327906
_cell_length_b   8.85327994
_cell_length_c   8.85328019
_cell_angle_alpha   51.85001824
_cell_angle_beta   51.85002006
_cell_angle_gamma   51.85001468
_symmetry_Int_Tables_number   1
_chemical_formula_structural   GdErI6
_chemical_formula_sum   'Gd1 Er1 I6'
_cell_volume   396.61911527
_cell_formula_units_Z   1
loop_
 _symmetry_equiv_pos_site_id
 _symmetry_equiv_pos_as_xyz
  1  'x, y, z'
loop_
 _atom_site_type_symbol
 _atom_site_label
 _atom_site_symmetry_multiplicity
 _atom_site_fract_x
 _atom_site_fract_y
 _atom_site_fract_z
 _atom_site_occupancy
  Gd  Gd0  1  0.166547  0.166547  0.166547  1
  Er  Er1  1  0.833375  0.833375  0.833375  1
  I  I2  1  0.216690  0.580905  0.932607  1
  I  I3  1  0.932607  0.216690  0.580905  1
  I  I4  1  0.580905  0.932607  0.216690  1
  I  I5  1  0.778258  0.428320  0.063299  1
  I  I6  1  0.063299  0.778258  0.428320  1
  I  I7  1  0.428320  0.063299  0.778258  1
