# generated using pymatgen
data_Y3Si4(PPd10)2
_symmetry_space_group_name_H-M   'P 1'
_cell_length_a   8.70020516
_cell_length_b   8.70344013
_cell_length_c   8.70020501
_cell_angle_alpha   59.98769111
_cell_angle_beta   59.99268892
_cell_angle_gamma   59.98769658
_symmetry_Int_Tables_number   1
_chemical_formula_structural   Y3Si4(PPd10)2
_chemical_formula_sum   'Y3 Si4 P2 Pd20'
_cell_volume   465.72561885
_cell_formula_units_Z   1
loop_
 _symmetry_equiv_pos_site_id
 _symmetry_equiv_pos_as_xyz
  1  'x, y, z'
loop_
 _atom_site_type_symbol
 _atom_site_label
 _atom_site_symmetry_multiplicity
 _atom_site_fract_x
 _atom_site_fract_y
 _atom_site_fract_z
 _atom_site_occupancy
  Y  Y0  1  0.998349  0.000000  0.001651  1
  Y  Y1  1  0.751804  0.749976  0.748245  1
  Y  Y2  1  0.251755  0.250024  0.248196  1
  Si  Si3  1  0.733674  0.267798  0.266326  1
  Si  Si4  1  0.733674  0.732202  0.266326  1
  Si  Si5  1  0.735462  0.266135  0.732268  1
  Si  Si6  1  0.267732  0.733865  0.264538  1
  P  P7  1  0.265818  0.735714  0.734182  1
  P  P8  1  0.265818  0.264286  0.734182  1
  Pd  Pd9  1  0.344810  0.002853  0.999406  1
  Pd  Pd10  1  0.998881  0.655078  0.347016  1
  Pd  Pd11  1  0.344982  0.000000  0.655018  1
  Pd  Pd12  1  0.001549  0.654515  0.998451  1
  Pd  Pd13  1  0.652984  0.344922  0.001119  1
  Pd  Pd14  1  0.616424  0.616528  0.150518  1
  Pd  Pd15  1  0.383258  0.847696  0.385641  1
  Pd  Pd16  1  0.154138  0.614742  0.616376  1
  Pd  Pd17  1  0.654395  0.000000  0.345605  1
  Pd  Pd18  1  0.000594  0.347069  0.655190  1
  Pd  Pd19  1  0.652984  0.000974  0.001119  1
  Pd  Pd20  1  0.998881  0.999026  0.347016  1
  Pd  Pd21  1  0.614359  0.152304  0.616742  1
  Pd  Pd22  1  0.344810  0.652931  0.999406  1
  Pd  Pd23  1  0.383258  0.383406  0.385641  1
  Pd  Pd24  1  0.614359  0.616594  0.616742  1
  Pd  Pd25  1  0.383624  0.385258  0.845862  1
  Pd  Pd26  1  0.000594  0.997147  0.655190  1
  Pd  Pd27  1  0.849482  0.383472  0.383576  1
  Pd  Pd28  1  0.001549  0.345485  0.998451  1
