# generated using pymatgen
data_Er12IrPd2Rh
_symmetry_space_group_name_H-M   'P 1'
_cell_length_a   6.36069752
_cell_length_b   7.06989058
_cell_length_c   9.39670200
_cell_angle_alpha   90.00000000
_cell_angle_beta   90.00000000
_cell_angle_gamma   89.95364588
_symmetry_Int_Tables_number   1
_chemical_formula_structural   Er12IrPd2Rh
_chemical_formula_sum   'Er12 Ir1 Pd2 Rh1'
_cell_volume   422.56424595
_cell_formula_units_Z   1
loop_
 _symmetry_equiv_pos_site_id
 _symmetry_equiv_pos_as_xyz
  1  'x, y, z'
loop_
 _atom_site_type_symbol
 _atom_site_label
 _atom_site_symmetry_multiplicity
 _atom_site_fract_x
 _atom_site_fract_y
 _atom_site_fract_z
 _atom_site_occupancy
  Er  Er0  1  0.674849  0.185049  0.059396  1
  Er  Er1  1  0.176573  0.314320  0.939313  1
  Er  Er2  1  0.829367  0.677221  0.437736  1
  Er  Er3  1  0.329278  0.823093  0.562189  1
  Er  Er4  1  0.329278  0.823093  0.937811  1
  Er  Er5  1  0.829367  0.677221  0.062264  1
  Er  Er6  1  0.176573  0.314320  0.560687  1
  Er  Er7  1  0.674849  0.185049  0.440604  1
  Er  Er8  1  0.862477  0.974729  0.750000  1
  Er  Er9  1  0.362537  0.526039  0.250000  1
  Er  Er10  1  0.626383  0.465612  0.750000  1
  Er  Er11  1  0.126974  0.033670  0.250000  1
  Ir  Ir12  1  0.447837  0.114287  0.750000  1
  Pd  Pd13  1  0.053113  0.611704  0.750000  1
  Pd  Pd14  1  0.553529  0.888588  0.250000  1
  Rh  Rh15  1  0.947016  0.386005  0.250000  1
