# generated using pymatgen
data_Er4TlRh
_symmetry_space_group_name_H-M   'P 1'
_cell_length_a   9.60322045
_cell_length_b   9.60322063
_cell_length_c   9.60322000
_cell_angle_alpha   60.00000215
_cell_angle_beta   60.00000156
_cell_angle_gamma   60.00000163
_symmetry_Int_Tables_number   1
_chemical_formula_structural   Er4TlRh
_chemical_formula_sum   'Er16 Tl4 Rh4'
_cell_volume   626.23264471
_cell_formula_units_Z   4
loop_
 _symmetry_equiv_pos_site_id
 _symmetry_equiv_pos_as_xyz
  1  'x, y, z'
loop_
 _atom_site_type_symbol
 _atom_site_label
 _atom_site_symmetry_multiplicity
 _atom_site_fract_x
 _atom_site_fract_y
 _atom_site_fract_z
 _atom_site_occupancy
  Er  Er0  1  0.187532  0.187532  0.812468  1
  Er  Er1  1  0.438426  0.061574  0.061574  1
  Er  Er2  1  0.438426  0.061574  0.438426  1
  Er  Er3  1  0.061574  0.438426  0.061574  1
  Er  Er4  1  0.650242  0.049273  0.650242  1
  Er  Er5  1  0.187532  0.812468  0.812468  1
  Er  Er6  1  0.061574  0.061574  0.438426  1
  Er  Er7  1  0.812468  0.187532  0.187532  1
  Er  Er8  1  0.812468  0.812468  0.187532  1
  Er  Er9  1  0.650242  0.650242  0.049273  1
  Er  Er10  1  0.650242  0.650242  0.650242  1
  Er  Er11  1  0.061574  0.438426  0.438426  1
  Er  Er12  1  0.049273  0.650242  0.650242  1
  Er  Er13  1  0.812468  0.187532  0.812468  1
  Er  Er14  1  0.438426  0.438426  0.061574  1
  Er  Er15  1  0.187532  0.812468  0.187532  1
  Tl  Tl16  1  0.414034  0.757898  0.414034  1
  Tl  Tl17  1  0.414034  0.414034  0.757898  1
  Tl  Tl18  1  0.757898  0.414034  0.414034  1
  Tl  Tl19  1  0.414034  0.414034  0.414034  1
  Rh  Rh20  1  0.857268  0.428196  0.857268  1
  Rh  Rh21  1  0.857268  0.857268  0.428196  1
  Rh  Rh22  1  0.428196  0.857268  0.857268  1
  Rh  Rh23  1  0.857268  0.857268  0.857268  1
