# generated using pymatgen
data_Rb3Ag(PSe4)2
_symmetry_space_group_name_H-M   'P 1'
_cell_length_a   7.46754276
_cell_length_b   7.46754220
_cell_length_c   19.68375845
_cell_angle_alpha   86.65369927
_cell_angle_beta   86.65369910
_cell_angle_gamma   120.73037044
_symmetry_Int_Tables_number   1
_chemical_formula_structural   Rb3Ag(PSe4)2
_chemical_formula_sum   'Rb6 Ag2 P4 Se16'
_cell_volume   936.92159890
_cell_formula_units_Z   2
loop_
 _symmetry_equiv_pos_site_id
 _symmetry_equiv_pos_as_xyz
  1  'x, y, z'
loop_
 _atom_site_type_symbol
 _atom_site_label
 _atom_site_symmetry_multiplicity
 _atom_site_fract_x
 _atom_site_fract_y
 _atom_site_fract_z
 _atom_site_occupancy
  Rb  Rb0  1  0.501127  0.361467  0.108842  1
  Rb  Rb1  1  0.361467  0.501127  0.608842  1
  Rb  Rb2  1  0.894413  0.690158  0.753373  1
  Rb  Rb3  1  0.690158  0.894413  0.253373  1
  Rb  Rb4  1  0.587474  0.035467  0.895384  1
  Rb  Rb5  1  0.035467  0.587474  0.395384  1
  Ag  Ag6  1  0.051706  0.950318  0.998810  1
  Ag  Ag7  1  0.950318  0.051706  0.498810  1
  P  P8  1  0.303018  0.430595  0.880378  1
  P  P9  1  0.430595  0.303018  0.380378  1
  P  P10  1  0.214032  0.679294  0.121018  1
  P  P11  1  0.679294  0.214032  0.621018  1
  Se  Se12  1  0.489582  0.166659  0.716543  1
  Se  Se13  1  0.166659  0.489582  0.216543  1
  Se  Se14  1  0.092553  0.083515  0.875636  1
  Se  Se15  1  0.083515  0.092553  0.375636  1
  Se  Se16  1  0.338446  0.623315  0.786900  1
  Se  Se17  1  0.623315  0.338446  0.286900  1
  Se  Se18  1  0.594309  0.510926  0.923075  1
  Se  Se19  1  0.510926  0.594309  0.423075  1
  Se  Se20  1  0.101379  0.536274  0.941723  1
  Se  Se21  1  0.536274  0.101379  0.441723  1
  Se  Se22  1  0.051597  0.392381  0.057553  1
  Se  Se23  1  0.392381  0.051597  0.557553  1
  Se  Se24  1  0.537747  0.904889  0.082067  1
  Se  Se25  1  0.904889  0.537747  0.582067  1
  Se  Se26  1  0.011525  0.822620  0.122398  1
  Se  Se27  1  0.822620  0.011525  0.622398  1
