# generated using pymatgen
data_Nd2DyTm(Sn5Rh3)2
_symmetry_space_group_name_H-M   'P 1'
_cell_length_a   13.52574405
_cell_length_b   13.52574423
_cell_length_c   7.26978303
_cell_angle_alpha   89.99027373
_cell_angle_beta   90.00972710
_cell_angle_gamma   160.96168233
_symmetry_Int_Tables_number   1
_chemical_formula_structural   Nd2DyTm(Sn5Rh3)2
_chemical_formula_sum   'Nd2 Dy1 Tm1 Sn10 Rh6'
_cell_volume   433.83869853
_cell_formula_units_Z   1
loop_
 _symmetry_equiv_pos_site_id
 _symmetry_equiv_pos_as_xyz
  1  'x, y, z'
loop_
 _atom_site_type_symbol
 _atom_site_label
 _atom_site_symmetry_multiplicity
 _atom_site_fract_x
 _atom_site_fract_y
 _atom_site_fract_z
 _atom_site_occupancy
  Nd  Nd0  1  0.172093  0.827907  0.752520  1
  Nd  Nd1  1  0.827874  0.172126  0.252354  1
  Dy  Dy2  1  0.523587  0.476413  0.238562  1
  Tm  Tm3  1  0.475972  0.524028  0.739032  1
  Sn  Sn4  1  0.881597  0.118403  0.731908  1
  Sn  Sn5  1  0.118594  0.881406  0.231786  1
  Sn  Sn6  1  0.704299  0.295701  0.049446  1
  Sn  Sn7  1  0.295973  0.704027  0.549306  1
  Sn  Sn8  1  0.594533  0.405467  0.615047  1
  Sn  Sn9  1  0.405166  0.594834  0.114618  1
  Sn  Sn10  1  0.953035  0.046965  0.399440  1
  Sn  Sn11  1  0.046672  0.953328  0.898348  1
  Sn  Sn12  1  0.290416  0.709584  0.973679  1
  Sn  Sn13  1  0.709599  0.290401  0.473883  1
  Rh  Rh14  1  0.049687  0.950313  0.519181  1
  Rh  Rh15  1  0.950112  0.049888  0.017323  1
  Rh  Rh16  1  0.778169  0.221831  0.761886  1
  Rh  Rh17  1  0.222043  0.777957  0.261997  1
  Rh  Rh18  1  0.395878  0.604122  0.488484  1
  Rh  Rh19  1  0.604700  0.395300  0.987198  1
