# generated using pymatgen
data_Pr3MnVC6
_symmetry_space_group_name_H-M   'P 1'
_cell_length_a   8.34197900
_cell_length_b   8.34198035
_cell_length_c   5.20929300
_cell_angle_alpha   90.00000000
_cell_angle_beta   90.00000000
_cell_angle_gamma   119.99999862
_symmetry_Int_Tables_number   1
_chemical_formula_structural   Pr3MnVC6
_chemical_formula_sum   'Pr6 Mn2 V2 C12'
_cell_volume   313.94074003
_cell_formula_units_Z   2
loop_
 _symmetry_equiv_pos_site_id
 _symmetry_equiv_pos_as_xyz
  1  'x, y, z'
loop_
 _atom_site_type_symbol
 _atom_site_label
 _atom_site_symmetry_multiplicity
 _atom_site_fract_x
 _atom_site_fract_y
 _atom_site_fract_z
 _atom_site_occupancy
  Pr  Pr0  1  0.613175  0.683378  0.750000  1
  Pr  Pr1  1  0.929797  0.613175  0.250000  1
  Pr  Pr2  1  0.683378  0.070203  0.250000  1
  Pr  Pr3  1  0.316622  0.929797  0.750000  1
  Pr  Pr4  1  0.070203  0.386825  0.750000  1
  Pr  Pr5  1  0.386825  0.316622  0.250000  1
  Mn  Mn6  1  0.666667  0.333333  0.750000  1
  Mn  Mn7  1  0.333333  0.666667  0.250000  1
  V  V8  1  0.000000  0.000000  0.500000  1
  V  V9  1  0.000000  0.000000  0.000000  1
  C  C10  1  0.953309  0.765086  0.750000  1
  C  C11  1  0.188224  0.953309  0.250000  1
  C  C12  1  0.765086  0.811776  0.250000  1
  C  C13  1  0.234914  0.188224  0.750000  1
  C  C14  1  0.811776  0.046691  0.750000  1
  C  C15  1  0.046691  0.234914  0.250000  1
  C  C16  1  0.856499  0.574480  0.750000  1
  C  C17  1  0.282019  0.856499  0.250000  1
  C  C18  1  0.574480  0.717981  0.250000  1
  C  C19  1  0.425520  0.282019  0.750000  1
  C  C20  1  0.143501  0.425520  0.250000  1
  C  C21  1  0.717981  0.143501  0.750000  1
