# generated using pymatgen
data_Zr7Sc(Si4W3)4
_symmetry_space_group_name_H-M   'P 1'
_cell_length_a   6.60985411
_cell_length_b   6.77597804
_cell_length_c   12.69609418
_cell_angle_alpha   89.99336982
_cell_angle_beta   90.01810214
_cell_angle_gamma   89.98917058
_symmetry_Int_Tables_number   1
_chemical_formula_structural   Zr7Sc(Si4W3)4
_chemical_formula_sum   'Zr7 Sc1 Si16 W12'
_cell_volume   568.63549716
_cell_formula_units_Z   1
loop_
 _symmetry_equiv_pos_site_id
 _symmetry_equiv_pos_as_xyz
  1  'x, y, z'
loop_
 _atom_site_type_symbol
 _atom_site_label
 _atom_site_symmetry_multiplicity
 _atom_site_fract_x
 _atom_site_fract_y
 _atom_site_fract_z
 _atom_site_occupancy
  Zr  Zr0  1  0.495201  0.671017  0.592060  1
  Zr  Zr1  1  0.994792  0.828219  0.908185  1
  Zr  Zr2  1  0.506141  0.328070  0.092132  1
  Zr  Zr3  1  0.006211  0.172735  0.407501  1
  Zr  Zr4  1  0.505690  0.328342  0.407935  1
  Zr  Zr5  1  0.005702  0.171474  0.092490  1
  Zr  Zr6  1  0.493655  0.671980  0.908029  1
  Sc  Sc7  1  0.993727  0.829645  0.591360  1
  Si  Si8  1  0.667946  0.958797  0.457562  1
  Si  Si9  1  0.167246  0.541229  0.043047  1
  Si  Si10  1  0.332550  0.041860  0.957328  1
  Si  Si11  1  0.833770  0.460521  0.543638  1
  Si  Si12  1  0.330722  0.039531  0.543194  1
  Si  Si13  1  0.832556  0.458403  0.957329  1
  Si  Si14  1  0.667285  0.958515  0.042777  1
  Si  Si15  1  0.166721  0.542296  0.457270  1
  Si  Si16  1  0.465302  0.380095  0.750288  1
  Si  Si17  1  0.965966  0.118901  0.749227  1
  Si  Si18  1  0.534515  0.619207  0.249675  1
  Si  Si19  1  0.034585  0.879599  0.250640  1
  Si  Si20  1  0.700042  0.858293  0.749029  1
  Si  Si21  1  0.196964  0.642756  0.748907  1
  Si  Si22  1  0.301261  0.140652  0.249812  1
  Si  Si23  1  0.800973  0.359132  0.250249  1
  W  W24  1  0.665850  0.164424  0.624421  1
  W  W25  1  0.167275  0.336885  0.875492  1
  W  W26  1  0.332612  0.836282  0.124148  1
  W  W27  1  0.831942  0.663644  0.375819  1
  W  W28  1  0.334619  0.835901  0.375473  1
  W  W29  1  0.832456  0.663994  0.124411  1
  W  W30  1  0.667019  0.163299  0.875651  1
  W  W31  1  0.167591  0.336503  0.624415  1
  W  W32  1  0.833685  0.506306  0.750440  1
  W  W33  1  0.333440  0.992342  0.750002  1
  W  W34  1  0.167004  0.491120  0.250322  1
  W  W35  1  0.666985  0.008029  0.249740  1
