# generated using pymatgen
data_Th2GaP3Ir4
_symmetry_space_group_name_H-M   'P 1'
_cell_length_a   4.24851000
_cell_length_b   4.24851000
_cell_length_c   9.69632200
_cell_angle_alpha   90.00000000
_cell_angle_beta   90.00000000
_cell_angle_gamma   90.00000000
_symmetry_Int_Tables_number   1
_chemical_formula_structural   Th2GaP3Ir4
_chemical_formula_sum   'Th2 Ga1 P3 Ir4'
_cell_volume   175.01703373
_cell_formula_units_Z   1
loop_
 _symmetry_equiv_pos_site_id
 _symmetry_equiv_pos_as_xyz
  1  'x, y, z'
loop_
 _atom_site_type_symbol
 _atom_site_label
 _atom_site_symmetry_multiplicity
 _atom_site_fract_x
 _atom_site_fract_y
 _atom_site_fract_z
 _atom_site_occupancy
  Th  Th0  1  0.000000  0.500000  0.259430  1
  Th  Th1  1  0.500000  0.000000  0.744461  1
  Ga  Ga2  1  0.500000  0.000000  0.139028  1
  P  P3  1  0.000000  0.000000  0.503523  1
  P  P4  1  0.500000  0.500000  0.503523  1
  P  P5  1  0.000000  0.500000  0.862625  1
  Ir  Ir6  1  0.000000  0.000000  0.987582  1
  Ir  Ir7  1  0.500000  0.500000  0.987582  1
  Ir  Ir8  1  0.000000  0.500000  0.612265  1
  Ir  Ir9  1  0.500000  0.000000  0.399981  1
