# generated using pymatgen
data_Yb4Al4CuPd3
_symmetry_space_group_name_H-M   'P 1'
_cell_length_a   4.17168700
_cell_length_b   7.14496211
_cell_length_c   8.02277812
_cell_angle_alpha   90.24714379
_cell_angle_beta   90.00000000
_cell_angle_gamma   90.00000000
_symmetry_Int_Tables_number   1
_chemical_formula_structural   Yb4Al4CuPd3
_chemical_formula_sum   'Yb4 Al4 Cu1 Pd3'
_cell_volume   239.12907665
_cell_formula_units_Z   1
loop_
 _symmetry_equiv_pos_site_id
 _symmetry_equiv_pos_as_xyz
  1  'x, y, z'
loop_
 _atom_site_type_symbol
 _atom_site_label
 _atom_site_symmetry_multiplicity
 _atom_site_fract_x
 _atom_site_fract_y
 _atom_site_fract_z
 _atom_site_occupancy
  Yb  Yb0  1  0.250000  0.032978  0.325663  1
  Yb  Yb1  1  0.250000  0.531978  0.172190  1
  Yb  Yb2  1  0.750000  0.969225  0.675575  1
  Yb  Yb3  1  0.750000  0.465442  0.824605  1
  Al  Al4  1  0.250000  0.133649  0.940610  1
  Al  Al5  1  0.250000  0.632820  0.560095  1
  Al  Al6  1  0.750000  0.866483  0.058321  1
  Al  Al7  1  0.750000  0.365796  0.441062  1
  Cu  Cu8  1  0.250000  0.280269  0.631320  1
  Pd  Pd9  1  0.250000  0.774507  0.871014  1
  Pd  Pd10  1  0.750000  0.723162  0.372327  1
  Pd  Pd11  1  0.750000  0.223692  0.127218  1
