# generated using pymatgen
data_Pr2B4OsRh3
_symmetry_space_group_name_H-M   'P 1'
_cell_length_a   7.01802313
_cell_length_b   6.08111137
_cell_length_c   5.66961250
_cell_angle_alpha   73.25069831
_cell_angle_beta   56.07183790
_cell_angle_gamma   49.77680813
_symmetry_Int_Tables_number   1
_chemical_formula_structural   Pr2B4OsRh3
_chemical_formula_sum   'Pr2 B4 Os1 Rh3'
_cell_volume   152.29233736
_cell_formula_units_Z   1
loop_
 _symmetry_equiv_pos_site_id
 _symmetry_equiv_pos_as_xyz
  1  'x, y, z'
loop_
 _atom_site_type_symbol
 _atom_site_label
 _atom_site_symmetry_multiplicity
 _atom_site_fract_x
 _atom_site_fract_y
 _atom_site_fract_z
 _atom_site_occupancy
  Pr  Pr0  1  0.002695  0.002695  0.997305  1
  Pr  Pr1  1  0.249725  0.249725  0.250275  1
  B  B2  1  0.671406  0.318560  0.693094  1
  B  B3  1  0.318560  0.671406  0.316940  1
  B  B4  1  0.914936  0.598386  0.933202  1
  B  B5  1  0.598386  0.914936  0.553475  1
  Os  Os6  1  0.883502  0.883502  0.616498  1
  Rh  Rh7  1  0.617398  0.617398  0.882602  1
  Rh  Rh8  1  0.628757  0.628757  0.371243  1
  Rh  Rh9  1  0.364634  0.364634  0.635366  1
