# generated using pymatgen
data_Dy3Ho2Ir2Os
_symmetry_space_group_name_H-M   'P 1'
_cell_length_a   10.85435101
_cell_length_b   10.85184201
_cell_length_c   6.40537500
_cell_angle_alpha   90.00000000
_cell_angle_beta   90.00000000
_cell_angle_gamma   89.99583998
_symmetry_Int_Tables_number   1
_chemical_formula_structural   Dy3Ho2Ir2Os
_chemical_formula_sum   'Dy12 Ho8 Ir8 Os4'
_cell_volume   754.48721187
_cell_formula_units_Z   4
loop_
 _symmetry_equiv_pos_site_id
 _symmetry_equiv_pos_as_xyz
  1  'x, y, z'
loop_
 _atom_site_type_symbol
 _atom_site_label
 _atom_site_symmetry_multiplicity
 _atom_site_fract_x
 _atom_site_fract_y
 _atom_site_fract_z
 _atom_site_occupancy
  Dy  Dy0  1  0.293375  0.086215  0.376807  1
  Dy  Dy1  1  0.293379  0.913792  0.876811  1
  Dy  Dy2  1  0.706621  0.086208  0.876811  1
  Dy  Dy3  1  0.706625  0.913785  0.376807  1
  Dy  Dy4  1  0.586220  0.793442  0.876940  1
  Dy  Dy5  1  0.586213  0.206561  0.376931  1
  Dy  Dy6  1  0.413787  0.793439  0.376931  1
  Dy  Dy7  1  0.413780  0.206558  0.876940  1
  Dy  Dy8  1  0.206244  0.413833  0.623146  1
  Dy  Dy9  1  0.206247  0.586159  0.123153  1
  Dy  Dy10  1  0.793753  0.413841  0.123153  1
  Dy  Dy11  1  0.793756  0.586167  0.623146  1
  Ho  Ho12  1  0.914054  0.706301  0.122964  1
  Ho  Ho13  1  0.914065  0.293708  0.622978  1
  Ho  Ho14  1  0.085935  0.706292  0.622978  1
  Ho  Ho15  1  0.085946  0.293699  0.122964  1
  Ho  Ho16  1  0.000000  0.000000  0.499983  1
  Ho  Ho17  1  0.000000  0.000000  0.000053  1
  Ho  Ho18  1  0.500000  0.500000  0.999948  1
  Ho  Ho19  1  0.500000  0.500000  0.500006  1
  Ir  Ir20  1  0.848351  0.152097  0.250312  1
  Ir  Ir21  1  0.848351  0.847903  0.750313  1
  Ir  Ir22  1  0.151649  0.152097  0.750313  1
  Ir  Ir23  1  0.151649  0.847903  0.250312  1
  Ir  Ir24  1  0.652106  0.348053  0.749884  1
  Ir  Ir25  1  0.652103  0.651946  0.249886  1
  Ir  Ir26  1  0.347897  0.348054  0.249886  1
  Ir  Ir27  1  0.347894  0.651947  0.749884  1
  Os  Os28  1  0.500000  0.000000  0.122520  1
  Os  Os29  1  0.500000  0.000000  0.622523  1
  Os  Os30  1  0.000000  0.500000  0.877354  1
  Os  Os31  1  0.000000  0.500000  0.377360  1
