# generated using pymatgen
data_Cs3Nb2I10N
_symmetry_space_group_name_H-M   'P 1'
_cell_length_a   8.36696300
_cell_length_b   8.36696300
_cell_length_c   21.29641100
_cell_angle_alpha   90.00000000
_cell_angle_beta   90.00000000
_cell_angle_gamma   90.00000000
_symmetry_Int_Tables_number   1
_chemical_formula_structural   Cs3Nb2I10N
_chemical_formula_sum   'Cs6 Nb4 I20 N2'
_cell_volume   1490.87803588
_cell_formula_units_Z   2
loop_
 _symmetry_equiv_pos_site_id
 _symmetry_equiv_pos_as_xyz
  1  'x, y, z'
loop_
 _atom_site_type_symbol
 _atom_site_label
 _atom_site_symmetry_multiplicity
 _atom_site_fract_x
 _atom_site_fract_y
 _atom_site_fract_z
 _atom_site_occupancy
  Cs  Cs0  1  0.500000  0.500000  0.000000  1
  Cs  Cs1  1  0.000000  0.000000  0.500000  1
  Cs  Cs2  1  0.000000  0.500000  0.250000  1
  Cs  Cs3  1  0.500000  0.000000  0.750000  1
  Cs  Cs4  1  0.500000  0.000000  0.250000  1
  Cs  Cs5  1  0.000000  0.500000  0.750000  1
  Nb  Nb6  1  0.500000  0.500000  0.411388  1
  Nb  Nb7  1  0.000000  0.000000  0.911388  1
  Nb  Nb8  1  0.500000  0.500000  0.588612  1
  Nb  Nb9  1  0.000000  0.000000  0.088612  1
  I  I10  1  0.778278  0.681849  0.401042  1
  I  I11  1  0.221722  0.318151  0.401042  1
  I  I12  1  0.721722  0.181849  0.901042  1
  I  I13  1  0.278278  0.818151  0.901042  1
  I  I14  1  0.681849  0.221722  0.401042  1
  I  I15  1  0.318151  0.778278  0.401042  1
  I  I16  1  0.181849  0.278278  0.901042  1
  I  I17  1  0.818151  0.721722  0.901042  1
  I  I18  1  0.221722  0.318151  0.598958  1
  I  I19  1  0.778278  0.681849  0.598958  1
  I  I20  1  0.278278  0.818151  0.098958  1
  I  I21  1  0.721722  0.181849  0.098958  1
  I  I22  1  0.318151  0.778278  0.598958  1
  I  I23  1  0.681849  0.221722  0.598958  1
  I  I24  1  0.818151  0.721722  0.098958  1
  I  I25  1  0.181849  0.278278  0.098958  1
  I  I26  1  0.500000  0.500000  0.264886  1
  I  I27  1  0.000000  0.000000  0.764886  1
  I  I28  1  0.500000  0.500000  0.735114  1
  I  I29  1  0.000000  0.000000  0.235114  1
  N  N30  1  0.500000  0.500000  0.500000  1
  N  N31  1  0.000000  0.000000  0.000000  1
