# generated using pymatgen
data_PrNi4Pt
_symmetry_space_group_name_H-M   'P 1'
_cell_length_a   5.17602209
_cell_length_b   5.17602199
_cell_length_c   4.02937300
_cell_angle_alpha   90.00000000
_cell_angle_beta   90.00000000
_cell_angle_gamma   123.24861536
_symmetry_Int_Tables_number   1
_chemical_formula_structural   PrNi4Pt
_chemical_formula_sum   'Pr1 Ni4 Pt1'
_cell_volume   90.27998830
_cell_formula_units_Z   1
loop_
 _symmetry_equiv_pos_site_id
 _symmetry_equiv_pos_as_xyz
  1  'x, y, z'
loop_
 _atom_site_type_symbol
 _atom_site_label
 _atom_site_symmetry_multiplicity
 _atom_site_fract_x
 _atom_site_fract_y
 _atom_site_fract_z
 _atom_site_occupancy
  Pr  Pr0  1  0.500000  0.500000  0.000000  1
  Ni  Ni1  1  0.182429  0.817571  0.000000  1
  Ni  Ni2  1  0.817571  0.182429  0.000000  1
  Ni  Ni3  1  0.000000  0.500000  0.500000  1
  Ni  Ni4  1  0.500000  0.000000  0.500000  1
  Pt  Pt5  1  0.000000  0.000000  0.500000  1
