# generated using pymatgen
data_Cs4Li2LuAlBi4
_symmetry_space_group_name_H-M   'P 1'
_cell_length_a   10.37909619
_cell_length_b   10.37909734
_cell_length_c   10.37909560
_cell_angle_alpha   138.68801849
_cell_angle_beta   59.41092949
_cell_angle_gamma   139.26634438
_symmetry_Int_Tables_number   1
_chemical_formula_structural   Cs4Li2LuAlBi4
_chemical_formula_sum   'Cs4 Li2 Lu1 Al1 Bi4'
_cell_volume   476.91514075
_cell_formula_units_Z   1
loop_
 _symmetry_equiv_pos_site_id
 _symmetry_equiv_pos_as_xyz
  1  'x, y, z'
loop_
 _atom_site_type_symbol
 _atom_site_label
 _atom_site_symmetry_multiplicity
 _atom_site_fract_x
 _atom_site_fract_y
 _atom_site_fract_z
 _atom_site_occupancy
  Cs  Cs0  1  0.329443  0.772091  0.097969  1
  Cs  Cs1  1  0.170557  0.268526  0.442646  1
  Cs  Cs2  1  0.825879  0.727910  0.557353  1
  Cs  Cs3  1  0.674122  0.231474  0.902031  1
  Li  Li4  1  0.750000  0.250000  0.500000  1
  Li  Li5  1  0.250000  0.749999  0.500000  1
  Lu  Lu6  1  0.250000  0.250000  0.000000  1
  Al  Al7  1  0.750000  0.750000  0.000000  1
  Bi  Bi8  1  0.897064  0.222562  0.147632  1
  Bi  Bi9  1  0.602938  0.750570  0.325499  1
  Bi  Bi10  1  0.425071  0.277439  0.674501  1
  Bi  Bi11  1  0.074929  0.749431  0.852369  1
