# generated using pymatgen
data_La3Nd3(IrI3)2
_symmetry_space_group_name_H-M   'P 1'
_cell_length_a   10.94850585
_cell_length_b   10.94071924
_cell_length_c   10.94091603
_cell_angle_alpha   108.56733382
_cell_angle_beta   109.33253796
_cell_angle_gamma   110.49157537
_symmetry_Int_Tables_number   1
_chemical_formula_structural   La3Nd3(IrI3)2
_chemical_formula_sum   'La6 Nd6 Ir4 I12'
_cell_volume   1008.92349395
_cell_formula_units_Z   2
loop_
 _symmetry_equiv_pos_site_id
 _symmetry_equiv_pos_as_xyz
  1  'x, y, z'
loop_
 _atom_site_type_symbol
 _atom_site_label
 _atom_site_symmetry_multiplicity
 _atom_site_fract_x
 _atom_site_fract_y
 _atom_site_fract_z
 _atom_site_occupancy
  La  La0  1  0.456169  0.478312  0.228370  1
  La  La1  1  0.740069  0.221139  0.268136  1
  La  La2  1  0.759951  0.028099  0.481110  1
  La  La3  1  0.221220  0.453171  0.481130  1
  La  La4  1  0.278778  0.759905  0.231955  1
  La  La5  1  0.043817  0.272204  0.022142  1
  Nd  Nd6  1  0.023171  0.041434  0.267194  1
  Nd  Nd7  1  0.476841  0.744019  0.018266  1
  Nd  Nd8  1  0.474788  0.230686  0.455920  1
  Nd  Nd9  1  0.025196  0.481129  0.755889  1
  Nd  Nd10  1  0.273309  0.023246  0.045686  1
  Nd  Nd11  1  0.226682  0.272370  0.749932  1
  Ir  Ir12  1  0.249776  0.251577  0.249143  1
  Ir  Ir13  1  0.501642  0.999475  0.250416  1
  Ir  Ir14  1  0.998366  0.248780  0.497838  1
  Ir  Ir15  1  0.250227  0.499373  0.001795  1
  I  I16  1  0.251562  0.760172  0.744576  1
  I  I17  1  0.517293  0.506114  0.758280  1
  I  I18  1  0.982705  0.740982  0.988815  1
  I  I19  1  0.740342  0.251205  0.756069  1
  I  I20  1  0.994272  0.982936  0.743081  1
  I  I21  1  0.248439  0.993014  0.508611  1
  I  I22  1  0.759656  0.515725  0.510861  1
  I  I23  1  0.505731  0.248814  0.988663  1
  I  I24  1  0.759528  0.743047  0.247374  1
  I  I25  1  0.740468  0.987840  0.983518  1
  I  I26  1  0.990550  0.506735  0.249047  1
  I  I27  1  0.509451  0.758498  0.516186  1
