# generated using pymatgen
data_HfZr3Fe2(CoP)6
_symmetry_space_group_name_H-M   'P 1'
_cell_length_a   12.10912957
_cell_length_b   12.07537322
_cell_length_c   3.66246900
_cell_angle_alpha   90.00000000
_cell_angle_beta   90.00000000
_cell_angle_gamma   119.90781402
_symmetry_Int_Tables_number   1
_chemical_formula_structural   HfZr3Fe2(CoP)6
_chemical_formula_sum   'Hf2 Zr6 Fe4 Co12 P12'
_cell_volume   464.21669674
_cell_formula_units_Z   2
loop_
 _symmetry_equiv_pos_site_id
 _symmetry_equiv_pos_as_xyz
  1  'x, y, z'
loop_
 _atom_site_type_symbol
 _atom_site_label
 _atom_site_symmetry_multiplicity
 _atom_site_fract_x
 _atom_site_fract_y
 _atom_site_fract_z
 _atom_site_occupancy
  Hf  Hf0  1  0.442400  0.443316  0.000000  1
  Hf  Hf1  1  0.557600  0.000916  0.000000  1
  Zr  Zr2  1  0.000000  0.556614  0.000000  1
  Zr  Zr3  1  0.667817  0.334126  0.000000  1
  Zr  Zr4  1  0.332183  0.666310  0.000000  1
  Zr  Zr5  1  0.819174  0.819233  0.500000  1
  Zr  Zr6  1  0.180826  0.000059  0.500000  1
  Zr  Zr7  1  0.000000  0.180869  0.500000  1
  Fe  Fe8  1  0.194870  0.371910  0.000000  1
  Fe  Fe9  1  0.179095  0.806518  0.000000  1
  Fe  Fe10  1  0.820905  0.627422  0.000000  1
  Fe  Fe11  1  0.805130  0.177040  0.000000  1
  Co  Co12  1  0.372447  0.193573  0.000000  1
  Co  Co13  1  0.126359  0.481997  0.500000  1
  Co  Co14  1  0.357039  0.876108  0.500000  1
  Co  Co15  1  0.516976  0.644283  0.500000  1
  Co  Co16  1  0.642961  0.519070  0.500000  1
  Co  Co17  1  0.873641  0.355638  0.500000  1
  Co  Co18  1  0.483024  0.127306  0.500000  1
  Co  Co19  1  0.000000  0.999220  0.000000  1
  Co  Co20  1  0.721054  0.997312  0.500000  1
  Co  Co21  1  0.000000  0.723546  0.500000  1
  Co  Co22  1  0.627553  0.821125  0.000000  1
  Co  Co23  1  0.278946  0.276257  0.500000  1
  P  P24  1  0.653495  0.651869  0.000000  1
  P  P25  1  0.346505  0.998374  0.000000  1
  P  P26  1  0.000000  0.345642  0.000000  1
  P  P27  1  0.482605  0.309247  0.500000  1
  P  P28  1  0.693809  0.173603  0.500000  1
  P  P29  1  0.825821  0.520197  0.500000  1
  P  P30  1  0.517395  0.826642  0.500000  1
  P  P31  1  0.174179  0.694375  0.500000  1
  P  P32  1  0.825083  0.001426  0.000000  1
  P  P33  1  0.000000  0.822723  0.000000  1
  P  P34  1  0.306191  0.479794  0.500000  1
  P  P35  1  0.174917  0.176343  0.000000  1
