# generated using pymatgen
data_La6P5Se
_symmetry_space_group_name_H-M   'P 1'
_cell_length_a   4.27642104
_cell_length_b   10.52868721
_cell_length_c   8.55729926
_cell_angle_alpha   90.06009462
_cell_angle_beta   60.01441205
_cell_angle_gamma   89.98625232
_symmetry_Int_Tables_number   1
_chemical_formula_structural   La6P5Se
_chemical_formula_sum   'La6 P5 Se1'
_cell_volume   333.72187689
_cell_formula_units_Z   1
loop_
 _symmetry_equiv_pos_site_id
 _symmetry_equiv_pos_as_xyz
  1  'x, y, z'
loop_
 _atom_site_type_symbol
 _atom_site_label
 _atom_site_symmetry_multiplicity
 _atom_site_fract_x
 _atom_site_fract_y
 _atom_site_fract_z
 _atom_site_occupancy
  La  La0  1  0.941125  0.894192  0.651192  1
  La  La1  1  0.268763  0.235703  0.327315  1
  La  La2  1  0.606419  0.564966  0.988737  1
  La  La3  1  0.280761  0.240199  0.814995  1
  La  La4  1  0.606229  0.564986  0.488695  1
  La  La5  1  0.928767  0.889816  0.163498  1
  P  P6  1  0.270791  0.731905  0.322403  1
  P  P7  1  0.940209  0.398090  0.655523  1
  P  P8  1  0.604694  0.064982  0.489366  1
  P  P9  1  0.941797  0.396240  0.154078  1
  P  P10  1  0.269558  0.733674  0.823947  1
  Se  Se11  1  0.604396  0.064977  0.989346  1
