# generated using pymatgen
data_Sr3(HoPb2)2
_symmetry_space_group_name_H-M   'P 1'
_cell_length_a   8.24335000
_cell_length_b   8.84897100
_cell_length_c   16.66730400
_cell_angle_alpha   90.00000000
_cell_angle_beta   90.00000000
_cell_angle_gamma   90.00000000
_symmetry_Int_Tables_number   1
_chemical_formula_structural   Sr3(HoPb2)2
_chemical_formula_sum   'Sr12 Ho8 Pb16'
_cell_volume   1215.79924193
_cell_formula_units_Z   4
loop_
 _symmetry_equiv_pos_site_id
 _symmetry_equiv_pos_as_xyz
  1  'x, y, z'
loop_
 _atom_site_type_symbol
 _atom_site_label
 _atom_site_symmetry_multiplicity
 _atom_site_fract_x
 _atom_site_fract_y
 _atom_site_fract_z
 _atom_site_occupancy
  Sr  Sr0  1  0.500588  0.682949  0.591194  1
  Sr  Sr1  1  0.000588  0.817051  0.908806  1
  Sr  Sr2  1  0.499412  0.317051  0.091194  1
  Sr  Sr3  1  0.999412  0.182949  0.408806  1
  Sr  Sr4  1  0.499412  0.317051  0.408806  1
  Sr  Sr5  1  0.999412  0.182949  0.091194  1
  Sr  Sr6  1  0.500588  0.682949  0.908806  1
  Sr  Sr7  1  0.000588  0.817051  0.591194  1
  Sr  Sr8  1  0.827623  0.513656  0.750000  1
  Sr  Sr9  1  0.327623  0.986344  0.750000  1
  Sr  Sr10  1  0.172377  0.486344  0.250000  1
  Sr  Sr11  1  0.672377  0.013656  0.250000  1
  Ho  Ho12  1  0.672198  0.164679  0.621510  1
  Ho  Ho13  1  0.172198  0.335321  0.878490  1
  Ho  Ho14  1  0.327802  0.835321  0.121510  1
  Ho  Ho15  1  0.827802  0.664679  0.378490  1
  Ho  Ho16  1  0.327802  0.835321  0.378490  1
  Ho  Ho17  1  0.827802  0.664679  0.121510  1
  Ho  Ho18  1  0.672198  0.164679  0.878490  1
  Ho  Ho19  1  0.172198  0.335321  0.621510  1
  Pb  Pb20  1  0.671394  0.958380  0.459869  1
  Pb  Pb21  1  0.171394  0.541620  0.040131  1
  Pb  Pb22  1  0.328606  0.041620  0.959869  1
  Pb  Pb23  1  0.828606  0.458380  0.540131  1
  Pb  Pb24  1  0.328606  0.041620  0.540131  1
  Pb  Pb25  1  0.828606  0.458380  0.959869  1
  Pb  Pb26  1  0.671394  0.958380  0.040131  1
  Pb  Pb27  1  0.171394  0.541620  0.459869  1
  Pb  Pb28  1  0.466052  0.358561  0.750000  1
  Pb  Pb29  1  0.966052  0.141439  0.750000  1
  Pb  Pb30  1  0.533948  0.641439  0.250000  1
  Pb  Pb31  1  0.033948  0.858561  0.250000  1
  Pb  Pb32  1  0.714655  0.883575  0.750000  1
  Pb  Pb33  1  0.214655  0.616425  0.750000  1
  Pb  Pb34  1  0.285345  0.116425  0.250000  1
  Pb  Pb35  1  0.785345  0.383575  0.250000  1
