# generated using pymatgen
data_Ho3ErPd3Pt
_symmetry_space_group_name_H-M   'P 1'
_cell_length_a   4.54891500
_cell_length_b   5.58260980
_cell_length_c   6.94808544
_cell_angle_alpha   89.87985402
_cell_angle_beta   90.00000000
_cell_angle_gamma   90.00000000
_symmetry_Int_Tables_number   1
_chemical_formula_structural   Ho3ErPd3Pt
_chemical_formula_sum   'Ho3 Er1 Pd3 Pt1'
_cell_volume   176.44497346
_cell_formula_units_Z   1
loop_
 _symmetry_equiv_pos_site_id
 _symmetry_equiv_pos_as_xyz
  1  'x, y, z'
loop_
 _atom_site_type_symbol
 _atom_site_label
 _atom_site_symmetry_multiplicity
 _atom_site_fract_x
 _atom_site_fract_y
 _atom_site_fract_z
 _atom_site_occupancy
  Ho  Ho0  1  0.250000  0.640581  0.182310  1
  Ho  Ho1  1  0.750000  0.355978  0.814782  1
  Ho  Ho2  1  0.750000  0.144590  0.320717  1
  Er  Er3  1  0.250000  0.858208  0.681739  1
  Pd  Pd4  1  0.250000  0.152709  0.043059  1
  Pd  Pd5  1  0.750000  0.845923  0.957434  1
  Pd  Pd6  1  0.750000  0.657102  0.455956  1
  Pt  Pt7  1  0.250000  0.344909  0.544001  1
