# generated using pymatgen
data_Tm5TaRu6
_symmetry_space_group_name_H-M   'P 1'
_cell_length_a   14.20593100
_cell_length_b   3.29479500
_cell_length_c   4.71325700
_cell_angle_alpha   90.00000000
_cell_angle_beta   90.00000000
_cell_angle_gamma   90.00000000
_symmetry_Int_Tables_number   1
_chemical_formula_structural   Tm5TaRu6
_chemical_formula_sum   'Tm5 Ta1 Ru6'
_cell_volume   220.60696526
_cell_formula_units_Z   1
loop_
 _symmetry_equiv_pos_site_id
 _symmetry_equiv_pos_as_xyz
  1  'x, y, z'
loop_
 _atom_site_type_symbol
 _atom_site_label
 _atom_site_symmetry_multiplicity
 _atom_site_fract_x
 _atom_site_fract_y
 _atom_site_fract_z
 _atom_site_occupancy
  Tm  Tm0  1  0.750000  0.000000  0.245101  1
  Tm  Tm1  1  0.086586  0.000000  0.252888  1
  Tm  Tm2  1  0.413415  0.000000  0.252888  1
  Tm  Tm3  1  0.580950  0.000000  0.747712  1
  Tm  Tm4  1  0.919049  0.000000  0.747712  1
  Ta  Ta5  1  0.250000  0.000000  0.754146  1
  Ru  Ru6  1  0.579586  0.500001  0.247246  1
  Ru  Ru7  1  0.920415  0.500001  0.247246  1
  Ru  Ru8  1  0.250000  0.500001  0.254424  1
  Ru  Ru9  1  0.750000  0.500001  0.744152  1
  Ru  Ru10  1  0.100849  0.500001  0.753245  1
  Ru  Ru11  1  0.399150  0.500001  0.753245  1
