# generated using pymatgen
data_Sm2Ho2ReB12Os
_symmetry_space_group_name_H-M   'P 1'
_cell_length_a   3.69294700
_cell_length_b   9.20563642
_cell_length_c   11.62856918
_cell_angle_alpha   90.12467734
_cell_angle_beta   90.00000000
_cell_angle_gamma   90.00000000
_symmetry_Int_Tables_number   1
_chemical_formula_structural   Sm2Ho2ReB12Os
_chemical_formula_sum   'Sm4 Ho4 Re2 B24 Os2'
_cell_volume   395.32305757
_cell_formula_units_Z   2
loop_
 _symmetry_equiv_pos_site_id
 _symmetry_equiv_pos_as_xyz
  1  'x, y, z'
loop_
 _atom_site_type_symbol
 _atom_site_label
 _atom_site_symmetry_multiplicity
 _atom_site_fract_x
 _atom_site_fract_y
 _atom_site_fract_z
 _atom_site_occupancy
  Sm  Sm0  1  0.000000  0.321173  0.412677  1
  Sm  Sm1  1  0.000000  0.678827  0.587323  1
  Sm  Sm2  1  0.000000  0.824143  0.085133  1
  Sm  Sm3  1  0.000000  0.175857  0.914867  1
  Ho  Ho4  1  0.000000  0.943361  0.370455  1
  Ho  Ho5  1  0.000000  0.056639  0.629545  1
  Ho  Ho6  1  0.000000  0.442242  0.129079  1
  Ho  Ho7  1  0.000000  0.557758  0.870921  1
  Re  Re8  1  0.000000  0.139153  0.180413  1
  Re  Re9  1  0.000000  0.860847  0.819587  1
  B  B10  1  0.500000  0.554656  0.431495  1
  B  B11  1  0.500000  0.445344  0.568505  1
  B  B12  1  0.500000  0.053967  0.068251  1
  B  B13  1  0.500000  0.946033  0.931749  1
  B  B14  1  0.500000  0.749017  0.417402  1
  B  B15  1  0.500000  0.250983  0.582598  1
  B  B16  1  0.500000  0.249135  0.082432  1
  B  B17  1  0.500000  0.750865  0.917568  1
  B  B18  1  0.500000  0.790243  0.266677  1
  B  B19  1  0.500000  0.209757  0.733323  1
  B  B20  1  0.500000  0.291060  0.233866  1
  B  B21  1  0.500000  0.708940  0.766134  1
  B  B22  1  0.500000  0.630157  0.186609  1
  B  B23  1  0.500000  0.369843  0.813391  1
  B  B24  1  0.500000  0.130679  0.314299  1
  B  B25  1  0.500000  0.869321  0.685701  1
  B  B26  1  0.500000  0.983797  0.213324  1
  B  B27  1  0.500000  0.016203  0.786676  1
  B  B28  1  0.500000  0.484074  0.287311  1
  B  B29  1  0.500000  0.515926  0.712689  1
  B  B30  1  0.500000  0.600776  0.028000  1
  B  B31  1  0.500000  0.399224  0.972000  1
  B  B32  1  0.500000  0.101529  0.472094  1
  B  B33  1  0.500000  0.898471  0.527906  1
  Os  Os34  1  0.000000  0.638243  0.320764  1
  Os  Os35  1  0.000000  0.361757  0.679236  1
