# generated using pymatgen
data_Ca4ZnRh7
_symmetry_space_group_name_H-M   'P 1'
_cell_length_a   5.41812900
_cell_length_b   5.41812794
_cell_length_c   8.58743600
_cell_angle_alpha   90.00000000
_cell_angle_beta   90.00000000
_cell_angle_gamma   119.99998814
_symmetry_Int_Tables_number   1
_chemical_formula_structural   Ca4ZnRh7
_chemical_formula_sum   'Ca4 Zn1 Rh7'
_cell_volume   218.31963374
_cell_formula_units_Z   1
loop_
 _symmetry_equiv_pos_site_id
 _symmetry_equiv_pos_as_xyz
  1  'x, y, z'
loop_
 _atom_site_type_symbol
 _atom_site_label
 _atom_site_symmetry_multiplicity
 _atom_site_fract_x
 _atom_site_fract_y
 _atom_site_fract_z
 _atom_site_occupancy
  Ca  Ca0  1  0.333333  0.666667  0.063826  1
  Ca  Ca1  1  0.666667  0.333333  0.570765  1
  Ca  Ca2  1  0.666667  0.333333  0.936174  1
  Ca  Ca3  1  0.333333  0.666667  0.429235  1
  Zn  Zn4  1  0.000000  0.000000  0.500000  1
  Rh  Rh5  1  0.000000  0.000000  0.000000  1
  Rh  Rh6  1  0.830192  0.660385  0.249220  1
  Rh  Rh7  1  0.169808  0.830192  0.750780  1
  Rh  Rh8  1  0.660385  0.830192  0.750780  1
  Rh  Rh9  1  0.339615  0.169808  0.249220  1
  Rh  Rh10  1  0.830192  0.169808  0.249220  1
  Rh  Rh11  1  0.169808  0.339615  0.750780  1
