# generated using pymatgen
data_Tb3Dy5(InNi)2
_symmetry_space_group_name_H-M   'P 1'
_cell_length_a   9.60948241
_cell_length_b   9.61388005
_cell_length_c   9.61387901
_cell_angle_alpha   59.96973643
_cell_angle_beta   60.01512941
_cell_angle_gamma   60.01512571
_symmetry_Int_Tables_number   1
_chemical_formula_structural   Tb3Dy5(InNi)2
_chemical_formula_sum   'Tb6 Dy10 In4 Ni4'
_cell_volume   628.03253118
_cell_formula_units_Z   2
loop_
 _symmetry_equiv_pos_site_id
 _symmetry_equiv_pos_as_xyz
  1  'x, y, z'
loop_
 _atom_site_type_symbol
 _atom_site_label
 _atom_site_symmetry_multiplicity
 _atom_site_fract_x
 _atom_site_fract_y
 _atom_site_fract_z
 _atom_site_occupancy
  Tb  Tb0  1  0.597642  0.597894  0.597894  1
  Tb  Tb1  1  0.597894  0.597642  0.206571  1
  Tb  Tb2  1  0.597894  0.206571  0.597642  1
  Tb  Tb3  1  0.206571  0.597894  0.597894  1
  Tb  Tb4  1  0.061872  0.438128  0.438128  1
  Tb  Tb5  1  0.438128  0.061872  0.061872  1
  Dy  Dy6  1  0.438502  0.061498  0.438502  1
  Dy  Dy7  1  0.061498  0.438502  0.061498  1
  Dy  Dy8  1  0.438502  0.438502  0.061498  1
  Dy  Dy9  1  0.061498  0.061498  0.438502  1
  Dy  Dy10  1  0.186865  0.813135  0.813135  1
  Dy  Dy11  1  0.813135  0.186865  0.186865  1
  Dy  Dy12  1  0.812978  0.187022  0.812978  1
  Dy  Dy13  1  0.187022  0.812978  0.187022  1
  Dy  Dy14  1  0.812978  0.812978  0.187022  1
  Dy  Dy15  1  0.187022  0.187022  0.812978  1
  In  In16  1  0.832501  0.832165  0.832165  1
  In  In17  1  0.832165  0.832501  0.503170  1
  In  In18  1  0.832165  0.503170  0.832501  1
  In  In19  1  0.503170  0.832165  0.832165  1
  Ni  Ni20  1  0.392407  0.392156  0.392156  1
  Ni  Ni21  1  0.392156  0.392407  0.823280  1
  Ni  Ni22  1  0.392156  0.823280  0.392407  1
  Ni  Ni23  1  0.823280  0.392156  0.392156  1
