# generated using pymatgen
data_RuRhBr18
_symmetry_space_group_name_H-M   'P 1'
_cell_length_a   9.04912275
_cell_length_b   9.04912322
_cell_length_c   9.04912367
_cell_angle_alpha   91.43583117
_cell_angle_beta   91.43582289
_cell_angle_gamma   91.43582658
_symmetry_Int_Tables_number   1
_chemical_formula_structural   RuRhBr18
_chemical_formula_sum   'Ru1 Rh1 Br18'
_cell_volume   740.29233816
_cell_formula_units_Z   1
loop_
 _symmetry_equiv_pos_site_id
 _symmetry_equiv_pos_as_xyz
  1  'x, y, z'
loop_
 _atom_site_type_symbol
 _atom_site_label
 _atom_site_symmetry_multiplicity
 _atom_site_fract_x
 _atom_site_fract_y
 _atom_site_fract_z
 _atom_site_occupancy
  Ru  Ru0  1  0.000000  0.000000  0.000000  1
  Rh  Rh1  1  0.500000  0.500000  0.500000  1
  Br  Br2  1  0.724275  0.981487  0.017551  1
  Br  Br3  1  0.743174  0.130249  0.616092  1
  Br  Br4  1  0.017551  0.724275  0.981487  1
  Br  Br5  1  0.256826  0.869751  0.383908  1
  Br  Br6  1  0.130249  0.616092  0.743174  1
  Br  Br7  1  0.018513  0.982449  0.275725  1
  Br  Br8  1  0.616092  0.743174  0.130249  1
  Br  Br9  1  0.982449  0.275725  0.018513  1
  Br  Br10  1  0.869751  0.383908  0.256826  1
  Br  Br11  1  0.383908  0.256826  0.869751  1
  Br  Br12  1  0.981487  0.017551  0.724275  1
  Br  Br13  1  0.275725  0.018513  0.982449  1
  Br  Br14  1  0.775461  0.527986  0.485998  1
  Br  Br15  1  0.514002  0.224539  0.472014  1
  Br  Br16  1  0.472014  0.514002  0.224539  1
  Br  Br17  1  0.485998  0.775461  0.527986  1
  Br  Br18  1  0.527986  0.485998  0.775461  1
  Br  Br19  1  0.224539  0.472014  0.514002  1
