# generated using pymatgen
data_PrErZn5Ge
_symmetry_space_group_name_H-M   'P 1'
_cell_length_a   8.30072487
_cell_length_b   8.30072494
_cell_length_c   8.84487400
_cell_angle_alpha   90.00000000
_cell_angle_beta   90.00000000
_cell_angle_gamma   149.54386244
_symmetry_Int_Tables_number   1
_chemical_formula_structural   PrErZn5Ge
_chemical_formula_sum   'Pr2 Er2 Zn10 Ge2'
_cell_volume   308.90692756
_cell_formula_units_Z   2
loop_
 _symmetry_equiv_pos_site_id
 _symmetry_equiv_pos_as_xyz
  1  'x, y, z'
loop_
 _atom_site_type_symbol
 _atom_site_label
 _atom_site_symmetry_multiplicity
 _atom_site_fract_x
 _atom_site_fract_y
 _atom_site_fract_z
 _atom_site_occupancy
  Pr  Pr0  1  0.000000  0.000000  0.500000  1
  Pr  Pr1  1  0.000000  0.000000  0.000000  1
  Er  Er2  1  0.201241  0.798759  0.250000  1
  Er  Er3  1  0.798759  0.201241  0.750000  1
  Zn  Zn4  1  0.812197  0.187803  0.391635  1
  Zn  Zn5  1  0.187803  0.812197  0.608365  1
  Zn  Zn6  1  0.812197  0.187803  0.108365  1
  Zn  Zn7  1  0.187803  0.812197  0.891635  1
  Zn  Zn8  1  0.654668  0.345332  0.476178  1
  Zn  Zn9  1  0.345332  0.654668  0.523822  1
  Zn  Zn10  1  0.654668  0.345332  0.023822  1
  Zn  Zn11  1  0.345332  0.654668  0.976178  1
  Zn  Zn12  1  0.399155  0.600845  0.250000  1
  Zn  Zn13  1  0.600845  0.399155  0.750000  1
  Ge  Ge14  1  0.557650  0.442350  0.250000  1
  Ge  Ge15  1  0.442350  0.557650  0.750000  1
