# generated using pymatgen
data_Tm13Th3Mg3CdNi4
_symmetry_space_group_name_H-M   'P 1'
_cell_length_a   9.51753112
_cell_length_b   9.53323655
_cell_length_c   9.53323588
_cell_angle_alpha   59.97570620
_cell_angle_beta   59.97743312
_cell_angle_gamma   59.97743933
_symmetry_Int_Tables_number   1
_chemical_formula_structural   Tm13Th3Mg3CdNi4
_chemical_formula_sum   'Tm13 Th3 Mg3 Cd1 Ni4'
_cell_volume   611.31080125
_cell_formula_units_Z   1
loop_
 _symmetry_equiv_pos_site_id
 _symmetry_equiv_pos_as_xyz
  1  'x, y, z'
loop_
 _atom_site_type_symbol
 _atom_site_label
 _atom_site_symmetry_multiplicity
 _atom_site_fract_x
 _atom_site_fract_y
 _atom_site_fract_z
 _atom_site_occupancy
  Tm  Tm0  1  0.203762  0.599995  0.599995  1
  Tm  Tm1  1  0.063662  0.437674  0.437674  1
  Tm  Tm2  1  0.436118  0.063997  0.063997  1
  Tm  Tm3  1  0.439658  0.061858  0.436910  1
  Tm  Tm4  1  0.062935  0.436786  0.062787  1
  Tm  Tm5  1  0.439658  0.436910  0.061858  1
  Tm  Tm6  1  0.062935  0.062787  0.436786  1
  Tm  Tm7  1  0.184035  0.817273  0.817273  1
  Tm  Tm8  1  0.813571  0.184206  0.184206  1
  Tm  Tm9  1  0.816286  0.183910  0.816847  1
  Tm  Tm10  1  0.183664  0.816860  0.182151  1
  Tm  Tm11  1  0.816286  0.816847  0.183910  1
  Tm  Tm12  1  0.183664  0.182151  0.816860  1
  Th  Th13  1  0.591081  0.597209  0.597209  1
  Th  Th14  1  0.590952  0.599714  0.208057  1
  Th  Th15  1  0.590952  0.208057  0.599714  1
  Mg  Mg16  1  0.833194  0.827876  0.511706  1
  Mg  Mg17  1  0.833194  0.511706  0.827876  1
  Mg  Mg18  1  0.511495  0.829609  0.829609  1
  Cd  Cd19  1  0.836627  0.830716  0.830716  1
  Ni  Ni20  1  0.398935  0.388010  0.388010  1
  Ni  Ni21  1  0.393922  0.390092  0.823445  1
  Ni  Ni22  1  0.393922  0.823445  0.390092  1
  Ni  Ni23  1  0.819490  0.392315  0.392315  1
