# generated using pymatgen
data_DyTm5CoTe2
_symmetry_space_group_name_H-M   'P 1'
_cell_length_a   8.34371700
_cell_length_b   8.19589567
_cell_length_c   3.91045700
_cell_angle_alpha   90.00000000
_cell_angle_beta   90.00000000
_cell_angle_gamma   120.59844604
_symmetry_Int_Tables_number   1
_chemical_formula_structural   DyTm5CoTe2
_chemical_formula_sum   'Dy1 Tm5 Co1 Te2'
_cell_volume   230.17782161
_cell_formula_units_Z   1
loop_
 _symmetry_equiv_pos_site_id
 _symmetry_equiv_pos_as_xyz
  1  'x, y, z'
loop_
 _atom_site_type_symbol
 _atom_site_label
 _atom_site_symmetry_multiplicity
 _atom_site_fract_x
 _atom_site_fract_y
 _atom_site_fract_z
 _atom_site_occupancy
  Dy  Dy0  1  0.401892  0.000000  0.500000  1
  Tm  Tm1  1  0.999538  0.389704  0.500000  1
  Tm  Tm2  1  0.609835  0.610296  0.500000  1
  Tm  Tm3  1  0.004277  0.767571  0.000000  1
  Tm  Tm4  1  0.236706  0.232429  0.000000  1
  Tm  Tm5  1  0.764475  0.000000  0.000000  1
  Co  Co6  1  0.981300  0.000000  0.500000  1
  Te  Te7  1  0.333184  0.664393  0.000000  1
  Te  Te8  1  0.668792  0.335607  0.000000  1
