# generated using pymatgen
data_Y2LuAuO7
_symmetry_space_group_name_H-M   'P 1'
_cell_length_a   6.45615169
_cell_length_b   6.45615281
_cell_length_c   7.41272600
_cell_angle_alpha   90.00000000
_cell_angle_beta   90.00000000
_cell_angle_gamma   108.70592541
_symmetry_Int_Tables_number   1
_chemical_formula_structural   Y2LuAuO7
_chemical_formula_sum   'Y4 Lu2 Au2 O14'
_cell_volume   292.65548645
_cell_formula_units_Z   2
loop_
 _symmetry_equiv_pos_site_id
 _symmetry_equiv_pos_as_xyz
  1  'x, y, z'
loop_
 _atom_site_type_symbol
 _atom_site_label
 _atom_site_symmetry_multiplicity
 _atom_site_fract_x
 _atom_site_fract_y
 _atom_site_fract_z
 _atom_site_occupancy
  Y  Y0  1  0.501398  0.501398  0.500000  1
  Y  Y1  1  0.501398  0.501398  0.000000  1
  Y  Y2  1  0.472158  0.002686  0.250000  1
  Y  Y3  1  0.002686  0.472158  0.750000  1
  Lu  Lu4  1  0.528712  0.998884  0.750000  1
  Lu  Lu5  1  0.998884  0.528712  0.250000  1
  Au  Au6  1  0.999657  0.999657  0.500000  1
  Au  Au7  1  0.999657  0.999657  0.000000  1
  O  O8  1  0.667768  0.918749  0.479600  1
  O  O9  1  0.918749  0.667768  0.520400  1
  O  O10  1  0.667768  0.918749  0.020400  1
  O  O11  1  0.918749  0.667768  0.979600  1
  O  O12  1  0.331206  0.080488  0.528371  1
  O  O13  1  0.080488  0.331206  0.471629  1
  O  O14  1  0.331206  0.080488  0.971629  1
  O  O15  1  0.080488  0.331206  0.028371  1
  O  O16  1  0.916827  0.078722  0.750000  1
  O  O17  1  0.078722  0.916827  0.250000  1
  O  O18  1  0.370810  0.639836  0.750000  1
  O  O19  1  0.639836  0.370810  0.250000  1
  O  O20  1  0.637236  0.355597  0.750000  1
  O  O21  1  0.355597  0.637236  0.250000  1
