# generated using pymatgen
data_Y2TiCo10As7Ru
_symmetry_space_group_name_H-M   'P 1'
_cell_length_a   3.78932000
_cell_length_b   9.39817673
_cell_length_c   9.42431303
_cell_angle_alpha   119.85699959
_cell_angle_beta   90.00000000
_cell_angle_gamma   90.00000000
_symmetry_Int_Tables_number   1
_chemical_formula_structural   Y2TiCo10As7Ru
_chemical_formula_sum   'Y2 Ti1 Co10 As7 Ru1'
_cell_volume   291.07789567
_cell_formula_units_Z   1
loop_
 _symmetry_equiv_pos_site_id
 _symmetry_equiv_pos_as_xyz
  1  'x, y, z'
loop_
 _atom_site_type_symbol
 _atom_site_label
 _atom_site_symmetry_multiplicity
 _atom_site_fract_x
 _atom_site_fract_y
 _atom_site_fract_z
 _atom_site_occupancy
  Y  Y0  1  0.000000  0.671209  0.340012  1
  Y  Y1  1  0.500000  0.331114  0.665123  1
  Ti  Ti2  1  0.500000  0.783708  0.895713  1
  Co  Co3  1  0.000000  0.568315  0.940497  1
  Co  Co4  1  0.000000  0.369882  0.428773  1
  Co  Co5  1  0.000000  0.058063  0.627762  1
  Co  Co6  1  0.500000  0.098510  0.874230  1
  Co  Co7  1  0.000000  0.876740  0.158373  1
  Co  Co8  1  0.000000  0.284720  0.125100  1
  Co  Co9  1  0.000000  0.844458  0.725193  1
  Co  Co10  1  0.500000  0.946990  0.383143  1
  Co  Co11  1  0.500000  0.429631  0.048584  1
  Co  Co12  1  0.500000  0.617838  0.566083  1
  As  As13  1  0.000000  0.009374  0.004215  1
  As  As14  1  0.500000  0.704357  0.119872  1
  As  As15  1  0.500000  0.410345  0.291476  1
  As  As16  1  0.500000  0.887069  0.596730  1
  As  As17  1  0.000000  0.582580  0.698059  1
  As  As18  1  0.000000  0.112208  0.410988  1
  As  As19  1  0.000000  0.294984  0.885109  1
  Ru  Ru20  1  0.500000  0.117904  0.214970  1
