# generated using pymatgen
data_Tm4Tc3Os3W2
_symmetry_space_group_name_H-M   'P 1'
_cell_length_a   5.41681732
_cell_length_b   5.24559341
_cell_length_c   9.01770700
_cell_angle_alpha   90.00000000
_cell_angle_beta   90.00000000
_cell_angle_gamma   120.74933949
_symmetry_Int_Tables_number   1
_chemical_formula_structural   Tm4Tc3Os3W2
_chemical_formula_sum   'Tm4 Tc3 Os3 W2'
_cell_volume   220.20972928
_cell_formula_units_Z   1
loop_
 _symmetry_equiv_pos_site_id
 _symmetry_equiv_pos_as_xyz
  1  'x, y, z'
loop_
 _atom_site_type_symbol
 _atom_site_label
 _atom_site_symmetry_multiplicity
 _atom_site_fract_x
 _atom_site_fract_y
 _atom_site_fract_z
 _atom_site_occupancy
  Tm  Tm0  1  0.668567  0.337219  0.561453  1
  Tm  Tm1  1  0.330891  0.662201  0.435719  1
  Tm  Tm2  1  0.330891  0.662201  0.064281  1
  Tm  Tm3  1  0.668567  0.337219  0.938547  1
  Tc  Tc4  1  0.171846  0.823259  0.750000  1
  Tc  Tc5  1  0.650932  0.822843  0.750000  1
  Tc  Tc6  1  0.827563  0.175663  0.250000  1
  Os  Os7  1  0.999113  0.999226  0.499826  1
  Os  Os8  1  0.999113  0.999226  0.000174  1
  Os  Os9  1  0.351243  0.178255  0.250000  1
  W  W10  1  0.161867  0.324851  0.750000  1
  W  W11  1  0.839407  0.677836  0.250000  1
