# generated using pymatgen
data_PrHg3IrRh3O14
_symmetry_space_group_name_H-M   'P 1'
_cell_length_a   7.39372714
_cell_length_b   7.27716861
_cell_length_c   7.27716900
_cell_angle_alpha   60.00000279
_cell_angle_beta   60.52013282
_cell_angle_gamma   60.52013226
_symmetry_Int_Tables_number   1
_chemical_formula_structural   PrHg3IrRh3O14
_chemical_formula_sum   'Pr1 Hg3 Ir1 Rh3 O14'
_cell_volume   279.02511642
_cell_formula_units_Z   1
loop_
 _symmetry_equiv_pos_site_id
 _symmetry_equiv_pos_as_xyz
  1  'x, y, z'
loop_
 _atom_site_type_symbol
 _atom_site_label
 _atom_site_symmetry_multiplicity
 _atom_site_fract_x
 _atom_site_fract_y
 _atom_site_fract_z
 _atom_site_occupancy
  Pr  Pr0  1  0.625000  0.125000  0.125000  1
  Hg  Hg1  1  0.125000  0.125000  0.625000  1
  Hg  Hg2  1  0.125000  0.125000  0.125000  1
  Hg  Hg3  1  0.125000  0.625000  0.125000  1
  Ir  Ir4  1  0.125000  0.625000  0.625000  1
  Rh  Rh5  1  0.625000  0.625000  0.625000  1
  Rh  Rh6  1  0.625000  0.125000  0.625000  1
  Rh  Rh7  1  0.625000  0.625000  0.125000  1
  O  O8  1  0.947394  0.555436  0.555436  1
  O  O9  1  0.302606  0.308266  0.694564  1
  O  O10  1  0.947394  0.555436  0.941734  1
  O  O11  1  0.701043  0.297008  0.297008  1
  O  O12  1  0.548957  0.545057  0.952992  1
  O  O13  1  0.548957  0.952992  0.545057  1
  O  O14  1  0.548957  0.952992  0.952992  1
  O  O15  1  0.225479  0.258174  0.258174  1
  O  O16  1  0.302606  0.694564  0.694564  1
  O  O17  1  0.701043  0.297008  0.704943  1
  O  O18  1  0.024521  0.991826  0.991826  1
  O  O19  1  0.947394  0.941734  0.555436  1
  O  O20  1  0.302606  0.694564  0.308266  1
  O  O21  1  0.701043  0.704943  0.297008  1
