# generated using pymatgen
data_Nd4Ga10(IrRu)3
_symmetry_space_group_name_H-M   'P 1'
_cell_length_a   8.65900030
_cell_length_b   8.74324530
_cell_length_c   8.74324459
_cell_angle_alpha   141.59829130
_cell_angle_beta   108.51315882
_cell_angle_gamma   84.31306656
_symmetry_Int_Tables_number   1
_chemical_formula_structural   Nd4Ga10(IrRu)3
_chemical_formula_sum   'Nd4 Ga10 Ir3 Ru3'
_cell_volume   377.08553713
_cell_formula_units_Z   1
loop_
 _symmetry_equiv_pos_site_id
 _symmetry_equiv_pos_as_xyz
  1  'x, y, z'
loop_
 _atom_site_type_symbol
 _atom_site_label
 _atom_site_symmetry_multiplicity
 _atom_site_fract_x
 _atom_site_fract_y
 _atom_site_fract_z
 _atom_site_occupancy
  Nd  Nd0  1  0.869290  0.639456  0.229832  1
  Nd  Nd1  1  0.131421  0.362024  0.769398  1
  Nd  Nd2  1  0.412518  0.137863  0.274655  1
  Nd  Nd3  1  0.586047  0.861595  0.724451  1
  Ga  Ga4  1  0.499051  0.748231  0.247015  1
  Ga  Ga5  1  0.499051  0.252036  0.750820  1
  Ga  Ga6  1  0.204462  0.955831  0.751258  1
  Ga  Ga7  1  0.795185  0.548954  0.752622  1
  Ga  Ga8  1  0.795185  0.042564  0.246232  1
  Ga  Ga9  1  0.204462  0.453203  0.248631  1
  Ga  Ga10  1  0.090308  0.907217  0.183092  1
  Ga  Ga11  1  0.911738  0.091033  0.820705  1
  Ga  Ga12  1  0.741928  0.413954  0.327975  1
  Ga  Ga13  1  0.255993  0.585822  0.670171  1
  Ir  Ir14  1  0.741789  0.151377  0.590410  1
  Ir  Ir15  1  0.445448  0.351937  0.093513  1
  Ir  Ir16  1  0.552631  0.648694  0.903936  1
  Ru  Ru17  1  0.999331  0.767582  0.768520  1
  Ru  Ru18  1  0.999331  0.230811  0.231748  1
  Ru  Ru19  1  0.264833  0.849817  0.415017  1
