# generated using pymatgen
data_Er6Tm2Sc12Si15Bi
_symmetry_space_group_name_H-M   'P 1'
_cell_length_a   7.12822722
_cell_length_b   7.37545378
_cell_length_c   13.99524505
_cell_angle_alpha   90.06094281
_cell_angle_beta   88.69210183
_cell_angle_gamma   90.17420958
_symmetry_Int_Tables_number   1
_chemical_formula_structural   Er6Tm2Sc12Si15Bi
_chemical_formula_sum   'Er6 Tm2 Sc12 Si15 Bi1'
_cell_volume   735.58930352
_cell_formula_units_Z   1
loop_
 _symmetry_equiv_pos_site_id
 _symmetry_equiv_pos_as_xyz
  1  'x, y, z'
loop_
 _atom_site_type_symbol
 _atom_site_label
 _atom_site_symmetry_multiplicity
 _atom_site_fract_x
 _atom_site_fract_y
 _atom_site_fract_z
 _atom_site_occupancy
  Er  Er0  1  0.012662  0.177336  0.096472  1
  Er  Er1  1  0.987598  0.824052  0.904449  1
  Er  Er2  1  0.488498  0.676359  0.904344  1
  Er  Er3  1  0.991906  0.831368  0.598163  1
  Er  Er4  1  0.511868  0.323683  0.097136  1
  Er  Er5  1  0.999873  0.170085  0.399159  1
  Tm  Tm6  1  0.512215  0.316365  0.397503  1
  Tm  Tm7  1  0.512376  0.687401  0.601136  1
  Sc  Sc8  1  0.163899  0.501427  0.756155  1
  Sc  Sc9  1  0.835168  0.498010  0.251485  1
  Sc  Sc10  1  0.335368  0.002567  0.250190  1
  Sc  Sc11  1  0.666369  0.998088  0.751262  1
  Sc  Sc12  1  0.348354  0.155886  0.631928  1
  Sc  Sc13  1  0.659273  0.826930  0.372421  1
  Sc  Sc14  1  0.154688  0.683768  0.368896  1
  Sc  Sc15  1  0.667683  0.822534  0.123800  1
  Sc  Sc16  1  0.826261  0.326010  0.625780  1
  Sc  Sc17  1  0.330418  0.175796  0.875467  1
  Sc  Sc18  1  0.831054  0.323408  0.875759  1
  Sc  Sc19  1  0.168765  0.676792  0.124842  1
  Si  Si20  1  0.035759  0.117536  0.751351  1
  Si  Si21  1  0.961593  0.886954  0.245895  1
  Si  Si22  1  0.461901  0.614481  0.247576  1
  Si  Si23  1  0.535076  0.386405  0.752831  1
  Si  Si24  1  0.288672  0.865626  0.753000  1
  Si  Si25  1  0.711493  0.128254  0.246428  1
  Si  Si26  1  0.210510  0.371668  0.248966  1
  Si  Si27  1  0.792568  0.630211  0.751730  1
  Si  Si28  1  0.811021  0.540230  0.456878  1
  Si  Si29  1  0.329709  0.964195  0.459928  1
  Si  Si30  1  0.842918  0.533752  0.039869  1
  Si  Si31  1  0.671432  0.038164  0.538333  1
  Si  Si32  1  0.156349  0.465723  0.961475  1
  Si  Si33  1  0.656138  0.034142  0.960300  1
  Si  Si34  1  0.342439  0.966569  0.040088  1
  Bi  Bi35  1  0.188119  0.458226  0.539003  1
