# generated using pymatgen
data_Yb2(AlAu2)3
_symmetry_space_group_name_H-M   'P 1'
_cell_length_a   8.76933780
_cell_length_b   8.76933698
_cell_length_c   8.76933809
_cell_angle_alpha   56.90322912
_cell_angle_beta   56.90322911
_cell_angle_gamma   56.90322587
_symmetry_Int_Tables_number   1
_chemical_formula_structural   Yb2(AlAu2)3
_chemical_formula_sum   'Yb4 Al6 Au12'
_cell_volume   442.78820554
_cell_formula_units_Z   2
loop_
 _symmetry_equiv_pos_site_id
 _symmetry_equiv_pos_as_xyz
  1  'x, y, z'
loop_
 _atom_site_type_symbol
 _atom_site_label
 _atom_site_symmetry_multiplicity
 _atom_site_fract_x
 _atom_site_fract_y
 _atom_site_fract_z
 _atom_site_occupancy
  Yb  Yb0  1  0.910870  0.910870  0.910870  1
  Yb  Yb1  1  0.410870  0.410870  0.410870  1
  Yb  Yb2  1  0.089130  0.089130  0.089130  1
  Yb  Yb3  1  0.589130  0.589130  0.589130  1
  Al  Al4  1  0.553238  0.750000  0.946762  1
  Al  Al5  1  0.946762  0.553238  0.750000  1
  Al  Al6  1  0.750000  0.946762  0.553238  1
  Al  Al7  1  0.446762  0.250000  0.053238  1
  Al  Al8  1  0.053238  0.446762  0.250000  1
  Al  Al9  1  0.250000  0.053238  0.446762  1
  Au  Au10  1  0.475552  0.867103  0.204343  1
  Au  Au11  1  0.204343  0.475552  0.867103  1
  Au  Au12  1  0.867103  0.204343  0.475552  1
  Au  Au13  1  0.704343  0.367103  0.975552  1
  Au  Au14  1  0.975552  0.704343  0.367103  1
  Au  Au15  1  0.367103  0.975552  0.704343  1
  Au  Au16  1  0.524448  0.132897  0.795657  1
  Au  Au17  1  0.795657  0.524448  0.132897  1
  Au  Au18  1  0.132897  0.795657  0.524448  1
  Au  Au19  1  0.295657  0.632897  0.024448  1
  Au  Au20  1  0.024448  0.295657  0.632897  1
  Au  Au21  1  0.632897  0.024448  0.295657  1
