# generated using pymatgen
data_Pr16Ag4OsRh3
_symmetry_space_group_name_H-M   'P 1'
_cell_length_a   9.99198987
_cell_length_b   9.99307674
_cell_length_c   9.98995388
_cell_angle_alpha   59.44951729
_cell_angle_beta   59.43497023
_cell_angle_gamma   59.47276635
_symmetry_Int_Tables_number   1
_chemical_formula_structural   Pr16Ag4OsRh3
_chemical_formula_sum   'Pr16 Ag4 Os1 Rh3'
_cell_volume   696.55526229
_cell_formula_units_Z   1
loop_
 _symmetry_equiv_pos_site_id
 _symmetry_equiv_pos_as_xyz
  1  'x, y, z'
loop_
 _atom_site_type_symbol
 _atom_site_label
 _atom_site_symmetry_multiplicity
 _atom_site_fract_x
 _atom_site_fract_y
 _atom_site_fract_z
 _atom_site_occupancy
  Pr  Pr0  1  0.350660  0.350688  0.350556  1
  Pr  Pr1  1  0.350341  0.350341  0.947129  1
  Pr  Pr2  1  0.350278  0.947304  0.350290  1
  Pr  Pr3  1  0.947243  0.350295  0.350306  1
  Pr  Pr4  1  0.811577  0.189096  0.189087  1
  Pr  Pr5  1  0.189098  0.810120  0.810169  1
  Pr  Pr6  1  0.189087  0.811590  0.189049  1
  Pr  Pr7  1  0.810127  0.189104  0.810156  1
  Pr  Pr8  1  0.189119  0.189097  0.811554  1
  Pr  Pr9  1  0.810188  0.810162  0.188986  1
  Pr  Pr10  1  0.937959  0.562580  0.562626  1
  Pr  Pr11  1  0.559123  0.939105  0.939377  1
  Pr  Pr12  1  0.562586  0.937973  0.562644  1
  Pr  Pr13  1  0.939146  0.559089  0.939366  1
  Pr  Pr14  1  0.562622  0.562635  0.937881  1
  Pr  Pr15  1  0.939214  0.939174  0.559218  1
  Ag  Ag16  1  0.581375  0.581365  0.581412  1
  Ag  Ag17  1  0.580573  0.580602  0.257785  1
  Ag  Ag18  1  0.580643  0.257801  0.580523  1
  Ag  Ag19  1  0.257802  0.580658  0.580509  1
  Os  Os20  1  0.141575  0.141573  0.141581  1
  Rh  Rh21  1  0.143146  0.143146  0.573501  1
  Rh  Rh22  1  0.143171  0.573326  0.143149  1
  Rh  Rh23  1  0.573346  0.143180  0.143143  1
