# generated using pymatgen
data_SrMgV4O12
_symmetry_space_group_name_H-M   'P 1'
_cell_length_a   8.18469329
_cell_length_b   8.18469229
_cell_length_c   10.17207081
_cell_angle_alpha   70.60620099
_cell_angle_beta   70.60620526
_cell_angle_gamma   71.87503295
_symmetry_Int_Tables_number   1
_chemical_formula_structural   SrMgV4O12
_chemical_formula_sum   'Sr2 Mg2 V8 O24'
_cell_volume   590.63723164
_cell_formula_units_Z   2
loop_
 _symmetry_equiv_pos_site_id
 _symmetry_equiv_pos_as_xyz
  1  'x, y, z'
loop_
 _atom_site_type_symbol
 _atom_site_label
 _atom_site_symmetry_multiplicity
 _atom_site_fract_x
 _atom_site_fract_y
 _atom_site_fract_z
 _atom_site_occupancy
  Sr  Sr0  1  0.932339  0.067661  0.750000  1
  Sr  Sr1  1  0.067661  0.932339  0.250000  1
  Mg  Mg2  1  0.500000  0.000000  0.000000  1
  Mg  Mg3  1  0.000000  0.500000  0.500000  1
  V  V4  1  0.305958  0.305239  0.702068  1
  V  V5  1  0.694761  0.694042  0.797932  1
  V  V6  1  0.694042  0.694761  0.297932  1
  V  V7  1  0.305239  0.305958  0.202068  1
  V  V8  1  0.716980  0.287765  0.455808  1
  V  V9  1  0.712235  0.283020  0.044192  1
  V  V10  1  0.283020  0.712235  0.544192  1
  V  V11  1  0.287765  0.716980  0.955808  1
  O  O12  1  0.282704  0.531045  0.706021  1
  O  O13  1  0.468955  0.717296  0.793979  1
  O  O14  1  0.717296  0.468955  0.293979  1
  O  O15  1  0.531045  0.282704  0.206021  1
  O  O16  1  0.493263  0.262471  0.553611  1
  O  O17  1  0.737529  0.506737  0.946389  1
  O  O18  1  0.506737  0.737529  0.446389  1
  O  O19  1  0.262471  0.493263  0.053611  1
  O  O20  1  0.345127  0.160729  0.855001  1
  O  O21  1  0.839271  0.654873  0.644999  1
  O  O22  1  0.654873  0.839271  0.144999  1
  O  O23  1  0.160729  0.345127  0.355001  1
  O  O24  1  0.115669  0.300085  0.668391  1
  O  O25  1  0.699915  0.884331  0.831609  1
  O  O26  1  0.884331  0.699915  0.331609  1
  O  O27  1  0.300085  0.115669  0.168391  1
  O  O28  1  0.810559  0.338918  0.560407  1
  O  O29  1  0.661082  0.189441  0.939593  1
  O  O30  1  0.189441  0.661082  0.439593  1
  O  O31  1  0.338918  0.810559  0.060407  1
  O  O32  1  0.839718  0.097564  0.417216  1
  O  O33  1  0.902436  0.160282  0.082784  1
  O  O34  1  0.160282  0.902436  0.582784  1
  O  O35  1  0.097564  0.839718  0.917216  1
