# generated using pymatgen
data_Nd20Ir3Ru2Pt7
_symmetry_space_group_name_H-M   'P 1'
_cell_length_a   11.40903585
_cell_length_b   11.40903585
_cell_length_c   6.58399734
_cell_angle_alpha   89.97375684
_cell_angle_beta   89.97375684
_cell_angle_gamma   90.09043252
_symmetry_Int_Tables_number   1
_chemical_formula_structural   Nd20Ir3Ru2Pt7
_chemical_formula_sum   'Nd20 Ir3 Ru2 Pt7'
_cell_volume   857.01200328
_cell_formula_units_Z   1
loop_
 _symmetry_equiv_pos_site_id
 _symmetry_equiv_pos_as_xyz
  1  'x, y, z'
loop_
 _atom_site_type_symbol
 _atom_site_label
 _atom_site_symmetry_multiplicity
 _atom_site_fract_x
 _atom_site_fract_y
 _atom_site_fract_z
 _atom_site_occupancy
  Nd  Nd0  1  0.085557  0.294842  0.123231  1
  Nd  Nd1  1  0.796316  0.407326  0.122747  1
  Nd  Nd2  1  0.203609  0.588379  0.122835  1
  Nd  Nd3  1  0.911041  0.702909  0.122396  1
  Nd  Nd4  1  0.411621  0.796391  0.377165  1
  Nd  Nd5  1  0.592674  0.203684  0.377253  1
  Nd  Nd6  1  0.297091  0.088959  0.377604  1
  Nd  Nd7  1  0.705158  0.914443  0.376769  1
  Nd  Nd8  1  0.412003  0.203496  0.878925  1
  Nd  Nd9  1  0.706598  0.090780  0.884610  1
  Nd  Nd10  1  0.295653  0.911155  0.880098  1
  Nd  Nd11  1  0.589097  0.796856  0.878428  1
  Nd  Nd12  1  0.088845  0.704347  0.619902  1
  Nd  Nd13  1  0.909220  0.293402  0.615390  1
  Nd  Nd14  1  0.203144  0.410903  0.621572  1
  Nd  Nd15  1  0.796504  0.587997  0.621075  1
  Nd  Nd16  1  0.998043  0.001257  0.000413  1
  Nd  Nd17  1  0.500377  0.500383  0.000543  1
  Nd  Nd18  1  0.499617  0.499623  0.499457  1
  Nd  Nd19  1  0.998743  0.001957  0.499587  1
  Ir  Ir20  1  0.847283  0.152717  0.250000  1
  Ir  Ir21  1  0.499626  0.999585  0.622631  1
  Ir  Ir22  1  0.000415  0.500374  0.877369  1
  Ru  Ru23  1  0.000373  0.501195  0.377677  1
  Ru  Ru24  1  0.498805  0.999627  0.122323  1
  Pt  Pt25  1  0.153419  0.846581  0.250000  1
  Pt  Pt26  1  0.345658  0.346370  0.249620  1
  Pt  Pt27  1  0.653630  0.654342  0.250380  1
  Pt  Pt28  1  0.346777  0.653223  0.750000  1
  Pt  Pt29  1  0.154378  0.154080  0.750209  1
  Pt  Pt30  1  0.845920  0.845622  0.749791  1
  Pt  Pt31  1  0.652805  0.347195  0.750000  1
