# generated using pymatgen
data_Tb4Tm12CdNi4Ag3
_symmetry_space_group_name_H-M   'P 1'
_cell_length_a   9.35974629
_cell_length_b   9.36995107
_cell_length_c   9.36995000
_cell_angle_alpha   60.00000379
_cell_angle_beta   59.96393093
_cell_angle_gamma   59.96393598
_symmetry_Int_Tables_number   1
_chemical_formula_structural   Tb4Tm12CdNi4Ag3
_chemical_formula_sum   'Tb4 Tm12 Cd1 Ni4 Ag3'
_cell_volume   580.74665746
_cell_formula_units_Z   1
loop_
 _symmetry_equiv_pos_site_id
 _symmetry_equiv_pos_as_xyz
  1  'x, y, z'
loop_
 _atom_site_type_symbol
 _atom_site_label
 _atom_site_symmetry_multiplicity
 _atom_site_fract_x
 _atom_site_fract_y
 _atom_site_fract_z
 _atom_site_occupancy
  Tb  Tb0  1  0.350796  0.350209  0.350209  1
  Tb  Tb1  1  0.350796  0.350209  0.948787  1
  Tb  Tb2  1  0.350796  0.948787  0.350209  1
  Tb  Tb3  1  0.946070  0.351310  0.351310  1
  Tm  Tm4  1  0.811927  0.188060  0.188060  1
  Tm  Tm5  1  0.187740  0.812168  0.812168  1
  Tm  Tm6  1  0.187740  0.812168  0.187923  1
  Tm  Tm7  1  0.811927  0.188060  0.811953  1
  Tm  Tm8  1  0.187740  0.187923  0.812168  1
  Tm  Tm9  1  0.811927  0.811953  0.188060  1
  Tm  Tm10  1  0.932376  0.565160  0.565160  1
  Tm  Tm11  1  0.564216  0.935312  0.935312  1
  Tm  Tm12  1  0.564216  0.935312  0.565161  1
  Tm  Tm13  1  0.932376  0.565160  0.937304  1
  Tm  Tm14  1  0.564216  0.565161  0.935312  1
  Tm  Tm15  1  0.932376  0.937304  0.565160  1
  Cd  Cd16  1  0.261541  0.579487  0.579487  1
  Ni  Ni17  1  0.141474  0.142076  0.142076  1
  Ni  Ni18  1  0.141474  0.142076  0.574376  1
  Ni  Ni19  1  0.141474  0.574376  0.142076  1
  Ni  Ni20  1  0.574352  0.141883  0.141883  1
  Ag  Ag21  1  0.584151  0.583122  0.583122  1
  Ag  Ag22  1  0.584151  0.583122  0.249607  1
  Ag  Ag23  1  0.584151  0.249607  0.583122  1
