# generated using pymatgen
data_U2NbTcC4
_symmetry_space_group_name_H-M   'P 1'
_cell_length_a   3.23853300
_cell_length_b   5.66375600
_cell_length_c   11.12228800
_cell_angle_alpha   90.00000000
_cell_angle_beta   90.00000000
_cell_angle_gamma   90.00000000
_symmetry_Int_Tables_number   1
_chemical_formula_structural   U2NbTcC4
_chemical_formula_sum   'U4 Nb2 Tc2 C8'
_cell_volume   204.00790619
_cell_formula_units_Z   2
loop_
 _symmetry_equiv_pos_site_id
 _symmetry_equiv_pos_as_xyz
  1  'x, y, z'
loop_
 _atom_site_type_symbol
 _atom_site_label
 _atom_site_symmetry_multiplicity
 _atom_site_fract_x
 _atom_site_fract_y
 _atom_site_fract_z
 _atom_site_occupancy
  U  U0  1  0.250000  0.079392  0.855404  1
  U  U1  1  0.250000  0.579392  0.644596  1
  U  U2  1  0.750000  0.918776  0.140374  1
  U  U3  1  0.750000  0.418776  0.359626  1
  Nb  Nb4  1  0.250000  0.420312  0.098352  1
  Nb  Nb5  1  0.250000  0.920312  0.401648  1
  Tc  Tc6  1  0.750000  0.579275  0.896343  1
  Tc  Tc7  1  0.750000  0.079275  0.603657  1
  C  C8  1  0.250000  0.160350  0.242773  1
  C  C9  1  0.250000  0.660350  0.257227  1
  C  C10  1  0.750000  0.844032  0.754671  1
  C  C11  1  0.750000  0.344032  0.745329  1
  C  C12  1  0.250000  0.753468  0.989963  1
  C  C13  1  0.250000  0.253468  0.510037  1
  C  C14  1  0.750000  0.244394  0.001411  1
  C  C15  1  0.750000  0.744394  0.498589  1
