# generated using pymatgen
data_Pr2SmSn3Hg2
_symmetry_space_group_name_H-M   'P 1'
_cell_length_a   6.61981739
_cell_length_b   6.61981802
_cell_length_c   10.41062700
_cell_angle_alpha   90.00000000
_cell_angle_beta   90.00000000
_cell_angle_gamma   102.83084579
_symmetry_Int_Tables_number   1
_chemical_formula_structural   Pr2SmSn3Hg2
_chemical_formula_sum   'Pr4 Sm2 Sn6 Hg4'
_cell_volume   444.82265592
_cell_formula_units_Z   2
loop_
 _symmetry_equiv_pos_site_id
 _symmetry_equiv_pos_as_xyz
  1  'x, y, z'
loop_
 _atom_site_type_symbol
 _atom_site_label
 _atom_site_symmetry_multiplicity
 _atom_site_fract_x
 _atom_site_fract_y
 _atom_site_fract_z
 _atom_site_occupancy
  Pr  Pr0  1  0.795777  0.204223  0.000000  1
  Pr  Pr1  1  0.204223  0.795777  0.000000  1
  Pr  Pr2  1  0.204223  0.795777  0.500000  1
  Pr  Pr3  1  0.795777  0.204223  0.500000  1
  Sm  Sm4  1  0.627060  0.627060  0.250000  1
  Sm  Sm5  1  0.372940  0.372940  0.750000  1
  Sn  Sn6  1  0.066650  0.491572  0.250000  1
  Sn  Sn7  1  0.933350  0.508428  0.750000  1
  Sn  Sn8  1  0.491572  0.066650  0.250000  1
  Sn  Sn9  1  0.508428  0.933350  0.750000  1
  Sn  Sn10  1  0.015954  0.015954  0.250000  1
  Sn  Sn11  1  0.984046  0.984046  0.750000  1
  Hg  Hg12  1  0.314106  0.314106  0.041681  1
  Hg  Hg13  1  0.685894  0.685894  0.958319  1
  Hg  Hg14  1  0.685894  0.685894  0.541681  1
  Hg  Hg15  1  0.314106  0.314106  0.458319  1
