# generated using pymatgen
data_Tb5In2(NiHg)2
_symmetry_space_group_name_H-M   'P 1'
_cell_length_a   3.64570700
_cell_length_b   7.82747100
_cell_length_c   18.06943600
_cell_angle_alpha   90.00000000
_cell_angle_beta   90.00000000
_cell_angle_gamma   90.00000000
_symmetry_Int_Tables_number   1
_chemical_formula_structural   Tb5In2(NiHg)2
_chemical_formula_sum   'Tb10 In4 Ni4 Hg4'
_cell_volume   515.64145663
_cell_formula_units_Z   2
loop_
 _symmetry_equiv_pos_site_id
 _symmetry_equiv_pos_as_xyz
  1  'x, y, z'
loop_
 _atom_site_type_symbol
 _atom_site_label
 _atom_site_symmetry_multiplicity
 _atom_site_fract_x
 _atom_site_fract_y
 _atom_site_fract_z
 _atom_site_occupancy
  Tb  Tb0  1  0.000000  0.500000  0.500000  1
  Tb  Tb1  1  0.000000  0.000000  0.000000  1
  Tb  Tb2  1  0.000000  0.747732  0.281442  1
  Tb  Tb3  1  0.000000  0.252268  0.718558  1
  Tb  Tb4  1  0.000000  0.752268  0.781442  1
  Tb  Tb5  1  0.000000  0.247732  0.218558  1
  Tb  Tb6  1  0.000000  0.610891  0.088541  1
  Tb  Tb7  1  0.000000  0.389109  0.911459  1
  Tb  Tb8  1  0.000000  0.889109  0.588541  1
  Tb  Tb9  1  0.000000  0.110891  0.411459  1
  In  In10  1  0.500000  0.575184  0.652385  1
  In  In11  1  0.500000  0.424816  0.347615  1
  In  In12  1  0.500000  0.924816  0.152385  1
  In  In13  1  0.500000  0.075184  0.847615  1
  Ni  Ni14  1  0.500000  0.531564  0.196923  1
  Ni  Ni15  1  0.500000  0.468436  0.803077  1
  Ni  Ni16  1  0.500000  0.968436  0.696923  1
  Ni  Ni17  1  0.500000  0.031564  0.303077  1
  Hg  Hg18  1  0.500000  0.710360  0.930775  1
  Hg  Hg19  1  0.500000  0.289640  0.069225  1
  Hg  Hg20  1  0.500000  0.789640  0.430775  1
  Hg  Hg21  1  0.500000  0.210360  0.569225  1
