# generated using pymatgen
data_SrPa(AsPt)2
_symmetry_space_group_name_H-M   'P 1'
_cell_length_a   4.31202500
_cell_length_b   4.31202595
_cell_length_c   8.34497400
_cell_angle_alpha   90.00000000
_cell_angle_beta   90.00000000
_cell_angle_gamma   120.00000038
_symmetry_Int_Tables_number   1
_chemical_formula_structural   SrPa(AsPt)2
_chemical_formula_sum   'Sr1 Pa1 As2 Pt2'
_cell_volume   134.37493087
_cell_formula_units_Z   1
loop_
 _symmetry_equiv_pos_site_id
 _symmetry_equiv_pos_as_xyz
  1  'x, y, z'
loop_
 _atom_site_type_symbol
 _atom_site_label
 _atom_site_symmetry_multiplicity
 _atom_site_fract_x
 _atom_site_fract_y
 _atom_site_fract_z
 _atom_site_occupancy
  Sr  Sr0  1  0.000000  0.000000  0.000000  1
  Pa  Pa1  1  0.000000  0.000000  0.500000  1
  As  As2  1  0.333333  0.666667  0.752131  1
  As  As3  1  0.666667  0.333333  0.247869  1
  Pt  Pt4  1  0.333333  0.666667  0.303517  1
  Pt  Pt5  1  0.666667  0.333333  0.696483  1
