# generated using pymatgen
data_Ce2CrReH18
_symmetry_space_group_name_H-M   'P 1'
_cell_length_a   4.76360300
_cell_length_b   4.76360170
_cell_length_c   8.76501100
_cell_angle_alpha   90.00000000
_cell_angle_beta   90.00000000
_cell_angle_gamma   120.00000208
_symmetry_Int_Tables_number   1
_chemical_formula_structural   Ce2CrReH18
_chemical_formula_sum   'Ce2 Cr1 Re1 H18'
_cell_volume   172.24796108
_cell_formula_units_Z   1
loop_
 _symmetry_equiv_pos_site_id
 _symmetry_equiv_pos_as_xyz
  1  'x, y, z'
loop_
 _atom_site_type_symbol
 _atom_site_label
 _atom_site_symmetry_multiplicity
 _atom_site_fract_x
 _atom_site_fract_y
 _atom_site_fract_z
 _atom_site_occupancy
  Ce  Ce0  1  0.000000  0.000000  0.020566  1
  Ce  Ce1  1  0.000000  0.000000  0.479434  1
  Cr  Cr2  1  0.333333  0.666667  0.250000  1
  Re  Re3  1  0.666667  0.333333  0.750000  1
  H  H4  1  0.475521  0.524479  0.382281  1
  H  H5  1  0.475521  0.951041  0.382281  1
  H  H6  1  0.048959  0.524479  0.382281  1
  H  H7  1  0.961571  0.480786  0.888838  1
  H  H8  1  0.136797  0.273594  0.250000  1
  H  H9  1  0.869961  0.130039  0.750000  1
  H  H10  1  0.260078  0.130039  0.750000  1
  H  H11  1  0.726406  0.863203  0.250000  1
  H  H12  1  0.136797  0.863203  0.250000  1
  H  H13  1  0.869961  0.739922  0.750000  1
  H  H14  1  0.475521  0.951041  0.117719  1
  H  H15  1  0.519214  0.480786  0.611162  1
  H  H16  1  0.961571  0.480786  0.611162  1
  H  H17  1  0.048959  0.524479  0.117719  1
  H  H18  1  0.475521  0.524479  0.117719  1
  H  H19  1  0.519214  0.038429  0.888838  1
  H  H20  1  0.519214  0.480786  0.888838  1
  H  H21  1  0.519214  0.038429  0.611162  1
