# generated using pymatgen
data_SmErAl3(Fe7C)2
_symmetry_space_group_name_H-M   'P 1'
_cell_length_a   6.48355838
_cell_length_b   6.48355865
_cell_length_c   6.49625100
_cell_angle_alpha   83.74516533
_cell_angle_beta   83.74515170
_cell_angle_gamma   84.11862099
_symmetry_Int_Tables_number   1
_chemical_formula_structural   SmErAl3(Fe7C)2
_chemical_formula_sum   'Sm1 Er1 Al3 Fe14 C2'
_cell_volume   268.70171843
_cell_formula_units_Z   1
loop_
 _symmetry_equiv_pos_site_id
 _symmetry_equiv_pos_as_xyz
  1  'x, y, z'
loop_
 _atom_site_type_symbol
 _atom_site_label
 _atom_site_symmetry_multiplicity
 _atom_site_fract_x
 _atom_site_fract_y
 _atom_site_fract_z
 _atom_site_occupancy
  Sm  Sm0  1  0.657053  0.657053  0.659046  1
  Er  Er1  1  0.340778  0.340778  0.340389  1
  Al  Al2  1  0.654919  0.654919  0.150203  1
  Al  Al3  1  0.343400  0.343400  0.852965  1
  Al  Al4  1  0.999928  0.999928  0.499631  1
  Fe  Fe5  1  0.655005  0.145405  0.662583  1
  Fe  Fe6  1  0.145405  0.655005  0.662583  1
  Fe  Fe7  1  0.344027  0.856560  0.336541  1
  Fe  Fe8  1  0.856560  0.344027  0.336541  1
  Fe  Fe9  1  0.096230  0.096230  0.092987  1
  Fe  Fe10  1  0.904808  0.904808  0.908058  1
  Fe  Fe11  1  0.000143  0.499376  0.000204  1
  Fe  Fe12  1  0.499376  0.000143  0.000204  1
  Fe  Fe13  1  0.716205  0.282995  0.001155  1
  Fe  Fe14  1  0.288194  0.996680  0.716555  1
  Fe  Fe15  1  0.005767  0.710220  0.283008  1
  Fe  Fe16  1  0.710220  0.005767  0.283008  1
  Fe  Fe17  1  0.996680  0.288194  0.716555  1
  Fe  Fe18  1  0.282995  0.716205  0.001155  1
  C  C19  1  0.497419  0.004888  0.498314  1
  C  C20  1  0.004888  0.497419  0.498314  1
