# generated using pymatgen
data_Tl3BiBRh6
_symmetry_space_group_name_H-M   'P 1'
_cell_length_a   5.82793500
_cell_length_b   5.82793496
_cell_length_c   13.85467900
_cell_angle_alpha   90.00000000
_cell_angle_beta   90.00000000
_cell_angle_gamma   119.99999457
_symmetry_Int_Tables_number   1
_chemical_formula_structural   Tl3BiBRh6
_chemical_formula_sum   'Tl6 Bi2 B2 Rh12'
_cell_volume   407.52712340
_cell_formula_units_Z   2
loop_
 _symmetry_equiv_pos_site_id
 _symmetry_equiv_pos_as_xyz
  1  'x, y, z'
loop_
 _atom_site_type_symbol
 _atom_site_label
 _atom_site_symmetry_multiplicity
 _atom_site_fract_x
 _atom_site_fract_y
 _atom_site_fract_z
 _atom_site_occupancy
  Tl  Tl0  1  0.000000  0.000000  0.750000  1
  Tl  Tl1  1  0.000000  0.000000  0.250000  1
  Tl  Tl2  1  0.333333  0.666667  0.414219  1
  Tl  Tl3  1  0.666667  0.333333  0.914219  1
  Tl  Tl4  1  0.666667  0.333333  0.585781  1
  Tl  Tl5  1  0.333333  0.666667  0.085781  1
  Bi  Bi6  1  0.333333  0.666667  0.750000  1
  Bi  Bi7  1  0.666667  0.333333  0.250000  1
  B  B8  1  0.000000  0.000000  0.500000  1
  B  B9  1  0.000000  0.000000  0.000000  1
  Rh  Rh10  1  0.339369  0.169684  0.412062  1
  Rh  Rh11  1  0.830316  0.169684  0.412062  1
  Rh  Rh12  1  0.830316  0.660631  0.412062  1
  Rh  Rh13  1  0.169684  0.339369  0.912062  1
  Rh  Rh14  1  0.660631  0.830316  0.587938  1
  Rh  Rh15  1  0.660631  0.830316  0.912062  1
  Rh  Rh16  1  0.339369  0.169684  0.087938  1
  Rh  Rh17  1  0.169684  0.339369  0.587938  1
  Rh  Rh18  1  0.169684  0.830316  0.587938  1
  Rh  Rh19  1  0.830316  0.169684  0.087938  1
  Rh  Rh20  1  0.830316  0.660631  0.087938  1
  Rh  Rh21  1  0.169684  0.830316  0.912062  1
