# generated using pymatgen
data_TmNb8NiSe16
_symmetry_space_group_name_H-M   'P 1'
_cell_length_a   6.99631000
_cell_length_b   6.99630983
_cell_length_c   13.46318200
_cell_angle_alpha   90.00000000
_cell_angle_beta   90.00000000
_cell_angle_gamma   120.00000079
_symmetry_Int_Tables_number   1
_chemical_formula_structural   TmNb8NiSe16
_chemical_formula_sum   'Tm1 Nb8 Ni1 Se16'
_cell_volume   570.71123678
_cell_formula_units_Z   1
loop_
 _symmetry_equiv_pos_site_id
 _symmetry_equiv_pos_as_xyz
  1  'x, y, z'
loop_
 _atom_site_type_symbol
 _atom_site_label
 _atom_site_symmetry_multiplicity
 _atom_site_fract_x
 _atom_site_fract_y
 _atom_site_fract_z
 _atom_site_occupancy
  Tm  Tm0  1  0.000000  0.000000  0.500000  1
  Nb  Nb1  1  0.000000  0.000000  0.235243  1
  Nb  Nb2  1  0.000000  0.000000  0.764757  1
  Nb  Nb3  1  0.508320  0.016640  0.233384  1
  Nb  Nb4  1  0.983360  0.491680  0.233384  1
  Nb  Nb5  1  0.508320  0.491680  0.233384  1
  Nb  Nb6  1  0.491680  0.983360  0.766616  1
  Nb  Nb7  1  0.016640  0.508320  0.766616  1
  Nb  Nb8  1  0.491680  0.508320  0.766616  1
  Ni  Ni9  1  0.000000  0.000000  0.000000  1
  Se  Se10  1  0.333333  0.666667  0.894926  1
  Se  Se11  1  0.666667  0.333333  0.105074  1
  Se  Se12  1  0.666667  0.333333  0.364669  1
  Se  Se13  1  0.333333  0.666667  0.635331  1
  Se  Se14  1  0.169667  0.830333  0.358597  1
  Se  Se15  1  0.169667  0.339334  0.358597  1
  Se  Se16  1  0.660666  0.830333  0.358597  1
  Se  Se17  1  0.830333  0.169667  0.641403  1
  Se  Se18  1  0.830333  0.660666  0.641403  1
  Se  Se19  1  0.339334  0.169667  0.641403  1
  Se  Se20  1  0.832170  0.167830  0.888702  1
  Se  Se21  1  0.832170  0.664341  0.888702  1
  Se  Se22  1  0.335659  0.167830  0.888702  1
  Se  Se23  1  0.167830  0.832170  0.111298  1
  Se  Se24  1  0.167830  0.335659  0.111298  1
  Se  Se25  1  0.664341  0.832170  0.111298  1
