# generated using pymatgen
data_Cs2Te3AuO12
_symmetry_space_group_name_H-M   'P 1'
_cell_length_a   7.35798033
_cell_length_b   7.35798061
_cell_length_c   7.35798077
_cell_angle_alpha   60.34160611
_cell_angle_beta   60.34160635
_cell_angle_gamma   60.34160002
_symmetry_Int_Tables_number   1
_chemical_formula_structural   Cs2Te3AuO12
_chemical_formula_sum   'Cs2 Te3 Au1 O12'
_cell_volume   283.86007185
_cell_formula_units_Z   1
loop_
 _symmetry_equiv_pos_site_id
 _symmetry_equiv_pos_as_xyz
  1  'x, y, z'
loop_
 _atom_site_type_symbol
 _atom_site_label
 _atom_site_symmetry_multiplicity
 _atom_site_fract_x
 _atom_site_fract_y
 _atom_site_fract_z
 _atom_site_occupancy
  Cs  Cs0  1  0.374723  0.374723  0.374723  1
  Cs  Cs1  1  0.625277  0.625277  0.625277  1
  Te  Te2  1  0.500000  0.000000  0.000000  1
  Te  Te3  1  0.000000  0.000000  0.500000  1
  Te  Te4  1  0.000000  0.500000  0.000000  1
  Au  Au5  1  0.000000  0.000000  0.000000  1
  O  O6  1  0.928166  0.318869  0.318869  1
  O  O7  1  0.339052  0.921939  0.921939  1
  O  O8  1  0.318869  0.318869  0.928166  1
  O  O9  1  0.921939  0.921939  0.339052  1
  O  O10  1  0.921939  0.339052  0.921939  1
  O  O11  1  0.318869  0.928166  0.318869  1
  O  O12  1  0.071834  0.681131  0.681131  1
  O  O13  1  0.660948  0.078061  0.078061  1
  O  O14  1  0.681131  0.681131  0.071834  1
  O  O15  1  0.078061  0.078061  0.660948  1
  O  O16  1  0.078061  0.660948  0.078061  1
  O  O17  1  0.681131  0.071834  0.681131  1
