# generated using pymatgen
data_ErPa3(Ni2Sn)2
_symmetry_space_group_name_H-M   'P 1'
_cell_length_a   7.39700403
_cell_length_b   7.39700403
_cell_length_c   3.59835700
_cell_angle_alpha   90.00000000
_cell_angle_beta   90.00000000
_cell_angle_gamma   90.85111731
_symmetry_Int_Tables_number   1
_chemical_formula_structural   ErPa3(Ni2Sn)2
_chemical_formula_sum   'Er1 Pa3 Ni4 Sn2'
_cell_volume   196.86478669
_cell_formula_units_Z   1
loop_
 _symmetry_equiv_pos_site_id
 _symmetry_equiv_pos_as_xyz
  1  'x, y, z'
loop_
 _atom_site_type_symbol
 _atom_site_label
 _atom_site_symmetry_multiplicity
 _atom_site_fract_x
 _atom_site_fract_y
 _atom_site_fract_z
 _atom_site_occupancy
  Er  Er0  1  0.826443  0.673557  0.500000  1
  Pa  Pa1  1  0.674280  0.173409  0.500000  1
  Pa  Pa2  1  0.326591  0.825720  0.500000  1
  Pa  Pa3  1  0.171287  0.328713  0.500000  1
  Ni  Ni4  1  0.879109  0.364135  0.000000  1
  Ni  Ni5  1  0.135865  0.620891  0.000000  1
  Ni  Ni6  1  0.370501  0.129499  0.000000  1
  Ni  Ni7  1  0.612516  0.887484  0.000000  1
  Sn  Sn8  1  0.507952  0.504545  0.000000  1
  Sn  Sn9  1  0.995455  0.992048  0.000000  1
