# generated using pymatgen
data_Ce3Dy2Tc3
_symmetry_space_group_name_H-M   'P 1'
_cell_length_a   7.99613400
_cell_length_b   7.99613385
_cell_length_c   6.86117600
_cell_angle_alpha   90.00000000
_cell_angle_beta   90.00000000
_cell_angle_gamma   120.00000063
_symmetry_Int_Tables_number   1
_chemical_formula_structural   Ce3Dy2Tc3
_chemical_formula_sum   'Ce6 Dy4 Tc6'
_cell_volume   379.91750754
_cell_formula_units_Z   2
loop_
 _symmetry_equiv_pos_site_id
 _symmetry_equiv_pos_as_xyz
  1  'x, y, z'
loop_
 _atom_site_type_symbol
 _atom_site_label
 _atom_site_symmetry_multiplicity
 _atom_site_fract_x
 _atom_site_fract_y
 _atom_site_fract_z
 _atom_site_occupancy
  Ce  Ce0  1  0.752383  0.752383  0.750000  1
  Ce  Ce1  1  0.247617  0.000000  0.750000  1
  Ce  Ce2  1  0.000000  0.247617  0.750000  1
  Ce  Ce3  1  0.247617  0.247617  0.250000  1
  Ce  Ce4  1  0.752383  0.000000  0.250000  1
  Ce  Ce5  1  0.000000  0.752383  0.250000  1
  Dy  Dy6  1  0.666667  0.333333  0.000000  1
  Dy  Dy7  1  0.333333  0.666667  0.000000  1
  Dy  Dy8  1  0.333333  0.666667  0.500000  1
  Dy  Dy9  1  0.666667  0.333333  0.500000  1
  Tc  Tc10  1  0.353036  0.353036  0.750000  1
  Tc  Tc11  1  0.646964  0.000000  0.750000  1
  Tc  Tc12  1  0.000000  0.646964  0.750000  1
  Tc  Tc13  1  0.646964  0.646964  0.250000  1
  Tc  Tc14  1  0.353036  0.000000  0.250000  1
  Tc  Tc15  1  0.000000  0.353036  0.250000  1
