# generated using pymatgen
data_Nd8Si15Ni
_symmetry_space_group_name_H-M   'P 1'
_cell_length_a   8.17978400
_cell_length_b   8.17978509
_cell_length_c   8.44765500
_cell_angle_alpha   90.00000000
_cell_angle_beta   90.00000000
_cell_angle_gamma   119.99999559
_symmetry_Int_Tables_number   1
_chemical_formula_structural   Nd8Si15Ni
_chemical_formula_sum   'Nd8 Si15 Ni1'
_cell_volume   489.49758008
_cell_formula_units_Z   1
loop_
 _symmetry_equiv_pos_site_id
 _symmetry_equiv_pos_as_xyz
  1  'x, y, z'
loop_
 _atom_site_type_symbol
 _atom_site_label
 _atom_site_symmetry_multiplicity
 _atom_site_fract_x
 _atom_site_fract_y
 _atom_site_fract_z
 _atom_site_occupancy
  Nd  Nd0  1  0.499575  0.500425  0.746690  1
  Nd  Nd1  1  0.499506  0.500494  0.253349  1
  Nd  Nd2  1  0.000851  0.500425  0.746690  1
  Nd  Nd3  1  0.000987  0.500494  0.253349  1
  Nd  Nd4  1  0.499575  0.999149  0.746690  1
  Nd  Nd5  1  0.499506  0.999013  0.253349  1
  Nd  Nd6  1  0.000000  0.000000  0.749369  1
  Nd  Nd7  1  0.000000  0.000000  0.250570  1
  Si  Si8  1  0.825351  0.174649  0.000068  1
  Si  Si9  1  0.163829  0.836171  0.999885  1
  Si  Si10  1  0.349300  0.174649  0.000068  1
  Si  Si11  1  0.166857  0.833143  0.500063  1
  Si  Si12  1  0.672344  0.836171  0.999885  1
  Si  Si13  1  0.833845  0.166155  0.499906  1
  Si  Si14  1  0.825351  0.650700  0.000068  1
  Si  Si15  1  0.666286  0.833143  0.500063  1
  Si  Si16  1  0.163829  0.327656  0.999885  1
  Si  Si17  1  0.332309  0.166155  0.499906  1
  Si  Si18  1  0.166857  0.333714  0.500063  1
  Si  Si19  1  0.833845  0.667691  0.499906  1
  Si  Si20  1  0.333333  0.666667  0.000231  1
  Si  Si21  1  0.333333  0.666667  0.500172  1
  Si  Si22  1  0.666667  0.333333  0.499923  1
  Ni  Ni23  1  0.666667  0.333333  0.999850  1
