# generated using pymatgen
data_MnPtCl6
_symmetry_space_group_name_H-M   'P 1'
_cell_length_a   6.31066661
_cell_length_b   6.31045596
_cell_length_c   6.65164863
_cell_angle_alpha   99.08051950
_cell_angle_beta   99.07896042
_cell_angle_gamma   119.85445122
_symmetry_Int_Tables_number   1
_chemical_formula_structural   MnPtCl6
_chemical_formula_sum   'Mn1 Pt1 Cl6'
_cell_volume   218.04719988
_cell_formula_units_Z   1
loop_
 _symmetry_equiv_pos_site_id
 _symmetry_equiv_pos_as_xyz
  1  'x, y, z'
loop_
 _atom_site_type_symbol
 _atom_site_label
 _atom_site_symmetry_multiplicity
 _atom_site_fract_x
 _atom_site_fract_y
 _atom_site_fract_z
 _atom_site_occupancy
  Mn  Mn0  1  0.832389  0.167463  0.999861  1
  Pt  Pt1  1  0.166332  0.833709  0.000039  1
  Cl  Cl2  1  0.547005  0.915853  0.215596  1
  Cl  Cl3  1  0.939292  0.595472  0.214726  1
  Cl  Cl4  1  0.225475  0.202534  0.216003  1
  Cl  Cl5  1  0.797444  0.774372  0.784016  1
  Cl  Cl6  1  0.404448  0.060781  0.785305  1
  Cl  Cl7  1  0.084339  0.453096  0.784461  1
