# generated using pymatgen
data_Th14ReOs5
_symmetry_space_group_name_H-M   'P 1'
_cell_length_a   10.00987100
_cell_length_b   10.04842220
_cell_length_c   6.35709324
_cell_angle_alpha   89.82143142
_cell_angle_beta   90.00000000
_cell_angle_gamma   119.87315926
_symmetry_Int_Tables_number   1
_chemical_formula_structural   Th14ReOs5
_chemical_formula_sum   'Th14 Re1 Os5'
_cell_volume   554.45516146
_cell_formula_units_Z   1
loop_
 _symmetry_equiv_pos_site_id
 _symmetry_equiv_pos_as_xyz
  1  'x, y, z'
loop_
 _atom_site_type_symbol
 _atom_site_label
 _atom_site_symmetry_multiplicity
 _atom_site_fract_x
 _atom_site_fract_y
 _atom_site_fract_z
 _atom_site_occupancy
  Th  Th0  1  0.462413  0.540814  0.298935  1
  Th  Th1  1  0.078401  0.540814  0.298935  1
  Th  Th2  1  0.920062  0.459366  0.799946  1
  Th  Th3  1  0.253996  0.127463  0.502494  1
  Th  Th4  1  0.539564  0.079128  0.799994  1
  Th  Th5  1  0.747945  0.873234  0.002229  1
  Th  Th6  1  0.666755  0.333508  0.284851  1
  Th  Th7  1  0.125289  0.873234  0.002229  1
  Th  Th8  1  0.459999  0.919998  0.299788  1
  Th  Th9  1  0.539304  0.459366  0.799946  1
  Th  Th10  1  0.873466  0.127463  0.502494  1
  Th  Th11  1  0.126293  0.252585  0.001778  1
  Th  Th12  1  0.874177  0.748354  0.504818  1
  Th  Th13  1  0.333015  0.666032  0.785722  1
  Re  Re14  1  0.813544  0.627089  0.051059  1
  Os  Os15  1  0.812608  0.184964  0.049198  1
  Os  Os16  1  0.625443  0.813717  0.550570  1
  Os  Os17  1  0.372356  0.184964  0.049198  1
  Os  Os18  1  0.187095  0.374191  0.549241  1
  Os  Os19  1  0.188274  0.813717  0.550570  1
