# generated using pymatgen
data_Ca8Cu7Si6Rh
_symmetry_space_group_name_H-M   'P 1'
_cell_length_a   10.63397025
_cell_length_b   10.65374377
_cell_length_c   7.74842700
_cell_angle_alpha   71.13151273
_cell_angle_beta   71.13243689
_cell_angle_gamma   31.06568017
_symmetry_Int_Tables_number   1
_chemical_formula_structural   Ca8Cu7Si6Rh
_chemical_formula_sum   'Ca8 Cu7 Si6 Rh1'
_cell_volume   426.70049544
_cell_formula_units_Z   1
loop_
 _symmetry_equiv_pos_site_id
 _symmetry_equiv_pos_as_xyz
  1  'x, y, z'
loop_
 _atom_site_type_symbol
 _atom_site_label
 _atom_site_symmetry_multiplicity
 _atom_site_fract_x
 _atom_site_fract_y
 _atom_site_fract_z
 _atom_site_occupancy
  Ca  Ca0  1  0.938056  0.199773  0.326395  1
  Ca  Ca1  1  0.057041  0.806809  0.674055  1
  Ca  Ca2  1  0.804401  0.058671  0.174795  1
  Ca  Ca3  1  0.455220  0.205823  0.905269  1
  Ca  Ca4  1  0.798377  0.539604  0.592708  1
  Ca  Ca5  1  0.206913  0.455834  0.402996  1
  Ca  Ca6  1  0.196616  0.941082  0.825416  1
  Ca  Ca7  1  0.544186  0.793620  0.101275  1
  Cu  Cu8  1  0.568392  0.307113  0.524154  1
  Cu  Cu9  1  0.693089  0.431509  0.976038  1
  Cu  Cu10  1  0.304971  0.571123  0.022121  1
  Cu  Cu11  1  0.429827  0.692925  0.479479  1
  Cu  Cu12  1  0.640724  0.914750  0.309305  1
  Cu  Cu13  1  0.915907  0.638614  0.813828  1
  Cu  Cu14  1  0.360003  0.083030  0.690782  1
  Si  Si15  1  0.306273  0.042387  0.435046  1
  Si  Si16  1  0.380737  0.619421  0.250396  1
  Si  Si17  1  0.041189  0.305165  0.940277  1
  Si  Si18  1  0.692349  0.958107  0.564526  1
  Si  Si19  1  0.959003  0.695914  0.061689  1
  Si  Si20  1  0.619977  0.379010  0.750773  1
  Rh  Rh21  1  0.086753  0.359716  0.178675  1
