# generated using pymatgen
data_Sc4Be4Al2Ir3Rh7
_symmetry_space_group_name_H-M   'P 1'
_cell_length_a   9.47729326
_cell_length_b   9.49061525
_cell_length_c   3.10107200
_cell_angle_alpha   90.00000000
_cell_angle_beta   90.00000000
_cell_angle_gamma   89.94107274
_symmetry_Int_Tables_number   1
_chemical_formula_structural   Sc4Be4Al2Ir3Rh7
_chemical_formula_sum   'Sc4 Be4 Al2 Ir3 Rh7'
_cell_volume   278.92684005
_cell_formula_units_Z   1
loop_
 _symmetry_equiv_pos_site_id
 _symmetry_equiv_pos_as_xyz
  1  'x, y, z'
loop_
 _atom_site_type_symbol
 _atom_site_label
 _atom_site_symmetry_multiplicity
 _atom_site_fract_x
 _atom_site_fract_y
 _atom_site_fract_z
 _atom_site_occupancy
  Sc  Sc0  1  0.672716  0.176131  0.000000  1
  Sc  Sc1  1  0.325304  0.825414  0.000000  1
  Sc  Sc2  1  0.176357  0.325497  0.000000  1
  Sc  Sc3  1  0.825370  0.674892  0.000000  1
  Be  Be4  1  0.124131  0.624570  0.000000  1
  Be  Be5  1  0.875936  0.375378  0.000000  1
  Be  Be6  1  0.624548  0.875343  0.000000  1
  Be  Be7  1  0.375373  0.124185  0.000000  1
  Al  Al8  1  0.999939  0.999783  0.000000  1
  Al  Al9  1  0.500119  0.499947  0.000000  1
  Ir  Ir10  1  0.431669  0.291118  0.500000  1
  Ir  Ir11  1  0.500204  0.999343  0.500000  1
  Ir  Ir12  1  0.999660  0.500284  0.500000  1
  Rh  Rh13  1  0.208073  0.067795  0.500000  1
  Rh  Rh14  1  0.791713  0.931774  0.500000  1
  Rh  Rh15  1  0.068868  0.791649  0.500000  1
  Rh  Rh16  1  0.708591  0.431737  0.500000  1
  Rh  Rh17  1  0.931564  0.208293  0.500000  1
  Rh  Rh18  1  0.291465  0.568624  0.500000  1
  Rh  Rh19  1  0.568399  0.708243  0.500000  1
