# generated using pymatgen
data_NdY4(In2Rh)2
_symmetry_space_group_name_H-M   'P 1'
_cell_length_a   3.67443000
_cell_length_b   8.06570900
_cell_length_c   18.49425800
_cell_angle_alpha   90.00000000
_cell_angle_beta   90.00000000
_cell_angle_gamma   90.00000000
_symmetry_Int_Tables_number   1
_chemical_formula_structural   NdY4(In2Rh)2
_chemical_formula_sum   'Nd2 Y8 In8 Rh4'
_cell_volume   548.11216275
_cell_formula_units_Z   2
loop_
 _symmetry_equiv_pos_site_id
 _symmetry_equiv_pos_as_xyz
  1  'x, y, z'
loop_
 _atom_site_type_symbol
 _atom_site_label
 _atom_site_symmetry_multiplicity
 _atom_site_fract_x
 _atom_site_fract_y
 _atom_site_fract_z
 _atom_site_occupancy
  Nd  Nd0  1  0.000000  0.000000  0.000000  1
  Nd  Nd1  1  0.000000  0.500000  0.500000  1
  Y  Y2  1  0.000000  0.119692  0.411064  1
  Y  Y3  1  0.000000  0.880308  0.588936  1
  Y  Y4  1  0.000000  0.380308  0.911064  1
  Y  Y5  1  0.000000  0.619692  0.088936  1
  Y  Y6  1  0.000000  0.246361  0.221153  1
  Y  Y7  1  0.000000  0.753639  0.778847  1
  Y  Y8  1  0.000000  0.253639  0.721153  1
  Y  Y9  1  0.000000  0.746361  0.278847  1
  In  In10  1  0.500000  0.430660  0.347236  1
  In  In11  1  0.500000  0.569340  0.652764  1
  In  In12  1  0.500000  0.069340  0.847236  1
  In  In13  1  0.500000  0.930660  0.152764  1
  In  In14  1  0.500000  0.298580  0.069973  1
  In  In15  1  0.500000  0.701420  0.930027  1
  In  In16  1  0.500000  0.201420  0.569973  1
  In  In17  1  0.500000  0.798580  0.430027  1
  Rh  Rh18  1  0.500000  0.021934  0.305254  1
  Rh  Rh19  1  0.500000  0.978066  0.694746  1
  Rh  Rh20  1  0.500000  0.478066  0.805254  1
  Rh  Rh21  1  0.500000  0.521934  0.194746  1
