# generated using pymatgen
data_V3Co6AsO16
_symmetry_space_group_name_H-M   'P 1'
_cell_length_a   6.56925580
_cell_length_b   6.56925632
_cell_length_c   8.38163235
_cell_angle_alpha   90.15751945
_cell_angle_beta   89.84248191
_cell_angle_gamma   124.67919823
_symmetry_Int_Tables_number   1
_chemical_formula_structural   V3Co6AsO16
_chemical_formula_sum   'V3 Co6 As1 O16'
_cell_volume   297.45135099
_cell_formula_units_Z   1
loop_
 _symmetry_equiv_pos_site_id
 _symmetry_equiv_pos_as_xyz
  1  'x, y, z'
loop_
 _atom_site_type_symbol
 _atom_site_label
 _atom_site_symmetry_multiplicity
 _atom_site_fract_x
 _atom_site_fract_y
 _atom_site_fract_z
 _atom_site_occupancy
  V  V0  1  0.377918  0.622082  0.882418  1
  V  V1  1  0.876301  0.123699  0.618388  1
  V  V2  1  0.623040  0.376960  0.117925  1
  Co  Co3  1  0.380451  0.115708  0.749713  1
  Co  Co4  1  0.884292  0.619549  0.749713  1
  Co  Co5  1  0.116481  0.384258  0.253488  1
  Co  Co6  1  0.615742  0.883519  0.253488  1
  Co  Co7  1  0.999852  0.000148  0.000085  1
  Co  Co8  1  0.500705  0.499295  0.498167  1
  As  As9  1  0.122698  0.877302  0.384474  1
  O  O10  1  0.753144  0.246856  0.224162  1
  O  O11  1  0.651345  0.885124  0.497879  1
  O  O12  1  0.886026  0.645568  0.500578  1
  O  O13  1  0.997588  0.002412  0.754685  1
  O  O14  1  0.151335  0.385347  0.003099  1
  O  O15  1  0.500232  0.499768  0.253119  1
  O  O16  1  0.004100  0.995900  0.250739  1
  O  O17  1  0.614653  0.848665  0.003099  1
  O  O18  1  0.385990  0.152561  0.997401  1
  O  O19  1  0.249840  0.750160  0.773354  1
  O  O20  1  0.499525  0.500475  0.745128  1
  O  O21  1  0.114876  0.348655  0.497879  1
  O  O22  1  0.245260  0.754740  0.268686  1
  O  O23  1  0.354432  0.113974  0.500578  1
  O  O24  1  0.746736  0.253264  0.724356  1
  O  O25  1  0.847439  0.614010  0.997401  1
