# generated using pymatgen
data_TbEr19(Ir2Ru)4
_symmetry_space_group_name_H-M   'P 1'
_cell_length_a   10.73634325
_cell_length_b   10.73668505
_cell_length_c   6.38123712
_cell_angle_alpha   89.99860164
_cell_angle_beta   90.02243202
_cell_angle_gamma   89.98913495
_symmetry_Int_Tables_number   1
_chemical_formula_structural   TbEr19(Ir2Ru)4
_chemical_formula_sum   'Tb1 Er19 Ir8 Ru4'
_cell_volume   735.58259300
_cell_formula_units_Z   1
loop_
 _symmetry_equiv_pos_site_id
 _symmetry_equiv_pos_as_xyz
  1  'x, y, z'
loop_
 _atom_site_type_symbol
 _atom_site_label
 _atom_site_symmetry_multiplicity
 _atom_site_fract_x
 _atom_site_fract_y
 _atom_site_fract_z
 _atom_site_occupancy
  Tb  Tb0  1  0.292958  0.086622  0.376551  1
  Er  Er1  1  0.293500  0.913122  0.877295  1
  Er  Er2  1  0.706533  0.086483  0.877367  1
  Er  Er3  1  0.706620  0.913477  0.377342  1
  Er  Er4  1  0.586562  0.793452  0.877349  1
  Er  Er5  1  0.587059  0.206750  0.377348  1
  Er  Er6  1  0.413773  0.792968  0.377284  1
  Er  Er7  1  0.413843  0.206729  0.877304  1
  Er  Er8  1  0.206469  0.413703  0.622810  1
  Er  Er9  1  0.206456  0.586449  0.122744  1
  Er  Er10  1  0.793513  0.413551  0.122665  1
  Er  Er11  1  0.793517  0.586489  0.622623  1
  Er  Er12  1  0.913500  0.706454  0.122608  1
  Er  Er13  1  0.913442  0.293494  0.622624  1
  Er  Er14  1  0.086439  0.706460  0.622721  1
  Er  Er15  1  0.086163  0.293778  0.122369  1
  Er  Er16  1  0.999522  0.999763  0.500248  1
  Er  Er17  1  0.999871  0.999946  0.000019  1
  Er  Er18  1  0.500047  0.500082  0.999948  1
  Er  Er19  1  0.500092  0.500060  0.500110  1
  Ir  Ir20  1  0.847372  0.152591  0.249995  1
  Ir  Ir21  1  0.847418  0.847403  0.750013  1
  Ir  Ir22  1  0.152002  0.152901  0.751640  1
  Ir  Ir23  1  0.152200  0.846757  0.249549  1
  Ir  Ir24  1  0.652565  0.347435  0.750056  1
  Ir  Ir25  1  0.652511  0.652613  0.249990  1
  Ir  Ir26  1  0.347609  0.348358  0.249512  1
  Ir  Ir27  1  0.347435  0.652601  0.750011  1
  Ru  Ru28  1  0.500456  0.999737  0.121726  1
  Ru  Ru29  1  0.500622  0.999766  0.622987  1
  Ru  Ru30  1  0.999964  0.500000  0.877592  1
  Ru  Ru31  1  0.999972  0.500007  0.377599  1
