# generated using pymatgen
data_AcH2BrO2
_symmetry_space_group_name_H-M   'P 1'
_cell_length_a   6.76630645
_cell_length_b   4.18699400
_cell_length_c   7.20147863
_cell_angle_alpha   90.00000000
_cell_angle_beta   110.83219599
_cell_angle_gamma   90.00000000
_symmetry_Int_Tables_number   1
_chemical_formula_structural   AcH2BrO2
_chemical_formula_sum   'Ac2 H4 Br2 O4'
_cell_volume   190.68368208
_cell_formula_units_Z   2
loop_
 _symmetry_equiv_pos_site_id
 _symmetry_equiv_pos_as_xyz
  1  'x, y, z'
loop_
 _atom_site_type_symbol
 _atom_site_label
 _atom_site_symmetry_multiplicity
 _atom_site_fract_x
 _atom_site_fract_y
 _atom_site_fract_z
 _atom_site_occupancy
  Ac  Ac0  1  0.200523  0.750000  0.378845  1
  Ac  Ac1  1  0.799478  0.250001  0.621156  1
  H  H2  1  0.847678  0.250001  0.204543  1
  H  H3  1  0.609986  0.750000  0.284719  1
  H  H4  1  0.390015  0.250001  0.715281  1
  H  H5  1  0.152323  0.750000  0.795457  1
  Br  Br6  1  0.261607  0.250001  0.047013  1
  Br  Br7  1  0.738393  0.750000  0.952987  1
  O  O8  1  0.947576  0.250001  0.341701  1
  O  O9  1  0.600849  0.750000  0.417384  1
  O  O10  1  0.399152  0.250001  0.582618  1
  O  O11  1  0.052423  0.750000  0.658298  1
