# generated using pymatgen
data_Rb4IrRhCl12
_symmetry_space_group_name_H-M   'P 1'
_cell_length_a   7.11445300
_cell_length_b   7.11445300
_cell_length_c   10.32548800
_cell_angle_alpha   90.00000000
_cell_angle_beta   90.00000000
_cell_angle_gamma   90.00000000
_symmetry_Int_Tables_number   1
_chemical_formula_structural   Rb4IrRhCl12
_chemical_formula_sum   'Rb4 Ir1 Rh1 Cl12'
_cell_volume   522.62913371
_cell_formula_units_Z   1
loop_
 _symmetry_equiv_pos_site_id
 _symmetry_equiv_pos_as_xyz
  1  'x, y, z'
loop_
 _atom_site_type_symbol
 _atom_site_label
 _atom_site_symmetry_multiplicity
 _atom_site_fract_x
 _atom_site_fract_y
 _atom_site_fract_z
 _atom_site_occupancy
  Rb  Rb0  1  0.500000  0.000000  0.761492  1
  Rb  Rb1  1  0.000000  0.500000  0.238508  1
  Rb  Rb2  1  0.500000  0.000000  0.238508  1
  Rb  Rb3  1  0.000000  0.500000  0.761492  1
  Ir  Ir4  1  0.500000  0.500000  0.500000  1
  Rh  Rh5  1  0.000000  0.000000  0.000000  1
  Cl  Cl6  1  0.000000  0.000000  0.771782  1
  Cl  Cl7  1  0.500000  0.500000  0.272935  1
  Cl  Cl8  1  0.732437  0.732437  0.500000  1
  Cl  Cl9  1  0.233702  0.233702  0.000000  1
  Cl  Cl10  1  0.732437  0.267563  0.500000  1
  Cl  Cl11  1  0.233702  0.766298  0.000000  1
  Cl  Cl12  1  0.000000  0.000000  0.228218  1
  Cl  Cl13  1  0.500000  0.500000  0.727065  1
  Cl  Cl14  1  0.267563  0.267563  0.500000  1
  Cl  Cl15  1  0.766298  0.766298  0.000000  1
  Cl  Cl16  1  0.267563  0.732437  0.500000  1
  Cl  Cl17  1  0.766298  0.233702  0.000000  1
