# generated using pymatgen
data_Na2Er3P12IrRh18
_symmetry_space_group_name_H-M   'P 1'
_cell_length_a   12.67796221
_cell_length_b   12.60800831
_cell_length_c   3.92170100
_cell_angle_alpha   90.00000000
_cell_angle_beta   90.00000000
_cell_angle_gamma   119.81764953
_symmetry_Int_Tables_number   1
_chemical_formula_structural   Na2Er3P12IrRh18
_chemical_formula_sum   'Na2 Er3 P12 Ir1 Rh18'
_cell_volume   543.87128548
_cell_formula_units_Z   1
loop_
 _symmetry_equiv_pos_site_id
 _symmetry_equiv_pos_as_xyz
  1  'x, y, z'
loop_
 _atom_site_type_symbol
 _atom_site_label
 _atom_site_symmetry_multiplicity
 _atom_site_fract_x
 _atom_site_fract_y
 _atom_site_fract_z
 _atom_site_occupancy
  Na  Na0  1  0.814564  0.814411  0.500000  1
  Na  Na1  1  0.185436  0.999846  0.500000  1
  Er  Er2  1  0.666777  0.332759  0.000000  1
  Er  Er3  1  0.333223  0.665983  0.000000  1
  Er  Er4  1  0.000000  0.182549  0.500000  1
  P  P5  1  0.684986  0.166944  0.500000  1
  P  P6  1  0.832205  0.519837  0.500000  1
  P  P7  1  0.480781  0.313718  0.500000  1
  P  P8  1  0.167795  0.687632  0.500000  1
  P  P9  1  0.519219  0.832936  0.500000  1
  P  P10  1  0.315014  0.481958  0.500000  1
  P  P11  1  0.635500  0.635620  0.000000  1
  P  P12  1  0.364500  0.000119  0.000000  1
  P  P13  1  0.000000  0.362733  0.000000  1
  P  P14  1  0.180065  0.179112  0.000000  1
  P  P15  1  0.819935  0.999047  0.000000  1
  P  P16  1  0.000000  0.820618  0.000000  1
  Ir  Ir17  1  0.000000  0.003257  0.000000  1
  Rh  Rh18  1  0.806182  0.180510  0.000000  1
  Rh  Rh19  1  0.818499  0.623272  0.000000  1
  Rh  Rh20  1  0.377019  0.195893  0.000000  1
  Rh  Rh21  1  0.181501  0.804772  0.000000  1
  Rh  Rh22  1  0.622981  0.818874  0.000000  1
  Rh  Rh23  1  0.193818  0.374329  0.000000  1
  Rh  Rh24  1  0.454186  0.455116  0.000000  1
  Rh  Rh25  1  0.545814  0.000930  0.000000  1
  Rh  Rh26  1  0.000000  0.544896  0.000000  1
  Rh  Rh27  1  0.281071  0.281668  0.500000  1
  Rh  Rh28  1  0.718929  0.000597  0.500000  1
  Rh  Rh29  1  0.000000  0.718386  0.500000  1
  Rh  Rh30  1  0.867010  0.358679  0.500000  1
  Rh  Rh31  1  0.640695  0.509398  0.500000  1
  Rh  Rh32  1  0.490315  0.131773  0.500000  1
  Rh  Rh33  1  0.359305  0.868701  0.500000  1
  Rh  Rh34  1  0.509685  0.641458  0.500000  1
  Rh  Rh35  1  0.132990  0.491668  0.500000  1
