# generated using pymatgen
data_Lu5Fe3(P3Ru4)4
_symmetry_space_group_name_H-M   'P 1'
_cell_length_a   12.45585600
_cell_length_b   12.45585537
_cell_length_c   3.87692000
_cell_angle_alpha   90.00000000
_cell_angle_beta   90.00000000
_cell_angle_gamma   120.00000166
_symmetry_Int_Tables_number   1
_chemical_formula_structural   Lu5Fe3(P3Ru4)4
_chemical_formula_sum   'Lu5 Fe3 P12 Ru16'
_cell_volume   520.91228485
_cell_formula_units_Z   1
loop_
 _symmetry_equiv_pos_site_id
 _symmetry_equiv_pos_as_xyz
  1  'x, y, z'
loop_
 _atom_site_type_symbol
 _atom_site_label
 _atom_site_symmetry_multiplicity
 _atom_site_fract_x
 _atom_site_fract_y
 _atom_site_fract_z
 _atom_site_occupancy
  Lu  Lu0  1  0.819003  0.000000  0.500000  1
  Lu  Lu1  1  0.000000  0.819003  0.500000  1
  Lu  Lu2  1  0.180997  0.180997  0.500000  1
  Lu  Lu3  1  0.333333  0.666667  0.000000  1
  Lu  Lu4  1  0.666667  0.333333  0.000000  1
  Fe  Fe5  1  0.282545  0.000000  0.500000  1
  Fe  Fe6  1  0.000000  0.282545  0.500000  1
  Fe  Fe7  1  0.717455  0.717455  0.500000  1
  P  P8  1  0.185461  0.000000  0.000000  1
  P  P9  1  0.000000  0.185461  0.000000  1
  P  P10  1  0.814539  0.814539  0.000000  1
  P  P11  1  0.526807  0.690189  0.500000  1
  P  P12  1  0.309811  0.836618  0.500000  1
  P  P13  1  0.163382  0.473193  0.500000  1
  P  P14  1  0.473193  0.163382  0.500000  1
  P  P15  1  0.690189  0.526807  0.500000  1
  P  P16  1  0.836618  0.309811  0.500000  1
  P  P17  1  0.627335  0.000000  0.000000  1
  P  P18  1  0.000000  0.627335  0.000000  1
  P  P19  1  0.372665  0.372665  0.000000  1
  Ru  Ru20  1  0.441981  0.000000  0.000000  1
  Ru  Ru21  1  0.000000  0.441981  0.000000  1
  Ru  Ru22  1  0.558019  0.558019  0.000000  1
  Ru  Ru23  1  0.626192  0.808172  0.000000  1
  Ru  Ru24  1  0.191828  0.818021  0.000000  1
  Ru  Ru25  1  0.181979  0.373808  0.000000  1
  Ru  Ru26  1  0.373808  0.181979  0.000000  1
  Ru  Ru27  1  0.808172  0.626192  0.000000  1
  Ru  Ru28  1  0.818021  0.191828  0.000000  1
  Ru  Ru29  1  0.509146  0.872476  0.500000  1
  Ru  Ru30  1  0.127524  0.636670  0.500000  1
  Ru  Ru31  1  0.363330  0.490854  0.500000  1
  Ru  Ru32  1  0.490854  0.363330  0.500000  1
  Ru  Ru33  1  0.872476  0.509146  0.500000  1
  Ru  Ru34  1  0.636670  0.127524  0.500000  1
  Ru  Ru35  1  0.000000  0.000000  0.000000  1
