# generated using pymatgen
data_Li2HoLuPt2
_symmetry_space_group_name_H-M   'P 1'
_cell_length_a   3.97703500
_cell_length_b   6.96745182
_cell_length_c   8.36714727
_cell_angle_alpha   89.37571226
_cell_angle_beta   90.00000000
_cell_angle_gamma   90.00000000
_symmetry_Int_Tables_number   1
_chemical_formula_structural   Li2HoLuPt2
_chemical_formula_sum   'Li4 Ho2 Lu2 Pt4'
_cell_volume   231.83821278
_cell_formula_units_Z   2
loop_
 _symmetry_equiv_pos_site_id
 _symmetry_equiv_pos_as_xyz
  1  'x, y, z'
loop_
 _atom_site_type_symbol
 _atom_site_label
 _atom_site_symmetry_multiplicity
 _atom_site_fract_x
 _atom_site_fract_y
 _atom_site_fract_z
 _atom_site_occupancy
  Li  Li0  1  0.250000  0.625816  0.557989  1
  Li  Li1  1  0.750000  0.374184  0.442011  1
  Li  Li2  1  0.750000  0.878448  0.058513  1
  Li  Li3  1  0.250000  0.121552  0.941487  1
  Ho  Ho4  1  0.250000  0.550272  0.179251  1
  Ho  Ho5  1  0.750000  0.449728  0.820749  1
  Lu  Lu6  1  0.750000  0.950184  0.676077  1
  Lu  Lu7  1  0.250000  0.049816  0.323923  1
  Pt  Pt8  1  0.250000  0.746336  0.870892  1
  Pt  Pt9  1  0.750000  0.253664  0.129108  1
  Pt  Pt10  1  0.750000  0.760486  0.374379  1
  Pt  Pt11  1  0.250000  0.239514  0.625621  1
