# generated using pymatgen
data_DyHo5TcIr
_symmetry_space_group_name_H-M   'P 1'
_cell_length_a   6.30654900
_cell_length_b   7.31471300
_cell_length_c   9.13353200
_cell_angle_alpha   90.00000000
_cell_angle_beta   90.00000000
_cell_angle_gamma   90.00000000
_symmetry_Int_Tables_number   1
_chemical_formula_structural   DyHo5TcIr
_chemical_formula_sum   'Dy2 Ho10 Tc2 Ir2'
_cell_volume   421.33527434
_cell_formula_units_Z   2
loop_
 _symmetry_equiv_pos_site_id
 _symmetry_equiv_pos_as_xyz
  1  'x, y, z'
loop_
 _atom_site_type_symbol
 _atom_site_label
 _atom_site_symmetry_multiplicity
 _atom_site_fract_x
 _atom_site_fract_y
 _atom_site_fract_z
 _atom_site_occupancy
  Dy  Dy0  1  0.133356  0.460113  0.750000  1
  Dy  Dy1  1  0.366644  0.960113  0.750000  1
  Ho  Ho2  1  0.328781  0.676736  0.066019  1
  Ho  Ho3  1  0.171219  0.176736  0.433981  1
  Ho  Ho4  1  0.668282  0.323867  0.560446  1
  Ho  Ho5  1  0.831718  0.823867  0.939554  1
  Ho  Ho6  1  0.668282  0.323867  0.939554  1
  Ho  Ho7  1  0.831718  0.823867  0.560446  1
  Ho  Ho8  1  0.328781  0.676736  0.433981  1
  Ho  Ho9  1  0.171219  0.176736  0.066019  1
  Ho  Ho10  1  0.873351  0.537879  0.250000  1
  Ho  Ho11  1  0.626649  0.037879  0.250000  1
  Tc  Tc12  1  0.035344  0.886066  0.250000  1
  Tc  Tc13  1  0.464656  0.386066  0.250000  1
  Ir  Ir14  1  0.954633  0.114736  0.750000  1
  Ir  Ir15  1  0.545367  0.614736  0.750000  1
