# generated using pymatgen
data_Er8In3Ru
_symmetry_space_group_name_H-M   'P 1'
_cell_length_a   10.31978800
_cell_length_b   10.31978701
_cell_length_c   6.99331600
_cell_angle_alpha   90.00000000
_cell_angle_beta   90.00000000
_cell_angle_gamma   119.99999677
_symmetry_Int_Tables_number   1
_chemical_formula_structural   Er8In3Ru
_chemical_formula_sum   'Er16 In6 Ru2'
_cell_volume   644.99345547
_cell_formula_units_Z   2
loop_
 _symmetry_equiv_pos_site_id
 _symmetry_equiv_pos_as_xyz
  1  'x, y, z'
loop_
 _atom_site_type_symbol
 _atom_site_label
 _atom_site_symmetry_multiplicity
 _atom_site_fract_x
 _atom_site_fract_y
 _atom_site_fract_z
 _atom_site_occupancy
  Er  Er0  1  0.532807  0.065614  0.794461  1
  Er  Er1  1  0.934386  0.467193  0.794461  1
  Er  Er2  1  0.532807  0.467193  0.794461  1
  Er  Er3  1  0.467193  0.934386  0.294461  1
  Er  Er4  1  0.065614  0.532807  0.294461  1
  Er  Er5  1  0.467193  0.532807  0.294461  1
  Er  Er6  1  0.822834  0.645667  0.499000  1
  Er  Er7  1  0.354333  0.177166  0.499000  1
  Er  Er8  1  0.822834  0.177166  0.499000  1
  Er  Er9  1  0.177166  0.354333  0.999000  1
  Er  Er10  1  0.645667  0.822834  0.999000  1
  Er  Er11  1  0.177166  0.822834  0.999000  1
  Er  Er12  1  0.666667  0.333333  0.171705  1
  Er  Er13  1  0.333333  0.666667  0.671705  1
  Er  Er14  1  0.000000  0.000000  0.778638  1
  Er  Er15  1  0.000000  0.000000  0.278638  1
  In  In16  1  0.837121  0.674243  0.039270  1
  In  In17  1  0.325757  0.162879  0.039270  1
  In  In18  1  0.837121  0.162879  0.039270  1
  In  In19  1  0.162879  0.325757  0.539270  1
  In  In20  1  0.674243  0.837121  0.539270  1
  In  In21  1  0.162879  0.837121  0.539270  1
  Ru  Ru22  1  0.666667  0.333333  0.569416  1
  Ru  Ru23  1  0.333333  0.666667  0.069416  1
