# generated using pymatgen
data_Ho2Lu10Tc3Pt
_symmetry_space_group_name_H-M   'P 1'
_cell_length_a   6.17210900
_cell_length_b   7.33924031
_cell_length_c   8.95237000
_cell_angle_alpha   90.00000000
_cell_angle_beta   90.00000000
_cell_angle_gamma   89.93703822
_symmetry_Int_Tables_number   1
_chemical_formula_structural   Ho2Lu10Tc3Pt
_chemical_formula_sum   'Ho2 Lu10 Tc3 Pt1'
_cell_volume   405.52950408
_cell_formula_units_Z   1
loop_
 _symmetry_equiv_pos_site_id
 _symmetry_equiv_pos_as_xyz
  1  'x, y, z'
loop_
 _atom_site_type_symbol
 _atom_site_label
 _atom_site_symmetry_multiplicity
 _atom_site_fract_x
 _atom_site_fract_y
 _atom_site_fract_z
 _atom_site_occupancy
  Ho  Ho0  1  0.125897  0.457612  0.750000  1
  Ho  Ho1  1  0.373705  0.964655  0.750000  1
  Lu  Lu2  1  0.332500  0.675535  0.067506  1
  Lu  Lu3  1  0.161509  0.177320  0.435582  1
  Lu  Lu4  1  0.662769  0.318971  0.556760  1
  Lu  Lu5  1  0.840656  0.828937  0.941918  1
  Lu  Lu6  1  0.662769  0.318971  0.943240  1
  Lu  Lu7  1  0.840656  0.828937  0.558082  1
  Lu  Lu8  1  0.332500  0.675535  0.432494  1
  Lu  Lu9  1  0.161509  0.177320  0.064418  1
  Lu  Lu10  1  0.874466  0.541506  0.250000  1
  Lu  Lu11  1  0.621694  0.036734  0.250000  1
  Tc  Tc12  1  0.038263  0.883321  0.250000  1
  Tc  Tc13  1  0.464423  0.384435  0.250000  1
  Tc  Tc14  1  0.954157  0.116701  0.750000  1
  Pt  Pt15  1  0.552529  0.613508  0.750000  1
