# generated using pymatgen
data_BaTb(SbAu)2
_symmetry_space_group_name_H-M   'P 1'
_cell_length_a   4.66127500
_cell_length_b   4.66127476
_cell_length_c   18.14065600
_cell_angle_alpha   90.00000000
_cell_angle_beta   90.00000000
_cell_angle_gamma   120.00000879
_symmetry_Int_Tables_number   1
_chemical_formula_structural   BaTb(SbAu)2
_chemical_formula_sum   'Ba2 Tb2 Sb4 Au4'
_cell_volume   341.34457911
_cell_formula_units_Z   2
loop_
 _symmetry_equiv_pos_site_id
 _symmetry_equiv_pos_as_xyz
  1  'x, y, z'
loop_
 _atom_site_type_symbol
 _atom_site_label
 _atom_site_symmetry_multiplicity
 _atom_site_fract_x
 _atom_site_fract_y
 _atom_site_fract_z
 _atom_site_occupancy
  Ba  Ba0  1  0.000000  0.000000  0.500000  1
  Ba  Ba1  1  0.000000  0.000000  0.000000  1
  Tb  Tb2  1  0.000000  0.000000  0.250000  1
  Tb  Tb3  1  0.000000  0.000000  0.750000  1
  Sb  Sb4  1  0.333333  0.666667  0.372243  1
  Sb  Sb5  1  0.666667  0.333333  0.627757  1
  Sb  Sb6  1  0.666667  0.333333  0.872243  1
  Sb  Sb7  1  0.333333  0.666667  0.127757  1
  Au  Au8  1  0.666667  0.333333  0.333006  1
  Au  Au9  1  0.333333  0.666667  0.666994  1
  Au  Au10  1  0.333333  0.666667  0.833006  1
  Au  Au11  1  0.666667  0.333333  0.166994  1
