# generated using pymatgen
data_HoEr2Lu5Re3RuC8
_symmetry_space_group_name_H-M   'P 1'
_cell_length_a   5.01110900
_cell_length_b   6.49275327
_cell_length_c   9.70080863
_cell_angle_alpha   89.76897113
_cell_angle_beta   90.00000000
_cell_angle_gamma   90.00000000
_symmetry_Int_Tables_number   1
_chemical_formula_structural   HoEr2Lu5Re3RuC8
_chemical_formula_sum   'Ho1 Er2 Lu5 Re3 Ru1 C8'
_cell_volume   315.62191891
_cell_formula_units_Z   1
loop_
 _symmetry_equiv_pos_site_id
 _symmetry_equiv_pos_as_xyz
  1  'x, y, z'
loop_
 _atom_site_type_symbol
 _atom_site_label
 _atom_site_symmetry_multiplicity
 _atom_site_fract_x
 _atom_site_fract_y
 _atom_site_fract_z
 _atom_site_occupancy
  Ho  Ho0  1  0.750000  0.532658  0.785680  1
  Er  Er1  1  0.250000  0.465978  0.216659  1
  Er  Er2  1  0.750000  0.035056  0.717169  1
  Lu  Lu3  1  0.250000  0.966090  0.282312  1
  Lu  Lu4  1  0.750000  0.675707  0.441512  1
  Lu  Lu5  1  0.250000  0.827959  0.942962  1
  Lu  Lu6  1  0.750000  0.175089  0.059902  1
  Lu  Lu7  1  0.250000  0.324108  0.557966  1
  Re  Re8  1  0.250000  0.783315  0.631192  1
  Re  Re9  1  0.750000  0.217094  0.369737  1
  Re  Re10  1  0.750000  0.718402  0.131354  1
  Ru  Ru11  1  0.250000  0.281860  0.868624  1
  C  C12  1  0.250000  0.673868  0.445540  1
  C  C13  1  0.250000  0.551369  0.757006  1
  C  C14  1  0.750000  0.449967  0.240224  1
  C  C15  1  0.750000  0.828260  0.945751  1
  C  C16  1  0.250000  0.048415  0.739231  1
  C  C17  1  0.250000  0.168722  0.052151  1
  C  C18  1  0.750000  0.326781  0.554427  1
  C  C19  1  0.750000  0.949301  0.260598  1
