# generated using pymatgen
data_Nd3Y2P12Ir16Pd3
_symmetry_space_group_name_H-M   'P 1'
_cell_length_a   12.84070500
_cell_length_b   12.84070585
_cell_length_c   4.00183600
_cell_angle_alpha   90.00000000
_cell_angle_beta   90.00000000
_cell_angle_gamma   119.99999524
_symmetry_Int_Tables_number   1
_chemical_formula_structural   Nd3Y2P12Ir16Pd3
_chemical_formula_sum   'Nd3 Y2 P12 Ir16 Pd3'
_cell_volume   571.43614240
_cell_formula_units_Z   1
loop_
 _symmetry_equiv_pos_site_id
 _symmetry_equiv_pos_as_xyz
  1  'x, y, z'
loop_
 _atom_site_type_symbol
 _atom_site_label
 _atom_site_symmetry_multiplicity
 _atom_site_fract_x
 _atom_site_fract_y
 _atom_site_fract_z
 _atom_site_occupancy
  Nd  Nd0  1  0.000000  0.188578  0.500000  1
  Nd  Nd1  1  0.811422  0.811422  0.500000  1
  Nd  Nd2  1  0.188578  0.000000  0.500000  1
  Y  Y3  1  0.666667  0.333333  0.000000  1
  Y  Y4  1  0.333333  0.666667  0.000000  1
  P  P5  1  0.000000  0.818346  0.000000  1
  P  P6  1  0.181654  0.181654  0.000000  1
  P  P7  1  0.818346  0.000000  0.000000  1
  P  P8  1  0.690829  0.174269  0.500000  1
  P  P9  1  0.825731  0.516559  0.500000  1
  P  P10  1  0.483441  0.309171  0.500000  1
  P  P11  1  0.174269  0.690829  0.500000  1
  P  P12  1  0.516559  0.825731  0.500000  1
  P  P13  1  0.309171  0.483441  0.500000  1
  P  P14  1  0.000000  0.364514  0.000000  1
  P  P15  1  0.635486  0.635486  0.000000  1
  P  P16  1  0.364514  0.000000  0.000000  1
  Ir  Ir17  1  0.000000  0.715704  0.500000  1
  Ir  Ir18  1  0.284296  0.284296  0.500000  1
  Ir  Ir19  1  0.715704  0.000000  0.500000  1
  Ir  Ir20  1  0.804647  0.181464  0.000000  1
  Ir  Ir21  1  0.818536  0.623184  0.000000  1
  Ir  Ir22  1  0.376816  0.195353  0.000000  1
  Ir  Ir23  1  0.181464  0.804647  0.000000  1
  Ir  Ir24  1  0.623184  0.818536  0.000000  1
  Ir  Ir25  1  0.195353  0.376816  0.000000  1
  Ir  Ir26  1  0.866149  0.361062  0.500000  1
  Ir  Ir27  1  0.638938  0.505087  0.500000  1
  Ir  Ir28  1  0.494913  0.133851  0.500000  1
  Ir  Ir29  1  0.361062  0.866149  0.500000  1
  Ir  Ir30  1  0.505087  0.638938  0.500000  1
  Ir  Ir31  1  0.133851  0.494913  0.500000  1
  Ir  Ir32  1  0.000000  0.000000  0.000000  1
  Pd  Pd33  1  0.000000  0.545147  0.000000  1
  Pd  Pd34  1  0.454853  0.454853  0.000000  1
  Pd  Pd35  1  0.545147  0.000000  0.000000  1
