# generated using pymatgen
data_La8Ga3Ru
_symmetry_space_group_name_H-M   'P 1'
_cell_length_a   10.64083600
_cell_length_b   10.64124861
_cell_length_c   7.30726800
_cell_angle_alpha   90.00000000
_cell_angle_beta   90.00000000
_cell_angle_gamma   119.99961368
_symmetry_Int_Tables_number   1
_chemical_formula_structural   La8Ga3Ru
_chemical_formula_sum   'La16 Ga6 Ru2'
_cell_volume   716.56517475
_cell_formula_units_Z   2
loop_
 _symmetry_equiv_pos_site_id
 _symmetry_equiv_pos_as_xyz
  1  'x, y, z'
loop_
 _atom_site_type_symbol
 _atom_site_label
 _atom_site_symmetry_multiplicity
 _atom_site_fract_x
 _atom_site_fract_y
 _atom_site_fract_z
 _atom_site_occupancy
  La  La0  1  0.830762  0.661510  0.485991  1
  La  La1  1  0.338467  0.169229  0.486013  1
  La  La2  1  0.830761  0.169233  0.486022  1
  La  La3  1  0.169238  0.338490  0.985991  1
  La  La4  1  0.661533  0.830771  0.986013  1
  La  La5  1  0.169239  0.830767  0.986022  1
  La  La6  1  0.666670  0.333336  0.174556  1
  La  La7  1  0.333330  0.666664  0.674556  1
  La  La8  1  0.539353  0.078715  0.793080  1
  La  La9  1  0.921282  0.460628  0.793058  1
  La  La10  1  0.539350  0.460628  0.793058  1
  La  La11  1  0.460647  0.921285  0.293080  1
  La  La12  1  0.078718  0.539372  0.293058  1
  La  La13  1  0.460650  0.539372  0.293058  1
  La  La14  1  0.000000  0.000003  0.775281  1
  La  La15  1  0.000000  0.999997  0.275281  1
  Ga  Ga16  1  0.834931  0.669865  0.042513  1
  Ga  Ga17  1  0.330115  0.165059  0.042540  1
  Ga  Ga18  1  0.834939  0.165062  0.042551  1
  Ga  Ga19  1  0.165069  0.330135  0.542513  1
  Ga  Ga20  1  0.669885  0.834941  0.542540  1
  Ga  Ga21  1  0.165061  0.834938  0.542551  1
  Ru  Ru22  1  0.666663  0.333322  0.548459  1
  Ru  Ru23  1  0.333337  0.666678  0.048459  1
