# generated using pymatgen
data_Mn7NiPbO16
_symmetry_space_group_name_H-M   'P 1'
_cell_length_a   5.86825979
_cell_length_b   7.12150531
_cell_length_c   7.22741236
_cell_angle_alpha   88.45346307
_cell_angle_beta   78.30109289
_cell_angle_gamma   78.01655988
_symmetry_Int_Tables_number   1
_chemical_formula_structural   Mn7NiPbO16
_chemical_formula_sum   'Mn7 Ni1 Pb1 O16'
_cell_volume   289.28386401
_cell_formula_units_Z   1
loop_
 _symmetry_equiv_pos_site_id
 _symmetry_equiv_pos_as_xyz
  1  'x, y, z'
loop_
 _atom_site_type_symbol
 _atom_site_label
 _atom_site_symmetry_multiplicity
 _atom_site_fract_x
 _atom_site_fract_y
 _atom_site_fract_z
 _atom_site_occupancy
  Mn  Mn0  1  0.081071  0.506347  0.184138  1
  Mn  Mn1  1  0.173034  0.819230  0.515508  1
  Mn  Mn2  1  0.666567  0.820489  0.524511  1
  Mn  Mn3  1  0.336058  0.188659  0.477968  1
  Mn  Mn4  1  0.839041  0.186923  0.483284  1
  Mn  Mn5  1  0.429454  0.486487  0.820336  1
  Mn  Mn6  1  0.925036  0.489340  0.820667  1
  Ni  Ni7  1  0.578710  0.519055  0.184227  1
  Pb  Pb8  1  0.017027  0.940043  0.982186  1
  O  O9  1  0.847446  0.651272  0.044569  1
  O  O10  1  0.311846  0.649857  0.044659  1
  O  O11  1  0.980725  0.708444  0.379449  1
  O  O12  1  0.482109  0.708680  0.393994  1
  O  O13  1  0.857854  0.957899  0.648977  1
  O  O14  1  0.348484  0.959582  0.647718  1
  O  O15  1  0.332016  0.370137  0.289749  1
  O  O16  1  0.849267  0.365175  0.288310  1
  O  O17  1  0.165221  0.637819  0.718663  1
  O  O18  1  0.665865  0.633305  0.719302  1
  O  O19  1  0.152329  0.044118  0.357582  1
  O  O20  1  0.655946  0.044035  0.361055  1
  O  O21  1  0.027073  0.298399  0.618462  1
  O  O22  1  0.524063  0.302836  0.612720  1
  O  O23  1  0.177331  0.354986  0.946545  1
  O  O24  1  0.683525  0.356882  0.935416  1
