# generated using pymatgen
data_Pr4SmSn4
_symmetry_space_group_name_H-M   'P 1'
_cell_length_a   8.34367700
_cell_length_b   8.49814000
_cell_length_c   16.08561400
_cell_angle_alpha   90.00000000
_cell_angle_beta   90.00000000
_cell_angle_gamma   90.00000000
_symmetry_Int_Tables_number   1
_chemical_formula_structural   Pr4SmSn4
_chemical_formula_sum   'Pr16 Sm4 Sn16'
_cell_volume   1140.56228779
_cell_formula_units_Z   4
loop_
 _symmetry_equiv_pos_site_id
 _symmetry_equiv_pos_as_xyz
  1  'x, y, z'
loop_
 _atom_site_type_symbol
 _atom_site_label
 _atom_site_symmetry_multiplicity
 _atom_site_fract_x
 _atom_site_fract_y
 _atom_site_fract_z
 _atom_site_occupancy
  Pr  Pr0  1  0.366937  0.837948  0.879397  1
  Pr  Pr1  1  0.866937  0.662052  0.620603  1
  Pr  Pr2  1  0.633063  0.162052  0.379397  1
  Pr  Pr3  1  0.133063  0.337948  0.120603  1
  Pr  Pr4  1  0.633063  0.162052  0.120603  1
  Pr  Pr5  1  0.133063  0.337948  0.379397  1
  Pr  Pr6  1  0.366937  0.837948  0.620603  1
  Pr  Pr7  1  0.866937  0.662052  0.879397  1
  Pr  Pr8  1  0.518816  0.318557  0.901177  1
  Pr  Pr9  1  0.018816  0.181443  0.598823  1
  Pr  Pr10  1  0.481184  0.681443  0.401177  1
  Pr  Pr11  1  0.981184  0.818557  0.098823  1
  Pr  Pr12  1  0.481184  0.681443  0.098823  1
  Pr  Pr13  1  0.981184  0.818557  0.401177  1
  Pr  Pr14  1  0.518816  0.318557  0.598823  1
  Pr  Pr15  1  0.018816  0.181443  0.901177  1
  Sm  Sm16  1  0.197792  0.502018  0.750000  1
  Sm  Sm17  1  0.697792  0.997982  0.750000  1
  Sm  Sm18  1  0.802208  0.497982  0.250000  1
  Sm  Sm19  1  0.302208  0.002018  0.250000  1
  Sn  Sn20  1  0.291761  0.033908  0.044184  1
  Sn  Sn21  1  0.791761  0.466092  0.455816  1
  Sn  Sn22  1  0.708239  0.966092  0.544184  1
  Sn  Sn23  1  0.208239  0.533908  0.955816  1
  Sn  Sn24  1  0.708239  0.966092  0.955816  1
  Sn  Sn25  1  0.208239  0.533908  0.544184  1
  Sn  Sn26  1  0.291761  0.033908  0.455816  1
  Sn  Sn27  1  0.791761  0.466092  0.044184  1
  Sn  Sn28  1  0.564886  0.616238  0.750000  1
  Sn  Sn29  1  0.064886  0.883762  0.750000  1
  Sn  Sn30  1  0.435114  0.383762  0.250000  1
  Sn  Sn31  1  0.935114  0.116238  0.250000  1
  Sn  Sn32  1  0.322961  0.145633  0.750000  1
  Sn  Sn33  1  0.822961  0.354367  0.750000  1
  Sn  Sn34  1  0.677039  0.854367  0.250000  1
  Sn  Sn35  1  0.177039  0.645633  0.250000  1
