# generated using pymatgen
data_SmOsI18
_symmetry_space_group_name_H-M   'P 1'
_cell_length_a   10.29348882
_cell_length_b   10.29348934
_cell_length_c   10.29349058
_cell_angle_alpha   94.77029701
_cell_angle_beta   94.77029146
_cell_angle_gamma   94.77030581
_symmetry_Int_Tables_number   1
_chemical_formula_structural   SmOsI18
_chemical_formula_sum   'Sm1 Os1 I18'
_cell_volume   1078.64874450
_cell_formula_units_Z   1
loop_
 _symmetry_equiv_pos_site_id
 _symmetry_equiv_pos_as_xyz
  1  'x, y, z'
loop_
 _atom_site_type_symbol
 _atom_site_label
 _atom_site_symmetry_multiplicity
 _atom_site_fract_x
 _atom_site_fract_y
 _atom_site_fract_z
 _atom_site_occupancy
  Sm  Sm0  1  0.000000  0.000000  0.000000  1
  Os  Os1  1  0.500000  0.500000  0.500000  1
  I  I2  1  0.728026  0.141682  0.599127  1
  I  I3  1  0.964555  0.018301  0.700036  1
  I  I4  1  0.599127  0.728026  0.141682  1
  I  I5  1  0.981699  0.299964  0.035445  1
  I  I6  1  0.700036  0.964555  0.018301  1
  I  I7  1  0.018301  0.700036  0.964555  1
  I  I8  1  0.035445  0.981699  0.299964  1
  I  I9  1  0.858318  0.400873  0.271974  1
  I  I10  1  0.299964  0.035445  0.981699  1
  I  I11  1  0.271974  0.858318  0.400873  1
  I  I12  1  0.141682  0.599127  0.728026  1
  I  I13  1  0.400873  0.271974  0.858318  1
  I  I14  1  0.762588  0.529894  0.503888  1
  I  I15  1  0.529894  0.503888  0.762588  1
  I  I16  1  0.237412  0.470106  0.496112  1
  I  I17  1  0.470106  0.496112  0.237412  1
  I  I18  1  0.503888  0.762588  0.529894  1
  I  I19  1  0.496112  0.237412  0.470106  1
