# generated using pymatgen
data_HfZr7Co12Si15Ge
_symmetry_space_group_name_H-M   'P 1'
_cell_length_a   5.24181600
_cell_length_b   6.79819266
_cell_length_c   13.76896259
_cell_angle_alpha   90.16329714
_cell_angle_beta   90.00879683
_cell_angle_gamma   90.01815874
_symmetry_Int_Tables_number   1
_chemical_formula_structural   HfZr7Co12Si15Ge
_chemical_formula_sum   'Hf1 Zr7 Co12 Si15 Ge1'
_cell_volume   490.65323822
_cell_formula_units_Z   1
loop_
 _symmetry_equiv_pos_site_id
 _symmetry_equiv_pos_as_xyz
  1  'x, y, z'
loop_
 _atom_site_type_symbol
 _atom_site_label
 _atom_site_symmetry_multiplicity
 _atom_site_fract_x
 _atom_site_fract_y
 _atom_site_fract_z
 _atom_site_occupancy
  Hf  Hf0  1  0.767808  0.600760  0.854409  1
  Zr  Zr1  1  0.232900  0.401553  0.146236  1
  Zr  Zr2  1  0.732943  0.100762  0.146975  1
  Zr  Zr3  1  0.266948  0.099933  0.646156  1
  Zr  Zr4  1  0.766969  0.399290  0.646227  1
  Zr  Zr5  1  0.231982  0.599802  0.354383  1
  Zr  Zr6  1  0.732178  0.899197  0.354615  1
  Zr  Zr7  1  0.267301  0.900227  0.853207  1
  Co  Co8  1  0.991802  0.280155  0.977555  1
  Co  Co9  1  0.504865  0.227985  0.480142  1
  Co  Co10  1  0.774156  0.998225  0.750833  1
  Co  Co11  1  0.499231  0.235308  0.977657  1
  Co  Co12  1  0.725797  0.499804  0.251245  1
  Co  Co13  1  0.495399  0.771359  0.520266  1
  Co  Co14  1  0.004917  0.271431  0.480101  1
  Co  Co15  1  0.002260  0.722497  0.018320  1
  Co  Co16  1  0.225774  0.995382  0.253835  1
  Co  Co17  1  0.275123  0.502154  0.750829  1
  Co  Co18  1  0.507206  0.765982  0.018897  1
  Co  Co19  1  0.995502  0.727742  0.520294  1
  Si  Si20  1  0.720205  0.518732  0.433231  1
  Si  Si21  1  0.780018  0.019338  0.567070  1
  Si  Si22  1  0.483008  0.752311  0.188479  1
  Si  Si23  1  0.018232  0.254775  0.810902  1
  Si  Si24  1  0.520186  0.247566  0.811061  1
  Si  Si25  1  0.220268  0.979962  0.433713  1
  Si  Si26  1  0.280330  0.520917  0.930946  1
  Si  Si27  1  0.979213  0.744543  0.188366  1
  Si  Si28  1  0.719711  0.480237  0.068152  1
  Si  Si29  1  0.280235  0.480386  0.567187  1
  Si  Si30  1  0.480619  0.246058  0.312213  1
  Si  Si31  1  0.018281  0.745692  0.688197  1
  Si  Si32  1  0.776868  0.981022  0.932006  1
  Si  Si33  1  0.519980  0.753390  0.688136  1
  Si  Si34  1  0.981631  0.253012  0.312169  1
  Ge  Ge35  1  0.220155  0.022509  0.065994  1
