# generated using pymatgen
data_Hf18TiRe7AsP
_symmetry_space_group_name_H-M   'P 1'
_cell_length_a   8.58996400
_cell_length_b   8.58996483
_cell_length_c   8.62725800
_cell_angle_alpha   90.00000000
_cell_angle_beta   90.00000000
_cell_angle_gamma   119.99999680
_symmetry_Int_Tables_number   1
_chemical_formula_structural   Hf18TiRe7AsP
_chemical_formula_sum   'Hf18 Ti1 Re7 As1 P1'
_cell_volume   551.29767512
_cell_formula_units_Z   1
loop_
 _symmetry_equiv_pos_site_id
 _symmetry_equiv_pos_as_xyz
  1  'x, y, z'
loop_
 _atom_site_type_symbol
 _atom_site_label
 _atom_site_symmetry_multiplicity
 _atom_site_fract_x
 _atom_site_fract_y
 _atom_site_fract_z
 _atom_site_occupancy
  Hf  Hf0  1  0.194533  0.805467  0.454492  1
  Hf  Hf1  1  0.194533  0.389063  0.454492  1
  Hf  Hf2  1  0.610937  0.805467  0.454492  1
  Hf  Hf3  1  0.803334  0.196666  0.548488  1
  Hf  Hf4  1  0.803334  0.606669  0.548488  1
  Hf  Hf5  1  0.393331  0.196666  0.548488  1
  Hf  Hf6  1  0.804290  0.195710  0.950369  1
  Hf  Hf7  1  0.804290  0.608582  0.950369  1
  Hf  Hf8  1  0.391418  0.195710  0.950369  1
  Hf  Hf9  1  0.193422  0.806578  0.046428  1
  Hf  Hf10  1  0.193422  0.386842  0.046428  1
  Hf  Hf11  1  0.613158  0.806578  0.046428  1
  Hf  Hf12  1  0.540213  0.459787  0.248424  1
  Hf  Hf13  1  0.540213  0.080427  0.248424  1
  Hf  Hf14  1  0.919573  0.459787  0.248424  1
  Hf  Hf15  1  0.460673  0.539327  0.751604  1
  Hf  Hf16  1  0.460673  0.921346  0.751604  1
  Hf  Hf17  1  0.078654  0.539327  0.751604  1
  Ti  Ti18  1  0.000000  0.000000  0.500084  1
  Re  Re19  1  0.890055  0.109945  0.252217  1
  Re  Re20  1  0.890055  0.780109  0.252217  1
  Re  Re21  1  0.219891  0.109945  0.252217  1
  Re  Re22  1  0.109873  0.890127  0.747927  1
  Re  Re23  1  0.109873  0.219747  0.747927  1
  Re  Re24  1  0.780253  0.890127  0.747927  1
  Re  Re25  1  0.000000  0.000000  0.999995  1
  As  As26  1  0.333333  0.666667  0.249428  1
  P  P27  1  0.666667  0.333333  0.750647  1
