# generated using pymatgen
data_Tb11Dy3Y2(In3Co)2
_symmetry_space_group_name_H-M   'P 1'
_cell_length_a   10.41150400
_cell_length_b   10.41223250
_cell_length_c   7.03216360
_cell_angle_alpha   90.00879562
_cell_angle_beta   90.00000000
_cell_angle_gamma   119.99769194
_symmetry_Int_Tables_number   1
_chemical_formula_structural   Tb11Dy3Y2(In3Co)2
_chemical_formula_sum   'Tb11 Dy3 Y2 In6 Co2'
_cell_volume   660.21747905
_cell_formula_units_Z   1
loop_
 _symmetry_equiv_pos_site_id
 _symmetry_equiv_pos_as_xyz
  1  'x, y, z'
loop_
 _atom_site_type_symbol
 _atom_site_label
 _atom_site_symmetry_multiplicity
 _atom_site_fract_x
 _atom_site_fract_y
 _atom_site_fract_z
 _atom_site_occupancy
  Tb  Tb0  1  0.464125  0.535686  0.482835  1
  Tb  Tb1  1  0.071561  0.535686  0.482835  1
  Tb  Tb2  1  0.464388  0.928774  0.482342  1
  Tb  Tb3  1  0.535599  0.464354  0.982222  1
  Tb  Tb4  1  0.928756  0.464354  0.982222  1
  Tb  Tb5  1  0.535863  0.071726  0.982724  1
  Tb  Tb6  1  0.822385  0.177857  0.276045  1
  Tb  Tb7  1  0.355472  0.177857  0.276045  1
  Tb  Tb8  1  0.822089  0.644178  0.276003  1
  Tb  Tb9  1  0.178063  0.822516  0.775787  1
  Tb  Tb10  1  0.644453  0.822516  0.775787  1
  Dy  Dy11  1  0.177685  0.355369  0.775804  1
  Dy  Dy12  1  0.333080  0.666160  0.090924  1
  Dy  Dy13  1  0.666680  0.333357  0.591416  1
  Y  Y14  1  0.000060  0.000120  0.495459  1
  Y  Y15  1  0.999772  0.999545  0.995048  1
  In  In16  1  0.163037  0.836826  0.234562  1
  In  In17  1  0.673790  0.836826  0.234562  1
  In  In18  1  0.163078  0.326154  0.233935  1
  In  In19  1  0.837278  0.163209  0.734896  1
  In  In20  1  0.325932  0.163209  0.734896  1
  In  In21  1  0.837034  0.674069  0.734515  1
  Co  Co22  1  0.333155  0.666310  0.706710  1
  Co  Co23  1  0.666668  0.333336  0.206981  1
