# generated using pymatgen
data_Tm4ZnPt3
_symmetry_space_group_name_H-M   'P 1'
_cell_length_a   4.52298100
_cell_length_b   5.51425200
_cell_length_c   6.96695226
_cell_angle_alpha   90.06888199
_cell_angle_beta   90.00000000
_cell_angle_gamma   90.00000000
_symmetry_Int_Tables_number   1
_chemical_formula_structural   Tm4ZnPt3
_chemical_formula_sum   'Tm4 Zn1 Pt3'
_cell_volume   173.76163450
_cell_formula_units_Z   1
loop_
 _symmetry_equiv_pos_site_id
 _symmetry_equiv_pos_as_xyz
  1  'x, y, z'
loop_
 _atom_site_type_symbol
 _atom_site_label
 _atom_site_symmetry_multiplicity
 _atom_site_fract_x
 _atom_site_fract_y
 _atom_site_fract_z
 _atom_site_occupancy
  Tm  Tm0  1  0.250000  0.641725  0.186817  1
  Tm  Tm1  1  0.750000  0.368108  0.807549  1
  Tm  Tm2  1  0.750000  0.140618  0.327960  1
  Tm  Tm3  1  0.250000  0.848932  0.678475  1
  Zn  Zn4  1  0.250000  0.137881  0.032596  1
  Pt  Pt5  1  0.750000  0.871097  0.969785  1
  Pt  Pt6  1  0.750000  0.656964  0.454155  1
  Pt  Pt7  1  0.250000  0.334675  0.542663  1
