# generated using pymatgen
data_Ba2ZnWN4
_symmetry_space_group_name_H-M   'P 1'
_cell_length_a   6.03609400
_cell_length_b   6.63327543
_cell_length_c   7.93969900
_cell_angle_alpha   66.47923364
_cell_angle_beta   90.00000000
_cell_angle_gamma   90.00000000
_symmetry_Int_Tables_number   1
_chemical_formula_structural   Ba2ZnWN4
_chemical_formula_sum   'Ba4 Zn2 W2 N8'
_cell_volume   291.48578056
_cell_formula_units_Z   2
loop_
 _symmetry_equiv_pos_site_id
 _symmetry_equiv_pos_as_xyz
  1  'x, y, z'
loop_
 _atom_site_type_symbol
 _atom_site_label
 _atom_site_symmetry_multiplicity
 _atom_site_fract_x
 _atom_site_fract_y
 _atom_site_fract_z
 _atom_site_occupancy
  Ba  Ba0  1  0.250000  0.270952  0.051052  1
  Ba  Ba1  1  0.750000  0.729048  0.948948  1
  Ba  Ba2  1  0.750000  0.839322  0.402887  1
  Ba  Ba3  1  0.250000  0.160678  0.597113  1
  Zn  Zn4  1  0.750000  0.353735  0.395907  1
  Zn  Zn5  1  0.250000  0.646265  0.604093  1
  W  W6  1  0.250000  0.700331  0.213662  1
  W  W7  1  0.750000  0.299669  0.786338  1
  N  N8  1  0.503660  0.485322  0.731898  1
  N  N9  1  0.003660  0.514678  0.268102  1
  N  N10  1  0.496340  0.514678  0.268102  1
  N  N11  1  0.996340  0.485322  0.731898  1
  N  N12  1  0.750000  0.119049  0.641398  1
  N  N13  1  0.250000  0.880951  0.358602  1
  N  N14  1  0.750000  0.123609  0.033740  1
  N  N15  1  0.250000  0.876391  0.966260  1
