# generated using pymatgen
data_NdErFe3P7Ru9
_symmetry_space_group_name_H-M   'P 1'
_cell_length_a   9.34212400
_cell_length_b   9.34212375
_cell_length_c   3.86359700
_cell_angle_alpha   90.00000000
_cell_angle_beta   90.00000000
_cell_angle_gamma   119.99999380
_symmetry_Int_Tables_number   1
_chemical_formula_structural   NdErFe3P7Ru9
_chemical_formula_sum   'Nd1 Er1 Fe3 P7 Ru9'
_cell_volume   292.02075699
_cell_formula_units_Z   1
loop_
 _symmetry_equiv_pos_site_id
 _symmetry_equiv_pos_as_xyz
  1  'x, y, z'
loop_
 _atom_site_type_symbol
 _atom_site_label
 _atom_site_symmetry_multiplicity
 _atom_site_fract_x
 _atom_site_fract_y
 _atom_site_fract_z
 _atom_site_occupancy
  Nd  Nd0  1  0.000000  0.000000  0.000000  1
  Er  Er1  1  0.333333  0.666667  0.500000  1
  Fe  Fe2  1  0.823980  0.223664  0.000000  1
  Fe  Fe3  1  0.776336  0.600316  0.000000  1
  Fe  Fe4  1  0.399684  0.176020  0.000000  1
  P  P5  1  0.081199  0.441401  0.000000  1
  P  P6  1  0.558599  0.639797  0.000000  1
  P  P7  1  0.360203  0.918801  0.000000  1
  P  P8  1  0.780191  0.054217  0.500000  1
  P  P9  1  0.945783  0.725973  0.500000  1
  P  P10  1  0.274027  0.219809  0.500000  1
  P  P11  1  0.666667  0.333333  0.000000  1
  Ru  Ru12  1  0.087265  0.691411  0.000000  1
  Ru  Ru13  1  0.308589  0.395854  0.000000  1
  Ru  Ru14  1  0.604146  0.912735  0.000000  1
  Ru  Ru15  1  0.054243  0.285319  0.500000  1
  Ru  Ru16  1  0.714681  0.768924  0.500000  1
  Ru  Ru17  1  0.231076  0.945757  0.500000  1
  Ru  Ru18  1  0.869655  0.448441  0.500000  1
  Ru  Ru19  1  0.551559  0.421214  0.500000  1
  Ru  Ru20  1  0.578786  0.130345  0.500000  1
