# generated using pymatgen
data_Tb2NdHo(Mo2O7)2
_symmetry_space_group_name_H-M   'P 1'
_cell_length_a   7.37348500
_cell_length_b   7.46836163
_cell_length_c   7.37327001
_cell_angle_alpha   60.26993938
_cell_angle_beta   59.67905906
_cell_angle_gamma   60.27363572
_symmetry_Int_Tables_number   1
_chemical_formula_structural   Tb2NdHo(Mo2O7)2
_chemical_formula_sum   'Tb2 Nd1 Ho1 Mo4 O14'
_cell_volume   287.56912394
_cell_formula_units_Z   1
loop_
 _symmetry_equiv_pos_site_id
 _symmetry_equiv_pos_as_xyz
  1  'x, y, z'
loop_
 _atom_site_type_symbol
 _atom_site_label
 _atom_site_symmetry_multiplicity
 _atom_site_fract_x
 _atom_site_fract_y
 _atom_site_fract_z
 _atom_site_occupancy
  Tb  Tb0  1  0.625000  0.125000  0.125000  1
  Tb  Tb1  1  0.125000  0.125000  0.625000  1
  Nd  Nd2  1  0.125000  0.625000  0.125000  1
  Ho  Ho3  1  0.125000  0.125000  0.125000  1
  Mo  Mo4  1  0.625000  0.625000  0.625000  1
  Mo  Mo5  1  0.125000  0.625000  0.625000  1
  Mo  Mo6  1  0.625000  0.625000  0.125000  1
  Mo  Mo7  1  0.625000  0.125000  0.625000  1
  O  O8  1  0.000784  0.005267  0.000799  1
  O  O9  1  0.249216  0.244733  0.249201  1
  O  O10  1  0.287464  0.286134  0.710864  1
  O  O11  1  0.544129  0.533841  0.962165  1
  O  O12  1  0.716788  0.286269  0.716637  1
  O  O13  1  0.710765  0.286125  0.287448  1
  O  O14  1  0.287718  0.716210  0.705860  1
  O  O15  1  0.287178  0.722260  0.287076  1
  O  O16  1  0.705871  0.716159  0.287835  1
  O  O17  1  0.962282  0.533790  0.544140  1
  O  O18  1  0.539235  0.963875  0.962552  1
  O  O19  1  0.962536  0.963866  0.539136  1
  O  O20  1  0.962822  0.527740  0.962924  1
  O  O21  1  0.533212  0.963731  0.533363  1
