# generated using pymatgen
data_Pr2Ho3Si4
_symmetry_space_group_name_H-M   'P 1'
_cell_length_a   7.51268100
_cell_length_b   7.78873500
_cell_length_c   14.78911000
_cell_angle_alpha   90.00000000
_cell_angle_beta   90.00000000
_cell_angle_gamma   90.00000000
_symmetry_Int_Tables_number   1
_chemical_formula_structural   Pr2Ho3Si4
_chemical_formula_sum   'Pr8 Ho12 Si16'
_cell_volume   865.37414491
_cell_formula_units_Z   4
loop_
 _symmetry_equiv_pos_site_id
 _symmetry_equiv_pos_as_xyz
  1  'x, y, z'
loop_
 _atom_site_type_symbol
 _atom_site_label
 _atom_site_symmetry_multiplicity
 _atom_site_fract_x
 _atom_site_fract_y
 _atom_site_fract_z
 _atom_site_occupancy
  Pr  Pr0  1  0.975919  0.820791  0.097902  1
  Pr  Pr1  1  0.475919  0.679209  0.402098  1
  Pr  Pr2  1  0.524081  0.320791  0.902098  1
  Pr  Pr3  1  0.024081  0.179209  0.597902  1
  Pr  Pr4  1  0.024081  0.179209  0.902098  1
  Pr  Pr5  1  0.524081  0.320791  0.597902  1
  Pr  Pr6  1  0.475919  0.679209  0.097902  1
  Pr  Pr7  1  0.975919  0.820791  0.402098  1
  Ho  Ho8  1  0.649805  0.989559  0.250000  1
  Ho  Ho9  1  0.149805  0.510441  0.250000  1
  Ho  Ho10  1  0.850195  0.489559  0.750000  1
  Ho  Ho11  1  0.350195  0.010441  0.750000  1
  Ho  Ho12  1  0.680896  0.821754  0.876663  1
  Ho  Ho13  1  0.180896  0.678246  0.623337  1
  Ho  Ho14  1  0.819104  0.321754  0.123337  1
  Ho  Ho15  1  0.319104  0.178246  0.376663  1
  Ho  Ho16  1  0.319104  0.178246  0.123337  1
  Ho  Ho17  1  0.819104  0.321754  0.376663  1
  Ho  Ho18  1  0.180896  0.678246  0.876663  1
  Ho  Ho19  1  0.680896  0.821754  0.623337  1
  Si  Si20  1  0.768963  0.620579  0.250000  1
  Si  Si21  1  0.268963  0.879421  0.250000  1
  Si  Si22  1  0.731037  0.120579  0.750000  1
  Si  Si23  1  0.231037  0.379421  0.750000  1
  Si  Si24  1  0.024156  0.111898  0.250000  1
  Si  Si25  1  0.524156  0.388102  0.250000  1
  Si  Si26  1  0.475844  0.611898  0.750000  1
  Si  Si27  1  0.975844  0.888102  0.750000  1
  Si  Si28  1  0.855960  0.531113  0.960019  1
  Si  Si29  1  0.355960  0.968887  0.539981  1
  Si  Si30  1  0.644040  0.031113  0.039981  1
  Si  Si31  1  0.144040  0.468887  0.460019  1
  Si  Si32  1  0.144040  0.468887  0.039981  1
  Si  Si33  1  0.644040  0.031113  0.460019  1
  Si  Si34  1  0.355960  0.968887  0.960019  1
  Si  Si35  1  0.855960  0.531113  0.539981  1
