# generated using pymatgen
data_Cs2Zn(BSe)9
_symmetry_space_group_name_H-M   'P 1'
_cell_length_a   9.98810230
_cell_length_b   10.76675954
_cell_length_c   11.32077600
_cell_angle_alpha   100.23804690
_cell_angle_beta   90.60580412
_cell_angle_gamma   116.28401575
_symmetry_Int_Tables_number   1
_chemical_formula_structural   Cs2Zn(BSe)9
_chemical_formula_sum   'Cs4 Zn2 B18 Se18'
_cell_volume   1068.66721958
_cell_formula_units_Z   2
loop_
 _symmetry_equiv_pos_site_id
 _symmetry_equiv_pos_as_xyz
  1  'x, y, z'
loop_
 _atom_site_type_symbol
 _atom_site_label
 _atom_site_symmetry_multiplicity
 _atom_site_fract_x
 _atom_site_fract_y
 _atom_site_fract_z
 _atom_site_occupancy
  Cs  Cs0  1  0.795089  0.174821  0.002690  1
  Cs  Cs1  1  0.204911  0.825179  0.997310  1
  Cs  Cs2  1  0.173637  0.342879  0.507585  1
  Cs  Cs3  1  0.826363  0.657121  0.492415  1
  Zn  Zn4  1  0.321070  0.315154  0.081686  1
  Zn  Zn5  1  0.678930  0.684846  0.918314  1
  B  B6  1  0.512315  0.161879  0.550446  1
  B  B7  1  0.487685  0.838121  0.449554  1
  B  B8  1  0.662692  0.123859  0.583919  1
  B  B9  1  0.337308  0.876141  0.416081  1
  B  B10  1  0.489019  0.043794  0.648172  1
  B  B11  1  0.510981  0.956206  0.351828  1
  B  B12  1  0.337973  0.005379  0.541298  1
  B  B13  1  0.662027  0.994621  0.458702  1
  B  B14  1  0.417961  0.059473  0.406714  1
  B  B15  1  0.582039  0.940527  0.593286  1
  B  B16  1  0.616856  0.131566  0.433434  1
  B  B17  1  0.383144  0.868434  0.566566  1
  B  B18  1  0.737385  0.415138  0.716551  1
  B  B19  1  0.262615  0.584862  0.283449  1
  B  B20  1  0.262615  0.095714  0.786935  1
  B  B21  1  0.737385  0.904286  0.213065  1
  B  B22  1  0.554279  0.276998  0.256736  1
  B  B23  1  0.445721  0.723002  0.743264  1
  Se  Se24  1  0.545532  0.358833  0.624774  1
  Se  Se25  1  0.454468  0.641167  0.375226  1
  Se  Se26  1  0.834304  0.287580  0.693785  1
  Se  Se27  1  0.165696  0.712420  0.306215  1
  Se  Se28  1  0.457069  0.099985  0.820872  1
  Se  Se29  1  0.542931  0.900015  0.179128  1
  Se  Se30  1  0.166051  0.028311  0.618468  1
  Se  Se31  1  0.833949  0.971689  0.381532  1
  Se  Se32  1  0.350949  0.147314  0.290012  1
  Se  Se33  1  0.649051  0.852686  0.709988  1
  Se  Se34  1  0.732331  0.284066  0.341182  1
  Se  Se35  1  0.267669  0.715934  0.658818  1
  Se  Se36  1  0.847918  0.598628  0.823183  1
  Se  Se37  1  0.152082  0.401372  0.176817  1
  Se  Se38  1  0.151220  0.142424  0.911975  1
  Se  Se39  1  0.848780  0.857576  0.088025  1
  Se  Se40  1  0.583268  0.396071  0.139628  1
  Se  Se41  1  0.416732  0.603929  0.860372  1
