# generated using pymatgen
data_Y3Cd3IrAu2
_symmetry_space_group_name_H-M   'P 1'
_cell_length_a   7.88349500
_cell_length_b   7.88349480
_cell_length_c   3.79948300
_cell_angle_alpha   90.00000000
_cell_angle_beta   90.00000000
_cell_angle_gamma   119.99999664
_symmetry_Int_Tables_number   1
_chemical_formula_structural   Y3Cd3IrAu2
_chemical_formula_sum   'Y3 Cd3 Ir1 Au2'
_cell_volume   204.49972776
_cell_formula_units_Z   1
loop_
 _symmetry_equiv_pos_site_id
 _symmetry_equiv_pos_as_xyz
  1  'x, y, z'
loop_
 _atom_site_type_symbol
 _atom_site_label
 _atom_site_symmetry_multiplicity
 _atom_site_fract_x
 _atom_site_fract_y
 _atom_site_fract_z
 _atom_site_occupancy
  Y  Y0  1  0.582247  0.972788  0.000000  1
  Y  Y1  1  0.027212  0.609459  0.000000  1
  Y  Y2  1  0.390541  0.417753  0.000000  1
  Cd  Cd3  1  0.269575  0.003358  0.500000  1
  Cd  Cd4  1  0.996642  0.266217  0.500000  1
  Cd  Cd5  1  0.733783  0.730425  0.500000  1
  Ir  Ir6  1  0.333333  0.666667  0.500000  1
  Au  Au7  1  0.666667  0.333333  0.500000  1
  Au  Au8  1  0.000000  0.000000  0.000000  1
