# generated using pymatgen
data_DyHo15Cd4Co3Ni
_symmetry_space_group_name_H-M   'P 1'
_cell_length_a   9.46159994
_cell_length_b   9.46550714
_cell_length_c   9.47825400
_cell_angle_alpha   59.95544971
_cell_angle_beta   59.94176381
_cell_angle_gamma   59.99911889
_symmetry_Int_Tables_number   1
_chemical_formula_structural   DyHo15Cd4Co3Ni
_chemical_formula_sum   'Dy1 Ho15 Cd4 Co3 Ni1'
_cell_volume   599.76499232
_cell_formula_units_Z   1
loop_
 _symmetry_equiv_pos_site_id
 _symmetry_equiv_pos_as_xyz
  1  'x, y, z'
loop_
 _atom_site_type_symbol
 _atom_site_label
 _atom_site_symmetry_multiplicity
 _atom_site_fract_x
 _atom_site_fract_y
 _atom_site_fract_z
 _atom_site_occupancy
  Dy  Dy0  1  0.937316  0.937765  0.562460  1
  Ho  Ho1  1  0.814454  0.187495  0.189380  1
  Ho  Ho2  1  0.937742  0.561585  0.562914  1
  Ho  Ho3  1  0.937742  0.561585  0.937759  1
  Ho  Ho4  1  0.815066  0.807896  0.188519  1
  Ho  Ho5  1  0.344929  0.348808  0.346465  1
  Ho  Ho6  1  0.559857  0.938475  0.937575  1
  Ho  Ho7  1  0.559857  0.938475  0.564094  1
  Ho  Ho8  1  0.186966  0.811316  0.812283  1
  Ho  Ho9  1  0.187968  0.188507  0.811762  1
  Ho  Ho10  1  0.344929  0.348808  0.959801  1
  Ho  Ho11  1  0.345941  0.958271  0.347895  1
  Ho  Ho12  1  0.814454  0.187495  0.808671  1
  Ho  Ho13  1  0.561416  0.564216  0.937184  1
  Ho  Ho14  1  0.186966  0.811316  0.189435  1
  Ho  Ho15  1  0.961700  0.346798  0.345752  1
  Cd  Cd16  1  0.580060  0.580198  0.258870  1
  Cd  Cd17  1  0.256516  0.580815  0.581335  1
  Cd  Cd18  1  0.580060  0.580198  0.580873  1
  Cd  Cd19  1  0.580519  0.257646  0.580918  1
  Co  Co20  1  0.143660  0.142001  0.139374  1
  Co  Co21  1  0.143173  0.576223  0.140303  1
  Co  Co22  1  0.143660  0.142001  0.574967  1
  Ni  Ni23  1  0.575054  0.142114  0.141417  1
