# generated using pymatgen
data_Nd4Sm4Si13Ge
_symmetry_space_group_name_H-M   'P 1'
_cell_length_a   7.46558569
_cell_length_b   7.46558583
_cell_length_c   11.67560561
_cell_angle_alpha   89.98454204
_cell_angle_beta   89.98453911
_cell_angle_gamma   134.02969311
_symmetry_Int_Tables_number   1
_chemical_formula_structural   Nd4Sm4Si13Ge
_chemical_formula_sum   'Nd4 Sm4 Si13 Ge1'
_cell_volume   467.86840666
_cell_formula_units_Z   1
loop_
 _symmetry_equiv_pos_site_id
 _symmetry_equiv_pos_as_xyz
  1  'x, y, z'
loop_
 _atom_site_type_symbol
 _atom_site_label
 _atom_site_symmetry_multiplicity
 _atom_site_fract_x
 _atom_site_fract_y
 _atom_site_fract_z
 _atom_site_occupancy
  Nd  Nd0  1  0.497742  0.992065  0.377215  1
  Nd  Nd1  1  0.992423  0.496214  0.622570  1
  Nd  Nd2  1  0.503786  0.007577  0.877430  1
  Nd  Nd3  1  0.007935  0.502258  0.122785  1
  Sm  Sm4  1  0.997976  0.002024  0.250000  1
  Sm  Sm5  1  0.001644  0.998356  0.750000  1
  Sm  Sm6  1  0.501824  0.500213  0.497153  1
  Sm  Sm7  1  0.499787  0.498176  0.002847  1
  Si  Si8  1  0.915267  0.086072  0.994830  1
  Si  Si9  1  0.082572  0.911564  0.004720  1
  Si  Si10  1  0.088436  0.917428  0.495280  1
  Si  Si11  1  0.913928  0.084733  0.505170  1
  Si  Si12  1  0.577041  0.910011  0.128187  1
  Si  Si13  1  0.913069  0.575579  0.871816  1
  Si  Si14  1  0.424421  0.086931  0.628184  1
  Si  Si15  1  0.089989  0.422959  0.371813  1
  Si  Si16  1  0.435776  0.115819  0.137142  1
  Si  Si17  1  0.125024  0.439242  0.861245  1
  Si  Si18  1  0.560758  0.874976  0.638755  1
  Si  Si19  1  0.884181  0.564224  0.362858  1
  Si  Si20  1  0.431904  0.568096  0.250000  1
  Ge  Ge21  1  0.554515  0.445485  0.750000  1
