# generated using pymatgen
data_Dy7HoV4O20
_symmetry_space_group_name_H-M   'P 1'
_cell_length_a   3.73238500
_cell_length_b   10.39155863
_cell_length_c   11.26254168
_cell_angle_alpha   90.03988687
_cell_angle_beta   90.00000000
_cell_angle_gamma   90.00000000
_symmetry_Int_Tables_number   1
_chemical_formula_structural   Dy7HoV4O20
_chemical_formula_sum   'Dy7 Ho1 V4 O20'
_cell_volume   436.82092453
_cell_formula_units_Z   1
loop_
 _symmetry_equiv_pos_site_id
 _symmetry_equiv_pos_as_xyz
  1  'x, y, z'
loop_
 _atom_site_type_symbol
 _atom_site_label
 _atom_site_symmetry_multiplicity
 _atom_site_fract_x
 _atom_site_fract_y
 _atom_site_fract_z
 _atom_site_occupancy
  Dy  Dy0  1  0.250000  0.119224  0.273605  1
  Dy  Dy1  1  0.250000  0.136631  0.944283  1
  Dy  Dy2  1  0.750000  0.362957  0.444936  1
  Dy  Dy3  1  0.750000  0.380821  0.773629  1
  Dy  Dy4  1  0.250000  0.619164  0.226398  1
  Dy  Dy5  1  0.250000  0.637245  0.555541  1
  Dy  Dy6  1  0.750000  0.862978  0.055081  1
  Ho  Ho7  1  0.750000  0.880384  0.726552  1
  V  V8  1  0.250000  0.170302  0.618314  1
  V  V9  1  0.750000  0.329060  0.118134  1
  V  V10  1  0.250000  0.671192  0.881560  1
  V  V11  1  0.750000  0.829303  0.382105  1
  O  O12  1  0.750000  0.005150  0.893940  1
  O  O13  1  0.250000  0.007632  0.654721  1
  O  O14  1  0.250000  0.225904  0.456973  1
  O  O15  1  0.750000  0.234436  0.615511  1
  O  O16  1  0.750000  0.241986  0.268908  1
  O  O17  1  0.250000  0.258161  0.768791  1
  O  O18  1  0.250000  0.265243  0.115560  1
  O  O19  1  0.750000  0.273451  0.956692  1
  O  O20  1  0.750000  0.491929  0.153983  1
  O  O21  1  0.250000  0.494266  0.394783  1
  O  O22  1  0.750000  0.505945  0.605384  1
  O  O23  1  0.250000  0.508397  0.845570  1
  O  O24  1  0.250000  0.726126  0.043068  1
  O  O25  1  0.750000  0.734825  0.883923  1
  O  O26  1  0.750000  0.742030  0.231244  1
  O  O27  1  0.250000  0.759191  0.731255  1
  O  O28  1  0.250000  0.765411  0.384687  1
  O  O29  1  0.750000  0.774459  0.543793  1
  O  O30  1  0.750000  0.991960  0.346003  1
  O  O31  1  0.250000  0.994235  0.105073  1
