# generated using pymatgen
data_TbPr2SmSe6
_symmetry_space_group_name_H-M   'P 1'
_cell_length_a   4.19174100
_cell_length_b   11.15241444
_cell_length_c   11.46395300
_cell_angle_alpha   90.68346082
_cell_angle_beta   90.00000000
_cell_angle_gamma   90.00000000
_symmetry_Int_Tables_number   1
_chemical_formula_structural   TbPr2SmSe6
_chemical_formula_sum   'Tb2 Pr4 Sm2 Se12'
_cell_volume   535.87912361
_cell_formula_units_Z   2
loop_
 _symmetry_equiv_pos_site_id
 _symmetry_equiv_pos_as_xyz
  1  'x, y, z'
loop_
 _atom_site_type_symbol
 _atom_site_label
 _atom_site_symmetry_multiplicity
 _atom_site_fract_x
 _atom_site_fract_y
 _atom_site_fract_z
 _atom_site_occupancy
  Tb  Tb0  1  0.250000  0.312954  0.509581  1
  Tb  Tb1  1  0.750000  0.687046  0.490419  1
  Pr  Pr2  1  0.250000  0.000788  0.693718  1
  Pr  Pr3  1  0.750000  0.999212  0.306282  1
  Pr  Pr4  1  0.750000  0.495620  0.803423  1
  Pr  Pr5  1  0.250000  0.504380  0.196577  1
  Sm  Sm6  1  0.750000  0.812455  0.986995  1
  Sm  Sm7  1  0.250000  0.187545  0.013005  1
  Se  Se8  1  0.750000  0.055527  0.883696  1
  Se  Se9  1  0.250000  0.944473  0.116304  1
  Se  Se10  1  0.250000  0.553906  0.614526  1
  Se  Se11  1  0.750000  0.446094  0.385474  1
  Se  Se12  1  0.250000  0.867312  0.457212  1
  Se  Se13  1  0.750000  0.132688  0.542788  1
  Se  Se14  1  0.750000  0.372649  0.045092  1
  Se  Se15  1  0.250000  0.627351  0.954908  1
  Se  Se16  1  0.250000  0.296487  0.768459  1
  Se  Se17  1  0.750000  0.703513  0.231541  1
  Se  Se18  1  0.750000  0.800015  0.726696  1
  Se  Se19  1  0.250000  0.199985  0.273304  1
