# generated using pymatgen
data_Ta2Nb4Co6Ge
_symmetry_space_group_name_H-M   'P 1'
_cell_length_a   4.93951001
_cell_length_b   4.93951001
_cell_length_c   9.08338874
_cell_angle_alpha   74.22274850
_cell_angle_beta   74.22274847
_cell_angle_gamma   59.99998664
_symmetry_Int_Tables_number   1
_chemical_formula_structural   Ta2Nb4Co6Ge
_chemical_formula_sum   'Ta2 Nb4 Co6 Ge1'
_cell_volume   182.22663659
_cell_formula_units_Z   1
loop_
 _symmetry_equiv_pos_site_id
 _symmetry_equiv_pos_as_xyz
  1  'x, y, z'
loop_
 _atom_site_type_symbol
 _atom_site_label
 _atom_site_symmetry_multiplicity
 _atom_site_fract_x
 _atom_site_fract_y
 _atom_site_fract_z
 _atom_site_occupancy
  Ta  Ta0  1  0.169444  0.169444  0.491666  1
  Ta  Ta1  1  0.830556  0.830556  0.508334  1
  Nb  Nb2  1  0.347191  0.347191  0.958425  1
  Nb  Nb3  1  0.652809  0.652809  0.041575  1
  Nb  Nb4  1  0.450242  0.450242  0.649272  1
  Nb  Nb5  1  0.549758  0.549758  0.350728  1
  Co  Co6  1  0.587649  0.089496  0.233359  1
  Co  Co7  1  0.089496  0.089496  0.233359  1
  Co  Co8  1  0.089496  0.587649  0.233359  1
  Co  Co9  1  0.412351  0.910504  0.766641  1
  Co  Co10  1  0.910504  0.910504  0.766641  1
  Co  Co11  1  0.910504  0.412351  0.766641  1
  Ge  Ge12  1  0.000000  0.000000  0.000000  1
