# generated using pymatgen
data_KNpCuTe3
_symmetry_space_group_name_H-M   'P 1'
_cell_length_a   4.36139000
_cell_length_b   8.29384512
_cell_length_c   11.36603800
_cell_angle_alpha   90.00000000
_cell_angle_beta   90.00000000
_cell_angle_gamma   74.75605152
_symmetry_Int_Tables_number   1
_chemical_formula_structural   KNpCuTe3
_chemical_formula_sum   'K2 Np2 Cu2 Te6'
_cell_volume   396.67427767
_cell_formula_units_Z   2
loop_
 _symmetry_equiv_pos_site_id
 _symmetry_equiv_pos_as_xyz
  1  'x, y, z'
loop_
 _atom_site_type_symbol
 _atom_site_label
 _atom_site_symmetry_multiplicity
 _atom_site_fract_x
 _atom_site_fract_y
 _atom_site_fract_z
 _atom_site_occupancy
  K  K0  1  0.250187  0.499627  0.249252  1
  K  K1  1  0.749813  0.500373  0.749252  1
  Np  Np2  1  0.998498  0.003003  0.494306  1
  Np  Np3  1  0.001502  0.996997  0.994306  1
  Cu  Cu4  1  0.530005  0.939989  0.244870  1
  Cu  Cu5  1  0.469995  0.060011  0.744870  1
  Te  Te6  1  0.625077  0.749847  0.432519  1
  Te  Te7  1  0.372428  0.255144  0.559408  1
  Te  Te8  1  0.627572  0.744856  0.059408  1
  Te  Te9  1  0.374923  0.250153  0.932519  1
  Te  Te10  1  0.932830  0.134340  0.243556  1
  Te  Te11  1  0.067170  0.865660  0.743556  1
