# generated using pymatgen
data_YbY3TcOs7
_symmetry_space_group_name_H-M   'P 1'
_cell_length_a   5.30240569
_cell_length_b   5.30240504
_cell_length_c   8.85622404
_cell_angle_alpha   89.99166234
_cell_angle_beta   90.00833974
_cell_angle_gamma   119.05906382
_symmetry_Int_Tables_number   1
_chemical_formula_structural   YbY3TcOs7
_chemical_formula_sum   'Yb1 Y3 Tc1 Os7'
_cell_volume   217.65328991
_cell_formula_units_Z   1
loop_
 _symmetry_equiv_pos_site_id
 _symmetry_equiv_pos_as_xyz
  1  'x, y, z'
loop_
 _atom_site_type_symbol
 _atom_site_label
 _atom_site_symmetry_multiplicity
 _atom_site_fract_x
 _atom_site_fract_y
 _atom_site_fract_z
 _atom_site_occupancy
  Yb  Yb0  1  0.331646  0.668354  0.438011  1
  Y  Y1  1  0.665490  0.334510  0.560836  1
  Y  Y2  1  0.665609  0.334391  0.934612  1
  Y  Y3  1  0.331121  0.668879  0.068432  1
  Tc  Tc4  1  0.832231  0.167769  0.250711  1
  Os  Os5  1  0.995508  0.004492  0.499538  1
  Os  Os6  1  0.994113  0.005887  0.998997  1
  Os  Os7  1  0.827244  0.653047  0.249775  1
  Os  Os8  1  0.346953  0.172756  0.249775  1
  Os  Os9  1  0.178026  0.821974  0.750458  1
  Os  Os10  1  0.171627  0.339567  0.749428  1
  Os  Os11  1  0.660433  0.828373  0.749428  1
