# generated using pymatgen
data_Y4Er5TmRu4
_symmetry_space_group_name_H-M   'P 1'
_cell_length_a   6.31833555
_cell_length_b   7.27536978
_cell_length_c   8.44302147
_cell_angle_alpha   96.80591161
_cell_angle_beta   111.97333824
_cell_angle_gamma   89.99999944
_symmetry_Int_Tables_number   1
_chemical_formula_structural   Y4Er5TmRu4
_chemical_formula_sum   'Y4 Er5 Tm1 Ru4'
_cell_volume   356.96677897
_cell_formula_units_Z   1
loop_
 _symmetry_equiv_pos_site_id
 _symmetry_equiv_pos_as_xyz
  1  'x, y, z'
loop_
 _atom_site_type_symbol
 _atom_site_label
 _atom_site_symmetry_multiplicity
 _atom_site_fract_x
 _atom_site_fract_y
 _atom_site_fract_z
 _atom_site_occupancy
  Y  Y0  1  0.789795  0.082954  0.812416  1
  Y  Y1  1  0.977380  0.417046  0.187584  1
  Y  Y2  1  0.210037  0.916613  0.187587  1
  Y  Y3  1  0.022450  0.583387  0.812413  1
  Er  Er4  1  0.204856  0.184368  0.565598  1
  Er  Er5  1  0.639258  0.315632  0.434402  1
  Er  Er6  1  0.795216  0.815485  0.434109  1
  Er  Er7  1  0.361107  0.684515  0.565891  1
  Er  Er8  1  0.420654  0.250000  0.000000  1
  Tm  Tm9  1  0.578618  0.750000  0.000000  1
  Ru  Ru10  1  0.597967  0.425210  0.778676  1
  Ru  Ru11  1  0.819290  0.074790  0.221324  1
  Ru  Ru12  1  0.402466  0.575305  0.221561  1
  Ru  Ru13  1  0.180906  0.924695  0.778439  1
