# generated using pymatgen
data_Tb2HoMg3AgPb2
_symmetry_space_group_name_H-M   'P 1'
_cell_length_a   7.55434083
_cell_length_b   7.55434046
_cell_length_c   4.59403500
_cell_angle_alpha   90.00000000
_cell_angle_beta   90.00000000
_cell_angle_gamma   119.87035931
_symmetry_Int_Tables_number   1
_chemical_formula_structural   Tb2HoMg3AgPb2
_chemical_formula_sum   'Tb2 Ho1 Mg3 Ag1 Pb2'
_cell_volume   227.34422047
_cell_formula_units_Z   1
loop_
 _symmetry_equiv_pos_site_id
 _symmetry_equiv_pos_as_xyz
  1  'x, y, z'
loop_
 _atom_site_type_symbol
 _atom_site_label
 _atom_site_symmetry_multiplicity
 _atom_site_fract_x
 _atom_site_fract_y
 _atom_site_fract_z
 _atom_site_occupancy
  Tb  Tb0  1  0.587086  0.999724  0.000000  1
  Tb  Tb1  1  0.999724  0.587086  0.000000  1
  Ho  Ho2  1  0.412215  0.412215  0.000000  1
  Mg  Mg3  1  0.234045  0.000215  0.500000  1
  Mg  Mg4  1  0.000215  0.234045  0.500000  1
  Mg  Mg5  1  0.765975  0.765975  0.500000  1
  Ag  Ag6  1  0.001075  0.001075  0.000000  1
  Pb  Pb7  1  0.333785  0.665880  0.500000  1
  Pb  Pb8  1  0.665880  0.333785  0.500000  1
