# generated using pymatgen
data_Ho2TiBe2Ir5
_symmetry_space_group_name_H-M   'P 1'
_cell_length_a   9.69720100
_cell_length_b   9.69720100
_cell_length_c   3.21657600
_cell_angle_alpha   90.00000000
_cell_angle_beta   90.00000000
_cell_angle_gamma   90.00000000
_symmetry_Int_Tables_number   1
_chemical_formula_structural   Ho2TiBe2Ir5
_chemical_formula_sum   'Ho4 Ti2 Be4 Ir10'
_cell_volume   302.47299903
_cell_formula_units_Z   2
loop_
 _symmetry_equiv_pos_site_id
 _symmetry_equiv_pos_as_xyz
  1  'x, y, z'
loop_
 _atom_site_type_symbol
 _atom_site_label
 _atom_site_symmetry_multiplicity
 _atom_site_fract_x
 _atom_site_fract_y
 _atom_site_fract_z
 _atom_site_occupancy
  Ho  Ho0  1  0.675894  0.175894  0.000000  1
  Ho  Ho1  1  0.324106  0.824106  0.000000  1
  Ho  Ho2  1  0.175894  0.324106  0.000000  1
  Ho  Ho3  1  0.824106  0.675894  0.000000  1
  Ti  Ti4  1  0.000000  0.000000  0.000000  1
  Ti  Ti5  1  0.500000  0.500000  0.000000  1
  Be  Be6  1  0.122157  0.622157  0.000000  1
  Be  Be7  1  0.877843  0.377843  0.000000  1
  Be  Be8  1  0.622157  0.877843  0.000000  1
  Be  Be9  1  0.377843  0.122157  0.000000  1
  Ir  Ir10  1  0.211637  0.067463  0.500000  1
  Ir  Ir11  1  0.788363  0.932537  0.500000  1
  Ir  Ir12  1  0.067463  0.788363  0.500000  1
  Ir  Ir13  1  0.711637  0.432537  0.500000  1
  Ir  Ir14  1  0.932537  0.211637  0.500000  1
  Ir  Ir15  1  0.288363  0.567463  0.500000  1
  Ir  Ir16  1  0.567463  0.711637  0.500000  1
  Ir  Ir17  1  0.432537  0.288363  0.500000  1
  Ir  Ir18  1  0.500000  0.000000  0.500000  1
  Ir  Ir19  1  0.000000  0.500000  0.500000  1
