# generated using pymatgen
data_Ca2CeNd(NiB4)4
_symmetry_space_group_name_H-M   'P 1'
_cell_length_a   6.90227121
_cell_length_b   6.90227176
_cell_length_c   6.90227141
_cell_angle_alpha   112.76335491
_cell_angle_beta   112.76335545
_cell_angle_gamma   103.07040415
_symmetry_Int_Tables_number   1
_chemical_formula_structural   Ca2CeNd(NiB4)4
_chemical_formula_sum   'Ca2 Ce1 Nd1 Ni4 B16'
_cell_volume   250.80314260
_cell_formula_units_Z   1
loop_
 _symmetry_equiv_pos_site_id
 _symmetry_equiv_pos_as_xyz
  1  'x, y, z'
loop_
 _atom_site_type_symbol
 _atom_site_label
 _atom_site_symmetry_multiplicity
 _atom_site_fract_x
 _atom_site_fract_y
 _atom_site_fract_z
 _atom_site_occupancy
  Ca  Ca0  1  0.796150  0.796150  0.000000  1
  Ca  Ca1  1  0.203850  0.203850  0.000000  1
  Ce  Ce2  1  0.750000  0.250000  0.500000  1
  Nd  Nd3  1  0.250000  0.750000  0.500000  1
  Ni  Ni4  1  0.273275  0.499711  0.773564  1
  Ni  Ni5  1  0.726147  0.499711  0.226436  1
  Ni  Ni6  1  0.500289  0.726725  0.226436  1
  Ni  Ni7  1  0.500289  0.273853  0.773564  1
  B  B8  1  0.277594  0.113405  0.389522  1
  B  B9  1  0.723883  0.888072  0.610478  1
  B  B10  1  0.277594  0.888072  0.164190  1
  B  B11  1  0.723883  0.113405  0.835810  1
  B  B12  1  0.111928  0.722406  0.835810  1
  B  B13  1  0.886595  0.276117  0.164190  1
  B  B14  1  0.111928  0.276117  0.389522  1
  B  B15  1  0.886595  0.722406  0.610478  1
  B  B16  1  0.111797  0.112823  0.527708  1
  B  B17  1  0.585114  0.584088  0.472292  1
  B  B18  1  0.111797  0.584088  0.998974  1
  B  B19  1  0.585114  0.112823  0.001026  1
  B  B20  1  0.887177  0.888203  0.472292  1
  B  B21  1  0.415912  0.414886  0.527708  1
  B  B22  1  0.887178  0.414886  0.998974  1
  B  B23  1  0.415912  0.888204  0.001026  1
