# generated using pymatgen
data_Hf6Sc8Al8Rh7
_symmetry_space_group_name_H-M   'P 1'
_cell_length_a   9.07383335
_cell_length_b   9.07383357
_cell_length_c   9.07383300
_cell_angle_alpha   59.99999844
_cell_angle_beta   59.99999762
_cell_angle_gamma   59.99999923
_symmetry_Int_Tables_number   1
_chemical_formula_structural   Hf6Sc8Al8Rh7
_chemical_formula_sum   'Hf6 Sc8 Al8 Rh7'
_cell_volume   528.27173755
_cell_formula_units_Z   1
loop_
 _symmetry_equiv_pos_site_id
 _symmetry_equiv_pos_as_xyz
  1  'x, y, z'
loop_
 _atom_site_type_symbol
 _atom_site_label
 _atom_site_symmetry_multiplicity
 _atom_site_fract_x
 _atom_site_fract_y
 _atom_site_fract_z
 _atom_site_occupancy
  Hf  Hf0  1  0.674301  0.674301  0.325699  1
  Hf  Hf1  1  0.325699  0.674301  0.325699  1
  Hf  Hf2  1  0.674301  0.325699  0.325699  1
  Hf  Hf3  1  0.325699  0.325699  0.674301  1
  Hf  Hf4  1  0.674301  0.325699  0.674301  1
  Hf  Hf5  1  0.325699  0.674301  0.674301  1
  Sc  Sc6  1  0.877379  0.877379  0.367863  1
  Sc  Sc7  1  0.877379  0.367863  0.877379  1
  Sc  Sc8  1  0.367863  0.877379  0.877379  1
  Sc  Sc9  1  0.877379  0.877379  0.877379  1
  Sc  Sc10  1  0.122621  0.122621  0.632137  1
  Sc  Sc11  1  0.122621  0.632137  0.122621  1
  Sc  Sc12  1  0.632137  0.122621  0.122621  1
  Sc  Sc13  1  0.122621  0.122621  0.122621  1
  Al  Al14  1  0.661461  0.661461  0.015615  1
  Al  Al15  1  0.661461  0.015615  0.661461  1
  Al  Al16  1  0.015615  0.661461  0.661461  1
  Al  Al17  1  0.661461  0.661461  0.661461  1
  Al  Al18  1  0.338539  0.338539  0.984385  1
  Al  Al19  1  0.338539  0.984385  0.338539  1
  Al  Al20  1  0.984385  0.338539  0.338539  1
  Al  Al21  1  0.338539  0.338539  0.338539  1
  Rh  Rh22  1  0.000000  0.000000  0.000000  1
  Rh  Rh23  1  0.000000  0.000000  0.500000  1
  Rh  Rh24  1  0.500000  0.000000  0.500000  1
  Rh  Rh25  1  0.000000  0.500000  0.500000  1
  Rh  Rh26  1  0.500000  0.500000  0.000000  1
  Rh  Rh27  1  0.000000  0.500000  0.000000  1
  Rh  Rh28  1  0.500000  0.000000  0.000000  1
