# generated using pymatgen
data_TbHo3Ga20Pt11
_symmetry_space_group_name_H-M   'P 1'
_cell_length_a   4.23259559
_cell_length_b   10.88792673
_cell_length_c   13.81060400
_cell_angle_alpha   81.50888046
_cell_angle_beta   81.05064973
_cell_angle_gamma   78.59434851
_symmetry_Int_Tables_number   1
_chemical_formula_structural   TbHo3Ga20Pt11
_chemical_formula_sum   'Tb1 Ho3 Ga20 Pt11'
_cell_volume   611.77970506
_cell_formula_units_Z   1
loop_
 _symmetry_equiv_pos_site_id
 _symmetry_equiv_pos_as_xyz
  1  'x, y, z'
loop_
 _atom_site_type_symbol
 _atom_site_label
 _atom_site_symmetry_multiplicity
 _atom_site_fract_x
 _atom_site_fract_y
 _atom_site_fract_z
 _atom_site_occupancy
  Tb  Tb0  1  0.226472  0.371455  0.178246  1
  Ho  Ho1  1  0.124370  0.087539  0.664210  1
  Ho  Ho2  1  0.875459  0.912486  0.335728  1
  Ho  Ho3  1  0.773510  0.628552  0.821814  1
  Ga  Ga4  1  0.011987  0.066893  0.908996  1
  Ga  Ga5  1  0.988341  0.933078  0.090257  1
  Ga  Ga6  1  0.063899  0.678088  0.193618  1
  Ga  Ga7  1  0.936192  0.322081  0.806688  1
  Ga  Ga8  1  0.103107  0.341875  0.454661  1
  Ga  Ga9  1  0.897016  0.657972  0.545683  1
  Ga  Ga10  1  0.199391  0.605017  0.992416  1
  Ga  Ga11  1  0.800934  0.395315  0.007018  1
  Ga  Ga12  1  0.259061  0.779868  0.698467  1
  Ga  Ga13  1  0.741016  0.219603  0.302001  1
  Ga  Ga14  1  0.302375  0.899864  0.495385  1
  Ga  Ga15  1  0.697693  0.099734  0.504745  1
  Ga  Ga16  1  0.384259  0.524560  0.700024  1
  Ga  Ga17  1  0.614970  0.475773  0.300822  1
  Ga  Ga18  1  0.396692  0.201752  0.001706  1
  Ga  Ga19  1  0.603671  0.797839  0.997823  1
  Ga  Ga20  1  0.544825  0.281736  0.628863  1
  Ga  Ga21  1  0.455163  0.718555  0.370982  1
  Ga  Ga22  1  0.641616  0.931165  0.790490  1
  Ga  Ga23  1  0.358366  0.068466  0.209333  1
  Pt  Pt24  1  0.499328  0.500802  0.500521  1
  Pt  Pt25  1  0.029352  0.577835  0.370136  1
  Pt  Pt26  1  0.970329  0.422189  0.630290  1
  Pt  Pt27  1  0.145888  0.830373  0.885008  1
  Pt  Pt28  1  0.854296  0.169061  0.114768  1
  Pt  Pt29  1  0.241877  0.127310  0.392201  1
  Pt  Pt30  1  0.758258  0.872349  0.607843  1
  Pt  Pt31  1  0.346341  0.419646  0.890893  1
  Pt  Pt32  1  0.653755  0.581068  0.108837  1
  Pt  Pt33  1  0.507490  0.166307  0.817499  1
  Pt  Pt34  1  0.492701  0.833791  0.182029  1
