# generated using pymatgen
data_SmDyHo2(Mo2O7)2
_symmetry_space_group_name_H-M   'P 1'
_cell_length_a   7.41836288
_cell_length_b   7.41836192
_cell_length_c   7.45405766
_cell_angle_alpha   59.21346002
_cell_angle_beta   59.21346823
_cell_angle_gamma   58.92989432
_symmetry_Int_Tables_number   1
_chemical_formula_structural   SmDyHo2(Mo2O7)2
_chemical_formula_sum   'Sm1 Dy1 Ho2 Mo4 O14'
_cell_volume   284.23378859
_cell_formula_units_Z   1
loop_
 _symmetry_equiv_pos_site_id
 _symmetry_equiv_pos_as_xyz
  1  'x, y, z'
loop_
 _atom_site_type_symbol
 _atom_site_label
 _atom_site_symmetry_multiplicity
 _atom_site_fract_x
 _atom_site_fract_y
 _atom_site_fract_z
 _atom_site_occupancy
  Sm  Sm0  1  0.125000  0.125000  0.125000  1
  Dy  Dy1  1  0.125000  0.125000  0.625000  1
  Ho  Ho2  1  0.625000  0.125000  0.125000  1
  Ho  Ho3  1  0.125000  0.625000  0.125000  1
  Mo  Mo4  1  0.625000  0.625000  0.625000  1
  Mo  Mo5  1  0.125000  0.625000  0.625000  1
  Mo  Mo6  1  0.625000  0.125000  0.625000  1
  Mo  Mo7  1  0.625000  0.625000  0.125000  1
  O  O8  1  0.286225  0.286225  0.706607  1
  O  O9  1  0.286194  0.707267  0.288971  1
  O  O10  1  0.963806  0.542733  0.961029  1
  O  O11  1  0.707267  0.286194  0.288971  1
  O  O12  1  0.999856  0.999856  0.997966  1
  O  O13  1  0.532116  0.532116  0.970480  1
  O  O14  1  0.285944  0.710392  0.718432  1
  O  O15  1  0.539608  0.964056  0.531568  1
  O  O16  1  0.542733  0.963806  0.961029  1
  O  O17  1  0.717884  0.717884  0.279520  1
  O  O18  1  0.250144  0.250144  0.252034  1
  O  O19  1  0.963775  0.963775  0.543393  1
  O  O20  1  0.964056  0.539608  0.531568  1
  O  O21  1  0.710392  0.285944  0.718432  1
