# generated using pymatgen
data_Th14Tc4IrPd
_symmetry_space_group_name_H-M   'P 1'
_cell_length_a   9.99858120
_cell_length_b   9.99943962
_cell_length_c   6.33530605
_cell_angle_alpha   89.92394700
_cell_angle_beta   89.84648285
_cell_angle_gamma   119.54658501
_symmetry_Int_Tables_number   1
_chemical_formula_structural   Th14Tc4IrPd
_chemical_formula_sum   'Th14 Tc4 Ir1 Pd1'
_cell_volume   551.02953324
_cell_formula_units_Z   1
loop_
 _symmetry_equiv_pos_site_id
 _symmetry_equiv_pos_as_xyz
  1  'x, y, z'
loop_
 _atom_site_type_symbol
 _atom_site_label
 _atom_site_symmetry_multiplicity
 _atom_site_fract_x
 _atom_site_fract_y
 _atom_site_fract_z
 _atom_site_occupancy
  Th  Th0  1  0.467802  0.544877  0.292582  1
  Th  Th1  1  0.073970  0.541625  0.289082  1
  Th  Th2  1  0.916782  0.458982  0.798374  1
  Th  Th3  1  0.260478  0.125045  0.503247  1
  Th  Th4  1  0.542509  0.081495  0.799704  1
  Th  Th5  1  0.753360  0.876963  0.002343  1
  Th  Th6  1  0.666060  0.333916  0.284875  1
  Th  Th7  1  0.125123  0.875668  0.002754  1
  Th  Th8  1  0.459906  0.917319  0.293821  1
  Th  Th9  1  0.544090  0.461439  0.797512  1
  Th  Th10  1  0.864420  0.120140  0.502927  1
  Th  Th11  1  0.123461  0.244549  0.008790  1
  Th  Th12  1  0.871789  0.748695  0.503965  1
  Th  Th13  1  0.337913  0.672497  0.802480  1
  Tc  Tc14  1  0.815645  0.630069  0.049456  1
  Tc  Tc15  1  0.819396  0.187115  0.047749  1
  Tc  Tc16  1  0.620504  0.809023  0.550995  1
  Tc  Tc17  1  0.368396  0.187387  0.047300  1
  Ir  Ir18  1  0.183732  0.807858  0.551476  1
  Pd  Pd19  1  0.184666  0.375341  0.554568  1
