# generated using pymatgen
data_LiMgAsPd5
_symmetry_space_group_name_H-M   'P 1'
_cell_length_a   4.12298200
_cell_length_b   5.46975161
_cell_length_c   10.65902780
_cell_angle_alpha   90.90379203
_cell_angle_beta   90.00000000
_cell_angle_gamma   90.00000000
_symmetry_Int_Tables_number   1
_chemical_formula_structural   LiMgAsPd5
_chemical_formula_sum   'Li2 Mg2 As2 Pd10'
_cell_volume   240.34915795
_cell_formula_units_Z   2
loop_
 _symmetry_equiv_pos_site_id
 _symmetry_equiv_pos_as_xyz
  1  'x, y, z'
loop_
 _atom_site_type_symbol
 _atom_site_label
 _atom_site_symmetry_multiplicity
 _atom_site_fract_x
 _atom_site_fract_y
 _atom_site_fract_z
 _atom_site_occupancy
  Li  Li0  1  0.500000  0.159992  0.140049  1
  Li  Li1  1  0.500000  0.840008  0.859951  1
  Mg  Mg2  1  0.500000  0.340092  0.646734  1
  Mg  Mg3  1  0.500000  0.659908  0.353266  1
  As  As4  1  0.000000  0.000000  0.500000  1
  As  As5  1  0.000000  0.500000  0.000000  1
  Pd  Pd6  1  0.500000  0.180761  0.392726  1
  Pd  Pd7  1  0.500000  0.819239  0.607274  1
  Pd  Pd8  1  0.500000  0.313224  0.897254  1
  Pd  Pd9  1  0.500000  0.686776  0.102746  1
  Pd  Pd10  1  0.000000  0.412398  0.232470  1
  Pd  Pd11  1  0.000000  0.587602  0.767530  1
  Pd  Pd12  1  0.000000  0.081560  0.739802  1
  Pd  Pd13  1  0.000000  0.918440  0.260198  1
  Pd  Pd14  1  0.000000  0.000000  0.000000  1
  Pd  Pd15  1  0.000000  0.500000  0.500000  1
