# generated using pymatgen
data_Tm2Lu2(Al8Pt3)3
_symmetry_space_group_name_H-M   'P 1'
_cell_length_a   7.50756790
_cell_length_b   7.52633088
_cell_length_c   13.13173149
_cell_angle_alpha   84.60468895
_cell_angle_beta   79.13800969
_cell_angle_gamma   59.96963477
_symmetry_Int_Tables_number   1
_chemical_formula_structural   Tm2Lu2(Al8Pt3)3
_chemical_formula_sum   'Tm2 Lu2 Al24 Pt9'
_cell_volume   630.88589887
_cell_formula_units_Z   1
loop_
 _symmetry_equiv_pos_site_id
 _symmetry_equiv_pos_as_xyz
  1  'x, y, z'
loop_
 _atom_site_type_symbol
 _atom_site_label
 _atom_site_symmetry_multiplicity
 _atom_site_fract_x
 _atom_site_fract_y
 _atom_site_fract_z
 _atom_site_occupancy
  Tm  Tm0  1  0.733951  0.498833  0.807460  1
  Tm  Tm1  1  0.266049  0.501167  0.192540  1
  Lu  Lu2  1  0.393867  0.168557  0.806867  1
  Lu  Lu3  1  0.606133  0.831443  0.193133  1
  Al  Al4  1  0.683625  0.834138  0.944117  1
  Al  Al5  1  0.316375  0.165862  0.055883  1
  Al  Al6  1  0.146559  0.832513  0.561794  1
  Al  Al7  1  0.853441  0.167487  0.438206  1
  Al  Al8  1  0.479650  0.166736  0.558695  1
  Al  Al9  1  0.520350  0.833264  0.441305  1
  Al  Al10  1  0.217801  0.165381  0.328374  1
  Al  Al11  1  0.782199  0.834619  0.671626  1
  Al  Al12  1  0.437137  0.506200  0.671823  1
  Al  Al13  1  0.562863  0.493800  0.328177  1
  Al  Al14  1  0.109049  0.160011  0.670794  1
  Al  Al15  1  0.890951  0.839989  0.329206  1
  Al  Al16  1  0.353624  0.498632  0.943870  1
  Al  Al17  1  0.646376  0.501368  0.056130  1
  Al  Al18  1  0.016247  0.167986  0.951825  1
  Al  Al19  1  0.983753  0.832014  0.048175  1
  Al  Al20  1  0.186793  0.499228  0.441291  1
  Al  Al21  1  0.813207  0.500772  0.558709  1
  Al  Al22  1  0.734077  0.163777  0.183122  1
  Al  Al23  1  0.265923  0.836223  0.816878  1
  Al  Al24  1  0.061330  0.630573  0.815761  1
  Al  Al25  1  0.938670  0.369427  0.184239  1
  Al  Al26  1  0.854385  0.042225  0.816273  1
  Al  Al27  1  0.145615  0.957775  0.183727  1
  Pt  Pt28  1  0.120175  0.490431  0.639616  1
  Pt  Pt29  1  0.879825  0.509569  0.360384  1
  Pt  Pt30  1  0.656696  0.171536  0.999944  1
  Pt  Pt31  1  0.343304  0.828464  0.000056  1
  Pt  Pt32  1  0.537421  0.166289  0.360371  1
  Pt  Pt33  1  0.462579  0.833711  0.639629  1
  Pt  Pt34  1  0.777469  0.175814  0.637744  1
  Pt  Pt35  1  0.222531  0.824186  0.362256  1
  Pt  Pt36  1  0.000000  0.500000  0.000000  1
