# generated using pymatgen
data_YHoOsC2
_symmetry_space_group_name_H-M   'P 1'
_cell_length_a   5.12773900
_cell_length_b   6.45735400
_cell_length_c   9.79038900
_cell_angle_alpha   90.00000000
_cell_angle_beta   90.00000000
_cell_angle_gamma   90.00000000
_symmetry_Int_Tables_number   1
_chemical_formula_structural   YHoOsC2
_chemical_formula_sum   'Y4 Ho4 Os4 C8'
_cell_volume   324.17569840
_cell_formula_units_Z   4
loop_
 _symmetry_equiv_pos_site_id
 _symmetry_equiv_pos_as_xyz
  1  'x, y, z'
loop_
 _atom_site_type_symbol
 _atom_site_label
 _atom_site_symmetry_multiplicity
 _atom_site_fract_x
 _atom_site_fract_y
 _atom_site_fract_z
 _atom_site_occupancy
  Y  Y0  1  0.250000  0.526309  0.218820  1
  Y  Y1  1  0.750000  0.473691  0.781180  1
  Y  Y2  1  0.750000  0.973691  0.718820  1
  Y  Y3  1  0.250000  0.026309  0.281180  1
  Ho  Ho4  1  0.250000  0.682681  0.553305  1
  Ho  Ho5  1  0.750000  0.317319  0.446695  1
  Ho  Ho6  1  0.750000  0.817319  0.053305  1
  Ho  Ho7  1  0.250000  0.182681  0.946695  1
  Os  Os8  1  0.250000  0.726787  0.864963  1
  Os  Os9  1  0.750000  0.273213  0.135037  1
  Os  Os10  1  0.750000  0.773213  0.364963  1
  Os  Os11  1  0.250000  0.226787  0.635037  1
  C  C12  1  0.250000  0.462656  0.758247  1
  C  C13  1  0.750000  0.537344  0.241753  1
  C  C14  1  0.750000  0.037344  0.258247  1
  C  C15  1  0.250000  0.962656  0.741753  1
  C  C16  1  0.250000  0.826661  0.052253  1
  C  C17  1  0.750000  0.173339  0.947747  1
  C  C18  1  0.750000  0.673339  0.552253  1
  C  C19  1  0.250000  0.326661  0.447747  1
