# generated using pymatgen
data_NaNb6FeSe12
_symmetry_space_group_name_H-M   'P 1'
_cell_length_a   6.04874500
_cell_length_b   6.04874403
_cell_length_c   13.89768700
_cell_angle_alpha   90.00000000
_cell_angle_beta   90.00000000
_cell_angle_gamma   119.99999983
_symmetry_Int_Tables_number   1
_chemical_formula_structural   NaNb6FeSe12
_chemical_formula_sum   'Na1 Nb6 Fe1 Se12'
_cell_volume   440.35571944
_cell_formula_units_Z   1
loop_
 _symmetry_equiv_pos_site_id
 _symmetry_equiv_pos_as_xyz
  1  'x, y, z'
loop_
 _atom_site_type_symbol
 _atom_site_label
 _atom_site_symmetry_multiplicity
 _atom_site_fract_x
 _atom_site_fract_y
 _atom_site_fract_z
 _atom_site_occupancy
  Na  Na0  1  0.333333  0.666667  0.250000  1
  Nb  Nb1  1  0.000000  0.000000  0.532430  1
  Nb  Nb2  1  0.000000  0.000000  0.967570  1
  Nb  Nb3  1  0.333333  0.666667  0.967033  1
  Nb  Nb4  1  0.666667  0.333333  0.968690  1
  Nb  Nb5  1  0.666667  0.333333  0.531310  1
  Nb  Nb6  1  0.333333  0.666667  0.532967  1
  Fe  Fe7  1  0.666667  0.333333  0.750000  1
  Se  Se8  1  0.332509  0.332213  0.410246  1
  Se  Se9  1  0.667787  0.000295  0.410246  1
  Se  Se10  1  0.999705  0.667491  0.410246  1
  Se  Se11  1  0.333339  0.333164  0.651297  1
  Se  Se12  1  0.999826  0.666661  0.651297  1
  Se  Se13  1  0.666836  0.000174  0.651297  1
  Se  Se14  1  0.666836  0.666661  0.848703  1
  Se  Se15  1  0.333339  0.000174  0.848703  1
  Se  Se16  1  0.999826  0.333164  0.848703  1
  Se  Se17  1  0.667787  0.667491  0.089754  1
  Se  Se18  1  0.999705  0.332213  0.089754  1
  Se  Se19  1  0.332509  0.000295  0.089754  1
