# generated using pymatgen
data_Y7Sc4In9NiAu3
_symmetry_space_group_name_H-M   'P 1'
_cell_length_a   12.93118728
_cell_length_b   12.95937628
_cell_length_c   3.63275700
_cell_angle_alpha   90.00000000
_cell_angle_beta   90.00000000
_cell_angle_gamma   110.10640451
_symmetry_Int_Tables_number   1
_chemical_formula_structural   Y7Sc4In9NiAu3
_chemical_formula_sum   'Y7 Sc4 In9 Ni1 Au3'
_cell_volume   571.67640009
_cell_formula_units_Z   1
loop_
 _symmetry_equiv_pos_site_id
 _symmetry_equiv_pos_as_xyz
  1  'x, y, z'
loop_
 _atom_site_type_symbol
 _atom_site_label
 _atom_site_symmetry_multiplicity
 _atom_site_fract_x
 _atom_site_fract_y
 _atom_site_fract_z
 _atom_site_occupancy
  Y  Y0  1  0.638080  0.361465  0.000000  1
  Y  Y1  1  0.376046  0.644647  0.000000  1
  Y  Y2  1  0.837199  0.161372  0.000000  1
  Y  Y3  1  0.162069  0.839540  0.000000  1
  Y  Y4  1  0.997555  0.000102  0.000000  1
  Y  Y5  1  0.302867  0.302146  0.000000  1
  Y  Y6  1  0.686425  0.700718  0.000000  1
  Sc  Sc7  1  0.071404  0.422145  0.000000  1
  Sc  Sc8  1  0.931826  0.582978  0.000000  1
  Sc  Sc9  1  0.417653  0.065108  0.000000  1
  Sc  Sc10  1  0.576746  0.916731  0.000000  1
  In  In11  1  0.861096  0.374768  0.500000  1
  In  In12  1  0.145217  0.629554  0.500000  1
  In  In13  1  0.375657  0.854855  0.500000  1
  In  In14  1  0.624750  0.134185  0.500000  1
  In  In15  1  0.066104  0.221411  0.500000  1
  In  In16  1  0.929586  0.779235  0.500000  1
  In  In17  1  0.219703  0.066516  0.500000  1
  In  In18  1  0.773921  0.929441  0.500000  1
  In  In19  1  0.501232  0.504245  0.500000  1
  Ni  Ni20  1  0.549091  0.762488  0.500000  1
  Au  Au21  1  0.246998  0.455850  0.500000  1
  Au  Au22  1  0.755722  0.549178  0.500000  1
  Au  Au23  1  0.453054  0.241323  0.500000  1
