# generated using pymatgen
data_Cs4K2PrInAs4
_symmetry_space_group_name_H-M   'P 1'
_cell_length_a   9.98167161
_cell_length_b   9.98167233
_cell_length_c   9.98167202
_cell_angle_alpha   133.23773178
_cell_angle_beta   137.68741080
_cell_angle_gamma   64.88033793
_symmetry_Int_Tables_number   1
_chemical_formula_structural   Cs4K2PrInAs4
_chemical_formula_sum   'Cs4 K2 Pr1 In1 As4'
_cell_volume   480.85282952
_cell_formula_units_Z   1
loop_
 _symmetry_equiv_pos_site_id
 _symmetry_equiv_pos_as_xyz
  1  'x, y, z'
loop_
 _atom_site_type_symbol
 _atom_site_label
 _atom_site_symmetry_multiplicity
 _atom_site_fract_x
 _atom_site_fract_y
 _atom_site_fract_z
 _atom_site_occupancy
  Cs  Cs0  1  0.690141  0.439924  0.768991  1
  Cs  Cs1  1  0.809859  0.078850  0.249783  1
  Cs  Cs2  1  0.170932  0.921150  0.731009  1
  Cs  Cs3  1  0.329068  0.560076  0.250217  1
  K  K4  1  0.750000  0.000000  0.750000  1
  K  K5  1  0.250000  0.000000  0.250000  1
  Pr  Pr6  1  0.250000  0.500000  0.750000  1
  In  In7  1  0.750000  0.500000  0.250000  1
  As  As8  1  0.418212  0.205517  0.814026  1
  As  As9  1  0.608509  0.794483  0.212695  1
  As  As10  1  0.081788  0.395815  0.287305  1
  As  As11  1  0.891491  0.604185  0.685974  1
