# generated using pymatgen
data_Dy7Ho9Cd4(IrPt)2
_symmetry_space_group_name_H-M   'P 1'
_cell_length_a   9.63857326
_cell_length_b   9.63857347
_cell_length_c   9.62197200
_cell_angle_alpha   60.05696017
_cell_angle_beta   60.05695945
_cell_angle_gamma   60.18595902
_symmetry_Int_Tables_number   1
_chemical_formula_structural   Dy7Ho9Cd4(IrPt)2
_chemical_formula_sum   'Dy7 Ho9 Cd4 Ir2 Pt2'
_cell_volume   633.51319204
_cell_formula_units_Z   1
loop_
 _symmetry_equiv_pos_site_id
 _symmetry_equiv_pos_as_xyz
  1  'x, y, z'
loop_
 _atom_site_type_symbol
 _atom_site_label
 _atom_site_symmetry_multiplicity
 _atom_site_fract_x
 _atom_site_fract_y
 _atom_site_fract_z
 _atom_site_occupancy
  Dy  Dy0  1  0.061402  0.061402  0.438598  1
  Dy  Dy1  1  0.187490  0.814680  0.811902  1
  Dy  Dy2  1  0.814680  0.187490  0.185928  1
  Dy  Dy3  1  0.814680  0.187490  0.811902  1
  Dy  Dy4  1  0.187490  0.814680  0.185928  1
  Dy  Dy5  1  0.813634  0.813634  0.186366  1
  Dy  Dy6  1  0.186980  0.186980  0.813020  1
  Ho  Ho7  1  0.600555  0.600555  0.596163  1
  Ho  Ho8  1  0.600555  0.600555  0.202728  1
  Ho  Ho9  1  0.605317  0.195202  0.599741  1
  Ho  Ho10  1  0.195202  0.605317  0.599741  1
  Ho  Ho11  1  0.057036  0.439881  0.440197  1
  Ho  Ho12  1  0.439881  0.057036  0.062887  1
  Ho  Ho13  1  0.439881  0.057036  0.440197  1
  Ho  Ho14  1  0.057036  0.439881  0.062887  1
  Ho  Ho15  1  0.440861  0.440861  0.059139  1
  Cd  Cd16  1  0.831105  0.831105  0.831933  1
  Cd  Cd17  1  0.831105  0.831105  0.505856  1
  Cd  Cd18  1  0.830669  0.505857  0.831737  1
  Cd  Cd19  1  0.505857  0.830669  0.831737  1
  Ir  Ir20  1  0.391458  0.823215  0.392664  1
  Ir  Ir21  1  0.823215  0.391458  0.392664  1
  Pt  Pt22  1  0.391956  0.391956  0.394543  1
  Pt  Pt23  1  0.391956  0.391956  0.821545  1
