# generated using pymatgen
data_Hf18Re8IrAu
_symmetry_space_group_name_H-M   'P 1'
_cell_length_a   8.56992500
_cell_length_b   8.67737728
_cell_length_c   8.67737700
_cell_angle_alpha   120.00064261
_cell_angle_beta   90.00000000
_cell_angle_gamma   90.00000000
_symmetry_Int_Tables_number   1
_chemical_formula_structural   Hf18Re8IrAu
_chemical_formula_sum   'Hf18 Re8 Ir1 Au1'
_cell_volume   558.83266982
_cell_formula_units_Z   1
loop_
 _symmetry_equiv_pos_site_id
 _symmetry_equiv_pos_as_xyz
  1  'x, y, z'
loop_
 _atom_site_type_symbol
 _atom_site_label
 _atom_site_symmetry_multiplicity
 _atom_site_fract_x
 _atom_site_fract_y
 _atom_site_fract_z
 _atom_site_occupancy
  Hf  Hf0  1  0.549728  0.808592  0.617177  1
  Hf  Hf1  1  0.549704  0.808585  0.191415  1
  Hf  Hf2  1  0.549728  0.382823  0.191408  1
  Hf  Hf3  1  0.445743  0.195930  0.391869  1
  Hf  Hf4  1  0.445748  0.195936  0.804064  1
  Hf  Hf5  1  0.445743  0.608131  0.804070  1
  Hf  Hf6  1  0.054257  0.195930  0.391869  1
  Hf  Hf7  1  0.054252  0.195936  0.804064  1
  Hf  Hf8  1  0.054257  0.608131  0.804070  1
  Hf  Hf9  1  0.950272  0.808592  0.617177  1
  Hf  Hf10  1  0.950296  0.808585  0.191415  1
  Hf  Hf11  1  0.950272  0.382823  0.191408  1
  Hf  Hf12  1  0.750000  0.457630  0.915246  1
  Hf  Hf13  1  0.750000  0.457621  0.542379  1
  Hf  Hf14  1  0.750000  0.084754  0.542370  1
  Hf  Hf15  1  0.250000  0.541636  0.083267  1
  Hf  Hf16  1  0.250000  0.541630  0.458370  1
  Hf  Hf17  1  0.250000  0.916733  0.458364  1
  Re  Re18  1  0.750000  0.110280  0.220564  1
  Re  Re19  1  0.750000  0.110286  0.889714  1
  Re  Re20  1  0.750000  0.779436  0.889720  1
  Re  Re21  1  0.250000  0.890411  0.780815  1
  Re  Re22  1  0.250000  0.890403  0.109597  1
  Re  Re23  1  0.250000  0.219185  0.109589  1
  Re  Re24  1  0.499775  0.999998  0.000002  1
  Re  Re25  1  0.000225  0.999998  0.000002  1
  Ir  Ir26  1  0.250000  0.333332  0.666668  1
  Au  Au27  1  0.750000  0.666674  0.333326  1
