# generated using pymatgen
data_LuTh2(SnIr)3
_symmetry_space_group_name_H-M   'P 1'
_cell_length_a   7.53087800
_cell_length_b   7.54058939
_cell_length_c   4.07555400
_cell_angle_alpha   90.00000000
_cell_angle_beta   90.00000000
_cell_angle_gamma   119.95740635
_symmetry_Int_Tables_number   1
_chemical_formula_structural   LuTh2(SnIr)3
_chemical_formula_sum   'Lu1 Th2 Sn3 Ir3'
_cell_volume   200.51849124
_cell_formula_units_Z   1
loop_
 _symmetry_equiv_pos_site_id
 _symmetry_equiv_pos_as_xyz
  1  'x, y, z'
loop_
 _atom_site_type_symbol
 _atom_site_label
 _atom_site_symmetry_multiplicity
 _atom_site_fract_x
 _atom_site_fract_y
 _atom_site_fract_z
 _atom_site_occupancy
  Lu  Lu0  1  0.403229  0.000000  0.500000  1
  Th  Th1  1  0.999692  0.410978  0.500000  1
  Th  Th2  1  0.588714  0.589022  0.500000  1
  Sn  Sn3  1  0.011208  0.755636  0.000000  1
  Sn  Sn4  1  0.255572  0.244364  0.000000  1
  Sn  Sn5  1  0.737358  0.000000  0.000000  1
  Ir  Ir6  1  0.332904  0.660231  0.000000  1
  Ir  Ir7  1  0.672674  0.339769  0.000000  1
  Ir  Ir8  1  0.998649  0.000000  0.500000  1
