# generated using pymatgen
data_CePaInNi2
_symmetry_space_group_name_H-M   'P 1'
_cell_length_a   7.52745900
_cell_length_b   7.56398600
_cell_length_c   3.54998900
_cell_angle_alpha   90.00000000
_cell_angle_beta   90.00000000
_cell_angle_gamma   90.00000000
_symmetry_Int_Tables_number   1
_chemical_formula_structural   CePaInNi2
_chemical_formula_sum   'Ce2 Pa2 In2 Ni4'
_cell_volume   202.12783413
_cell_formula_units_Z   2
loop_
 _symmetry_equiv_pos_site_id
 _symmetry_equiv_pos_as_xyz
  1  'x, y, z'
loop_
 _atom_site_type_symbol
 _atom_site_label
 _atom_site_symmetry_multiplicity
 _atom_site_fract_x
 _atom_site_fract_y
 _atom_site_fract_z
 _atom_site_occupancy
  Ce  Ce0  1  0.825628  0.675418  0.500000  1
  Ce  Ce1  1  0.325628  0.824582  0.500000  1
  Pa  Pa2  1  0.671122  0.171151  0.500000  1
  Pa  Pa3  1  0.171122  0.328849  0.500000  1
  In  In4  1  0.000988  0.001027  0.000000  1
  In  In5  1  0.500988  0.498973  0.000000  1
  Ni  Ni6  1  0.875051  0.359322  0.000000  1
  Ni  Ni7  1  0.627211  0.891322  0.000000  1
  Ni  Ni8  1  0.127211  0.608678  0.000000  1
  Ni  Ni9  1  0.375051  0.140678  0.000000  1
