# generated using pymatgen
data_Y6Lu4Si5Pb
_symmetry_space_group_name_H-M   'P 1'
_cell_length_a   8.47560000
_cell_length_b   8.50449737
_cell_length_c   6.30732100
_cell_angle_alpha   90.00000000
_cell_angle_beta   90.00000000
_cell_angle_gamma   119.88764657
_symmetry_Int_Tables_number   1
_chemical_formula_structural   Y6Lu4Si5Pb
_chemical_formula_sum   'Y6 Lu4 Si5 Pb1'
_cell_volume   394.17152049
_cell_formula_units_Z   1
loop_
 _symmetry_equiv_pos_site_id
 _symmetry_equiv_pos_as_xyz
  1  'x, y, z'
loop_
 _atom_site_type_symbol
 _atom_site_label
 _atom_site_symmetry_multiplicity
 _atom_site_fract_x
 _atom_site_fract_y
 _atom_site_fract_z
 _atom_site_occupancy
  Y  Y0  1  0.988321  0.746327  0.750000  1
  Y  Y1  1  0.997822  0.243922  0.250000  1
  Y  Y2  1  0.753900  0.756078  0.250000  1
  Y  Y3  1  0.766338  0.000000  0.750000  1
  Y  Y4  1  0.241994  0.253673  0.750000  1
  Y  Y5  1  0.241380  0.000000  0.250000  1
  Lu  Lu6  1  0.330811  0.655577  0.496361  1
  Lu  Lu7  1  0.675236  0.344423  0.003639  1
  Lu  Lu8  1  0.675236  0.344423  0.496361  1
  Lu  Lu9  1  0.330811  0.655577  0.003639  1
  Si  Si10  1  0.395071  0.393591  0.250000  1
  Si  Si11  1  0.001479  0.606409  0.250000  1
  Si  Si12  1  0.998129  0.395672  0.750000  1
  Si  Si13  1  0.602457  0.604328  0.750000  1
  Si  Si14  1  0.604017  0.000000  0.250000  1
  Pb  Pb15  1  0.397001  0.000000  0.750000  1
