# generated using pymatgen
data_Lu6Al13Os7W3
_symmetry_space_group_name_H-M   'P 1'
_cell_length_a   8.92751763
_cell_length_b   8.92751793
_cell_length_c   8.92751822
_cell_angle_alpha   59.62532401
_cell_angle_beta   59.62532345
_cell_angle_gamma   59.62531456
_symmetry_Int_Tables_number   1
_chemical_formula_structural   Lu6Al13Os7W3
_chemical_formula_sum   'Lu6 Al13 Os7 W3'
_cell_volume   498.84252830
_cell_formula_units_Z   1
loop_
 _symmetry_equiv_pos_site_id
 _symmetry_equiv_pos_as_xyz
  1  'x, y, z'
loop_
 _atom_site_type_symbol
 _atom_site_label
 _atom_site_symmetry_multiplicity
 _atom_site_fract_x
 _atom_site_fract_y
 _atom_site_fract_z
 _atom_site_occupancy
  Lu  Lu0  1  0.707697  0.707697  0.286433  1
  Lu  Lu1  1  0.293556  0.708140  0.293556  1
  Lu  Lu2  1  0.708140  0.293556  0.293556  1
  Lu  Lu3  1  0.293556  0.293556  0.708140  1
  Lu  Lu4  1  0.707697  0.286433  0.707697  1
  Lu  Lu5  1  0.286433  0.707697  0.707697  1
  Al  Al6  1  0.880520  0.880520  0.880520  1
  Al  Al7  1  0.120933  0.120933  0.639382  1
  Al  Al8  1  0.120933  0.639382  0.120933  1
  Al  Al9  1  0.639382  0.120933  0.120933  1
  Al  Al10  1  0.122070  0.122070  0.122070  1
  Al  Al11  1  0.668074  0.668074  0.000501  1
  Al  Al12  1  0.668074  0.000501  0.668074  1
  Al  Al13  1  0.000501  0.668074  0.668074  1
  Al  Al14  1  0.660898  0.660898  0.660898  1
  Al  Al15  1  0.331618  0.331618  0.007426  1
  Al  Al16  1  0.331618  0.007426  0.331618  1
  Al  Al17  1  0.007426  0.331618  0.331618  1
  Al  Al18  1  0.332467  0.332467  0.332467  1
  Os  Os19  1  0.004893  0.004893  0.004893  1
  Os  Os20  1  0.997165  0.997165  0.496057  1
  Os  Os21  1  0.505014  0.995032  0.505014  1
  Os  Os22  1  0.995032  0.505014  0.505014  1
  Os  Os23  1  0.505014  0.505014  0.995032  1
  Os  Os24  1  0.997165  0.496057  0.997165  1
  Os  Os25  1  0.496057  0.997165  0.997165  1
  W  W26  1  0.877272  0.877272  0.363523  1
  W  W27  1  0.877272  0.363523  0.877272  1
  W  W28  1  0.363523  0.877272  0.877272  1
