# generated using pymatgen
data_Ta12Ga8Co3AgC4
_symmetry_space_group_name_H-M   'P 1'
_cell_length_a   8.25608651
_cell_length_b   8.25608789
_cell_length_c   8.25608806
_cell_angle_alpha   60.08850208
_cell_angle_beta   60.08849631
_cell_angle_gamma   60.08850085
_symmetry_Int_Tables_number   1
_chemical_formula_structural   Ta12Ga8Co3AgC4
_chemical_formula_sum   'Ta12 Ga8 Co3 Ag1 C4'
_cell_volume   398.72908661
_cell_formula_units_Z   1
loop_
 _symmetry_equiv_pos_site_id
 _symmetry_equiv_pos_as_xyz
  1  'x, y, z'
loop_
 _atom_site_type_symbol
 _atom_site_label
 _atom_site_symmetry_multiplicity
 _atom_site_fract_x
 _atom_site_fract_y
 _atom_site_fract_z
 _atom_site_occupancy
  Ta  Ta0  1  0.187426  0.813200  0.187426  1
  Ta  Ta1  1  0.815751  0.180572  0.815751  1
  Ta  Ta2  1  0.062574  0.436800  0.062574  1
  Ta  Ta3  1  0.069428  0.434249  0.434249  1
  Ta  Ta4  1  0.436800  0.062574  0.062574  1
  Ta  Ta5  1  0.434249  0.069428  0.434249  1
  Ta  Ta6  1  0.815751  0.815751  0.180572  1
  Ta  Ta7  1  0.062574  0.062574  0.436800  1
  Ta  Ta8  1  0.187426  0.187426  0.813200  1
  Ta  Ta9  1  0.180572  0.815751  0.815751  1
  Ta  Ta10  1  0.434249  0.434249  0.069428  1
  Ta  Ta11  1  0.813200  0.187426  0.187426  1
  Ga  Ga12  1  0.841232  0.841232  0.496188  1
  Ga  Ga13  1  0.496188  0.841232  0.841232  1
  Ga  Ga14  1  0.408768  0.753812  0.408768  1
  Ga  Ga15  1  0.753812  0.408768  0.408768  1
  Ga  Ga16  1  0.417530  0.417530  0.417530  1
  Ga  Ga17  1  0.408768  0.408768  0.753812  1
  Ga  Ga18  1  0.841232  0.496188  0.841232  1
  Ga  Ga19  1  0.832470  0.832470  0.832470  1
  Co  Co20  1  0.125000  0.625000  0.625000  1
  Co  Co21  1  0.625000  0.625000  0.125000  1
  Co  Co22  1  0.625000  0.125000  0.625000  1
  Ag  Ag23  1  0.625000  0.625000  0.625000  1
  C  C24  1  0.125000  0.125000  0.125000  1
  C  C25  1  0.125000  0.125000  0.625000  1
  C  C26  1  0.625000  0.125000  0.125000  1
  C  C27  1  0.125000  0.625000  0.125000  1
