# generated using pymatgen
data_K3Rb5Ba4(ZrAs4)2
_symmetry_space_group_name_H-M   'P 1'
_cell_length_a   10.80846223
_cell_length_b   10.89283937
_cell_length_c   8.18904815
_cell_angle_alpha   88.54513721
_cell_angle_beta   88.64789360
_cell_angle_gamma   119.78311173
_symmetry_Int_Tables_number   1
_chemical_formula_structural   K3Rb5Ba4(ZrAs4)2
_chemical_formula_sum   'K3 Rb5 Ba4 Zr2 As8'
_cell_volume   835.78688511
_cell_formula_units_Z   1
loop_
 _symmetry_equiv_pos_site_id
 _symmetry_equiv_pos_as_xyz
  1  'x, y, z'
loop_
 _atom_site_type_symbol
 _atom_site_label
 _atom_site_symmetry_multiplicity
 _atom_site_fract_x
 _atom_site_fract_y
 _atom_site_fract_z
 _atom_site_occupancy
  K  K0  1  0.471771  0.938964  0.383532  1
  K  K1  1  0.939286  0.473003  0.883611  1
  K  K2  1  0.864053  0.716216  0.178360  1
  Rb  Rb3  1  0.265206  0.125703  0.233419  1
  Rb  Rb4  1  0.856388  0.139115  0.198993  1
  Rb  Rb5  1  0.126239  0.266763  0.734010  1
  Rb  Rb6  1  0.723285  0.866608  0.671839  1
  Rb  Rb7  1  0.138234  0.855433  0.698486  1
  Ba  Ba8  1  0.066828  0.535321  0.394043  1
  Ba  Ba9  1  0.477052  0.535553  0.379756  1
  Ba  Ba10  1  0.535096  0.068701  0.893614  1
  Ba  Ba11  1  0.535956  0.476976  0.879414  1
  Zr  Zr12  1  0.665054  0.334100  0.487291  1
  Zr  Zr13  1  0.333741  0.665633  0.989981  1
  As  As14  1  0.648650  0.331638  0.162726  1
  As  As15  1  0.330633  0.647880  0.665922  1
  As  As16  1  0.210364  0.407715  0.122962  1
  As  As17  1  0.602985  0.794729  0.081262  1
  As  As18  1  0.204045  0.798999  0.099012  1
  As  As19  1  0.797327  0.601125  0.573836  1
  As  As20  1  0.406459  0.210312  0.624497  1
  As  As21  1  0.801156  0.209324  0.598774  1
