# generated using pymatgen
data_Sc3Ta(Tc2W)4
_symmetry_space_group_name_H-M   'P 1'
_cell_length_a   6.33799200
_cell_length_b   4.48427400
_cell_length_c   8.94370900
_cell_angle_alpha   90.00000000
_cell_angle_beta   90.00016350
_cell_angle_gamma   90.00000000
_symmetry_Int_Tables_number   1
_chemical_formula_structural   Sc3Ta(Tc2W)4
_chemical_formula_sum   'Sc3 Ta1 Tc8 W4'
_cell_volume   254.19177165
_cell_formula_units_Z   1
loop_
 _symmetry_equiv_pos_site_id
 _symmetry_equiv_pos_as_xyz
  1  'x, y, z'
loop_
 _atom_site_type_symbol
 _atom_site_label
 _atom_site_symmetry_multiplicity
 _atom_site_fract_x
 _atom_site_fract_y
 _atom_site_fract_z
 _atom_site_occupancy
  Sc  Sc0  1  0.750051  0.749999  0.375593  1
  Sc  Sc1  1  0.249940  0.250001  0.624971  1
  Sc  Sc2  1  0.749953  0.749999  0.874448  1
  Ta  Ta3  1  0.250062  0.250001  0.124975  1
  Tc  Tc4  1  0.003275  0.749999  0.124995  1
  Tc  Tc5  1  0.496846  0.749999  0.125014  1
  Tc  Tc6  1  0.001894  0.250001  0.371864  1
  Tc  Tc7  1  0.498223  0.250001  0.371902  1
  Tc  Tc8  1  0.499072  0.749999  0.624987  1
  Tc  Tc9  1  0.000815  0.749999  0.625013  1
  Tc  Tc10  1  0.498100  0.250001  0.878105  1
  Tc  Tc11  1  0.001776  0.250001  0.878113  1
  W  W12  1  0.750062  0.250001  0.125032  1
  W  W13  1  0.250070  0.749999  0.377063  1
  W  W14  1  0.749935  0.250001  0.625029  1
  W  W15  1  0.249926  0.749999  0.872896  1
