# generated using pymatgen
data_LaEu2(HgPt)3
_symmetry_space_group_name_H-M   'P 1'
_cell_length_a   7.75926492
_cell_length_b   7.81481771
_cell_length_c   4.06330200
_cell_angle_alpha   90.00000000
_cell_angle_beta   90.00000000
_cell_angle_gamma   120.23711827
_symmetry_Int_Tables_number   1
_chemical_formula_structural   LaEu2(HgPt)3
_chemical_formula_sum   'La1 Eu2 Hg3 Pt3'
_cell_volume   212.86610468
_cell_formula_units_Z   1
loop_
 _symmetry_equiv_pos_site_id
 _symmetry_equiv_pos_as_xyz
  1  'x, y, z'
loop_
 _atom_site_type_symbol
 _atom_site_label
 _atom_site_symmetry_multiplicity
 _atom_site_fract_x
 _atom_site_fract_y
 _atom_site_fract_z
 _atom_site_occupancy
  La  La0  1  0.000000  0.598846  0.500000  1
  Eu  Eu1  1  0.399776  0.399274  0.500000  1
  Eu  Eu2  1  0.600224  0.999497  0.500000  1
  Hg  Hg3  1  0.733555  0.740054  0.000000  1
  Hg  Hg4  1  0.266445  0.006497  0.000000  1
  Hg  Hg5  1  0.000000  0.253586  0.000000  1
  Pt  Pt6  1  0.675380  0.341291  0.000000  1
  Pt  Pt7  1  0.324620  0.665912  0.000000  1
  Pt  Pt8  1  0.000000  0.995043  0.500000  1
