# generated using pymatgen
data_Tb2Y2Ga17SiIr6
_symmetry_space_group_name_H-M   'P 1'
_cell_length_a   7.59191917
_cell_length_b   7.57288044
_cell_length_c   9.50040305
_cell_angle_alpha   90.05900752
_cell_angle_beta   89.80927828
_cell_angle_gamma   119.88844396
_symmetry_Int_Tables_number   1
_chemical_formula_structural   Tb2Y2Ga17SiIr6
_chemical_formula_sum   'Tb2 Y2 Ga17 Si1 Ir6'
_cell_volume   473.55444474
_cell_formula_units_Z   1
loop_
 _symmetry_equiv_pos_site_id
 _symmetry_equiv_pos_as_xyz
  1  'x, y, z'
loop_
 _atom_site_type_symbol
 _atom_site_label
 _atom_site_symmetry_multiplicity
 _atom_site_fract_x
 _atom_site_fract_y
 _atom_site_fract_z
 _atom_site_occupancy
  Tb  Tb0  1  0.997013  0.664807  0.248147  1
  Tb  Tb1  1  0.002740  0.331118  0.751094  1
  Y  Y2  1  0.673890  0.002183  0.248171  1
  Y  Y3  1  0.330581  0.002629  0.749822  1
  Ga  Ga4  1  0.129926  0.129180  0.250908  1
  Ga  Ga5  1  0.872775  0.874156  0.750752  1
  Ga  Ga6  1  0.998892  0.671094  0.917768  1
  Ga  Ga7  1  0.000442  0.665926  0.579887  1
  Ga  Ga8  1  0.333913  0.998142  0.419773  1
  Ga  Ga9  1  0.999649  0.334563  0.420871  1
  Ga  Ga10  1  0.665232  0.000197  0.579971  1
  Ga  Ga11  1  0.658348  0.994283  0.917867  1
  Ga  Ga12  1  0.333617  0.997959  0.081243  1
  Ga  Ga13  1  0.332370  0.331653  0.564187  1
  Ga  Ga14  1  0.668554  0.669016  0.435307  1
  Ga  Ga15  1  0.667981  0.669176  0.066972  1
  Ga  Ga16  1  0.338573  0.332589  0.934104  1
  Ga  Ga17  1  0.341143  0.546197  0.251613  1
  Ga  Ga18  1  0.661319  0.452319  0.751163  1
  Ga  Ga19  1  0.547381  0.339627  0.250624  1
  Ga  Ga20  1  0.451799  0.659184  0.750450  1
  Si  Si21  1  0.999792  0.334341  0.072304  1
  Ir  Ir22  1  0.683918  0.329482  0.003428  1
  Ir  Ir23  1  0.313129  0.656151  0.001672  1
  Ir  Ir24  1  0.328147  0.671014  0.500481  1
  Ir  Ir25  1  0.671335  0.328602  0.500222  1
  Ir  Ir26  1  0.998150  0.014405  0.001420  1
  Ir  Ir27  1  0.999389  0.000008  0.499779  1
