# generated using pymatgen
data_Tm6Sc6In2Tc3
_symmetry_space_group_name_H-M   'P 1'
_cell_length_a   8.08098656
_cell_length_b   8.19042425
_cell_length_c   8.19042423
_cell_angle_alpha   110.00522986
_cell_angle_beta   109.17705561
_cell_angle_gamma   109.77426965
_symmetry_Int_Tables_number   1
_chemical_formula_structural   Tm6Sc6In2Tc3
_chemical_formula_sum   'Tm6 Sc6 In2 Tc3'
_cell_volume   414.46986214
_cell_formula_units_Z   1
loop_
 _symmetry_equiv_pos_site_id
 _symmetry_equiv_pos_as_xyz
  1  'x, y, z'
loop_
 _atom_site_type_symbol
 _atom_site_label
 _atom_site_symmetry_multiplicity
 _atom_site_fract_x
 _atom_site_fract_y
 _atom_site_fract_z
 _atom_site_occupancy
  Tm  Tm0  1  0.440365  0.192181  0.248183  1
  Tm  Tm1  1  0.559635  0.807819  0.751817  1
  Tm  Tm2  1  0.308904  0.306540  0.625782  1
  Tm  Tm3  1  0.691096  0.693460  0.374218  1
  Tm  Tm4  1  0.691096  0.316878  0.997637  1
  Tm  Tm5  1  0.308904  0.683122  0.002363  1
  Sc  Sc6  1  0.180838  0.417520  0.236461  1
  Sc  Sc7  1  0.819162  0.582480  0.763539  1
  Sc  Sc8  1  0.180838  0.944378  0.763317  1
  Sc  Sc9  1  0.945663  0.185165  0.760496  1
  Sc  Sc10  1  0.819162  0.055622  0.236683  1
  Sc  Sc11  1  0.054337  0.814835  0.239504  1
  In  In12  1  0.000000  0.500000  0.500000  1
  In  In13  1  0.500000  0.000000  0.500000  1
  Tc  Tc14  1  0.335591  0.337483  0.998108  1
  Tc  Tc15  1  0.664409  0.662517  0.001892  1
  Tc  Tc16  1  0.000000  0.000000  0.000000  1
