# generated using pymatgen
data_V3FeCu2(P2O7)4
_symmetry_space_group_name_H-M   'P 1'
_cell_length_a   5.27421838
_cell_length_b   6.71955933
_cell_length_c   17.06612666
_cell_angle_alpha   68.78843678
_cell_angle_beta   89.91890460
_cell_angle_gamma   89.95553995
_symmetry_Int_Tables_number   1
_chemical_formula_structural   V3FeCu2(P2O7)4
_chemical_formula_sum   'V3 Fe1 Cu2 P8 O28'
_cell_volume   563.85336602
_cell_formula_units_Z   1
loop_
 _symmetry_equiv_pos_site_id
 _symmetry_equiv_pos_as_xyz
  1  'x, y, z'
loop_
 _atom_site_type_symbol
 _atom_site_label
 _atom_site_symmetry_multiplicity
 _atom_site_fract_x
 _atom_site_fract_y
 _atom_site_fract_z
 _atom_site_occupancy
  V  V0  1  0.754400  0.786746  0.883174  1
  V  V1  1  0.254939  0.213922  0.616364  1
  V  V2  1  0.245149  0.213982  0.117280  1
  Fe  Fe3  1  0.749037  0.783262  0.380926  1
  Cu  Cu4  1  0.000143  0.999996  0.000292  1
  Cu  Cu5  1  0.500930  0.999979  0.499856  1
  P  P6  1  0.747275  0.884071  0.169137  1
  P  P7  1  0.247891  0.114255  0.331560  1
  P  P8  1  0.252479  0.115696  0.830894  1
  P  P9  1  0.752228  0.884602  0.668923  1
  P  P10  1  0.729970  0.550699  0.095620  1
  P  P11  1  0.230732  0.450408  0.404688  1
  P  P12  1  0.269879  0.449574  0.904702  1
  P  P13  1  0.769685  0.551154  0.594589  1
  O  O14  1  0.465565  0.470410  0.089801  1
  O  O15  1  0.964073  0.529776  0.410884  1
  O  O16  1  0.534343  0.530302  0.910427  1
  O  O17  1  0.034501  0.469311  0.589738  1
  O  O18  1  0.934484  0.382641  0.117312  1
  O  O19  1  0.433541  0.620191  0.382165  1
  O  O20  1  0.065108  0.617447  0.883009  1
  O  O21  1  0.565227  0.382823  0.616965  1
  O  O22  1  0.776437  0.869166  0.258418  1
  O  O23  1  0.278285  0.131191  0.242178  1
  O  O24  1  0.221230  0.130454  0.742200  1
  O  O25  1  0.721872  0.869035  0.757960  1
  O  O26  1  0.524137  0.011688  0.119731  1
  O  O27  1  0.024122  0.986099  0.380277  1
  O  O28  1  0.704454  0.743607  0.511941  1
  O  O29  1  0.204243  0.256155  0.987271  1
  O  O30  1  0.296501  0.256954  0.486818  1
  O  O31  1  0.795739  0.744316  0.013410  1
  O  O32  1  0.776344  0.645457  0.669282  1
  O  O33  1  0.276411  0.355232  0.830278  1
  O  O34  1  0.222898  0.355215  0.330496  1
  O  O35  1  0.723304  0.644386  0.170465  1
  O  O36  1  0.500481  0.968188  0.617922  1
  O  O37  1  0.001116  0.031819  0.882488  1
  O  O38  1  0.500551  0.031547  0.382027  1
  O  O39  1  0.999366  0.967223  0.118464  1
  O  O40  1  0.975246  0.012701  0.619121  1
  O  O41  1  0.475684  0.988323  0.880946  1
