# generated using pymatgen
data_Er5Tm3Sc12Si15Pt
_symmetry_space_group_name_H-M   'P 1'
_cell_length_a   7.07111769
_cell_length_b   7.33891966
_cell_length_c   13.96340176
_cell_angle_alpha   89.93909909
_cell_angle_beta   89.77120778
_cell_angle_gamma   90.19004225
_symmetry_Int_Tables_number   1
_chemical_formula_structural   Er5Tm3Sc12Si15Pt
_chemical_formula_sum   'Er5 Tm3 Sc12 Si15 Pt1'
_cell_volume   724.61167999
_cell_formula_units_Z   1
loop_
 _symmetry_equiv_pos_site_id
 _symmetry_equiv_pos_as_xyz
  1  'x, y, z'
loop_
 _atom_site_type_symbol
 _atom_site_label
 _atom_site_symmetry_multiplicity
 _atom_site_fract_x
 _atom_site_fract_y
 _atom_site_fract_z
 _atom_site_occupancy
  Er  Er0  1  0.012697  0.176397  0.097073  1
  Er  Er1  1  0.987560  0.823520  0.903371  1
  Er  Er2  1  0.486951  0.677192  0.903227  1
  Er  Er3  1  0.988909  0.822244  0.596807  1
  Er  Er4  1  0.512278  0.323328  0.096446  1
  Tm  Tm5  1  0.012433  0.178734  0.402256  1
  Tm  Tm6  1  0.507852  0.325382  0.403354  1
  Tm  Tm7  1  0.485780  0.671797  0.597627  1
  Sc  Sc8  1  0.162947  0.502604  0.747018  1
  Sc  Sc9  1  0.837670  0.497608  0.251289  1
  Sc  Sc10  1  0.338307  0.001709  0.250228  1
  Sc  Sc11  1  0.662894  0.995530  0.749912  1
  Sc  Sc12  1  0.333121  0.182941  0.622827  1
  Sc  Sc13  1  0.668520  0.823267  0.374170  1
  Sc  Sc14  1  0.170421  0.669579  0.376150  1
  Sc  Sc15  1  0.670316  0.824137  0.125827  1
  Sc  Sc16  1  0.832439  0.326206  0.624230  1
  Sc  Sc17  1  0.328810  0.176142  0.875580  1
  Sc  Sc18  1  0.830440  0.322727  0.875558  1
  Sc  Sc19  1  0.169959  0.676833  0.125118  1
  Si  Si20  1  0.033778  0.114520  0.750501  1
  Si  Si21  1  0.968567  0.886020  0.250161  1
  Si  Si22  1  0.467291  0.613613  0.248800  1
  Si  Si23  1  0.536016  0.385876  0.752524  1
  Si  Si24  1  0.285274  0.873772  0.750547  1
  Si  Si25  1  0.713695  0.130071  0.249745  1
  Si  Si26  1  0.215717  0.369663  0.248035  1
  Si  Si27  1  0.784604  0.628317  0.752558  1
  Si  Si28  1  0.836316  0.535466  0.459984  1
  Si  Si29  1  0.342079  0.964836  0.460240  1
  Si  Si30  1  0.842556  0.535373  0.038919  1
  Si  Si31  1  0.657586  0.034099  0.538526  1
  Si  Si32  1  0.156670  0.465053  0.961232  1
  Si  Si33  1  0.657970  0.034306  0.961520  1
  Si  Si34  1  0.342631  0.964769  0.038940  1
  Pt  Pt35  1  0.158942  0.466370  0.539697  1
