# generated using pymatgen
data_Ti3Nb9Al8(PtC)4
_symmetry_space_group_name_H-M   'P 1'
_cell_length_a   8.35578752
_cell_length_b   8.36328824
_cell_length_c   8.33988334
_cell_angle_alpha   60.04969573
_cell_angle_beta   59.91102576
_cell_angle_gamma   59.86381052
_symmetry_Int_Tables_number   1
_chemical_formula_structural   Ti3Nb9Al8(PtC)4
_chemical_formula_sum   'Ti3 Nb9 Al8 Pt4 C4'
_cell_volume   411.55742675
_cell_formula_units_Z   1
loop_
 _symmetry_equiv_pos_site_id
 _symmetry_equiv_pos_as_xyz
  1  'x, y, z'
loop_
 _atom_site_type_symbol
 _atom_site_label
 _atom_site_symmetry_multiplicity
 _atom_site_fract_x
 _atom_site_fract_y
 _atom_site_fract_z
 _atom_site_occupancy
  Ti  Ti0  1  0.932714  0.568113  0.932974  1
  Ti  Ti1  1  0.316257  0.318221  0.683127  1
  Ti  Ti2  1  0.566141  0.568592  0.933691  1
  Nb  Nb3  1  0.933787  0.931468  0.566175  1
  Nb  Nb4  1  0.684320  0.318060  0.315930  1
  Nb  Nb5  1  0.315776  0.683611  0.682400  1
  Nb  Nb6  1  0.682802  0.682189  0.316486  1
  Nb  Nb7  1  0.683685  0.316983  0.682042  1
  Nb  Nb8  1  0.317022  0.683778  0.317284  1
  Nb  Nb9  1  0.568349  0.932481  0.566496  1
  Nb  Nb10  1  0.566413  0.931682  0.934679  1
  Nb  Nb11  1  0.934027  0.569258  0.564922  1
  Al  Al12  1  0.914292  0.255700  0.915757  1
  Al  Al13  1  0.333749  0.333906  0.996664  1
  Al  Al14  1  0.998677  0.334050  0.333607  1
  Al  Al15  1  0.333991  0.334459  0.335597  1
  Al  Al16  1  0.253303  0.914223  0.916314  1
  Al  Al17  1  0.915961  0.914234  0.915576  1
  Al  Al18  1  0.916417  0.916347  0.251313  1
  Al  Al19  1  0.334143  0.997806  0.333879  1
  Pt  Pt20  1  0.126164  0.623859  0.123776  1
  Pt  Pt21  1  0.125325  0.125553  0.626298  1
  Pt  Pt22  1  0.624644  0.126930  0.124063  1
  Pt  Pt23  1  0.124894  0.127248  0.122416  1
  C  C24  1  0.618698  0.128648  0.626779  1
  C  C25  1  0.629516  0.622285  0.117818  1
  C  C26  1  0.125264  0.617290  0.632237  1
  C  C27  1  0.623670  0.623026  0.631700  1
