# generated using pymatgen
data_Ba6Mg(OsO6)2
_symmetry_space_group_name_H-M   'P 1'
_cell_length_a   9.05923042
_cell_length_b   9.05922995
_cell_length_c   7.39055241
_cell_angle_alpha   68.44587948
_cell_angle_beta   68.44587286
_cell_angle_gamma   36.89541678
_symmetry_Int_Tables_number   1
_chemical_formula_structural   Ba6Mg(OsO6)2
_chemical_formula_sum   'Ba6 Mg1 Os2 O12'
_cell_volume   335.72321526
_cell_formula_units_Z   1
loop_
 _symmetry_equiv_pos_site_id
 _symmetry_equiv_pos_as_xyz
  1  'x, y, z'
loop_
 _atom_site_type_symbol
 _atom_site_label
 _atom_site_symmetry_multiplicity
 _atom_site_fract_x
 _atom_site_fract_y
 _atom_site_fract_z
 _atom_site_occupancy
  Ba  Ba0  1  0.209469  0.209469  0.705744  1
  Ba  Ba1  1  0.887797  0.887797  0.704467  1
  Ba  Ba2  1  0.547478  0.547478  0.715137  1
  Ba  Ba3  1  0.790531  0.790531  0.294256  1
  Ba  Ba4  1  0.452522  0.452522  0.284863  1
  Ba  Ba5  1  0.112203  0.112203  0.295533  1
  Mg  Mg6  1  0.000000  0.000000  0.000000  1
  Os  Os7  1  0.671577  0.671577  0.000437  1
  Os  Os8  1  0.328423  0.328423  0.999563  1
  O  O9  1  0.281797  0.281797  0.302285  1
  O  O10  1  0.946650  0.946650  0.316431  1
  O  O11  1  0.617952  0.617952  0.300508  1
  O  O12  1  0.718203  0.718203  0.697715  1
  O  O13  1  0.382048  0.382048  0.699492  1
  O  O14  1  0.053350  0.053350  0.683569  1
  O  O15  1  0.000000  0.500000  0.000000  1
  O  O16  1  0.646730  0.174181  0.000882  1
  O  O17  1  0.353270  0.825819  0.999118  1
  O  O18  1  0.500000  0.000000  0.000000  1
  O  O19  1  0.174181  0.646730  0.000882  1
  O  O20  1  0.825819  0.353270  0.999118  1
