# generated using pymatgen
data_Tb2Lu4GaTcNi
_symmetry_space_group_name_H-M   'P 1'
_cell_length_a   8.26534675
_cell_length_b   8.26534751
_cell_length_c   8.26534688
_cell_angle_alpha   103.72967248
_cell_angle_beta   112.26574348
_cell_angle_gamma   112.56652173
_symmetry_Int_Tables_number   1
_chemical_formula_structural   Tb2Lu4GaTcNi
_chemical_formula_sum   'Tb4 Lu8 Ga2 Tc2 Ni2'
_cell_volume   431.43916118
_cell_formula_units_Z   2
loop_
 _symmetry_equiv_pos_site_id
 _symmetry_equiv_pos_as_xyz
  1  'x, y, z'
loop_
 _atom_site_type_symbol
 _atom_site_label
 _atom_site_symmetry_multiplicity
 _atom_site_fract_x
 _atom_site_fract_y
 _atom_site_fract_z
 _atom_site_occupancy
  Tb  Tb0  1  0.601422  0.782419  0.819001  1
  Tb  Tb1  1  0.963417  0.782419  0.180999  1
  Tb  Tb2  1  0.036583  0.217581  0.819001  1
  Tb  Tb3  1  0.398578  0.217581  0.180999  1
  Lu  Lu4  1  0.690099  0.256930  0.947030  1
  Lu  Lu5  1  0.309901  0.743070  0.052970  1
  Lu  Lu6  1  0.690099  0.743070  0.433170  1
  Lu  Lu7  1  0.309901  0.256930  0.566830  1
  Lu  Lu8  1  0.816653  0.150454  0.333800  1
  Lu  Lu9  1  0.816653  0.482853  0.666200  1
  Lu  Lu10  1  0.183347  0.849546  0.666200  1
  Lu  Lu11  1  0.183347  0.517147  0.333800  1
  Ga  Ga12  1  0.500000  0.500000  0.000000  1
  Ga  Ga13  1  0.500000  0.000000  0.500000  1
  Tc  Tc14  1  0.819211  0.500000  0.319211  1
  Tc  Tc15  1  0.180789  0.500000  0.680789  1
  Ni  Ni16  1  0.000000  0.124121  0.124121  1
  Ni  Ni17  1  0.000000  0.875879  0.875879  1
