# generated using pymatgen
data_DyHo7(MoO6)4
_symmetry_space_group_name_H-M   'P 1'
_cell_length_a   5.36297900
_cell_length_b   7.67403411
_cell_length_c   11.42957725
_cell_angle_alpha   75.44221927
_cell_angle_beta   90.00000000
_cell_angle_gamma   90.00000000
_symmetry_Int_Tables_number   1
_chemical_formula_structural   DyHo7(MoO6)4
_chemical_formula_sum   'Dy1 Ho7 Mo4 O24'
_cell_volume   455.28996490
_cell_formula_units_Z   1
loop_
 _symmetry_equiv_pos_site_id
 _symmetry_equiv_pos_as_xyz
  1  'x, y, z'
loop_
 _atom_site_type_symbol
 _atom_site_label
 _atom_site_symmetry_multiplicity
 _atom_site_fract_x
 _atom_site_fract_y
 _atom_site_fract_z
 _atom_site_occupancy
  Dy  Dy0  1  0.681256  0.500000  0.750000  1
  Ho  Ho1  1  0.737050  0.000000  0.750000  1
  Ho  Ho2  1  0.263322  0.000000  0.250000  1
  Ho  Ho3  1  0.186290  0.799313  0.578466  1
  Ho  Ho4  1  0.813879  0.799025  0.078776  1
  Ho  Ho5  1  0.318836  0.500000  0.250000  1
  Ho  Ho6  1  0.186290  0.200687  0.921534  1
  Ho  Ho7  1  0.813879  0.200975  0.421224  1
  Mo  Mo8  1  0.253472  0.720920  0.887377  1
  Mo  Mo9  1  0.746472  0.720639  0.387031  1
  Mo  Mo10  1  0.253472  0.279080  0.612623  1
  Mo  Mo11  1  0.746472  0.279361  0.112969  1
  O  O12  1  0.034273  0.938665  0.896812  1
  O  O13  1  0.525022  0.850345  0.930300  1
  O  O14  1  0.965525  0.938860  0.396354  1
  O  O15  1  0.465890  0.786510  0.726305  1
  O  O16  1  0.475361  0.850446  0.430214  1
  O  O17  1  0.985615  0.711194  0.770104  1
  O  O18  1  0.533672  0.786000  0.226294  1
  O  O19  1  0.849964  0.634077  0.548397  1
  O  O20  1  0.358149  0.489567  0.887901  1
  O  O21  1  0.015037  0.710165  0.270260  1
  O  O22  1  0.358149  0.510433  0.612099  1
  O  O23  1  0.849964  0.365923  0.951603  1
  O  O24  1  0.150658  0.634307  0.049004  1
  O  O25  1  0.640489  0.489549  0.387460  1
  O  O26  1  0.985615  0.288806  0.729896  1
  O  O27  1  0.640489  0.510451  0.112540  1
  O  O28  1  0.150658  0.365693  0.450996  1
  O  O29  1  0.465890  0.213490  0.773695  1
  O  O30  1  0.015037  0.289835  0.229740  1
  O  O31  1  0.525022  0.149655  0.569700  1
  O  O32  1  0.533672  0.214000  0.273706  1
  O  O33  1  0.034273  0.061335  0.603188  1
  O  O34  1  0.475361  0.149554  0.069786  1
  O  O35  1  0.965525  0.061140  0.103646  1
