# generated using pymatgen
data_DyHo9(IrRu)3
_symmetry_space_group_name_H-M   'P 1'
_cell_length_a   10.79404415
_cell_length_b   10.78799000
_cell_length_c   6.37915008
_cell_angle_alpha   90.00000000
_cell_angle_beta   89.95887005
_cell_angle_gamma   90.00000000
_symmetry_Int_Tables_number   1
_chemical_formula_structural   DyHo9(IrRu)3
_chemical_formula_sum   'Dy2 Ho18 Ir6 Ru6'
_cell_volume   742.82657635
_cell_formula_units_Z   2
loop_
 _symmetry_equiv_pos_site_id
 _symmetry_equiv_pos_as_xyz
  1  'x, y, z'
loop_
 _atom_site_type_symbol
 _atom_site_label
 _atom_site_symmetry_multiplicity
 _atom_site_fract_x
 _atom_site_fract_y
 _atom_site_fract_z
 _atom_site_occupancy
  Dy  Dy0  1  0.292908  0.086287  0.378250  1
  Dy  Dy1  1  0.292908  0.913713  0.878250  1
  Ho  Ho2  1  0.707893  0.086368  0.877251  1
  Ho  Ho3  1  0.707893  0.913632  0.377251  1
  Ho  Ho4  1  0.587506  0.793400  0.878554  1
  Ho  Ho5  1  0.587506  0.206600  0.378554  1
  Ho  Ho6  1  0.413742  0.793409  0.377571  1
  Ho  Ho7  1  0.413742  0.206591  0.877571  1
  Ho  Ho8  1  0.206224  0.413702  0.621699  1
  Ho  Ho9  1  0.206224  0.586298  0.121699  1
  Ho  Ho10  1  0.793392  0.412706  0.122159  1
  Ho  Ho11  1  0.793392  0.587294  0.622159  1
  Ho  Ho12  1  0.913545  0.707143  0.121738  1
  Ho  Ho13  1  0.913545  0.292857  0.621738  1
  Ho  Ho14  1  0.085881  0.707714  0.622664  1
  Ho  Ho15  1  0.085881  0.292286  0.122664  1
  Ho  Ho16  1  0.998421  0.000620  0.499794  1
  Ho  Ho17  1  0.998421  0.999380  0.999794  1
  Ho  Ho18  1  0.499914  0.500311  0.000210  1
  Ho  Ho19  1  0.499914  0.499689  0.500210  1
  Ir  Ir20  1  0.153598  0.153764  0.750555  1
  Ir  Ir21  1  0.153598  0.846236  0.250555  1
  Ir  Ir22  1  0.652390  0.347989  0.749688  1
  Ir  Ir23  1  0.652390  0.652011  0.249688  1
  Ir  Ir24  1  0.347422  0.347041  0.250279  1
  Ir  Ir25  1  0.347422  0.652959  0.750279  1
  Ru  Ru26  1  0.847138  0.152895  0.249663  1
  Ru  Ru27  1  0.847138  0.847105  0.749663  1
  Ru  Ru28  1  0.500485  0.000253  0.123037  1
  Ru  Ru29  1  0.500485  0.999747  0.623037  1
  Ru  Ru30  1  0.999539  0.500295  0.876887  1
  Ru  Ru31  1  0.999539  0.499705  0.376887  1
