# generated using pymatgen
data_Mn5InPd10
_symmetry_space_group_name_H-M   'P 1'
_cell_length_a   5.52128576
_cell_length_b   10.87215806
_cell_length_c   4.15153300
_cell_angle_alpha   90.00000000
_cell_angle_beta   90.00000000
_cell_angle_gamma   88.54991865
_symmetry_Int_Tables_number   1
_chemical_formula_structural   Mn5InPd10
_chemical_formula_sum   'Mn5 In1 Pd10'
_cell_volume   249.12962398
_cell_formula_units_Z   1
loop_
 _symmetry_equiv_pos_site_id
 _symmetry_equiv_pos_as_xyz
  1  'x, y, z'
loop_
 _atom_site_type_symbol
 _atom_site_label
 _atom_site_symmetry_multiplicity
 _atom_site_fract_x
 _atom_site_fract_y
 _atom_site_fract_z
 _atom_site_occupancy
  Mn  Mn0  1  0.000000  0.000000  0.000000  1
  Mn  Mn1  1  0.316515  0.133742  0.500001  1
  Mn  Mn2  1  0.815100  0.358760  0.500001  1
  Mn  Mn3  1  0.184900  0.641240  0.500001  1
  Mn  Mn4  1  0.683485  0.866258  0.500001  1
  In  In5  1  0.500000  0.500000  0.000000  1
  Pd  Pd6  1  0.500000  0.000000  0.000000  1
  Pd  Pd7  1  0.075014  0.240489  0.000000  1
  Pd  Pd8  1  0.575357  0.250344  0.000000  1
  Pd  Pd9  1  0.000000  0.500000  0.000000  1
  Pd  Pd10  1  0.424641  0.749656  0.000000  1
  Pd  Pd11  1  0.924987  0.759512  0.000000  1
  Pd  Pd12  1  0.808872  0.110288  0.500001  1
  Pd  Pd13  1  0.295200  0.380037  0.500001  1
  Pd  Pd14  1  0.704800  0.619962  0.500001  1
  Pd  Pd15  1  0.191129  0.889713  0.500001  1
