# generated using pymatgen
data_Dy20Ir3(Pt2Rh)3
_symmetry_space_group_name_H-M   'P 1'
_cell_length_a   11.02590179
_cell_length_b   11.02273903
_cell_length_c   6.34602043
_cell_angle_alpha   89.99843393
_cell_angle_beta   90.04241275
_cell_angle_gamma   89.99146126
_symmetry_Int_Tables_number   1
_chemical_formula_structural   Dy20Ir3(Pt2Rh)3
_chemical_formula_sum   'Dy20 Ir3 Pt6 Rh3'
_cell_volume   771.26742203
_cell_formula_units_Z   1
loop_
 _symmetry_equiv_pos_site_id
 _symmetry_equiv_pos_as_xyz
  1  'x, y, z'
loop_
 _atom_site_type_symbol
 _atom_site_label
 _atom_site_symmetry_multiplicity
 _atom_site_fract_x
 _atom_site_fract_y
 _atom_site_fract_z
 _atom_site_occupancy
  Dy  Dy0  1  0.293939  0.091231  0.376460  1
  Dy  Dy1  1  0.294043  0.908084  0.876053  1
  Dy  Dy2  1  0.705914  0.088626  0.875804  1
  Dy  Dy3  1  0.705907  0.912058  0.375741  1
  Dy  Dy4  1  0.585793  0.792178  0.876159  1
  Dy  Dy5  1  0.585291  0.208150  0.376338  1
  Dy  Dy6  1  0.410334  0.792025  0.381616  1
  Dy  Dy7  1  0.409870  0.207831  0.881330  1
  Dy  Dy8  1  0.209210  0.412855  0.618767  1
  Dy  Dy9  1  0.209518  0.587443  0.121800  1
  Dy  Dy10  1  0.794806  0.411305  0.123641  1
  Dy  Dy11  1  0.795280  0.588475  0.620813  1
  Dy  Dy12  1  0.912248  0.705779  0.124831  1
  Dy  Dy13  1  0.912484  0.294661  0.621726  1
  Dy  Dy14  1  0.091869  0.704989  0.622847  1
  Dy  Dy15  1  0.092051  0.294615  0.125761  1
  Dy  Dy16  1  0.999799  0.999694  0.500211  1
  Dy  Dy17  1  0.999885  0.000167  0.999952  1
  Dy  Dy18  1  0.497362  0.499751  0.000130  1
  Dy  Dy19  1  0.497483  0.500200  0.500312  1
  Ir  Ir20  1  0.346513  0.344250  0.249858  1
  Ir  Ir21  1  0.345760  0.655009  0.749511  1
  Ir  Ir22  1  0.999310  0.499910  0.376060  1
  Pt  Pt23  1  0.844282  0.153242  0.250436  1
  Pt  Pt24  1  0.844664  0.845950  0.750257  1
  Pt  Pt25  1  0.153758  0.154313  0.749314  1
  Pt  Pt26  1  0.154385  0.846518  0.249445  1
  Pt  Pt27  1  0.654673  0.345511  0.749792  1
  Pt  Pt28  1  0.653921  0.654929  0.249937  1
  Rh  Rh29  1  0.500352  0.999924  0.123742  1
  Rh  Rh30  1  0.500380  0.000131  0.624199  1
  Rh  Rh31  1  0.998918  0.500197  0.877157  1
