# generated using pymatgen
data_Hf18MnRe7Pd2
_symmetry_space_group_name_H-M   'P 1'
_cell_length_a   8.64069600
_cell_length_b   8.64069666
_cell_length_c   8.50825200
_cell_angle_alpha   90.00000000
_cell_angle_beta   90.00000000
_cell_angle_gamma   119.99999749
_symmetry_Int_Tables_number   1
_chemical_formula_structural   Hf18MnRe7Pd2
_chemical_formula_sum   'Hf18 Mn1 Re7 Pd2'
_cell_volume   550.13398154
_cell_formula_units_Z   1
loop_
 _symmetry_equiv_pos_site_id
 _symmetry_equiv_pos_as_xyz
  1  'x, y, z'
loop_
 _atom_site_type_symbol
 _atom_site_label
 _atom_site_symmetry_multiplicity
 _atom_site_fract_x
 _atom_site_fract_y
 _atom_site_fract_z
 _atom_site_occupancy
  Hf  Hf0  1  0.192166  0.807834  0.447522  1
  Hf  Hf1  1  0.192166  0.384332  0.447522  1
  Hf  Hf2  1  0.615668  0.807834  0.447522  1
  Hf  Hf3  1  0.807834  0.192166  0.552478  1
  Hf  Hf4  1  0.807834  0.615668  0.552478  1
  Hf  Hf5  1  0.384332  0.192166  0.552478  1
  Hf  Hf6  1  0.805751  0.194249  0.946316  1
  Hf  Hf7  1  0.805751  0.611504  0.946316  1
  Hf  Hf8  1  0.388496  0.194249  0.946316  1
  Hf  Hf9  1  0.194249  0.805751  0.053684  1
  Hf  Hf10  1  0.194249  0.388496  0.053684  1
  Hf  Hf11  1  0.611504  0.805751  0.053684  1
  Hf  Hf12  1  0.543191  0.456809  0.249995  1
  Hf  Hf13  1  0.543191  0.086382  0.249995  1
  Hf  Hf14  1  0.913618  0.456809  0.249995  1
  Hf  Hf15  1  0.456809  0.543191  0.750005  1
  Hf  Hf16  1  0.456809  0.913618  0.750005  1
  Hf  Hf17  1  0.086382  0.543191  0.750005  1
  Mn  Mn18  1  0.000000  0.000000  0.500000  1
  Re  Re19  1  0.890232  0.109768  0.252990  1
  Re  Re20  1  0.890232  0.780463  0.252990  1
  Re  Re21  1  0.219537  0.109768  0.252990  1
  Re  Re22  1  0.109768  0.890232  0.747010  1
  Re  Re23  1  0.109768  0.219537  0.747010  1
  Re  Re24  1  0.780463  0.890232  0.747010  1
  Re  Re25  1  0.000000  0.000000  0.000000  1
  Pd  Pd26  1  0.333333  0.666667  0.251820  1
  Pd  Pd27  1  0.666667  0.333333  0.748180  1
