# generated using pymatgen
data_RbH5W
_symmetry_space_group_name_H-M   'P 1'
_cell_length_a   4.76880300
_cell_length_b   5.98775300
_cell_length_c   13.54909600
_cell_angle_alpha   90.00000000
_cell_angle_beta   90.00000000
_cell_angle_gamma   90.00000000
_symmetry_Int_Tables_number   1
_chemical_formula_structural   RbH5W
_chemical_formula_sum   'Rb4 H20 W4'
_cell_volume   386.88650287
_cell_formula_units_Z   4
loop_
 _symmetry_equiv_pos_site_id
 _symmetry_equiv_pos_as_xyz
  1  'x, y, z'
loop_
 _atom_site_type_symbol
 _atom_site_label
 _atom_site_symmetry_multiplicity
 _atom_site_fract_x
 _atom_site_fract_y
 _atom_site_fract_z
 _atom_site_occupancy
  Rb  Rb0  1  0.272826  0.250024  0.657388  1
  Rb  Rb1  1  0.772826  0.249976  0.342612  1
  Rb  Rb2  1  0.227174  0.749976  0.157388  1
  Rb  Rb3  1  0.727174  0.750024  0.842612  1
  H  H4  1  0.510324  0.524463  0.488428  1
  H  H5  1  0.010324  0.975537  0.511572  1
  H  H6  1  0.989676  0.475537  0.988428  1
  H  H7  1  0.489676  0.024463  0.011572  1
  H  H8  1  0.226103  0.071733  0.854900  1
  H  H9  1  0.726103  0.428267  0.145100  1
  H  H10  1  0.273897  0.928267  0.354900  1
  H  H11  1  0.773897  0.571733  0.645100  1
  H  H12  1  0.226228  0.428419  0.854926  1
  H  H13  1  0.726228  0.071581  0.145074  1
  H  H14  1  0.273772  0.571581  0.354926  1
  H  H15  1  0.773772  0.928419  0.645074  1
  H  H16  1  0.620836  0.249994  0.909897  1
  H  H17  1  0.120836  0.250006  0.090103  1
  H  H18  1  0.879164  0.750006  0.409897  1
  H  H19  1  0.379164  0.749994  0.590103  1
  H  H20  1  0.989697  0.024463  0.988410  1
  H  H21  1  0.489697  0.475537  0.011590  1
  H  H22  1  0.510303  0.975537  0.488410  1
  H  H23  1  0.010303  0.524463  0.511590  1
  W  W24  1  0.236259  0.250028  0.958439  1
  W  W25  1  0.736259  0.249972  0.041561  1
  W  W26  1  0.263741  0.749972  0.458439  1
  W  W27  1  0.763741  0.750028  0.541561  1
