# generated using pymatgen
data_HoTm7(SiI6)2
_symmetry_space_group_name_H-M   'P 1'
_cell_length_a   4.17278400
_cell_length_b   13.79521428
_cell_length_c   14.59317330
_cell_angle_alpha   90.02306477
_cell_angle_beta   90.00000000
_cell_angle_gamma   90.00000000
_symmetry_Int_Tables_number   1
_chemical_formula_structural   HoTm7(SiI6)2
_chemical_formula_sum   'Ho1 Tm7 Si2 I12'
_cell_volume   840.04791801
_cell_formula_units_Z   1
loop_
 _symmetry_equiv_pos_site_id
 _symmetry_equiv_pos_as_xyz
  1  'x, y, z'
loop_
 _atom_site_type_symbol
 _atom_site_label
 _atom_site_symmetry_multiplicity
 _atom_site_fract_x
 _atom_site_fract_y
 _atom_site_fract_z
 _atom_site_occupancy
  Ho  Ho0  1  0.500000  0.113873  0.347639  1
  Tm  Tm1  1  0.500000  0.886276  0.652165  1
  Tm  Tm2  1  0.500000  0.613569  0.151955  1
  Tm  Tm3  1  0.500000  0.386439  0.848023  1
  Tm  Tm4  1  0.000000  0.109579  0.573322  1
  Tm  Tm5  1  0.000000  0.890481  0.426581  1
  Tm  Tm6  1  0.000000  0.609495  0.926671  1
  Tm  Tm7  1  0.000000  0.390500  0.073301  1
  Si  Si8  1  0.500000  0.999523  0.500640  1
  Si  Si9  1  0.500000  0.500015  0.999979  1
  I  I10  1  0.500000  0.248025  0.161849  1
  I  I11  1  0.500000  0.752388  0.837647  1
  I  I12  1  0.500000  0.747503  0.337594  1
  I  I13  1  0.500000  0.252451  0.662484  1
  I  I14  1  0.000000  0.259577  0.415272  1
  I  I15  1  0.000000  0.741522  0.585594  1
  I  I16  1  0.000000  0.758374  0.085587  1
  I  I17  1  0.000000  0.241618  0.914375  1
  I  I18  1  0.000000  0.998461  0.239710  1
  I  I19  1  0.000000  0.000319  0.759631  1
  I  I20  1  0.000000  0.499720  0.259549  1
  I  I21  1  0.000000  0.500292  0.740430  1
