# generated using pymatgen
data_SrAc2Cd11
_symmetry_space_group_name_H-M   'P 1'
_cell_length_a   9.32197833
_cell_length_b   9.32197971
_cell_length_c   9.32197830
_cell_angle_alpha   147.41653158
_cell_angle_beta   116.47174049
_cell_angle_gamma   73.23994489
_symmetry_Int_Tables_number   1
_chemical_formula_structural   SrAc2Cd11
_chemical_formula_sum   'Sr1 Ac2 Cd11'
_cell_volume   384.06135941
_cell_formula_units_Z   1
loop_
 _symmetry_equiv_pos_site_id
 _symmetry_equiv_pos_as_xyz
  1  'x, y, z'
loop_
 _atom_site_type_symbol
 _atom_site_label
 _atom_site_symmetry_multiplicity
 _atom_site_fract_x
 _atom_site_fract_y
 _atom_site_fract_z
 _atom_site_occupancy
  Sr  Sr0  1  0.000000  0.000000  0.000000  1
  Ac  Ac1  1  0.298387  0.298387  0.000000  1
  Ac  Ac2  1  0.701613  0.701613  0.000000  1
  Cd  Cd3  1  0.680521  0.500000  0.180521  1
  Cd  Cd4  1  0.422438  0.138642  0.283797  1
  Cd  Cd5  1  0.145157  0.861358  0.283796  1
  Cd  Cd6  1  0.693072  0.337227  0.355846  1
  Cd  Cd7  1  0.018619  0.662773  0.355845  1
  Cd  Cd8  1  0.500000  0.000000  0.500000  1
  Cd  Cd9  1  0.981381  0.337227  0.644154  1
  Cd  Cd10  1  0.306928  0.662773  0.644153  1
  Cd  Cd11  1  0.854843  0.138642  0.716203  1
  Cd  Cd12  1  0.577562  0.861358  0.716202  1
  Cd  Cd13  1  0.319479  0.499999  0.819479  1
