# generated using pymatgen
data_Ba6Mn2In2O13
_symmetry_space_group_name_H-M   'P 1'
_cell_length_a   11.34562600
_cell_length_b   11.34562443
_cell_length_c   5.85252000
_cell_angle_alpha   90.00000000
_cell_angle_beta   90.00000000
_cell_angle_gamma   150.04942650
_symmetry_Int_Tables_number   1
_chemical_formula_structural   Ba6Mn2In2O13
_chemical_formula_sum   'Ba6 Mn2 In2 O13'
_cell_volume   376.11462720
_cell_formula_units_Z   1
loop_
 _symmetry_equiv_pos_site_id
 _symmetry_equiv_pos_as_xyz
  1  'x, y, z'
loop_
 _atom_site_type_symbol
 _atom_site_label
 _atom_site_symmetry_multiplicity
 _atom_site_fract_x
 _atom_site_fract_y
 _atom_site_fract_z
 _atom_site_occupancy
  Ba  Ba0  1  0.500000  0.500000  0.000000  1
  Ba  Ba1  1  0.000000  0.000000  0.500000  1
  Ba  Ba2  1  0.180561  0.819439  0.500000  1
  Ba  Ba3  1  0.682357  0.317643  0.000000  1
  Ba  Ba4  1  0.317643  0.682357  0.000000  1
  Ba  Ba5  1  0.819439  0.180561  0.500000  1
  Mn  Mn6  1  0.392797  0.607203  0.500000  1
  Mn  Mn7  1  0.607203  0.392797  0.500000  1
  In  In8  1  0.903528  0.096472  0.000000  1
  In  In9  1  0.096472  0.903528  0.000000  1
  O  O10  1  0.635896  0.820558  0.727574  1
  O  O11  1  0.179442  0.364104  0.272426  1
  O  O12  1  0.820558  0.635896  0.727574  1
  O  O13  1  0.364104  0.179442  0.272426  1
  O  O14  1  0.179442  0.364104  0.727574  1
  O  O15  1  0.635896  0.820558  0.272426  1
  O  O16  1  0.364104  0.179442  0.727574  1
  O  O17  1  0.820558  0.635896  0.272426  1
  O  O18  1  0.308590  0.691410  0.500000  1
  O  O19  1  0.806173  0.193827  0.000000  1
  O  O20  1  0.193827  0.806173  0.000000  1
  O  O21  1  0.691410  0.308590  0.500000  1
  O  O22  1  0.000000  0.000000  0.000000  1
