# generated using pymatgen
data_Sc22Tc5OsPd2
_symmetry_space_group_name_H-M   'P 1'
_cell_length_a   9.54919177
_cell_length_b   9.65078799
_cell_length_c   9.65078600
_cell_angle_alpha   59.30473959
_cell_angle_beta   60.34762858
_cell_angle_gamma   60.34763157
_symmetry_Int_Tables_number   1
_chemical_formula_structural   Sc22Tc5OsPd2
_chemical_formula_sum   'Sc22 Tc5 Os1 Pd2'
_cell_volume   628.75551598
_cell_formula_units_Z   1
loop_
 _symmetry_equiv_pos_site_id
 _symmetry_equiv_pos_as_xyz
  1  'x, y, z'
loop_
 _atom_site_type_symbol
 _atom_site_label
 _atom_site_symmetry_multiplicity
 _atom_site_fract_x
 _atom_site_fract_y
 _atom_site_fract_z
 _atom_site_occupancy
  Sc  Sc0  1  0.850661  0.839321  0.839321  1
  Sc  Sc1  1  0.529303  0.160679  0.160679  1
  Sc  Sc2  1  0.160679  0.149339  0.529303  1
  Sc  Sc3  1  0.160679  0.529303  0.149339  1
  Sc  Sc4  1  0.839321  0.850661  0.470697  1
  Sc  Sc5  1  0.839321  0.470697  0.850661  1
  Sc  Sc6  1  0.470697  0.839321  0.839321  1
  Sc  Sc7  1  0.149339  0.160679  0.160679  1
  Sc  Sc8  1  0.194753  0.805247  0.194753  1
  Sc  Sc9  1  0.197786  0.802214  0.802214  1
  Sc  Sc10  1  0.802214  0.197786  0.197786  1
  Sc  Sc11  1  0.805247  0.805247  0.194753  1
  Sc  Sc12  1  0.194753  0.194753  0.805247  1
  Sc  Sc13  1  0.805247  0.194753  0.805247  1
  Sc  Sc14  1  0.388133  0.382003  0.382003  1
  Sc  Sc15  1  0.152140  0.617997  0.617997  1
  Sc  Sc16  1  0.617997  0.152140  0.611867  1
  Sc  Sc17  1  0.617997  0.611867  0.152140  1
  Sc  Sc18  1  0.382003  0.847860  0.388133  1
  Sc  Sc19  1  0.382003  0.388133  0.847860  1
  Sc  Sc20  1  0.847860  0.382003  0.382003  1
  Sc  Sc21  1  0.611867  0.617997  0.617997  1
  Tc  Tc22  1  0.500000  0.500000  0.000000  1
  Tc  Tc23  1  0.000000  0.000000  0.500000  1
  Tc  Tc24  1  0.500000  0.000000  0.500000  1
  Tc  Tc25  1  0.000000  0.500000  0.000000  1
  Tc  Tc26  1  0.000000  0.000000  0.000000  1
  Os  Os27  1  0.500000  0.500000  0.500000  1
  Pd  Pd28  1  0.000000  0.500000  0.500000  1
  Pd  Pd29  1  0.500000  0.000000  0.000000  1
