# generated using pymatgen
data_Pr9Ho11Sn16
_symmetry_space_group_name_H-M   'P 1'
_cell_length_a   8.13700756
_cell_length_b   8.32895853
_cell_length_c   15.66639400
_cell_angle_alpha   90.00000000
_cell_angle_beta   90.00000000
_cell_angle_gamma   89.95820041
_symmetry_Int_Tables_number   1
_chemical_formula_structural   Pr9Ho11Sn16
_chemical_formula_sum   'Pr9 Ho11 Sn16'
_cell_volume   1061.75508232
_cell_formula_units_Z   1
loop_
 _symmetry_equiv_pos_site_id
 _symmetry_equiv_pos_as_xyz
  1  'x, y, z'
loop_
 _atom_site_type_symbol
 _atom_site_label
 _atom_site_symmetry_multiplicity
 _atom_site_fract_x
 _atom_site_fract_y
 _atom_site_fract_z
 _atom_site_occupancy
  Pr  Pr0  1  0.511269  0.322723  0.902866  1
  Pr  Pr1  1  0.011309  0.178423  0.597665  1
  Pr  Pr2  1  0.489716  0.677352  0.404093  1
  Pr  Pr3  1  0.989103  0.820373  0.095803  1
  Pr  Pr4  1  0.489716  0.677352  0.095907  1
  Pr  Pr5  1  0.989103  0.820373  0.404197  1
  Pr  Pr6  1  0.511269  0.322723  0.597134  1
  Pr  Pr7  1  0.011309  0.178423  0.902335  1
  Pr  Pr8  1  0.309918  0.000243  0.250000  1
  Ho  Ho9  1  0.355699  0.835129  0.874987  1
  Ho  Ho10  1  0.856339  0.664963  0.623370  1
  Ho  Ho11  1  0.643676  0.165341  0.376986  1
  Ho  Ho12  1  0.143482  0.334398  0.122349  1
  Ho  Ho13  1  0.643676  0.165341  0.123014  1
  Ho  Ho14  1  0.143482  0.334398  0.377651  1
  Ho  Ho15  1  0.355699  0.835129  0.625013  1
  Ho  Ho16  1  0.856339  0.664963  0.876630  1
  Ho  Ho17  1  0.189505  0.502353  0.750000  1
  Ho  Ho18  1  0.689700  0.998337  0.750000  1
  Ho  Ho19  1  0.809924  0.497585  0.250000  1
  Sn  Sn20  1  0.308426  0.041876  0.038495  1
  Sn  Sn21  1  0.807681  0.458597  0.458304  1
  Sn  Sn22  1  0.691716  0.959531  0.542460  1
  Sn  Sn23  1  0.192752  0.541558  0.957608  1
  Sn  Sn24  1  0.691716  0.959531  0.957540  1
  Sn  Sn25  1  0.192752  0.541558  0.542392  1
  Sn  Sn26  1  0.308426  0.041876  0.461505  1
  Sn  Sn27  1  0.807681  0.458597  0.041696  1
  Sn  Sn28  1  0.555763  0.624110  0.750000  1
  Sn  Sn29  1  0.054114  0.875483  0.750000  1
  Sn  Sn30  1  0.445624  0.378710  0.250000  1
  Sn  Sn31  1  0.939457  0.128194  0.250000  1
  Sn  Sn32  1  0.320376  0.143406  0.750000  1
  Sn  Sn33  1  0.819438  0.359033  0.750000  1
  Sn  Sn34  1  0.684829  0.857101  0.250000  1
  Sn  Sn35  1  0.179015  0.634917  0.250000  1
