# generated using pymatgen
data_Tb2PrHo2(In2Pd)2
_symmetry_space_group_name_H-M   'P 1'
_cell_length_a   3.64976100
_cell_length_b   8.22589300
_cell_length_c   18.40627200
_cell_angle_alpha   90.00000000
_cell_angle_beta   90.00000000
_cell_angle_gamma   90.00000000
_symmetry_Int_Tables_number   1
_chemical_formula_structural   Tb2PrHo2(In2Pd)2
_chemical_formula_sum   'Tb4 Pr2 Ho4 In8 Pd4'
_cell_volume   552.60310109
_cell_formula_units_Z   2
loop_
 _symmetry_equiv_pos_site_id
 _symmetry_equiv_pos_as_xyz
  1  'x, y, z'
loop_
 _atom_site_type_symbol
 _atom_site_label
 _atom_site_symmetry_multiplicity
 _atom_site_fract_x
 _atom_site_fract_y
 _atom_site_fract_z
 _atom_site_occupancy
  Tb  Tb0  1  0.000000  0.738858  0.282478  1
  Tb  Tb1  1  0.000000  0.261142  0.717522  1
  Tb  Tb2  1  0.000000  0.761142  0.782478  1
  Tb  Tb3  1  0.000000  0.238858  0.217522  1
  Pr  Pr4  1  0.000000  0.500000  0.500000  1
  Pr  Pr5  1  0.000000  0.000000  0.000000  1
  Ho  Ho6  1  0.000000  0.621329  0.084616  1
  Ho  Ho7  1  0.000000  0.378671  0.915384  1
  Ho  Ho8  1  0.000000  0.878671  0.584616  1
  Ho  Ho9  1  0.000000  0.121329  0.415384  1
  In  In10  1  0.500000  0.697393  0.932446  1
  In  In11  1  0.500000  0.302607  0.067554  1
  In  In12  1  0.500000  0.802607  0.432446  1
  In  In13  1  0.500000  0.197393  0.567554  1
  In  In14  1  0.500000  0.583670  0.653710  1
  In  In15  1  0.500000  0.416330  0.346290  1
  In  In16  1  0.500000  0.916330  0.153710  1
  In  In17  1  0.500000  0.083670  0.846290  1
  Pd  Pd18  1  0.500000  0.524918  0.195356  1
  Pd  Pd19  1  0.500000  0.475082  0.804644  1
  Pd  Pd20  1  0.500000  0.975082  0.695356  1
  Pd  Pd21  1  0.500000  0.024918  0.304644  1
