# generated using pymatgen
data_TbHoNi12P7
_symmetry_space_group_name_H-M   'P 1'
_cell_length_a   9.04309500
_cell_length_b   9.04309525
_cell_length_c   3.67759500
_cell_angle_alpha   90.00000000
_cell_angle_beta   90.00000000
_cell_angle_gamma   120.00000274
_symmetry_Int_Tables_number   1
_chemical_formula_structural   TbHoNi12P7
_chemical_formula_sum   'Tb1 Ho1 Ni12 P7'
_cell_volume   260.45261279
_cell_formula_units_Z   1
loop_
 _symmetry_equiv_pos_site_id
 _symmetry_equiv_pos_as_xyz
  1  'x, y, z'
loop_
 _atom_site_type_symbol
 _atom_site_label
 _atom_site_symmetry_multiplicity
 _atom_site_fract_x
 _atom_site_fract_y
 _atom_site_fract_z
 _atom_site_occupancy
  Tb  Tb0  1  0.333333  0.666667  0.000000  1
  Ho  Ho1  1  0.666667  0.333333  0.500000  1
  Ni  Ni2  1  0.434237  0.061844  0.000000  1
  Ni  Ni3  1  0.627607  0.565763  0.000000  1
  Ni  Ni4  1  0.938156  0.372393  0.000000  1
  Ni  Ni5  1  0.151414  0.274526  0.000000  1
  Ni  Ni6  1  0.123112  0.848586  0.000000  1
  Ni  Ni7  1  0.725474  0.876888  0.000000  1
  Ni  Ni8  1  0.381515  0.429872  0.500000  1
  Ni  Ni9  1  0.048357  0.618485  0.500000  1
  Ni  Ni10  1  0.570128  0.951643  0.500000  1
  Ni  Ni11  1  0.214661  0.094208  0.500000  1
  Ni  Ni12  1  0.879548  0.785339  0.500000  1
  Ni  Ni13  1  0.905792  0.120452  0.500000  1
  P  P14  1  0.000000  0.000000  0.000000  1
  P  P15  1  0.406974  0.294395  0.000000  1
  P  P16  1  0.887422  0.593026  0.000000  1
  P  P17  1  0.705605  0.112578  0.000000  1
  P  P18  1  0.109416  0.404193  0.500000  1
  P  P19  1  0.294778  0.890584  0.500000  1
  P  P20  1  0.595807  0.705222  0.500000  1
