# generated using pymatgen
data_ZrSc4Pd14Au
_symmetry_space_group_name_H-M   'P 1'
_cell_length_a   4.02603600
_cell_length_b   3.98751700
_cell_length_c   20.05313600
_cell_angle_alpha   90.00000000
_cell_angle_beta   90.00000000
_cell_angle_gamma   90.00000000
_symmetry_Int_Tables_number   1
_chemical_formula_structural   ZrSc4Pd14Au
_chemical_formula_sum   'Zr1 Sc4 Pd14 Au1'
_cell_volume   321.93077919
_cell_formula_units_Z   1
loop_
 _symmetry_equiv_pos_site_id
 _symmetry_equiv_pos_as_xyz
  1  'x, y, z'
loop_
 _atom_site_type_symbol
 _atom_site_label
 _atom_site_symmetry_multiplicity
 _atom_site_fract_x
 _atom_site_fract_y
 _atom_site_fract_z
 _atom_site_occupancy
  Zr  Zr0  1  0.000000  0.000000  0.000000  1
  Sc  Sc1  1  0.000000  0.000000  0.199101  1
  Sc  Sc2  1  0.000000  0.000000  0.394710  1
  Sc  Sc3  1  0.000000  0.000000  0.605290  1
  Sc  Sc4  1  0.000000  0.000000  0.800899  1
  Pd  Pd5  1  0.500000  0.500000  0.000000  1
  Pd  Pd6  1  0.500000  0.500000  0.197862  1
  Pd  Pd7  1  0.500000  0.500000  0.398154  1
  Pd  Pd8  1  0.500000  0.500000  0.601846  1
  Pd  Pd9  1  0.500000  0.500000  0.802138  1
  Pd  Pd10  1  0.500000  0.000000  0.098600  1
  Pd  Pd11  1  0.500000  0.000000  0.297972  1
  Pd  Pd12  1  0.500000  0.000000  0.702028  1
  Pd  Pd13  1  0.500000  0.000000  0.901400  1
  Pd  Pd14  1  0.000000  0.500000  0.098636  1
  Pd  Pd15  1  0.000000  0.500000  0.297860  1
  Pd  Pd16  1  0.000000  0.500000  0.500000  1
  Pd  Pd17  1  0.000000  0.500000  0.702140  1
  Pd  Pd18  1  0.000000  0.500000  0.901364  1
  Au  Au19  1  0.500000  0.000000  0.500000  1
