# generated using pymatgen
data_LaPr2RuBr3
_symmetry_space_group_name_H-M   'P 1'
_cell_length_a   4.29754900
_cell_length_b   9.29112835
_cell_length_c   12.08270510
_cell_angle_alpha   87.99365958
_cell_angle_beta   90.00000000
_cell_angle_gamma   90.00000000
_symmetry_Int_Tables_number   1
_chemical_formula_structural   LaPr2RuBr3
_chemical_formula_sum   'La2 Pr4 Ru2 Br6'
_cell_volume   482.15552845
_cell_formula_units_Z   2
loop_
 _symmetry_equiv_pos_site_id
 _symmetry_equiv_pos_as_xyz
  1  'x, y, z'
loop_
 _atom_site_type_symbol
 _atom_site_label
 _atom_site_symmetry_multiplicity
 _atom_site_fract_x
 _atom_site_fract_y
 _atom_site_fract_z
 _atom_site_occupancy
  La  La0  1  0.250000  0.879578  0.837997  1
  La  La1  1  0.750000  0.120422  0.162003  1
  Pr  Pr2  1  0.250000  0.324491  0.378928  1
  Pr  Pr3  1  0.750000  0.675509  0.621072  1
  Pr  Pr4  1  0.250000  0.897095  0.391786  1
  Pr  Pr5  1  0.750000  0.102905  0.608214  1
  Ru  Ru6  1  0.250000  0.884316  0.633043  1
  Ru  Ru7  1  0.750000  0.115684  0.366957  1
  Br  Br8  1  0.250000  0.394722  0.627621  1
  Br  Br9  1  0.750000  0.605278  0.372379  1
  Br  Br10  1  0.250000  0.883391  0.117126  1
  Br  Br11  1  0.750000  0.116609  0.882874  1
  Br  Br12  1  0.250000  0.356133  0.127818  1
  Br  Br13  1  0.750000  0.643867  0.872182  1
