# generated using pymatgen
data_Sr4Re6O18F
_symmetry_space_group_name_H-M   'P 1'
_cell_length_a   8.03522731
_cell_length_b   8.03522736
_cell_length_c   8.03522700
_cell_angle_alpha   109.47121974
_cell_angle_beta   109.47121984
_cell_angle_gamma   109.47121776
_symmetry_Int_Tables_number   1
_chemical_formula_structural   Sr4Re6O18F
_chemical_formula_sum   'Sr4 Re6 O18 F1'
_cell_volume   399.36740923
_cell_formula_units_Z   1
loop_
 _symmetry_equiv_pos_site_id
 _symmetry_equiv_pos_as_xyz
  1  'x, y, z'
loop_
 _atom_site_type_symbol
 _atom_site_label
 _atom_site_symmetry_multiplicity
 _atom_site_fract_x
 _atom_site_fract_y
 _atom_site_fract_z
 _atom_site_occupancy
  Sr  Sr0  1  0.000000  0.321185  0.000000  1
  Sr  Sr1  1  0.000000  0.000000  0.321185  1
  Sr  Sr2  1  0.678815  0.678815  0.678815  1
  Sr  Sr3  1  0.321185  0.000000  0.000000  1
  Re  Re4  1  0.500000  0.366627  0.866627  1
  Re  Re5  1  0.500000  0.633373  0.133373  1
  Re  Re6  1  0.366627  0.866627  0.500000  1
  Re  Re7  1  0.633373  0.133373  0.500000  1
  Re  Re8  1  0.866627  0.500000  0.366627  1
  Re  Re9  1  0.133373  0.500000  0.633373  1
  O  O10  1  0.704396  0.347641  0.063837  1
  O  O11  1  0.652359  0.356755  0.716195  1
  O  O12  1  0.283805  0.640560  0.936163  1
  O  O13  1  0.643245  0.295604  0.359440  1
  O  O14  1  0.356755  0.716195  0.652359  1
  O  O15  1  0.936163  0.283805  0.640560  1
  O  O16  1  0.063837  0.704396  0.347641  1
  O  O17  1  0.000000  0.671293  0.671293  1
  O  O18  1  0.671293  0.671293  0.000000  1
  O  O19  1  0.716195  0.652359  0.356755  1
  O  O20  1  0.347641  0.063837  0.704396  1
  O  O21  1  0.671293  0.000000  0.671293  1
  O  O22  1  0.000000  0.328707  0.328707  1
  O  O23  1  0.640560  0.936163  0.283805  1
  O  O24  1  0.359440  0.643245  0.295604  1
  O  O25  1  0.295604  0.359440  0.643245  1
  O  O26  1  0.328707  0.000000  0.328707  1
  O  O27  1  0.328707  0.328707  0.000000  1
  F  F28  1  0.000000  0.000000  0.000000  1
