# generated using pymatgen
data_TaRe5Sb14
_symmetry_space_group_name_H-M   'P 1'
_cell_length_a   8.30782827
_cell_length_b   8.30782866
_cell_length_c   8.30782804
_cell_angle_alpha   109.24963669
_cell_angle_beta   109.91529973
_cell_angle_gamma   109.24963782
_symmetry_Int_Tables_number   1
_chemical_formula_structural   TaRe5Sb14
_chemical_formula_sum   'Ta1 Re5 Sb14'
_cell_volume   441.38856544
_cell_formula_units_Z   1
loop_
 _symmetry_equiv_pos_site_id
 _symmetry_equiv_pos_as_xyz
  1  'x, y, z'
loop_
 _atom_site_type_symbol
 _atom_site_label
 _atom_site_symmetry_multiplicity
 _atom_site_fract_x
 _atom_site_fract_y
 _atom_site_fract_z
 _atom_site_occupancy
  Ta  Ta0  1  0.343840  0.000000  0.343840  1
  Re  Re1  1  0.000157  0.342117  0.342275  1
  Re  Re2  1  0.000157  0.657883  0.658040  1
  Re  Re3  1  0.342275  0.342117  0.000157  1
  Re  Re4  1  0.658040  0.657883  0.000157  1
  Re  Re5  1  0.663999  0.000000  0.663999  1
  Sb  Sb6  1  0.750811  0.500000  0.250811  1
  Sb  Sb7  1  0.499700  0.747680  0.247379  1
  Sb  Sb8  1  0.499700  0.252320  0.752020  1
  Sb  Sb9  1  0.752020  0.252320  0.499700  1
  Sb  Sb10  1  0.247379  0.747680  0.499700  1
  Sb  Sb11  1  0.250811  0.500000  0.750811  1
  Sb  Sb12  1  0.997819  0.000000  0.325904  1
  Sb  Sb13  1  0.672445  0.000000  0.999389  1
  Sb  Sb14  1  0.997819  0.671916  0.997819  1
  Sb  Sb15  1  0.325904  0.328084  0.325904  1
  Sb  Sb16  1  0.999389  0.326944  0.999389  1
  Sb  Sb17  1  0.672445  0.673056  0.672445  1
  Sb  Sb18  1  0.325904  0.000000  0.997819  1
  Sb  Sb19  1  0.999389  0.000000  0.672445  1
