# generated using pymatgen
data_LiLa4Sb8Ir2Rh3
_symmetry_space_group_name_H-M   'P 1'
_cell_length_a   4.61698000
_cell_length_b   11.37907700
_cell_length_c   16.30808700
_cell_angle_alpha   90.00000000
_cell_angle_beta   90.00000000
_cell_angle_gamma   90.00000000
_symmetry_Int_Tables_number   1
_chemical_formula_structural   LiLa4Sb8Ir2Rh3
_chemical_formula_sum   'Li2 La8 Sb16 Ir4 Rh6'
_cell_volume   856.77749260
_cell_formula_units_Z   2
loop_
 _symmetry_equiv_pos_site_id
 _symmetry_equiv_pos_as_xyz
  1  'x, y, z'
loop_
 _atom_site_type_symbol
 _atom_site_label
 _atom_site_symmetry_multiplicity
 _atom_site_fract_x
 _atom_site_fract_y
 _atom_site_fract_z
 _atom_site_occupancy
  Li  Li0  1  0.250000  0.466923  0.555462  1
  Li  Li1  1  0.250000  0.033077  0.055462  1
  La  La2  1  0.250000  0.753272  0.505237  1
  La  La3  1  0.250000  0.746728  0.005237  1
  La  La4  1  0.750000  0.247659  0.491940  1
  La  La5  1  0.750000  0.252341  0.991940  1
  La  La6  1  0.250000  0.593155  0.754367  1
  La  La7  1  0.250000  0.906845  0.254367  1
  La  La8  1  0.750000  0.408100  0.248819  1
  La  La9  1  0.750000  0.091900  0.748819  1
  Sb  Sb10  1  0.250000  0.266070  0.649817  1
  Sb  Sb11  1  0.250000  0.233930  0.149817  1
  Sb  Sb12  1  0.750000  0.721780  0.352195  1
  Sb  Sb13  1  0.750000  0.778220  0.852195  1
  Sb  Sb14  1  0.250000  0.889419  0.711398  1
  Sb  Sb15  1  0.250000  0.610581  0.211398  1
  Sb  Sb16  1  0.750000  0.112708  0.289710  1
  Sb  Sb17  1  0.750000  0.387292  0.789710  1
  Sb  Sb18  1  0.250000  0.065293  0.892291  1
  Sb  Sb19  1  0.250000  0.434707  0.392291  1
  Sb  Sb20  1  0.750000  0.918014  0.103107  1
  Sb  Sb21  1  0.750000  0.581986  0.603107  1
  Sb  Sb22  1  0.250000  0.447942  0.931558  1
  Sb  Sb23  1  0.250000  0.052058  0.431558  1
  Sb  Sb24  1  0.750000  0.551710  0.067473  1
  Sb  Sb25  1  0.750000  0.948290  0.567473  1
  Ir  Ir26  1  0.750000  0.942316  0.405690  1
  Ir  Ir27  1  0.750000  0.557684  0.905690  1
  Ir  Ir28  1  0.750000  0.716113  0.185040  1
  Ir  Ir29  1  0.750000  0.783887  0.685040  1
  Rh  Rh30  1  0.750000  0.529051  0.445563  1
  Rh  Rh31  1  0.750000  0.970949  0.945563  1
  Rh  Rh32  1  0.250000  0.050211  0.592981  1
  Rh  Rh33  1  0.250000  0.449789  0.092981  1
  Rh  Rh34  1  0.250000  0.280111  0.817352  1
  Rh  Rh35  1  0.250000  0.219889  0.317352  1
