# generated using pymatgen
data_Ho4ErW2C7
_symmetry_space_group_name_H-M   'P 1'
_cell_length_a   8.39066507
_cell_length_b   8.39066441
_cell_length_c   3.40435000
_cell_angle_alpha   90.00000000
_cell_angle_beta   90.00000000
_cell_angle_gamma   122.50827744
_symmetry_Int_Tables_number   1
_chemical_formula_structural   Ho4ErW2C7
_chemical_formula_sum   'Ho4 Er1 W2 C7'
_cell_volume   202.12319542
_cell_formula_units_Z   1
loop_
 _symmetry_equiv_pos_site_id
 _symmetry_equiv_pos_as_xyz
  1  'x, y, z'
loop_
 _atom_site_type_symbol
 _atom_site_label
 _atom_site_symmetry_multiplicity
 _atom_site_fract_x
 _atom_site_fract_y
 _atom_site_fract_z
 _atom_site_occupancy
  Ho  Ho0  1  0.074485  0.331962  0.500000  1
  Ho  Ho1  1  0.925515  0.668038  0.500000  1
  Ho  Ho2  1  0.668038  0.925515  0.500000  1
  Ho  Ho3  1  0.331962  0.074485  0.500000  1
  Er  Er4  1  0.500000  0.500000  0.000000  1
  W  W5  1  0.712622  0.287378  0.000000  1
  W  W6  1  0.287378  0.712622  0.000000  1
  C  C7  1  0.624114  0.375886  0.500000  1
  C  C8  1  0.375886  0.624114  0.500000  1
  C  C9  1  0.000000  0.000000  0.000000  1
  C  C10  1  0.167976  0.167976  0.000000  1
  C  C11  1  0.832024  0.832024  0.000000  1
  C  C12  1  0.000000  0.500000  0.000000  1
  C  C13  1  0.500000  0.000000  0.000000  1
