# generated using pymatgen
data_KPr3(PPt3)8
_symmetry_space_group_name_H-M   'P 1'
_cell_length_a   8.57499523
_cell_length_b   8.57499523
_cell_length_c   8.57499523
_cell_angle_alpha   89.83745219
_cell_angle_beta   90.16254781
_cell_angle_gamma   90.16254781
_symmetry_Int_Tables_number   1
_chemical_formula_structural   KPr3(PPt3)8
_chemical_formula_sum   'K1 Pr3 P8 Pt24'
_cell_volume   630.51645925
_cell_formula_units_Z   1
loop_
 _symmetry_equiv_pos_site_id
 _symmetry_equiv_pos_as_xyz
  1  'x, y, z'
loop_
 _atom_site_type_symbol
 _atom_site_label
 _atom_site_symmetry_multiplicity
 _atom_site_fract_x
 _atom_site_fract_y
 _atom_site_fract_z
 _atom_site_occupancy
  K  K0  1  0.500000  0.500000  0.000000  1
  Pr  Pr1  1  0.500000  0.000000  0.500000  1
  Pr  Pr2  1  0.000000  0.500000  0.500000  1
  Pr  Pr3  1  0.000000  0.000000  0.000000  1
  P  P4  1  0.802872  0.307810  0.194828  1
  P  P5  1  0.194664  0.805336  0.305336  1
  P  P6  1  0.692190  0.694828  0.697128  1
  P  P7  1  0.305172  0.197128  0.807810  1
  P  P8  1  0.197128  0.692190  0.805172  1
  P  P9  1  0.805336  0.194664  0.694664  1
  P  P10  1  0.307810  0.305172  0.302872  1
  P  P11  1  0.694828  0.802872  0.192190  1
  Pt  Pt12  1  0.423334  0.846992  0.162167  1
  Pt  Pt13  1  0.576504  0.337428  0.347767  1
  Pt  Pt14  1  0.077814  0.156559  0.658045  1
  Pt  Pt15  1  0.922023  0.658055  0.841513  1
  Pt  Pt16  1  0.152233  0.423496  0.837428  1
  Pt  Pt17  1  0.337833  0.576666  0.346992  1
  Pt  Pt18  1  0.658487  0.077977  0.158055  1
  Pt  Pt19  1  0.841955  0.922186  0.656559  1
  Pt  Pt20  1  0.843441  0.158045  0.422186  1
  Pt  Pt21  1  0.341945  0.341513  0.577977  1
  Pt  Pt22  1  0.153008  0.662167  0.076666  1
  Pt  Pt23  1  0.662572  0.847767  0.923496  1
  Pt  Pt24  1  0.576666  0.153008  0.837833  1
  Pt  Pt25  1  0.423496  0.662572  0.652233  1
  Pt  Pt26  1  0.922186  0.843441  0.341955  1
  Pt  Pt27  1  0.077977  0.341945  0.158487  1
  Pt  Pt28  1  0.847767  0.576504  0.162572  1
  Pt  Pt29  1  0.662167  0.423334  0.653008  1
  Pt  Pt30  1  0.341513  0.922023  0.841945  1
  Pt  Pt31  1  0.158045  0.077814  0.343441  1
  Pt  Pt32  1  0.156559  0.841955  0.577814  1
  Pt  Pt33  1  0.658055  0.658487  0.422023  1
  Pt  Pt34  1  0.846992  0.337833  0.923334  1
  Pt  Pt35  1  0.337428  0.152233  0.076504  1
