# generated using pymatgen
data_Zr8Ti2CuSb6As
_symmetry_space_group_name_H-M   'P 1'
_cell_length_a   8.60011000
_cell_length_b   8.60011110
_cell_length_c   5.79372700
_cell_angle_alpha   90.00000000
_cell_angle_beta   90.00000000
_cell_angle_gamma   119.99999579
_symmetry_Int_Tables_number   1
_chemical_formula_structural   Zr8Ti2CuSb6As
_chemical_formula_sum   'Zr8 Ti2 Cu1 Sb6 As1'
_cell_volume   371.10494820
_cell_formula_units_Z   1
loop_
 _symmetry_equiv_pos_site_id
 _symmetry_equiv_pos_as_xyz
  1  'x, y, z'
loop_
 _atom_site_type_symbol
 _atom_site_label
 _atom_site_symmetry_multiplicity
 _atom_site_fract_x
 _atom_site_fract_y
 _atom_site_fract_z
 _atom_site_occupancy
  Zr  Zr0  1  0.333333  0.666667  0.500000  1
  Zr  Zr1  1  0.666667  0.333333  0.500000  1
  Zr  Zr2  1  0.735423  0.735423  0.749330  1
  Zr  Zr3  1  0.264577  0.000000  0.749330  1
  Zr  Zr4  1  0.000000  0.264577  0.749330  1
  Zr  Zr5  1  0.264577  0.264577  0.250670  1
  Zr  Zr6  1  0.735423  0.000000  0.250670  1
  Zr  Zr7  1  0.000000  0.735423  0.250670  1
  Ti  Ti8  1  0.666667  0.333333  0.000000  1
  Ti  Ti9  1  0.333333  0.666667  0.000000  1
  Cu  Cu10  1  0.000000  0.000000  0.000000  1
  Sb  Sb11  1  0.392809  0.392809  0.759538  1
  Sb  Sb12  1  0.607191  0.000000  0.759538  1
  Sb  Sb13  1  0.000000  0.607191  0.759538  1
  Sb  Sb14  1  0.607191  0.607191  0.240462  1
  Sb  Sb15  1  0.392809  0.000000  0.240462  1
  Sb  Sb16  1  0.000000  0.392809  0.240462  1
  As  As17  1  0.000000  0.000000  0.500000  1
