# generated using pymatgen
data_Cs3CrIrBr9
_symmetry_space_group_name_H-M   'P 1'
_cell_length_a   7.75734200
_cell_length_b   7.75734129
_cell_length_c   19.42908500
_cell_angle_alpha   90.00000000
_cell_angle_beta   90.00000000
_cell_angle_gamma   119.99999448
_symmetry_Int_Tables_number   1
_chemical_formula_structural   Cs3CrIrBr9
_chemical_formula_sum   'Cs6 Cr2 Ir2 Br18'
_cell_volume   1012.53219704
_cell_formula_units_Z   2
loop_
 _symmetry_equiv_pos_site_id
 _symmetry_equiv_pos_as_xyz
  1  'x, y, z'
loop_
 _atom_site_type_symbol
 _atom_site_label
 _atom_site_symmetry_multiplicity
 _atom_site_fract_x
 _atom_site_fract_y
 _atom_site_fract_z
 _atom_site_occupancy
  Cs  Cs0  1  0.666667  0.333333  0.930838  1
  Cs  Cs1  1  0.333333  0.666667  0.430838  1
  Cs  Cs2  1  0.666667  0.333333  0.570385  1
  Cs  Cs3  1  0.333333  0.666667  0.070385  1
  Cs  Cs4  1  0.000000  0.000000  0.749694  1
  Cs  Cs5  1  0.000000  0.000000  0.249694  1
  Cr  Cr6  1  0.666667  0.333333  0.336872  1
  Cr  Cr7  1  0.333333  0.666667  0.836872  1
  Ir  Ir8  1  0.333333  0.666667  0.667477  1
  Ir  Ir9  1  0.666667  0.333333  0.167477  1
  Br  Br10  1  0.821194  0.642387  0.405759  1
  Br  Br11  1  0.178806  0.357613  0.905759  1
  Br  Br12  1  0.178806  0.821194  0.905759  1
  Br  Br13  1  0.180951  0.361903  0.593941  1
  Br  Br14  1  0.642387  0.821194  0.905759  1
  Br  Br15  1  0.357613  0.178806  0.405759  1
  Br  Br16  1  0.036411  0.518205  0.748545  1
  Br  Br17  1  0.821194  0.178806  0.405759  1
  Br  Br18  1  0.518205  0.036411  0.248545  1
  Br  Br19  1  0.481795  0.518205  0.748545  1
  Br  Br20  1  0.518205  0.481795  0.248545  1
  Br  Br21  1  0.963589  0.481795  0.248545  1
  Br  Br22  1  0.361903  0.180951  0.093941  1
  Br  Br23  1  0.481795  0.963589  0.748545  1
  Br  Br24  1  0.819049  0.638097  0.093941  1
  Br  Br25  1  0.180951  0.819049  0.593941  1
  Br  Br26  1  0.638097  0.819049  0.593941  1
  Br  Br27  1  0.819049  0.180951  0.093941  1
