# generated using pymatgen
data_Pr7BBr12
_symmetry_space_group_name_H-M   'P 1'
_cell_length_a   9.43798395
_cell_length_b   9.43798463
_cell_length_c   9.43798460
_cell_angle_alpha   107.36004252
_cell_angle_beta   107.36004590
_cell_angle_gamma   107.36004433
_symmetry_Int_Tables_number   1
_chemical_formula_structural   Pr7BBr12
_chemical_formula_sum   'Pr7 B1 Br12'
_cell_volume   693.14627860
_cell_formula_units_Z   1
loop_
 _symmetry_equiv_pos_site_id
 _symmetry_equiv_pos_as_xyz
  1  'x, y, z'
loop_
 _atom_site_type_symbol
 _atom_site_label
 _atom_site_symmetry_multiplicity
 _atom_site_fract_x
 _atom_site_fract_y
 _atom_site_fract_z
 _atom_site_occupancy
  Pr  Pr0  1  0.475866  0.475866  0.475866  1
  Pr  Pr1  1  0.902326  0.977295  0.693181  1
  Pr  Pr2  1  0.977295  0.693181  0.902326  1
  Pr  Pr3  1  0.693181  0.902326  0.977295  1
  Pr  Pr4  1  0.041282  0.315541  0.114196  1
  Pr  Pr5  1  0.315541  0.114196  0.041282  1
  Pr  Pr6  1  0.114196  0.041282  0.315541  1
  B  B7  1  0.995464  0.995464  0.995464  1
  Br  Br8  1  0.230679  0.077772  0.691388  1
  Br  Br9  1  0.077772  0.691388  0.230679  1
  Br  Br10  1  0.691388  0.230679  0.077772  1
  Br  Br11  1  0.539808  0.836258  0.616840  1
  Br  Br12  1  0.836258  0.616840  0.539808  1
  Br  Br13  1  0.616840  0.539808  0.836258  1
  Br  Br14  1  0.924716  0.316563  0.780548  1
  Br  Br15  1  0.316563  0.780548  0.924716  1
  Br  Br16  1  0.780548  0.924716  0.316563  1
  Br  Br17  1  0.390529  0.475833  0.148117  1
  Br  Br18  1  0.475833  0.148117  0.390529  1
  Br  Br19  1  0.148117  0.390529  0.475833  1
