# generated using pymatgen
data_LaGd5FeCl10
_symmetry_space_group_name_H-M   'P 1'
_cell_length_a   7.25201787
_cell_length_b   9.08612361
_cell_length_c   8.88042900
_cell_angle_alpha   106.93133329
_cell_angle_beta   94.94574729
_cell_angle_gamma   105.59468879
_symmetry_Int_Tables_number   1
_chemical_formula_structural   LaGd5FeCl10
_chemical_formula_sum   'La1 Gd5 Fe1 Cl10'
_cell_volume   530.52236843
_cell_formula_units_Z   1
loop_
 _symmetry_equiv_pos_site_id
 _symmetry_equiv_pos_as_xyz
  1  'x, y, z'
loop_
 _atom_site_type_symbol
 _atom_site_label
 _atom_site_symmetry_multiplicity
 _atom_site_fract_x
 _atom_site_fract_y
 _atom_site_fract_z
 _atom_site_occupancy
  La  La0  1  0.873005  0.947141  0.231267  1
  Gd  Gd1  1  0.130511  0.054232  0.769681  1
  Gd  Gd2  1  0.037160  0.694169  0.899150  1
  Gd  Gd3  1  0.962177  0.303804  0.096918  1
  Gd  Gd4  1  0.635048  0.862005  0.813494  1
  Gd  Gd5  1  0.364497  0.138130  0.188380  1
  Fe  Fe6  1  0.990697  0.995150  0.015308  1
  Cl  Cl7  1  0.669494  0.562088  0.729887  1
  Cl  Cl8  1  0.330102  0.438102  0.263712  1
  Cl  Cl9  1  0.774099  0.928102  0.558196  1
  Cl  Cl10  1  0.250550  0.080419  0.455153  1
  Cl  Cl11  1  0.916786  0.619767  0.159589  1
  Cl  Cl12  1  0.086741  0.365029  0.830287  1
  Cl  Cl13  1  0.536747  0.169566  0.917125  1
  Cl  Cl14  1  0.447349  0.824899  0.073592  1
  Cl  Cl15  1  0.224880  0.763234  0.660528  1
  Cl  Cl16  1  0.770158  0.254166  0.337732  1
