# generated using pymatgen
data_Sr9CaSi5Pb
_symmetry_space_group_name_H-M   'P 1'
_cell_length_a   9.89006165
_cell_length_b   9.89006140
_cell_length_c   9.89006116
_cell_angle_alpha   131.49275984
_cell_angle_beta   131.49276044
_cell_angle_gamma   71.03134839
_symmetry_Int_Tables_number   1
_chemical_formula_structural   Sr9CaSi5Pb
_chemical_formula_sum   'Sr9 Ca1 Si5 Pb1'
_cell_volume   531.45843853
_cell_formula_units_Z   1
loop_
 _symmetry_equiv_pos_site_id
 _symmetry_equiv_pos_as_xyz
  1  'x, y, z'
loop_
 _atom_site_type_symbol
 _atom_site_label
 _atom_site_symmetry_multiplicity
 _atom_site_fract_x
 _atom_site_fract_y
 _atom_site_fract_z
 _atom_site_occupancy
  Sr  Sr0  1  0.551298  0.035274  0.860097  1
  Sr  Sr1  1  0.175177  0.691201  0.139903  1
  Sr  Sr2  1  0.035274  0.175177  0.483977  1
  Sr  Sr3  1  0.691201  0.551298  0.516023  1
  Sr  Sr4  1  0.469222  0.944100  0.139626  1
  Sr  Sr5  1  0.804474  0.329595  0.860374  1
  Sr  Sr6  1  0.944100  0.804474  0.474878  1
  Sr  Sr7  1  0.329595  0.469222  0.525122  1
  Sr  Sr8  1  0.012621  0.012621  0.000000  1
  Ca  Ca9  1  0.487500  0.487500  0.000000  1
  Si  Si10  1  0.751395  0.751395  0.000000  1
  Si  Si11  1  0.887171  0.393442  0.281376  1
  Si  Si12  1  0.112066  0.605795  0.718624  1
  Si  Si13  1  0.393442  0.112066  0.506271  1
  Si  Si14  1  0.605795  0.887171  0.493729  1
  Pb  Pb15  1  0.249671  0.249671  0.000000  1
