# generated using pymatgen
data_Yb3HoTm4(B6Ru)4
_symmetry_space_group_name_H-M   'P 1'
_cell_length_a   3.63057100
_cell_length_b   9.10202876
_cell_length_c   11.48981400
_cell_angle_alpha   89.94027936
_cell_angle_beta   90.00000000
_cell_angle_gamma   90.00000000
_symmetry_Int_Tables_number   1
_chemical_formula_structural   Yb3HoTm4(B6Ru)4
_chemical_formula_sum   'Yb3 Ho1 Tm4 B24 Ru4'
_cell_volume   379.68715080
_cell_formula_units_Z   1
loop_
 _symmetry_equiv_pos_site_id
 _symmetry_equiv_pos_as_xyz
  1  'x, y, z'
loop_
 _atom_site_type_symbol
 _atom_site_label
 _atom_site_symmetry_multiplicity
 _atom_site_fract_x
 _atom_site_fract_y
 _atom_site_fract_z
 _atom_site_occupancy
  Yb  Yb0  1  0.000000  0.324778  0.414746  1
  Yb  Yb1  1  0.000000  0.675197  0.584653  1
  Yb  Yb2  1  0.000000  0.823391  0.085880  1
  Ho  Ho3  1  0.000000  0.175848  0.915215  1
  Tm  Tm4  1  0.000000  0.941081  0.366635  1
  Tm  Tm5  1  0.000000  0.058007  0.631374  1
  Tm  Tm6  1  0.000000  0.443032  0.132865  1
  Tm  Tm7  1  0.000000  0.558624  0.868045  1
  B  B8  1  0.500000  0.553588  0.432809  1
  B  B9  1  0.500000  0.445802  0.567981  1
  B  B10  1  0.500000  0.054096  0.066931  1
  B  B11  1  0.500000  0.945823  0.933044  1
  B  B12  1  0.500000  0.748994  0.417373  1
  B  B13  1  0.500000  0.250861  0.582758  1
  B  B14  1  0.500000  0.249579  0.082039  1
  B  B15  1  0.500000  0.751213  0.917716  1
  B  B16  1  0.500000  0.790955  0.264038  1
  B  B17  1  0.500000  0.208472  0.736267  1
  B  B18  1  0.500000  0.291202  0.235225  1
  B  B19  1  0.500000  0.709757  0.764579  1
  B  B20  1  0.500000  0.630574  0.185486  1
  B  B21  1  0.500000  0.369330  0.815592  1
  B  B22  1  0.500000  0.130688  0.313971  1
  B  B23  1  0.500000  0.869706  0.684913  1
  B  B24  1  0.500000  0.982986  0.210706  1
  B  B25  1  0.500000  0.017114  0.788587  1
  B  B26  1  0.500000  0.483461  0.289039  1
  B  B27  1  0.500000  0.516399  0.711768  1
  B  B28  1  0.500000  0.598348  0.027137  1
  B  B29  1  0.500000  0.401153  0.973016  1
  B  B30  1  0.500000  0.096361  0.472950  1
  B  B31  1  0.500000  0.903320  0.526050  1
  Ru  Ru32  1  0.000000  0.639345  0.319932  1
  Ru  Ru33  1  0.000000  0.359539  0.681515  1
  Ru  Ru34  1  0.000000  0.138829  0.179440  1
  Ru  Ru35  1  0.000000  0.862551  0.819722  1
