# generated using pymatgen
data_Y3Ho17(Cd3Ru)2
_symmetry_space_group_name_H-M   'P 1'
_cell_length_a   9.56052100
_cell_length_b   9.56052120
_cell_length_c   9.81742700
_cell_angle_alpha   90.00000000
_cell_angle_beta   90.00000000
_cell_angle_gamma   120.00000277
_symmetry_Int_Tables_number   1
_chemical_formula_structural   Y3Ho17(Cd3Ru)2
_chemical_formula_sum   'Y3 Ho17 Cd6 Ru2'
_cell_volume   777.12598129
_cell_formula_units_Z   1
loop_
 _symmetry_equiv_pos_site_id
 _symmetry_equiv_pos_as_xyz
  1  'x, y, z'
loop_
 _atom_site_type_symbol
 _atom_site_label
 _atom_site_symmetry_multiplicity
 _atom_site_fract_x
 _atom_site_fract_y
 _atom_site_fract_z
 _atom_site_occupancy
  Y  Y0  1  0.458819  0.541181  0.750000  1
  Y  Y1  1  0.458819  0.917638  0.750000  1
  Y  Y2  1  0.082362  0.541181  0.750000  1
  Ho  Ho3  1  0.000000  0.000000  0.500067  1
  Ho  Ho4  1  0.000000  0.000000  0.999933  1
  Ho  Ho5  1  0.209712  0.790288  0.440139  1
  Ho  Ho6  1  0.209712  0.419424  0.440139  1
  Ho  Ho7  1  0.580576  0.790288  0.440139  1
  Ho  Ho8  1  0.790224  0.209776  0.559482  1
  Ho  Ho9  1  0.790224  0.580448  0.559482  1
  Ho  Ho10  1  0.419552  0.209776  0.559482  1
  Ho  Ho11  1  0.790224  0.209776  0.940518  1
  Ho  Ho12  1  0.790224  0.580448  0.940518  1
  Ho  Ho13  1  0.419552  0.209776  0.940518  1
  Ho  Ho14  1  0.209712  0.790288  0.059861  1
  Ho  Ho15  1  0.209712  0.419424  0.059861  1
  Ho  Ho16  1  0.580576  0.790288  0.059861  1
  Ho  Ho17  1  0.541286  0.458714  0.250000  1
  Ho  Ho18  1  0.541286  0.082572  0.250000  1
  Ho  Ho19  1  0.917428  0.458714  0.250000  1
  Cd  Cd20  1  0.885359  0.114641  0.250000  1
  Cd  Cd21  1  0.885359  0.770719  0.250000  1
  Cd  Cd22  1  0.229281  0.114641  0.250000  1
  Cd  Cd23  1  0.114477  0.885523  0.750000  1
  Cd  Cd24  1  0.114477  0.228953  0.750000  1
  Cd  Cd25  1  0.771047  0.885523  0.750000  1
  Ru  Ru26  1  0.333333  0.666667  0.250000  1
  Ru  Ru27  1  0.666667  0.333333  0.750000  1
