# generated using pymatgen
data_Dy7Ho9(ErSn4)4
_symmetry_space_group_name_H-M   'P 1'
_cell_length_a   8.01513285
_cell_length_b   8.14928889
_cell_length_c   15.41168812
_cell_angle_alpha   90.01057755
_cell_angle_beta   90.08479625
_cell_angle_gamma   89.95699590
_symmetry_Int_Tables_number   1
_chemical_formula_structural   Dy7Ho9(ErSn4)4
_chemical_formula_sum   'Dy7 Ho9 Er4 Sn16'
_cell_volume   1006.65358615
_cell_formula_units_Z   1
loop_
 _symmetry_equiv_pos_site_id
 _symmetry_equiv_pos_as_xyz
  1  'x, y, z'
loop_
 _atom_site_type_symbol
 _atom_site_label
 _atom_site_symmetry_multiplicity
 _atom_site_fract_x
 _atom_site_fract_y
 _atom_site_fract_z
 _atom_site_occupancy
  Dy  Dy0  1  0.020364  0.179241  0.597243  1
  Dy  Dy1  1  0.479782  0.679019  0.403278  1
  Dy  Dy2  1  0.979375  0.820802  0.096887  1
  Dy  Dy3  1  0.479408  0.678846  0.096846  1
  Dy  Dy4  1  0.979800  0.820848  0.403348  1
  Dy  Dy5  1  0.519994  0.321173  0.596890  1
  Dy  Dy6  1  0.020579  0.179297  0.902915  1
  Ho  Ho7  1  0.367119  0.837423  0.877210  1
  Ho  Ho8  1  0.866411  0.662711  0.622848  1
  Ho  Ho9  1  0.633124  0.162637  0.377346  1
  Ho  Ho10  1  0.132699  0.337585  0.122383  1
  Ho  Ho11  1  0.632608  0.162478  0.122485  1
  Ho  Ho12  1  0.133276  0.337304  0.377396  1
  Ho  Ho13  1  0.366806  0.837564  0.622990  1
  Ho  Ho14  1  0.867362  0.662599  0.877294  1
  Ho  Ho15  1  0.521563  0.321306  0.902601  1
  Er  Er16  1  0.198348  0.503471  0.750137  1
  Er  Er17  1  0.698233  0.996530  0.750142  1
  Er  Er18  1  0.801695  0.496090  0.249907  1
  Er  Er19  1  0.301812  0.003599  0.250074  1
  Sn  Sn20  1  0.293711  0.037580  0.041501  1
  Sn  Sn21  1  0.794316  0.462020  0.458537  1
  Sn  Sn22  1  0.705636  0.962263  0.541596  1
  Sn  Sn23  1  0.207230  0.536852  0.958060  1
  Sn  Sn24  1  0.705857  0.962655  0.958309  1
  Sn  Sn25  1  0.205205  0.538397  0.541577  1
  Sn  Sn26  1  0.294253  0.037902  0.458632  1
  Sn  Sn27  1  0.793197  0.461797  0.041109  1
  Sn  Sn28  1  0.564214  0.619077  0.750137  1
  Sn  Sn29  1  0.064193  0.880593  0.749962  1
  Sn  Sn30  1  0.435581  0.380602  0.249795  1
  Sn  Sn31  1  0.935705  0.119436  0.249813  1
  Sn  Sn32  1  0.330909  0.148929  0.750418  1
  Sn  Sn33  1  0.829931  0.351608  0.750086  1
  Sn  Sn34  1  0.669921  0.851213  0.250095  1
  Sn  Sn35  1  0.169783  0.648551  0.250152  1
