# generated using pymatgen
data_Hf10Be2AlSb5
_symmetry_space_group_name_H-M   'P 1'
_cell_length_a   8.48043167
_cell_length_b   8.48043160
_cell_length_c   5.71084400
_cell_angle_alpha   90.00000000
_cell_angle_beta   90.00000000
_cell_angle_gamma   120.22029564
_symmetry_Int_Tables_number   1
_chemical_formula_structural   Hf10Be2AlSb5
_chemical_formula_sum   'Hf10 Be2 Al1 Sb5'
_cell_volume   354.89386401
_cell_formula_units_Z   1
loop_
 _symmetry_equiv_pos_site_id
 _symmetry_equiv_pos_as_xyz
  1  'x, y, z'
loop_
 _atom_site_type_symbol
 _atom_site_label
 _atom_site_symmetry_multiplicity
 _atom_site_fract_x
 _atom_site_fract_y
 _atom_site_fract_z
 _atom_site_occupancy
  Hf  Hf0  1  0.664651  0.334059  0.496664  1
  Hf  Hf1  1  0.334059  0.664651  0.496664  1
  Hf  Hf2  1  0.334059  0.664651  0.003336  1
  Hf  Hf3  1  0.664651  0.334059  0.003336  1
  Hf  Hf4  1  0.734875  0.734875  0.250000  1
  Hf  Hf5  1  0.264713  0.011490  0.250000  1
  Hf  Hf6  1  0.011490  0.264713  0.250000  1
  Hf  Hf7  1  0.241546  0.241546  0.750000  1
  Hf  Hf8  1  0.754287  0.997641  0.750000  1
  Hf  Hf9  1  0.997641  0.754287  0.750000  1
  Be  Be10  1  0.998682  0.998682  0.028330  1
  Be  Be11  1  0.998682  0.998682  0.471670  1
  Al  Al12  1  0.391484  0.391484  0.250000  1
  Sb  Sb13  1  0.616695  0.002031  0.250000  1
  Sb  Sb14  1  0.002031  0.616695  0.250000  1
  Sb  Sb15  1  0.597763  0.597763  0.750000  1
  Sb  Sb16  1  0.393700  0.998991  0.750000  1
  Sb  Sb17  1  0.998991  0.393700  0.750000  1
