# generated using pymatgen
data_Dy5Mn2Co17P12
_symmetry_space_group_name_H-M   'P 1'
_cell_length_a   12.02972608
_cell_length_b   12.02088084
_cell_length_c   3.66883900
_cell_angle_alpha   90.00000000
_cell_angle_beta   90.00000000
_cell_angle_gamma   119.97567308
_symmetry_Int_Tables_number   1
_chemical_formula_structural   Dy5Mn2Co17P12
_chemical_formula_sum   'Dy5 Mn2 Co17 P12'
_cell_volume   459.57640600
_cell_formula_units_Z   1
loop_
 _symmetry_equiv_pos_site_id
 _symmetry_equiv_pos_as_xyz
  1  'x, y, z'
loop_
 _atom_site_type_symbol
 _atom_site_label
 _atom_site_symmetry_multiplicity
 _atom_site_fract_x
 _atom_site_fract_y
 _atom_site_fract_z
 _atom_site_occupancy
  Dy  Dy0  1  0.666652  0.333371  0.000000  1
  Dy  Dy1  1  0.333348  0.666720  0.000000  1
  Dy  Dy2  1  0.186549  0.185934  0.500000  1
  Dy  Dy3  1  0.813451  0.999385  0.500000  1
  Dy  Dy4  1  0.000000  0.812190  0.500000  1
  Mn  Mn5  1  0.556450  0.556743  0.000000  1
  Mn  Mn6  1  0.443550  0.000293  0.000000  1
  Co  Co7  1  0.000000  0.448045  0.000000  1
  Co  Co8  1  0.823192  0.200947  0.000000  1
  Co  Co9  1  0.800858  0.621847  0.000000  1
  Co  Co10  1  0.376894  0.178041  0.000000  1
  Co  Co11  1  0.199142  0.820989  0.000000  1
  Co  Co12  1  0.623106  0.801147  0.000000  1
  Co  Co13  1  0.176808  0.377755  0.000000  1
  Co  Co14  1  0.643298  0.125778  0.500000  1
  Co  Co15  1  0.875233  0.516287  0.500000  1
  Co  Co16  1  0.482895  0.357165  0.500000  1
  Co  Co17  1  0.124767  0.641054  0.500000  1
  Co  Co18  1  0.517105  0.874269  0.500000  1
  Co  Co19  1  0.356702  0.482480  0.500000  1
  Co  Co20  1  0.716371  0.716145  0.500000  1
  Co  Co21  1  0.283629  0.999774  0.500000  1
  Co  Co22  1  0.000000  0.285146  0.500000  1
  Co  Co23  1  0.000000  0.000958  0.000000  1
  P  P24  1  0.364646  0.365118  0.000000  1
  P  P25  1  0.635354  0.000472  0.000000  1
  P  P26  1  0.000000  0.632165  0.000000  1
  P  P27  1  0.834752  0.314649  0.500000  1
  P  P28  1  0.685735  0.519643  0.500000  1
  P  P29  1  0.479841  0.165681  0.500000  1
  P  P30  1  0.314265  0.833908  0.500000  1
  P  P31  1  0.520159  0.685840  0.500000  1
  P  P32  1  0.165248  0.479897  0.500000  1
  P  P33  1  0.819717  0.819180  0.000000  1
  P  P34  1  0.180283  0.999463  0.000000  1
  P  P35  1  0.000000  0.181517  0.000000  1
