# generated using pymatgen
data_Er8MgCdIr2
_symmetry_space_group_name_H-M   'P 1'
_cell_length_a   9.58704581
_cell_length_b   9.58704493
_cell_length_c   9.64671300
_cell_angle_alpha   59.79389967
_cell_angle_beta   59.79390274
_cell_angle_gamma   59.61157248
_symmetry_Int_Tables_number   1
_chemical_formula_structural   Er8MgCdIr2
_chemical_formula_sum   'Er16 Mg2 Cd2 Ir4'
_cell_volume   623.14740672
_cell_formula_units_Z   2
loop_
 _symmetry_equiv_pos_site_id
 _symmetry_equiv_pos_as_xyz
  1  'x, y, z'
loop_
 _atom_site_type_symbol
 _atom_site_label
 _atom_site_symmetry_multiplicity
 _atom_site_fract_x
 _atom_site_fract_y
 _atom_site_fract_z
 _atom_site_occupancy
  Er  Er0  1  0.598495  0.598495  0.598286  1
  Er  Er1  1  0.598495  0.598495  0.204723  1
  Er  Er2  1  0.597127  0.208105  0.597384  1
  Er  Er3  1  0.208105  0.597127  0.597384  1
  Er  Er4  1  0.060705  0.437678  0.439937  1
  Er  Er5  1  0.437678  0.060705  0.061681  1
  Er  Er6  1  0.437678  0.060705  0.439937  1
  Er  Er7  1  0.060705  0.437678  0.061681  1
  Er  Er8  1  0.440123  0.440123  0.059877  1
  Er  Er9  1  0.062110  0.062110  0.437890  1
  Er  Er10  1  0.189594  0.812825  0.812655  1
  Er  Er11  1  0.812825  0.189594  0.184927  1
  Er  Er12  1  0.812825  0.189594  0.812655  1
  Er  Er13  1  0.189594  0.812825  0.184927  1
  Er  Er14  1  0.813592  0.813592  0.186408  1
  Er  Er15  1  0.187234  0.187234  0.812766  1
  Mg  Mg16  1  0.826530  0.826530  0.829822  1
  Mg  Mg17  1  0.826530  0.826530  0.517118  1
  Cd  Cd18  1  0.831868  0.504836  0.831648  1
  Cd  Cd19  1  0.504836  0.831868  0.831648  1
  Ir  Ir20  1  0.392463  0.392463  0.389679  1
  Ir  Ir21  1  0.392463  0.392463  0.825394  1
  Ir  Ir22  1  0.393283  0.825143  0.390787  1
  Ir  Ir23  1  0.825143  0.393283  0.390787  1
