# generated using pymatgen
data_TbY3Ga18NiRh5
_symmetry_space_group_name_H-M   'P 1'
_cell_length_a   7.56880669
_cell_length_b   7.56871698
_cell_length_c   9.49972900
_cell_angle_alpha   90.18350277
_cell_angle_beta   90.18323022
_cell_angle_gamma   119.85300414
_symmetry_Int_Tables_number   1
_chemical_formula_structural   TbY3Ga18NiRh5
_chemical_formula_sum   'Tb1 Y3 Ga18 Ni1 Rh5'
_cell_volume   471.98049920
_cell_formula_units_Z   1
loop_
 _symmetry_equiv_pos_site_id
 _symmetry_equiv_pos_as_xyz
  1  'x, y, z'
loop_
 _atom_site_type_symbol
 _atom_site_label
 _atom_site_symmetry_multiplicity
 _atom_site_fract_x
 _atom_site_fract_y
 _atom_site_fract_z
 _atom_site_occupancy
  Tb  Tb0  1  0.332641  0.003329  0.750314  1
  Y  Y1  1  0.996669  0.667357  0.249691  1
  Y  Y2  1  0.003330  0.332640  0.750312  1
  Y  Y3  1  0.667358  0.996670  0.249689  1
  Ga  Ga4  1  0.121596  0.121597  0.246288  1
  Ga  Ga5  1  0.878401  0.878395  0.753713  1
  Ga  Ga6  1  0.999980  0.330595  0.078276  1
  Ga  Ga7  1  0.000013  0.669398  0.921720  1
  Ga  Ga8  1  0.999201  0.665625  0.579352  1
  Ga  Ga9  1  0.334368  0.000796  0.420645  1
  Ga  Ga10  1  0.000788  0.334365  0.420650  1
  Ga  Ga11  1  0.665642  0.999212  0.579354  1
  Ga  Ga12  1  0.669410  0.000021  0.921720  1
  Ga  Ga13  1  0.330595  0.999986  0.078280  1
  Ga  Ga14  1  0.332610  0.332615  0.563433  1
  Ga  Ga15  1  0.667389  0.667388  0.436566  1
  Ga  Ga16  1  0.670868  0.670867  0.062384  1
  Ga  Ga17  1  0.329126  0.329131  0.937615  1
  Ga  Ga18  1  0.338133  0.546250  0.249340  1
  Ga  Ga19  1  0.661862  0.453751  0.750661  1
  Ga  Ga20  1  0.546253  0.338134  0.249341  1
  Ga  Ga21  1  0.453757  0.661875  0.750660  1
  Ni  Ni22  1  0.000005  0.000000  0.000000  1
  Rh  Rh23  1  0.671598  0.328405  0.000004  1
  Rh  Rh24  1  0.328406  0.671602  0.000002  1
  Rh  Rh25  1  0.328520  0.671487  0.499998  1
  Rh  Rh26  1  0.671479  0.328516  0.499996  1
  Rh  Rh27  1  0.000005  0.999994  0.499998  1
