# generated using pymatgen
data_Ho16AlCd3Pd4
_symmetry_space_group_name_H-M   'P 1'
_cell_length_a   9.61190896
_cell_length_b   9.61190767
_cell_length_c   9.61190751
_cell_angle_alpha   60.28376988
_cell_angle_beta   60.28377233
_cell_angle_gamma   60.28377435
_symmetry_Int_Tables_number   1
_chemical_formula_structural   Ho16AlCd3Pd4
_chemical_formula_sum   'Ho16 Al1 Cd3 Pd4'
_cell_volume   631.96647292
_cell_formula_units_Z   1
loop_
 _symmetry_equiv_pos_site_id
 _symmetry_equiv_pos_as_xyz
  1  'x, y, z'
loop_
 _atom_site_type_symbol
 _atom_site_label
 _atom_site_symmetry_multiplicity
 _atom_site_fract_x
 _atom_site_fract_y
 _atom_site_fract_z
 _atom_site_occupancy
  Ho  Ho0  1  0.350621  0.350621  0.350621  1
  Ho  Ho1  1  0.357909  0.357909  0.933936  1
  Ho  Ho2  1  0.357909  0.933936  0.357909  1
  Ho  Ho3  1  0.933936  0.357909  0.357909  1
  Ho  Ho4  1  0.811498  0.189654  0.189654  1
  Ho  Ho5  1  0.192134  0.808480  0.808480  1
  Ho  Ho6  1  0.189654  0.811498  0.189654  1
  Ho  Ho7  1  0.808480  0.192134  0.808480  1
  Ho  Ho8  1  0.189654  0.189654  0.811498  1
  Ho  Ho9  1  0.808480  0.808480  0.192134  1
  Ho  Ho10  1  0.932346  0.567664  0.567664  1
  Ho  Ho11  1  0.563666  0.935931  0.935931  1
  Ho  Ho12  1  0.567664  0.932346  0.567664  1
  Ho  Ho13  1  0.935931  0.563666  0.935931  1
  Ho  Ho14  1  0.567664  0.567664  0.932346  1
  Ho  Ho15  1  0.935931  0.935931  0.563666  1
  Al  Al16  1  0.581176  0.581176  0.581176  1
  Cd  Cd17  1  0.580481  0.580481  0.255892  1
  Cd  Cd18  1  0.580481  0.255892  0.580481  1
  Cd  Cd19  1  0.255892  0.580481  0.580481  1
  Pd  Pd20  1  0.146901  0.146901  0.146901  1
  Pd  Pd21  1  0.141729  0.141729  0.568131  1
  Pd  Pd22  1  0.141729  0.568131  0.141729  1
  Pd  Pd23  1  0.568131  0.141729  0.141729  1
