# generated using pymatgen
data_Tb3Sc5Tc2(B12Os)2
_symmetry_space_group_name_H-M   'P 1'
_cell_length_a   3.56552600
_cell_length_b   8.96661436
_cell_length_c   11.34450272
_cell_angle_alpha   89.96386320
_cell_angle_beta   90.00000000
_cell_angle_gamma   90.00000000
_symmetry_Int_Tables_number   1
_chemical_formula_structural   Tb3Sc5Tc2(B12Os)2
_chemical_formula_sum   'Tb3 Sc5 Tc2 B24 Os2'
_cell_volume   362.69158248
_cell_formula_units_Z   1
loop_
 _symmetry_equiv_pos_site_id
 _symmetry_equiv_pos_as_xyz
  1  'x, y, z'
loop_
 _atom_site_type_symbol
 _atom_site_label
 _atom_site_symmetry_multiplicity
 _atom_site_fract_x
 _atom_site_fract_y
 _atom_site_fract_z
 _atom_site_occupancy
  Tb  Tb0  1  0.000000  0.322122  0.414824  1
  Tb  Tb1  1  0.000000  0.677527  0.585757  1
  Tb  Tb2  1  0.000000  0.819805  0.086162  1
  Sc  Sc3  1  0.000000  0.182950  0.911702  1
  Sc  Sc4  1  0.000000  0.942872  0.371225  1
  Sc  Sc5  1  0.000000  0.057813  0.629463  1
  Sc  Sc6  1  0.000000  0.444179  0.127551  1
  Sc  Sc7  1  0.000000  0.553878  0.871749  1
  Tc  Tc8  1  0.000000  0.639892  0.317794  1
  Tc  Tc9  1  0.000000  0.358357  0.684509  1
  B  B10  1  0.500000  0.553864  0.432752  1
  B  B11  1  0.500000  0.445138  0.568448  1
  B  B12  1  0.500000  0.055438  0.064875  1
  B  B13  1  0.500000  0.947565  0.933037  1
  B  B14  1  0.500000  0.753195  0.418353  1
  B  B15  1  0.500000  0.246530  0.582833  1
  B  B16  1  0.500000  0.252448  0.078824  1
  B  B17  1  0.500000  0.747299  0.918066  1
  B  B18  1  0.500000  0.794123  0.264601  1
  B  B19  1  0.500000  0.205076  0.737581  1
  B  B20  1  0.500000  0.293205  0.233374  1
  B  B21  1  0.500000  0.707065  0.765569  1
  B  B22  1  0.500000  0.628318  0.182545  1
  B  B23  1  0.500000  0.369134  0.819040  1
  B  B24  1  0.500000  0.128607  0.315725  1
  B  B25  1  0.500000  0.872610  0.684110  1
  B  B26  1  0.500000  0.981659  0.212972  1
  B  B27  1  0.500000  0.020735  0.787876  1
  B  B28  1  0.500000  0.480839  0.284994  1
  B  B29  1  0.500000  0.518056  0.715693  1
  B  B30  1  0.500000  0.597165  0.025991  1
  B  B31  1  0.500000  0.399366  0.972886  1
  B  B32  1  0.500000  0.097287  0.473655  1
  B  B33  1  0.500000  0.903377  0.526843  1
  Os  Os34  1  0.000000  0.139682  0.178588  1
  Os  Os35  1  0.000000  0.862824  0.820031  1
