# generated using pymatgen
data_SrLiSm(Si3Pd10)2
_symmetry_space_group_name_H-M   'P 1'
_cell_length_a   8.73188765
_cell_length_b   8.73188666
_cell_length_c   8.73188800
_cell_angle_alpha   60.00000249
_cell_angle_beta   60.00000624
_cell_angle_gamma   60.00000698
_symmetry_Int_Tables_number   1
_chemical_formula_structural   SrLiSm(Si3Pd10)2
_chemical_formula_sum   'Sr1 Li1 Sm1 Si6 Pd20'
_cell_volume   470.77071507
_cell_formula_units_Z   1
loop_
 _symmetry_equiv_pos_site_id
 _symmetry_equiv_pos_as_xyz
  1  'x, y, z'
loop_
 _atom_site_type_symbol
 _atom_site_label
 _atom_site_symmetry_multiplicity
 _atom_site_fract_x
 _atom_site_fract_y
 _atom_site_fract_z
 _atom_site_occupancy
  Sr  Sr0  1  0.250000  0.250000  0.250000  1
  Li  Li1  1  0.000000  0.000000  0.000000  1
  Sm  Sm2  1  0.750000  0.750000  0.750000  1
  Si  Si3  1  0.734321  0.265679  0.265679  1
  Si  Si4  1  0.265679  0.734321  0.734321  1
  Si  Si5  1  0.265679  0.734321  0.265679  1
  Si  Si6  1  0.734321  0.265679  0.734321  1
  Si  Si7  1  0.265679  0.265679  0.734321  1
  Si  Si8  1  0.734321  0.734321  0.265679  1
  Pd  Pd9  1  0.387397  0.387397  0.387397  1
  Pd  Pd10  1  0.615931  0.615931  0.615931  1
  Pd  Pd11  1  0.387397  0.387397  0.837807  1
  Pd  Pd12  1  0.387397  0.837807  0.387397  1
  Pd  Pd13  1  0.615931  0.615931  0.152210  1
  Pd  Pd14  1  0.615931  0.152210  0.615931  1
  Pd  Pd15  1  0.837807  0.387397  0.387397  1
  Pd  Pd16  1  0.152210  0.615931  0.615931  1
  Pd  Pd17  1  0.345680  0.997765  0.997765  1
  Pd  Pd18  1  0.658790  0.997765  0.997765  1
  Pd  Pd19  1  0.997765  0.345680  0.658790  1
  Pd  Pd20  1  0.997765  0.658790  0.345680  1
  Pd  Pd21  1  0.997765  0.345680  0.997765  1
  Pd  Pd22  1  0.658790  0.997765  0.345680  1
  Pd  Pd23  1  0.997765  0.658790  0.997765  1
  Pd  Pd24  1  0.345680  0.997765  0.658790  1
  Pd  Pd25  1  0.997765  0.997765  0.345680  1
  Pd  Pd26  1  0.997765  0.997765  0.658790  1
  Pd  Pd27  1  0.658790  0.345680  0.997765  1
  Pd  Pd28  1  0.345680  0.658790  0.997765  1
