# generated using pymatgen
data_LuPa3(Ni2Pb)2
_symmetry_space_group_name_H-M   'P 1'
_cell_length_a   7.50890363
_cell_length_b   7.50890363
_cell_length_c   3.54563200
_cell_angle_alpha   90.00000000
_cell_angle_beta   90.00000000
_cell_angle_gamma   91.03727261
_symmetry_Int_Tables_number   1
_chemical_formula_structural   LuPa3(Ni2Pb)2
_chemical_formula_sum   'Lu1 Pa3 Ni4 Pb2'
_cell_volume   199.88285572
_cell_formula_units_Z   1
loop_
 _symmetry_equiv_pos_site_id
 _symmetry_equiv_pos_as_xyz
  1  'x, y, z'
loop_
 _atom_site_type_symbol
 _atom_site_label
 _atom_site_symmetry_multiplicity
 _atom_site_fract_x
 _atom_site_fract_y
 _atom_site_fract_z
 _atom_site_occupancy
  Lu  Lu0  1  0.670303  0.829696  0.500000  1
  Pa  Pa1  1  0.331439  0.168560  0.500000  1
  Pa  Pa2  1  0.827859  0.328517  0.500000  1
  Pa  Pa3  1  0.171482  0.672140  0.500000  1
  Ni  Ni4  1  0.620147  0.131678  0.000000  1
  Ni  Ni5  1  0.127102  0.372898  0.000000  1
  Ni  Ni6  1  0.887644  0.612356  0.000000  1
  Ni  Ni7  1  0.368322  0.879853  0.000000  1
  Pb  Pb8  1  0.990519  0.994819  0.000000  1
  Pb  Pb9  1  0.505181  0.509481  0.000000  1
