# generated using pymatgen
data_Co4Tc3B4W
_symmetry_space_group_name_H-M   'P 1'
_cell_length_a   3.23844500
_cell_length_b   5.70116571
_cell_length_c   6.55997964
_cell_angle_alpha   89.62880890
_cell_angle_beta   90.00000000
_cell_angle_gamma   90.00000000
_symmetry_Int_Tables_number   1
_chemical_formula_structural   Co4Tc3B4W
_chemical_formula_sum   'Co4 Tc3 B4 W1'
_cell_volume   121.11378257
_cell_formula_units_Z   1
loop_
 _symmetry_equiv_pos_site_id
 _symmetry_equiv_pos_as_xyz
  1  'x, y, z'
loop_
 _atom_site_type_symbol
 _atom_site_label
 _atom_site_symmetry_multiplicity
 _atom_site_fract_x
 _atom_site_fract_y
 _atom_site_fract_z
 _atom_site_occupancy
  Co  Co0  1  0.250000  0.147612  0.446480  1
  Co  Co1  1  0.250000  0.644978  0.055010  1
  Co  Co2  1  0.750000  0.853706  0.555247  1
  Co  Co3  1  0.750000  0.354348  0.945870  1
  Tc  Tc4  1  0.250000  0.027481  0.826747  1
  Tc  Tc5  1  0.250000  0.528248  0.670587  1
  Tc  Tc6  1  0.750000  0.971976  0.172951  1
  B  B7  1  0.250000  0.266959  0.121392  1
  B  B8  1  0.250000  0.775083  0.375000  1
  B  B9  1  0.750000  0.730693  0.874960  1
  B  B10  1  0.750000  0.226422  0.628762  1
  W  W11  1  0.750000  0.472494  0.326994  1
