# generated using pymatgen
data_Hf3Sc5Ta10Nb2Si15P
_symmetry_space_group_name_H-M   'P 1'
_cell_length_a   6.68235903
_cell_length_b   6.86970316
_cell_length_c   13.12579700
_cell_angle_alpha   90.02422874
_cell_angle_beta   90.00581330
_cell_angle_gamma   90.07912254
_symmetry_Int_Tables_number   1
_chemical_formula_structural   Hf3Sc5Ta10Nb2Si15P
_chemical_formula_sum   'Hf3 Sc5 Ta10 Nb2 Si15 P1'
_cell_volume   602.54988237
_cell_formula_units_Z   1
loop_
 _symmetry_equiv_pos_site_id
 _symmetry_equiv_pos_as_xyz
  1  'x, y, z'
loop_
 _atom_site_type_symbol
 _atom_site_label
 _atom_site_symmetry_multiplicity
 _atom_site_fract_x
 _atom_site_fract_y
 _atom_site_fract_z
 _atom_site_occupancy
  Hf  Hf0  1  0.498709  0.677898  0.593369  1
  Hf  Hf1  1  0.998013  0.825860  0.905430  1
  Hf  Hf2  1  0.500877  0.326388  0.093839  1
  Sc  Sc3  1  0.999188  0.172714  0.406962  1
  Sc  Sc4  1  0.502434  0.324243  0.407940  1
  Sc  Sc5  1  0.003203  0.171978  0.092880  1
  Sc  Sc6  1  0.497166  0.672186  0.907107  1
  Sc  Sc7  1  0.994583  0.826172  0.593446  1
  Ta  Ta8  1  0.663990  0.166747  0.621650  1
  Ta  Ta9  1  0.165832  0.328325  0.875605  1
  Ta  Ta10  1  0.336539  0.828049  0.124018  1
  Ta  Ta11  1  0.833269  0.675020  0.376958  1
  Ta  Ta12  1  0.340664  0.828878  0.377575  1
  Ta  Ta13  1  0.835038  0.671922  0.123751  1
  Ta  Ta14  1  0.664708  0.170790  0.875399  1
  Ta  Ta15  1  0.165709  0.331653  0.624228  1
  Ta  Ta16  1  0.838984  0.494443  0.750390  1
  Ta  Ta17  1  0.338851  0.005521  0.748797  1
  Nb  Nb18  1  0.162546  0.506152  0.250013  1
  Nb  Nb19  1  0.661711  0.995541  0.250341  1
  Si  Si20  1  0.170213  0.534689  0.038415  1
  Si  Si21  1  0.329383  0.033856  0.961009  1
  Si  Si22  1  0.829539  0.465945  0.539773  1
  Si  Si23  1  0.321543  0.036319  0.540073  1
  Si  Si24  1  0.829050  0.464862  0.960862  1
  Si  Si25  1  0.671434  0.965843  0.038936  1
  Si  Si26  1  0.170158  0.534728  0.460592  1
  Si  Si27  1  0.462723  0.387603  0.749495  1
  Si  Si28  1  0.960760  0.112995  0.748504  1
  Si  Si29  1  0.538793  0.611771  0.250438  1
  Si  Si30  1  0.040416  0.886193  0.250410  1
  Si  Si31  1  0.704561  0.859384  0.750500  1
  Si  Si32  1  0.205563  0.640417  0.749959  1
  Si  Si33  1  0.294108  0.139645  0.250510  1
  Si  Si34  1  0.796351  0.361417  0.250351  1
  P  P35  1  0.673394  0.963855  0.460476  1
