# generated using pymatgen
data_Sr2Ca(TbSn2)2
_symmetry_space_group_name_H-M   'P 1'
_cell_length_a   8.06464600
_cell_length_b   8.57552200
_cell_length_c   16.43262100
_cell_angle_alpha   90.00000000
_cell_angle_beta   90.00000000
_cell_angle_gamma   90.00000000
_symmetry_Int_Tables_number   1
_chemical_formula_structural   Sr2Ca(TbSn2)2
_chemical_formula_sum   'Sr8 Ca4 Tb8 Sn16'
_cell_volume   1136.45622783
_cell_formula_units_Z   4
loop_
 _symmetry_equiv_pos_site_id
 _symmetry_equiv_pos_as_xyz
  1  'x, y, z'
loop_
 _atom_site_type_symbol
 _atom_site_label
 _atom_site_symmetry_multiplicity
 _atom_site_fract_x
 _atom_site_fract_y
 _atom_site_fract_z
 _atom_site_occupancy
  Sr  Sr0  1  0.504648  0.681176  0.594006  1
  Sr  Sr1  1  0.004648  0.818824  0.905994  1
  Sr  Sr2  1  0.495352  0.318824  0.094006  1
  Sr  Sr3  1  0.995352  0.181176  0.405994  1
  Sr  Sr4  1  0.495352  0.318824  0.405994  1
  Sr  Sr5  1  0.995352  0.181176  0.094006  1
  Sr  Sr6  1  0.504648  0.681176  0.905994  1
  Sr  Sr7  1  0.004648  0.818824  0.594006  1
  Ca  Ca8  1  0.834805  0.508256  0.750000  1
  Ca  Ca9  1  0.334805  0.991744  0.750000  1
  Ca  Ca10  1  0.165195  0.491744  0.250000  1
  Ca  Ca11  1  0.665195  0.008256  0.250000  1
  Tb  Tb12  1  0.672064  0.168682  0.622391  1
  Tb  Tb13  1  0.172064  0.331318  0.877609  1
  Tb  Tb14  1  0.327936  0.831318  0.122391  1
  Tb  Tb15  1  0.827936  0.668682  0.377609  1
  Tb  Tb16  1  0.327936  0.831318  0.377609  1
  Tb  Tb17  1  0.827936  0.668682  0.122391  1
  Tb  Tb18  1  0.672064  0.168682  0.877609  1
  Tb  Tb19  1  0.172064  0.331318  0.622391  1
  Sn  Sn20  1  0.662916  0.959944  0.459635  1
  Sn  Sn21  1  0.162916  0.540056  0.040365  1
  Sn  Sn22  1  0.337084  0.040056  0.959635  1
  Sn  Sn23  1  0.837084  0.459944  0.540365  1
  Sn  Sn24  1  0.337084  0.040056  0.540365  1
  Sn  Sn25  1  0.837084  0.459944  0.959635  1
  Sn  Sn26  1  0.662916  0.959944  0.040365  1
  Sn  Sn27  1  0.162916  0.540056  0.459635  1
  Sn  Sn28  1  0.468503  0.370621  0.750000  1
  Sn  Sn29  1  0.968503  0.129379  0.750000  1
  Sn  Sn30  1  0.531497  0.629379  0.250000  1
  Sn  Sn31  1  0.031497  0.870621  0.250000  1
  Sn  Sn32  1  0.715092  0.882115  0.750000  1
  Sn  Sn33  1  0.215092  0.617885  0.750000  1
  Sn  Sn34  1  0.284908  0.117885  0.250000  1
  Sn  Sn35  1  0.784908  0.382115  0.250000  1
