# generated using pymatgen
data_Hf2CrSi2W
_symmetry_space_group_name_H-M   'P 1'
_cell_length_a   3.49910300
_cell_length_b   6.81668500
_cell_length_c   8.02477700
_cell_angle_alpha   90.00000000
_cell_angle_beta   90.00000000
_cell_angle_gamma   90.00000000
_symmetry_Int_Tables_number   1
_chemical_formula_structural   Hf2CrSi2W
_chemical_formula_sum   'Hf4 Cr2 Si4 W2'
_cell_volume   191.40925148
_cell_formula_units_Z   2
loop_
 _symmetry_equiv_pos_site_id
 _symmetry_equiv_pos_as_xyz
  1  'x, y, z'
loop_
 _atom_site_type_symbol
 _atom_site_label
 _atom_site_symmetry_multiplicity
 _atom_site_fract_x
 _atom_site_fract_y
 _atom_site_fract_z
 _atom_site_occupancy
  Hf  Hf0  1  0.250000  0.543657  0.168042  1
  Hf  Hf1  1  0.250000  0.043657  0.331958  1
  Hf  Hf2  1  0.750000  0.457036  0.832878  1
  Hf  Hf3  1  0.750000  0.957036  0.667122  1
  Cr  Cr4  1  0.250000  0.628712  0.561229  1
  Cr  Cr5  1  0.250000  0.128712  0.938771  1
  Si  Si6  1  0.250000  0.756052  0.855695  1
  Si  Si7  1  0.250000  0.256052  0.644305  1
  Si  Si8  1  0.750000  0.242636  0.131514  1
  Si  Si9  1  0.750000  0.742636  0.368486  1
  W  W10  1  0.750000  0.371907  0.442327  1
  W  W11  1  0.750000  0.871907  0.057673  1
