# generated using pymatgen
data_SmPu3Re4F28
_symmetry_space_group_name_H-M   'P 1'
_cell_length_a   5.72013405
_cell_length_b   9.21761610
_cell_length_c   12.33229500
_cell_angle_alpha   61.96908062
_cell_angle_beta   89.93179757
_cell_angle_gamma   90.01487221
_symmetry_Int_Tables_number   1
_chemical_formula_structural   SmPu3Re4F28
_chemical_formula_sum   'Sm1 Pu3 Re4 F28'
_cell_volume   573.95582180
_cell_formula_units_Z   1
loop_
 _symmetry_equiv_pos_site_id
 _symmetry_equiv_pos_as_xyz
  1  'x, y, z'
loop_
 _atom_site_type_symbol
 _atom_site_label
 _atom_site_symmetry_multiplicity
 _atom_site_fract_x
 _atom_site_fract_y
 _atom_site_fract_z
 _atom_site_occupancy
  Sm  Sm0  1  0.758221  0.811193  0.764469  1
  Pu  Pu1  1  0.741432  0.811586  0.262931  1
  Pu  Pu2  1  0.241171  0.187146  0.237041  1
  Pu  Pu3  1  0.258061  0.186108  0.736803  1
  Re  Re4  1  0.742880  0.272980  0.457492  1
  Re  Re5  1  0.243508  0.725350  0.041445  1
  Re  Re6  1  0.257857  0.725709  0.545077  1
  Re  Re7  1  0.756941  0.276325  0.956175  1
  F  F8  1  0.446614  0.710415  0.916660  1
  F  F9  1  0.941341  0.291009  0.581877  1
  F  F10  1  0.556761  0.289742  0.082066  1
  F  F11  1  0.053155  0.710189  0.421598  1
  F  F12  1  0.452764  0.284034  0.542344  1
  F  F13  1  0.955695  0.716159  0.953861  1
  F  F14  1  0.543483  0.715124  0.457159  1
  F  F15  1  0.045882  0.287482  0.041575  1
  F  F16  1  0.761993  0.519420  0.858864  1
  F  F17  1  0.269209  0.483579  0.642675  1
  F  F18  1  0.233874  0.483250  0.140074  1
  F  F19  1  0.731926  0.515873  0.358282  1
  F  F20  1  0.761121  0.032461  0.051831  1
  F  F21  1  0.258572  0.969298  0.448148  1
  F  F22  1  0.238583  0.968952  0.947414  1
  F  F23  1  0.741040  0.029760  0.553963  1
  F  F24  1  0.980206  0.731258  0.640070  1
  F  F25  1  0.474547  0.266335  0.866866  1
  F  F26  1  0.027231  0.266653  0.367319  1
  F  F27  1  0.524859  0.733536  0.132018  1
  F  F28  1  0.051449  0.739118  0.170804  1
  F  F29  1  0.553690  0.257755  0.327788  1
  F  F30  1  0.948285  0.262570  0.826666  1
  F  F31  1  0.457144  0.744437  0.670015  1
  F  F32  1  0.409709  0.963182  0.236426  1
  F  F33  1  0.909836  0.035728  0.262701  1
  F  F34  1  0.585829  0.030482  0.765643  1
  F  F35  1  0.085127  0.965804  0.733862  1
