# generated using pymatgen
data_Tb5Dy3(LuSn3)2
_symmetry_space_group_name_H-M   'P 1'
_cell_length_a   8.96823113
_cell_length_b   8.96823106
_cell_length_c   6.52340900
_cell_angle_alpha   90.00053980
_cell_angle_beta   90.00053190
_cell_angle_gamma   119.98026916
_symmetry_Int_Tables_number   1
_chemical_formula_structural   Tb5Dy3(LuSn3)2
_chemical_formula_sum   'Tb5 Dy3 Lu2 Sn6'
_cell_volume   454.46991013
_cell_formula_units_Z   1
loop_
 _symmetry_equiv_pos_site_id
 _symmetry_equiv_pos_as_xyz
  1  'x, y, z'
loop_
 _atom_site_type_symbol
 _atom_site_label
 _atom_site_symmetry_multiplicity
 _atom_site_fract_x
 _atom_site_fract_y
 _atom_site_fract_z
 _atom_site_occupancy
  Tb  Tb0  1  0.239784  0.999944  0.749126  1
  Tb  Tb1  1  0.999944  0.239784  0.749126  1
  Tb  Tb2  1  0.239935  0.239935  0.250873  1
  Tb  Tb3  1  0.760149  0.999939  0.250867  1
  Tb  Tb4  1  0.999939  0.760149  0.250867  1
  Dy  Dy5  1  0.666673  0.333377  0.999971  1
  Dy  Dy6  1  0.333377  0.666673  0.999971  1
  Dy  Dy7  1  0.760097  0.760097  0.749112  1
  Lu  Lu8  1  0.333375  0.666688  0.500040  1
  Lu  Lu9  1  0.666688  0.333375  0.500040  1
  Sn  Sn10  1  0.395841  0.395841  0.746484  1
  Sn  Sn11  1  0.604380  0.999850  0.746493  1
  Sn  Sn12  1  0.999850  0.604380  0.746493  1
  Sn  Sn13  1  0.604294  0.604294  0.253519  1
  Sn  Sn14  1  0.395686  0.999988  0.253509  1
  Sn  Sn15  1  0.999988  0.395686  0.253509  1
