# generated using pymatgen
data_Tb2Sn4BiRh3
_symmetry_space_group_name_H-M   'P 1'
_cell_length_a   13.57796460
_cell_length_b   13.57796447
_cell_length_c   7.32065600
_cell_angle_alpha   90.00000000
_cell_angle_beta   90.00000000
_cell_angle_gamma   161.06557553
_symmetry_Int_Tables_number   1
_chemical_formula_structural   Tb2Sn4BiRh3
_chemical_formula_sum   'Tb4 Sn8 Bi2 Rh6'
_cell_volume   437.94040769
_cell_formula_units_Z   2
loop_
 _symmetry_equiv_pos_site_id
 _symmetry_equiv_pos_as_xyz
  1  'x, y, z'
loop_
 _atom_site_type_symbol
 _atom_site_label
 _atom_site_symmetry_multiplicity
 _atom_site_fract_x
 _atom_site_fract_y
 _atom_site_fract_z
 _atom_site_occupancy
  Tb  Tb0  1  0.171910  0.828090  0.756244  1
  Tb  Tb1  1  0.828090  0.171910  0.256244  1
  Tb  Tb2  1  0.476863  0.523137  0.735550  1
  Tb  Tb3  1  0.523137  0.476863  0.235550  1
  Sn  Sn4  1  0.705093  0.294907  0.046754  1
  Sn  Sn5  1  0.294907  0.705093  0.546754  1
  Sn  Sn6  1  0.596519  0.403481  0.612589  1
  Sn  Sn7  1  0.403481  0.596519  0.112589  1
  Sn  Sn8  1  0.952953  0.047047  0.399229  1
  Sn  Sn9  1  0.047047  0.952953  0.899229  1
  Sn  Sn10  1  0.289825  0.710175  0.977674  1
  Sn  Sn11  1  0.710175  0.289825  0.477674  1
  Bi  Bi12  1  0.879690  0.120310  0.732824  1
  Bi  Bi13  1  0.120310  0.879690  0.232824  1
  Rh  Rh14  1  0.049852  0.950148  0.521414  1
  Rh  Rh15  1  0.950148  0.049852  0.021414  1
  Rh  Rh16  1  0.775568  0.224432  0.767907  1
  Rh  Rh17  1  0.224432  0.775568  0.267907  1
  Rh  Rh18  1  0.394565  0.605435  0.477815  1
  Rh  Rh19  1  0.605435  0.394565  0.977815  1
