# generated using pymatgen
data_Nd2Al8GaIr2Pt
_symmetry_space_group_name_H-M   'P 1'
_cell_length_a   7.62189824
_cell_length_b   7.62189725
_cell_length_c   9.61725000
_cell_angle_alpha   90.00000000
_cell_angle_beta   90.00000000
_cell_angle_gamma   119.48382480
_symmetry_Int_Tables_number   1
_chemical_formula_structural   Nd2Al8GaIr2Pt
_chemical_formula_sum   'Nd4 Al16 Ga2 Ir4 Pt2'
_cell_volume   486.34366370
_cell_formula_units_Z   2
loop_
 _symmetry_equiv_pos_site_id
 _symmetry_equiv_pos_as_xyz
  1  'x, y, z'
loop_
 _atom_site_type_symbol
 _atom_site_label
 _atom_site_symmetry_multiplicity
 _atom_site_fract_x
 _atom_site_fract_y
 _atom_site_fract_z
 _atom_site_occupancy
  Nd  Nd0  1  0.995446  0.674306  0.250000  1
  Nd  Nd1  1  0.004554  0.325694  0.750000  1
  Nd  Nd2  1  0.674306  0.995446  0.250000  1
  Nd  Nd3  1  0.325694  0.004554  0.750000  1
  Al  Al4  1  0.002492  0.339231  0.073777  1
  Al  Al5  1  0.997508  0.660769  0.926223  1
  Al  Al6  1  0.997508  0.660769  0.573777  1
  Al  Al7  1  0.339231  0.002492  0.426223  1
  Al  Al8  1  0.002492  0.339231  0.426223  1
  Al  Al9  1  0.660769  0.997508  0.573777  1
  Al  Al10  1  0.660769  0.997508  0.926223  1
  Al  Al11  1  0.339231  0.002492  0.073777  1
  Al  Al12  1  0.338107  0.338107  0.552451  1
  Al  Al13  1  0.661893  0.661893  0.447549  1
  Al  Al14  1  0.661893  0.661893  0.052451  1
  Al  Al15  1  0.338107  0.338107  0.947549  1
  Al  Al16  1  0.338047  0.548640  0.250000  1
  Al  Al17  1  0.661953  0.451360  0.750000  1
  Al  Al18  1  0.548640  0.338047  0.250000  1
  Al  Al19  1  0.451360  0.661953  0.750000  1
  Ga  Ga20  1  0.140354  0.140354  0.250000  1
  Ga  Ga21  1  0.859646  0.859646  0.750000  1
  Ir  Ir22  1  0.670759  0.329241  0.000000  1
  Ir  Ir23  1  0.329241  0.670759  0.000000  1
  Ir  Ir24  1  0.329241  0.670759  0.500000  1
  Ir  Ir25  1  0.670759  0.329241  0.500000  1
  Pt  Pt26  1  0.000000  0.000000  0.000000  1
  Pt  Pt27  1  0.000000  0.000000  0.500000  1
