# generated using pymatgen
data_Y8Ho4InCo4Ir
_symmetry_space_group_name_H-M   'P 1'
_cell_length_a   8.33371237
_cell_length_b   8.33370028
_cell_length_c   8.33371152
_cell_angle_alpha   110.95156968
_cell_angle_beta   110.71775489
_cell_angle_gamma   106.77759062
_symmetry_Int_Tables_number   1
_chemical_formula_structural   Y8Ho4InCo4Ir
_chemical_formula_sum   'Y8 Ho4 In1 Co4 Ir1'
_cell_volume   444.81003233
_cell_formula_units_Z   1
loop_
 _symmetry_equiv_pos_site_id
 _symmetry_equiv_pos_as_xyz
  1  'x, y, z'
loop_
 _atom_site_type_symbol
 _atom_site_label
 _atom_site_symmetry_multiplicity
 _atom_site_fract_x
 _atom_site_fract_y
 _atom_site_fract_z
 _atom_site_occupancy
  Y  Y0  1  0.314627  0.619197  0.304570  1
  Y  Y1  1  0.685373  0.380803  0.695430  1
  Y  Y2  1  0.314626  0.010053  0.695428  1
  Y  Y3  1  0.685374  0.989947  0.304572  1
  Y  Y4  1  0.184898  0.288249  0.473144  1
  Y  Y5  1  0.815102  0.711751  0.526856  1
  Y  Y6  1  0.184895  0.711751  0.896649  1
  Y  Y7  1  0.815105  0.288249  0.103351  1
  Ho  Ho8  1  0.407286  0.213091  0.194193  1
  Ho  Ho9  1  0.592714  0.786909  0.805807  1
  Ho  Ho10  1  0.018898  0.213091  0.805804  1
  Ho  Ho11  1  0.981102  0.786909  0.194196  1
  In  In12  1  0.500000  0.500000  0.000000  1
  Co  Co13  1  0.110819  0.610819  0.499999  1
  Co  Co14  1  0.889181  0.389181  0.500001  1
  Co  Co15  1  0.379668  0.000000  0.379668  1
  Co  Co16  1  0.620332  0.000000  0.620332  1
  Ir  Ir17  1  0.000000  0.000000  0.000000  1
