# generated using pymatgen
data_Lu12InGa4Ag
_symmetry_space_group_name_H-M   'P 1'
_cell_length_a   8.42839965
_cell_length_b   8.42840063
_cell_length_c   8.42839932
_cell_angle_alpha   112.22730634
_cell_angle_beta   112.17689683
_cell_angle_gamma   104.13754885
_symmetry_Int_Tables_number   1
_chemical_formula_structural   Lu12InGa4Ag
_chemical_formula_sum   'Lu12 In1 Ga4 Ag1'
_cell_volume   457.94895280
_cell_formula_units_Z   1
loop_
 _symmetry_equiv_pos_site_id
 _symmetry_equiv_pos_as_xyz
  1  'x, y, z'
loop_
 _atom_site_type_symbol
 _atom_site_label
 _atom_site_symmetry_multiplicity
 _atom_site_fract_x
 _atom_site_fract_y
 _atom_site_fract_z
 _atom_site_occupancy
  Lu  Lu0  1  0.437618  0.238920  0.198698  1
  Lu  Lu1  1  0.562382  0.761080  0.801302  1
  Lu  Lu2  1  0.040222  0.238920  0.801302  1
  Lu  Lu3  1  0.959778  0.761080  0.198698  1
  Lu  Lu4  1  0.182201  0.273246  0.455447  1
  Lu  Lu5  1  0.817799  0.726754  0.544553  1
  Lu  Lu6  1  0.182201  0.726754  0.908958  1
  Lu  Lu7  1  0.817799  0.273246  0.091042  1
  Lu  Lu8  1  0.321070  0.619204  0.298134  1
  Lu  Lu9  1  0.678930  0.380796  0.701866  1
  Lu  Lu10  1  0.321070  0.022936  0.701866  1
  Lu  Lu11  1  0.678930  0.977064  0.298134  1
  In  In12  1  0.500000  0.500000  0.000000  1
  Ga  Ga13  1  0.351243  0.000000  0.351243  1
  Ga  Ga14  1  0.648757  0.000000  0.648757  1
  Ga  Ga15  1  0.121027  0.621027  0.500000  1
  Ga  Ga16  1  0.878973  0.378973  0.500000  1
  Ag  Ag17  1  0.000000  0.000000  0.000000  1
