# generated using pymatgen
data_NdHo(Si7Ir3)2
_symmetry_space_group_name_H-M   'P 1'
_cell_length_a   8.07530424
_cell_length_b   8.07530542
_cell_length_c   8.07530575
_cell_angle_alpha   56.52546307
_cell_angle_beta   56.52546073
_cell_angle_gamma   56.52546394
_symmetry_Int_Tables_number   1
_chemical_formula_structural   NdHo(Si7Ir3)2
_chemical_formula_sum   'Nd1 Ho1 Si14 Ir6'
_cell_volume   342.45882292
_cell_formula_units_Z   1
loop_
 _symmetry_equiv_pos_site_id
 _symmetry_equiv_pos_as_xyz
  1  'x, y, z'
loop_
 _atom_site_type_symbol
 _atom_site_label
 _atom_site_symmetry_multiplicity
 _atom_site_fract_x
 _atom_site_fract_y
 _atom_site_fract_z
 _atom_site_occupancy
  Nd  Nd0  1  0.500000  0.500000  0.500000  1
  Ho  Ho1  1  0.000000  0.000000  0.000000  1
  Si  Si2  1  0.063120  0.851271  0.673422  1
  Si  Si3  1  0.673422  0.063120  0.851271  1
  Si  Si4  1  0.851271  0.673422  0.063120  1
  Si  Si5  1  0.172047  0.349965  0.564881  1
  Si  Si6  1  0.564881  0.172047  0.349965  1
  Si  Si7  1  0.349965  0.564881  0.172047  1
  Si  Si8  1  0.936880  0.148729  0.326578  1
  Si  Si9  1  0.326578  0.936880  0.148729  1
  Si  Si10  1  0.148729  0.326578  0.936880  1
  Si  Si11  1  0.827953  0.650035  0.435119  1
  Si  Si12  1  0.435119  0.827953  0.650035  1
  Si  Si13  1  0.650035  0.435119  0.827953  1
  Si  Si14  1  0.749911  0.749911  0.749911  1
  Si  Si15  1  0.250089  0.250089  0.250089  1
  Ir  Ir16  1  0.067655  0.751966  0.429140  1
  Ir  Ir17  1  0.429140  0.067655  0.751966  1
  Ir  Ir18  1  0.751966  0.429140  0.067655  1
  Ir  Ir19  1  0.932345  0.248034  0.570860  1
  Ir  Ir20  1  0.570860  0.932345  0.248034  1
  Ir  Ir21  1  0.248034  0.570860  0.932345  1
