# generated using pymatgen
data_PrHfReB6
_symmetry_space_group_name_H-M   'P 1'
_cell_length_a   3.65658000
_cell_length_b   9.11258100
_cell_length_c   11.58270000
_cell_angle_alpha   90.00000000
_cell_angle_beta   90.00000000
_cell_angle_gamma   90.00000000
_symmetry_Int_Tables_number   1
_chemical_formula_structural   PrHfReB6
_chemical_formula_sum   'Pr4 Hf4 Re4 B24'
_cell_volume   385.94577337
_cell_formula_units_Z   4
loop_
 _symmetry_equiv_pos_site_id
 _symmetry_equiv_pos_as_xyz
  1  'x, y, z'
loop_
 _atom_site_type_symbol
 _atom_site_label
 _atom_site_symmetry_multiplicity
 _atom_site_fract_x
 _atom_site_fract_y
 _atom_site_fract_z
 _atom_site_occupancy
  Pr  Pr0  1  0.000000  0.322650  0.415038  1
  Pr  Pr1  1  0.000000  0.677350  0.584962  1
  Pr  Pr2  1  0.000000  0.822650  0.084962  1
  Pr  Pr3  1  0.000000  0.177350  0.915038  1
  Hf  Hf4  1  0.000000  0.945470  0.372369  1
  Hf  Hf5  1  0.000000  0.054530  0.627631  1
  Hf  Hf6  1  0.000000  0.445470  0.127631  1
  Hf  Hf7  1  0.000000  0.554530  0.872369  1
  Re  Re8  1  0.000000  0.641836  0.316055  1
  Re  Re9  1  0.000000  0.358164  0.683945  1
  Re  Re10  1  0.000000  0.141836  0.183945  1
  Re  Re11  1  0.000000  0.858164  0.816055  1
  B  B12  1  0.500000  0.556902  0.429716  1
  B  B13  1  0.500000  0.443098  0.570284  1
  B  B14  1  0.500000  0.056902  0.070284  1
  B  B15  1  0.500000  0.943098  0.929716  1
  B  B16  1  0.500000  0.754043  0.415256  1
  B  B17  1  0.500000  0.245957  0.584744  1
  B  B18  1  0.500000  0.254043  0.084744  1
  B  B19  1  0.500000  0.745957  0.915256  1
  B  B20  1  0.500000  0.794751  0.265263  1
  B  B21  1  0.500000  0.205249  0.734737  1
  B  B22  1  0.500000  0.294751  0.234737  1
  B  B23  1  0.500000  0.705249  0.765263  1
  B  B24  1  0.500000  0.628832  0.183567  1
  B  B25  1  0.500000  0.371168  0.816433  1
  B  B26  1  0.500000  0.128832  0.316433  1
  B  B27  1  0.500000  0.871168  0.683567  1
  B  B28  1  0.500000  0.983584  0.215444  1
  B  B29  1  0.500000  0.016416  0.784556  1
  B  B30  1  0.500000  0.483584  0.284556  1
  B  B31  1  0.500000  0.516416  0.715444  1
  B  B32  1  0.500000  0.597176  0.025599  1
  B  B33  1  0.500000  0.402824  0.974401  1
  B  B34  1  0.500000  0.097176  0.474401  1
  B  B35  1  0.500000  0.902824  0.525599  1
