# generated using pymatgen
data_YHo2P4Pd7
_symmetry_space_group_name_H-M   'P 1'
_cell_length_a   7.93001604
_cell_length_b   7.93001651
_cell_length_c   9.41811718
_cell_angle_alpha   55.87334385
_cell_angle_beta   55.87333981
_cell_angle_gamma   29.24475884
_symmetry_Int_Tables_number   1
_chemical_formula_structural   YHo2P4Pd7
_chemical_formula_sum   'Y1 Ho2 P4 Pd7'
_cell_volume   235.74436875
_cell_formula_units_Z   1
loop_
 _symmetry_equiv_pos_site_id
 _symmetry_equiv_pos_as_xyz
  1  'x, y, z'
loop_
 _atom_site_type_symbol
 _atom_site_label
 _atom_site_symmetry_multiplicity
 _atom_site_fract_x
 _atom_site_fract_y
 _atom_site_fract_z
 _atom_site_occupancy
  Y  Y0  1  0.500000  0.500000  0.500000  1
  Ho  Ho1  1  0.820386  0.820386  0.176054  1
  Ho  Ho2  1  0.179614  0.179614  0.823946  1
  P  P3  1  0.393570  0.393570  0.319414  1
  P  P4  1  0.606430  0.606430  0.680586  1
  P  P5  1  0.840038  0.840038  0.753708  1
  P  P6  1  0.159962  0.159962  0.246292  1
  Pd  Pd7  1  0.669039  0.669039  0.077256  1
  Pd  Pd8  1  0.009766  0.009766  0.215045  1
  Pd  Pd9  1  0.990234  0.990234  0.784955  1
  Pd  Pd10  1  0.500000  0.500000  0.000000  1
  Pd  Pd11  1  0.195268  0.195268  0.469341  1
  Pd  Pd12  1  0.804732  0.804732  0.530659  1
  Pd  Pd13  1  0.330961  0.330961  0.922744  1
