# generated using pymatgen
data_Tm8Lu4Ir3I16
_symmetry_space_group_name_H-M   'P 1'
_cell_length_a   9.51869864
_cell_length_b   12.14962521
_cell_length_c   12.84886882
_cell_angle_alpha   116.92588348
_cell_angle_beta   101.36795162
_cell_angle_gamma   100.97432636
_symmetry_Int_Tables_number   1
_chemical_formula_structural   Tm8Lu4Ir3I16
_chemical_formula_sum   'Tm8 Lu4 Ir3 I16'
_cell_volume   1230.61907656
_cell_formula_units_Z   1
loop_
 _symmetry_equiv_pos_site_id
 _symmetry_equiv_pos_as_xyz
  1  'x, y, z'
loop_
 _atom_site_type_symbol
 _atom_site_label
 _atom_site_symmetry_multiplicity
 _atom_site_fract_x
 _atom_site_fract_y
 _atom_site_fract_z
 _atom_site_occupancy
  Tm  Tm0  1  0.085334  0.267189  0.356026  1
  Tm  Tm1  1  0.914666  0.732811  0.643974  1
  Tm  Tm2  1  0.782019  0.534306  0.328106  1
  Tm  Tm3  1  0.217981  0.465694  0.671894  1
  Tm  Tm4  1  0.275770  0.733491  0.643463  1
  Tm  Tm5  1  0.724230  0.266509  0.356537  1
  Tm  Tm6  1  0.142408  0.534665  0.327828  1
  Tm  Tm7  1  0.857592  0.465335  0.672172  1
  Lu  Lu8  1  0.405225  0.357563  0.272697  1
  Lu  Lu9  1  0.594775  0.642437  0.727303  1
  Lu  Lu10  1  0.459201  0.312250  0.520290  1
  Lu  Lu11  1  0.540799  0.687750  0.479710  1
  Ir  Ir12  1  0.000000  0.500000  0.500000  1
  Ir  Ir13  1  0.341513  0.500176  0.499550  1
  Ir  Ir14  1  0.658488  0.499824  0.500450  1
  I  I15  1  0.396705  0.746883  0.893868  1
  I  I16  1  0.603295  0.253117  0.106132  1
  I  I17  1  0.192651  0.976506  0.789182  1
  I  I18  1  0.807349  0.023494  0.210818  1
  I  I19  1  0.334301  0.087164  0.247186  1
  I  I20  1  0.665699  0.912836  0.752814  1
  I  I21  1  0.559687  0.436162  0.804568  1
  I  I22  1  0.440313  0.563838  0.195432  1
  I  I23  1  0.307048  0.834497  0.461428  1
  I  I24  1  0.692952  0.165503  0.538572  1
  I  I25  1  0.162294  0.165580  0.535974  1
  I  I26  1  0.837706  0.834420  0.464026  1
  I  I27  1  0.924882  0.578922  0.153091  1
  I  I28  1  0.075118  0.421078  0.846909  1
  I  I29  1  0.931057  0.745625  0.894365  1
  I  I30  1  0.068943  0.254375  0.105635  1
