# generated using pymatgen
data_Hf4CoPt
_symmetry_space_group_name_H-M   'P 1'
_cell_length_a   8.63435631
_cell_length_b   8.63435591
_cell_length_c   8.63435500
_cell_angle_alpha   59.99999966
_cell_angle_beta   60.00000119
_cell_angle_gamma   59.99999926
_symmetry_Int_Tables_number   1
_chemical_formula_structural   Hf4CoPt
_chemical_formula_sum   'Hf16 Co4 Pt4'
_cell_volume   455.17124287
_cell_formula_units_Z   4
loop_
 _symmetry_equiv_pos_site_id
 _symmetry_equiv_pos_as_xyz
  1  'x, y, z'
loop_
 _atom_site_type_symbol
 _atom_site_label
 _atom_site_symmetry_multiplicity
 _atom_site_fract_x
 _atom_site_fract_y
 _atom_site_fract_z
 _atom_site_occupancy
  Hf  Hf0  1  0.070284  0.643239  0.643239  1
  Hf  Hf1  1  0.643239  0.070284  0.643239  1
  Hf  Hf2  1  0.643239  0.643239  0.070284  1
  Hf  Hf3  1  0.643239  0.643239  0.643239  1
  Hf  Hf4  1  0.809623  0.809623  0.190377  1
  Hf  Hf5  1  0.190377  0.190377  0.809623  1
  Hf  Hf6  1  0.809623  0.190377  0.809623  1
  Hf  Hf7  1  0.190377  0.809623  0.190377  1
  Hf  Hf8  1  0.190377  0.809623  0.809623  1
  Hf  Hf9  1  0.809623  0.190377  0.190377  1
  Hf  Hf10  1  0.438077  0.438077  0.061923  1
  Hf  Hf11  1  0.061923  0.061923  0.438077  1
  Hf  Hf12  1  0.438077  0.061923  0.438077  1
  Hf  Hf13  1  0.061923  0.438077  0.061923  1
  Hf  Hf14  1  0.061923  0.438077  0.438077  1
  Hf  Hf15  1  0.438077  0.061923  0.061923  1
  Co  Co16  1  0.432604  0.855799  0.855799  1
  Co  Co17  1  0.855799  0.432604  0.855799  1
  Co  Co18  1  0.855799  0.855799  0.432604  1
  Co  Co19  1  0.855799  0.855799  0.855799  1
  Pt  Pt20  1  0.774095  0.408635  0.408635  1
  Pt  Pt21  1  0.408635  0.774095  0.408635  1
  Pt  Pt22  1  0.408635  0.408635  0.774095  1
  Pt  Pt23  1  0.408635  0.408635  0.408635  1
