# generated using pymatgen
data_SrTlBi2(Rh2O7)2
_symmetry_space_group_name_H-M   'P 1'
_cell_length_a   7.43507993
_cell_length_b   7.32361450
_cell_length_c   7.34725086
_cell_angle_alpha   58.91313203
_cell_angle_beta   59.60377764
_cell_angle_gamma   59.49524298
_symmetry_Int_Tables_number   1
_chemical_formula_structural   SrTlBi2(Rh2O7)2
_chemical_formula_sum   'Sr1 Tl1 Bi2 Rh4 O14'
_cell_volume   278.60114047
_cell_formula_units_Z   1
loop_
 _symmetry_equiv_pos_site_id
 _symmetry_equiv_pos_as_xyz
  1  'x, y, z'
loop_
 _atom_site_type_symbol
 _atom_site_label
 _atom_site_symmetry_multiplicity
 _atom_site_fract_x
 _atom_site_fract_y
 _atom_site_fract_z
 _atom_site_occupancy
  Sr  Sr0  1  0.125000  0.125000  0.625000  1
  Tl  Tl1  1  0.125000  0.625000  0.125000  1
  Bi  Bi2  1  0.125000  0.125000  0.125000  1
  Bi  Bi3  1  0.625000  0.125000  0.125000  1
  Rh  Rh4  1  0.625000  0.625000  0.625000  1
  Rh  Rh5  1  0.625000  0.625000  0.125000  1
  Rh  Rh6  1  0.125000  0.625000  0.625000  1
  Rh  Rh7  1  0.625000  0.125000  0.625000  1
  O  O8  1  0.259783  0.254285  0.226148  1
  O  O9  1  0.295829  0.708485  0.291100  1
  O  O10  1  0.955232  0.957424  0.535315  1
  O  O11  1  0.552030  0.957424  0.535315  1
  O  O12  1  0.704586  0.708485  0.291100  1
  O  O13  1  0.951070  0.560405  0.537454  1
  O  O14  1  0.697970  0.292576  0.714685  1
  O  O15  1  0.294768  0.292576  0.714685  1
  O  O16  1  0.706434  0.294122  0.293010  1
  O  O17  1  0.298930  0.689595  0.712546  1
  O  O18  1  0.954171  0.541515  0.958900  1
  O  O19  1  0.545414  0.541515  0.958900  1
  O  O20  1  0.990217  0.995715  0.023852  1
  O  O21  1  0.543566  0.955878  0.956990  1
