# generated using pymatgen
data_HfSiPtRh
_symmetry_space_group_name_H-M   'P 1'
_cell_length_a   5.23467851
_cell_length_b   5.23467695
_cell_length_c   6.95634900
_cell_angle_alpha   90.00000000
_cell_angle_beta   90.00000000
_cell_angle_gamma   138.59378279
_symmetry_Int_Tables_number   1
_chemical_formula_structural   HfSiPtRh
_chemical_formula_sum   'Hf2 Si2 Pt2 Rh2'
_cell_volume   126.07269153
_cell_formula_units_Z   2
loop_
 _symmetry_equiv_pos_site_id
 _symmetry_equiv_pos_as_xyz
  1  'x, y, z'
loop_
 _atom_site_type_symbol
 _atom_site_label
 _atom_site_symmetry_multiplicity
 _atom_site_fract_x
 _atom_site_fract_y
 _atom_site_fract_z
 _atom_site_occupancy
  Hf  Hf0  1  0.945979  0.054020  0.250000  1
  Hf  Hf1  1  0.052804  0.947195  0.750000  1
  Si  Si2  1  0.222780  0.777218  0.250000  1
  Si  Si3  1  0.767884  0.232114  0.750000  1
  Pt  Pt4  1  0.363729  0.636269  0.545306  1
  Pt  Pt5  1  0.363729  0.636269  0.954694  1
  Rh  Rh6  1  0.641544  0.358454  0.047782  1
  Rh  Rh7  1  0.641544  0.358454  0.452217  1
