# generated using pymatgen
data_Hf3Fe(SiIr2)2
_symmetry_space_group_name_H-M   'P 1'
_cell_length_a   9.30891200
_cell_length_b   9.30891200
_cell_length_c   3.58929700
_cell_angle_alpha   90.00000000
_cell_angle_beta   90.00000000
_cell_angle_gamma   90.00000000
_symmetry_Int_Tables_number   1
_chemical_formula_structural   Hf3Fe(SiIr2)2
_chemical_formula_sum   'Hf6 Fe2 Si4 Ir8'
_cell_volume   311.03355596
_cell_formula_units_Z   2
loop_
 _symmetry_equiv_pos_site_id
 _symmetry_equiv_pos_as_xyz
  1  'x, y, z'
loop_
 _atom_site_type_symbol
 _atom_site_label
 _atom_site_symmetry_multiplicity
 _atom_site_fract_x
 _atom_site_fract_y
 _atom_site_fract_z
 _atom_site_occupancy
  Hf  Hf0  1  0.177608  0.677608  0.000000  1
  Hf  Hf1  1  0.322392  0.177608  0.000000  1
  Hf  Hf2  1  0.822392  0.322392  0.000000  1
  Hf  Hf3  1  0.500000  0.500000  0.000000  1
  Hf  Hf4  1  0.677608  0.822392  0.000000  1
  Hf  Hf5  1  0.000000  0.000000  0.000000  1
  Fe  Fe6  1  0.000000  0.500000  0.500000  1
  Fe  Fe7  1  0.500000  0.000000  0.500000  1
  Si  Si8  1  0.388344  0.888344  0.000000  1
  Si  Si9  1  0.111656  0.388344  0.000000  1
  Si  Si10  1  0.888344  0.611656  0.000000  1
  Si  Si11  1  0.611656  0.111656  0.000000  1
  Ir  Ir12  1  0.217221  0.933463  0.500000  1
  Ir  Ir13  1  0.933463  0.782779  0.500000  1
  Ir  Ir14  1  0.433463  0.717221  0.500000  1
  Ir  Ir15  1  0.566537  0.282779  0.500000  1
  Ir  Ir16  1  0.717221  0.566537  0.500000  1
  Ir  Ir17  1  0.282779  0.433463  0.500000  1
  Ir  Ir18  1  0.066537  0.217221  0.500000  1
  Ir  Ir19  1  0.782779  0.066537  0.500000  1
