# generated using pymatgen
data_Sr2CaCd(GeO4)2
_symmetry_space_group_name_H-M   'P 1'
_cell_length_a   5.32925674
_cell_length_b   7.03083641
_cell_length_c   12.12042400
_cell_angle_alpha   90.00000000
_cell_angle_beta   90.00000000
_cell_angle_gamma   90.63699046
_symmetry_Int_Tables_number   1
_chemical_formula_structural   Sr2CaCd(GeO4)2
_chemical_formula_sum   'Sr4 Ca2 Cd2 Ge4 O16'
_cell_volume   454.11370537
_cell_formula_units_Z   2
loop_
 _symmetry_equiv_pos_site_id
 _symmetry_equiv_pos_as_xyz
  1  'x, y, z'
loop_
 _atom_site_type_symbol
 _atom_site_label
 _atom_site_symmetry_multiplicity
 _atom_site_fract_x
 _atom_site_fract_y
 _atom_site_fract_z
 _atom_site_occupancy
  Sr  Sr0  1  0.016727  0.751052  0.721265  1
  Sr  Sr1  1  0.983273  0.248948  0.278735  1
  Sr  Sr2  1  0.516727  0.251052  0.778735  1
  Sr  Sr3  1  0.483273  0.748948  0.221265  1
  Ca  Ca4  1  0.000000  0.500000  0.000000  1
  Ca  Ca5  1  0.500000  0.000000  0.500000  1
  Cd  Cd6  1  0.500000  0.500000  0.500000  1
  Cd  Cd7  1  0.000000  0.000000  0.000000  1
  Ge  Ge8  1  0.421287  0.248449  0.087344  1
  Ge  Ge9  1  0.921287  0.748449  0.412656  1
  Ge  Ge10  1  0.578713  0.751551  0.912656  1
  Ge  Ge11  1  0.078713  0.251551  0.587344  1
  O  O12  1  0.769913  0.746237  0.546596  1
  O  O13  1  0.780011  0.546507  0.345572  1
  O  O14  1  0.718519  0.549744  0.847583  1
  O  O15  1  0.746853  0.245525  0.585404  1
  O  O16  1  0.730087  0.753763  0.046596  1
  O  O17  1  0.281481  0.450256  0.152417  1
  O  O18  1  0.219989  0.453493  0.654428  1
  O  O19  1  0.253147  0.754475  0.414596  1
  O  O20  1  0.781481  0.950256  0.347583  1
  O  O21  1  0.246853  0.745525  0.914596  1
  O  O22  1  0.230087  0.253763  0.453404  1
  O  O23  1  0.719989  0.953493  0.845572  1
  O  O24  1  0.218519  0.049744  0.652417  1
  O  O25  1  0.269913  0.246237  0.953404  1
  O  O26  1  0.280011  0.046507  0.154428  1
  O  O27  1  0.753147  0.254475  0.085404  1
