# generated using pymatgen
data_Ho4PdPt3Pb2
_symmetry_space_group_name_H-M   'P 1'
_cell_length_a   7.89210567
_cell_length_b   7.89210567
_cell_length_c   3.62574600
_cell_angle_alpha   90.00000000
_cell_angle_beta   90.00000000
_cell_angle_gamma   89.70211206
_symmetry_Int_Tables_number   1
_chemical_formula_structural   Ho4PdPt3Pb2
_chemical_formula_sum   'Ho4 Pd1 Pt3 Pb2'
_cell_volume   225.82774061
_cell_formula_units_Z   1
loop_
 _symmetry_equiv_pos_site_id
 _symmetry_equiv_pos_as_xyz
  1  'x, y, z'
loop_
 _atom_site_type_symbol
 _atom_site_label
 _atom_site_symmetry_multiplicity
 _atom_site_fract_x
 _atom_site_fract_y
 _atom_site_fract_z
 _atom_site_occupancy
  Ho  Ho0  1  0.665307  0.165307  0.500000  1
  Ho  Ho1  1  0.176048  0.332670  0.500000  1
  Ho  Ho2  1  0.832670  0.676048  0.500000  1
  Ho  Ho3  1  0.328749  0.828749  0.500000  1
  Pd  Pd4  1  0.870874  0.370874  0.000000  1
  Pt  Pt5  1  0.372446  0.126591  0.000000  1
  Pt  Pt6  1  0.123823  0.623823  0.000000  1
  Pt  Pt7  1  0.626591  0.872446  0.000000  1
  Pb  Pb8  1  0.999619  0.003874  0.000000  1
  Pb  Pb9  1  0.503874  0.499619  0.000000  1
