# generated using pymatgen
data_Dy2Y3Ho7In20
_symmetry_space_group_name_H-M   'P 1'
_cell_length_a   6.50945309
_cell_length_b   10.41867214
_cell_length_c   12.26634040
_cell_angle_alpha   89.94235022
_cell_angle_beta   89.98376014
_cell_angle_gamma   90.00954871
_symmetry_Int_Tables_number   1
_chemical_formula_structural   Dy2Y3Ho7In20
_chemical_formula_sum   'Dy2 Y3 Ho7 In20'
_cell_volume   831.90099329
_cell_formula_units_Z   1
loop_
 _symmetry_equiv_pos_site_id
 _symmetry_equiv_pos_as_xyz
  1  'x, y, z'
loop_
 _atom_site_type_symbol
 _atom_site_label
 _atom_site_symmetry_multiplicity
 _atom_site_fract_x
 _atom_site_fract_y
 _atom_site_fract_z
 _atom_site_occupancy
  Dy  Dy0  1  0.390152  0.507041  0.358021  1
  Dy  Dy1  1  0.109779  0.507263  0.858214  1
  Y  Y2  1  0.390262  0.992878  0.358296  1
  Y  Y3  1  0.889964  0.007231  0.141632  1
  Y  Y4  1  0.610035  0.492761  0.642282  1
  Ho  Ho5  1  0.350386  0.750195  0.055605  1
  Ho  Ho6  1  0.149658  0.749544  0.555665  1
  Ho  Ho7  1  0.649834  0.250628  0.944308  1
  Ho  Ho8  1  0.850758  0.249663  0.444421  1
  Ho  Ho9  1  0.890582  0.492995  0.141556  1
  Ho  Ho10  1  0.609447  0.006987  0.641492  1
  Ho  Ho11  1  0.109469  0.992860  0.858560  1
  In  In12  1  0.615989  0.750248  0.505587  1
  In  In13  1  0.884461  0.749836  0.005318  1
  In  In14  1  0.384601  0.249875  0.495109  1
  In  In15  1  0.115750  0.249833  0.994352  1
  In  In16  1  0.651613  0.749496  0.245155  1
  In  In17  1  0.848607  0.751139  0.745353  1
  In  In18  1  0.348291  0.248942  0.754873  1
  In  In19  1  0.151089  0.250377  0.254396  1
  In  In20  1  0.124940  0.749863  0.283747  1
  In  In21  1  0.374156  0.750835  0.783939  1
  In  In22  1  0.874392  0.248926  0.716170  1
  In  In23  1  0.625465  0.250648  0.216124  1
  In  In24  1  0.875221  0.543664  0.400642  1
  In  In25  1  0.624902  0.956584  0.900382  1
  In  In26  1  0.124796  0.043397  0.599737  1
  In  In27  1  0.374919  0.456198  0.098779  1
  In  In28  1  0.124704  0.455778  0.598998  1
  In  In29  1  0.375437  0.043991  0.098634  1
  In  In30  1  0.875510  0.956084  0.401325  1
  In  In31  1  0.624839  0.544238  0.901329  1
