# generated using pymatgen
data_AcEr5CuRh17
_symmetry_space_group_name_H-M   'P 1'
_cell_length_a   5.26695300
_cell_length_b   5.26696760
_cell_length_c   17.42557200
_cell_angle_alpha   90.00000000
_cell_angle_beta   90.00000000
_cell_angle_gamma   120.00132147
_symmetry_Int_Tables_number   1
_chemical_formula_structural   AcEr5CuRh17
_chemical_formula_sum   'Ac1 Er5 Cu1 Rh17'
_cell_volume   418.63157421
_cell_formula_units_Z   1
loop_
 _symmetry_equiv_pos_site_id
 _symmetry_equiv_pos_as_xyz
  1  'x, y, z'
loop_
 _atom_site_type_symbol
 _atom_site_label
 _atom_site_symmetry_multiplicity
 _atom_site_fract_x
 _atom_site_fract_y
 _atom_site_fract_z
 _atom_site_occupancy
  Ac  Ac0  1  0.667314  0.333692  0.250000  1
  Er  Er1  1  0.333302  0.666737  0.540780  1
  Er  Er2  1  0.666620  0.333302  0.038938  1
  Er  Er3  1  0.666620  0.333302  0.461062  1
  Er  Er4  1  0.333302  0.666737  0.959220  1
  Er  Er5  1  0.333193  0.666557  0.750000  1
  Cu  Cu6  1  0.002201  0.000850  0.250000  1
  Rh  Rh7  1  0.167321  0.334700  0.123167  1
  Rh  Rh8  1  0.832019  0.664645  0.625381  1
  Rh  Rh9  1  0.665413  0.832775  0.123246  1
  Rh  Rh10  1  0.167281  0.832623  0.123173  1
  Rh  Rh11  1  0.832285  0.167348  0.625380  1
  Rh  Rh12  1  0.334758  0.167580  0.625375  1
  Rh  Rh13  1  0.832019  0.664645  0.874619  1
  Rh  Rh14  1  0.832285  0.167348  0.874620  1
  Rh  Rh15  1  0.334758  0.167580  0.874625  1
  Rh  Rh16  1  0.665413  0.832775  0.376754  1
  Rh  Rh17  1  0.167281  0.832623  0.376827  1
  Rh  Rh18  1  0.167321  0.334700  0.376833  1
  Rh  Rh19  1  0.999630  0.999278  0.750000  1
  Rh  Rh20  1  0.333314  0.666950  0.250000  1
  Rh  Rh21  1  0.666558  0.333370  0.750000  1
  Rh  Rh22  1  0.999897  0.999942  0.000098  1
  Rh  Rh23  1  0.999897  0.999942  0.499902  1
