# generated using pymatgen
data_Y2Si5Os3
_symmetry_space_group_name_H-M   'P 1'
_cell_length_a   8.13820308
_cell_length_b   8.13820197
_cell_length_c   5.81056975
_cell_angle_alpha   70.47720191
_cell_angle_beta   70.47721280
_cell_angle_gamma   93.94169166
_symmetry_Int_Tables_number   1
_chemical_formula_structural   Y2Si5Os3
_chemical_formula_sum   'Y4 Si10 Os6'
_cell_volume   334.73344309
_cell_formula_units_Z   2
loop_
 _symmetry_equiv_pos_site_id
 _symmetry_equiv_pos_as_xyz
  1  'x, y, z'
loop_
 _atom_site_type_symbol
 _atom_site_label
 _atom_site_symmetry_multiplicity
 _atom_site_fract_x
 _atom_site_fract_y
 _atom_site_fract_z
 _atom_site_occupancy
  Y  Y0  1  0.868240  0.601405  0.754246  1
  Y  Y1  1  0.398595  0.131760  0.745754  1
  Y  Y2  1  0.131760  0.398595  0.245754  1
  Y  Y3  1  0.601405  0.868240  0.254246  1
  Si  Si4  1  0.067870  0.261616  0.834279  1
  Si  Si5  1  0.738384  0.932130  0.665721  1
  Si  Si6  1  0.932130  0.738384  0.165721  1
  Si  Si7  1  0.261616  0.067870  0.334279  1
  Si  Si8  1  0.206535  0.793465  0.750000  1
  Si  Si9  1  0.793465  0.206535  0.250000  1
  Si  Si10  1  0.512749  0.487251  0.750000  1
  Si  Si11  1  0.487251  0.512749  0.250000  1
  Si  Si12  1  0.774333  0.225667  0.750000  1
  Si  Si13  1  0.225667  0.774333  0.250000  1
  Os  Os14  1  0.256140  0.543742  0.630982  1
  Os  Os15  1  0.456258  0.743860  0.869018  1
  Os  Os16  1  0.743860  0.456258  0.369018  1
  Os  Os17  1  0.543742  0.256140  0.130982  1
  Os  Os18  1  0.001932  0.998068  0.750000  1
  Os  Os19  1  0.998068  0.001932  0.250000  1
