# generated using pymatgen
data_K3TaP2O9
_symmetry_space_group_name_H-M   'P 1'
_cell_length_a   17.93559100
_cell_length_b   5.29444268
_cell_length_c   9.94017700
_cell_angle_alpha   89.92385729
_cell_angle_beta   90.00000000
_cell_angle_gamma   90.00000000
_symmetry_Int_Tables_number   1
_chemical_formula_structural   K3TaP2O9
_chemical_formula_sum   'K12 Ta4 P8 O36'
_cell_volume   943.90802068
_cell_formula_units_Z   4
loop_
 _symmetry_equiv_pos_site_id
 _symmetry_equiv_pos_as_xyz
  1  'x, y, z'
loop_
 _atom_site_type_symbol
 _atom_site_label
 _atom_site_symmetry_multiplicity
 _atom_site_fract_x
 _atom_site_fract_y
 _atom_site_fract_z
 _atom_site_occupancy
  K  K0  1  0.861720  0.755591  0.078328  1
  K  K1  1  0.638280  0.755591  0.578328  1
  K  K2  1  0.427334  0.246192  0.040125  1
  K  K3  1  0.361720  0.244409  0.421672  1
  K  K4  1  0.138280  0.244409  0.921672  1
  K  K5  1  0.703020  0.251969  0.957487  1
  K  K6  1  0.203020  0.748031  0.542513  1
  K  K7  1  0.296980  0.748031  0.042513  1
  K  K8  1  0.796980  0.251969  0.457487  1
  K  K9  1  0.072666  0.246192  0.540125  1
  K  K10  1  0.572666  0.753808  0.959875  1
  K  K11  1  0.927334  0.753808  0.459875  1
  Ta  Ta12  1  0.410800  0.763701  0.685114  1
  Ta  Ta13  1  0.589200  0.236299  0.314886  1
  Ta  Ta14  1  0.910800  0.236299  0.814886  1
  Ta  Ta15  1  0.089200  0.763701  0.185114  1
  P  P16  1  0.710035  0.744443  0.264739  1
  P  P17  1  0.210035  0.255557  0.235261  1
  P  P18  1  0.961965  0.263554  0.168555  1
  P  P19  1  0.461965  0.736446  0.331445  1
  P  P20  1  0.789965  0.744443  0.764739  1
  P  P21  1  0.038035  0.736446  0.831445  1
  P  P22  1  0.289965  0.255557  0.735261  1
  P  P23  1  0.538035  0.263554  0.668555  1
  O  O24  1  0.419744  0.771692  0.864232  1
  O  O25  1  0.404762  0.748527  0.448286  1
  O  O26  1  0.698956  0.748522  0.113554  1
  O  O27  1  0.301044  0.251478  0.886446  1
  O  O28  1  0.071770  0.770551  0.692765  1
  O  O29  1  0.976566  0.942031  0.858183  1
  O  O30  1  0.595238  0.251473  0.551714  1
  O  O31  1  0.080256  0.771692  0.364232  1
  O  O32  1  0.661951  0.521930  0.331799  1
  O  O33  1  0.290206  0.283030  0.188383  1
  O  O34  1  0.709794  0.716970  0.811617  1
  O  O35  1  0.523434  0.942031  0.358183  1
  O  O36  1  0.838049  0.521930  0.831799  1
  O  O37  1  0.095238  0.748527  0.948286  1
  O  O38  1  0.023434  0.057969  0.141817  1
  O  O39  1  0.497848  0.527712  0.657703  1
  O  O40  1  0.919744  0.228308  0.635768  1
  O  O41  1  0.676286  0.993632  0.332784  1
  O  O42  1  0.904762  0.251473  0.051714  1
  O  O43  1  0.209794  0.283030  0.688383  1
  O  O44  1  0.428230  0.770551  0.192765  1
  O  O45  1  0.323714  0.006368  0.667216  1
  O  O46  1  0.790206  0.716970  0.311617  1
  O  O47  1  0.823714  0.993632  0.832784  1
  O  O48  1  0.161951  0.478070  0.168201  1
  O  O49  1  0.801044  0.748522  0.613554  1
  O  O50  1  0.928230  0.229449  0.307235  1
  O  O51  1  0.198956  0.251478  0.386446  1
  O  O52  1  0.176286  0.006368  0.167216  1
  O  O53  1  0.997848  0.472288  0.842297  1
  O  O54  1  0.502152  0.472288  0.342297  1
  O  O55  1  0.476566  0.057969  0.641817  1
  O  O56  1  0.580256  0.228308  0.135768  1
  O  O57  1  0.002152  0.527712  0.157703  1
  O  O58  1  0.571770  0.229449  0.807235  1
  O  O59  1  0.338049  0.478070  0.668201  1
