# generated using pymatgen
data_CaNdGaI6
_symmetry_space_group_name_H-M   'P 1'
_cell_length_a   8.71971942
_cell_length_b   8.71986157
_cell_length_c   8.71964700
_cell_angle_alpha   55.00519869
_cell_angle_beta   55.00678262
_cell_angle_gamma   55.00526862
_symmetry_Int_Tables_number   1
_chemical_formula_structural   CaNdGaI6
_chemical_formula_sum   'Ca1 Nd1 Ga1 I6'
_cell_volume   414.33419122
_cell_formula_units_Z   1
loop_
 _symmetry_equiv_pos_site_id
 _symmetry_equiv_pos_as_xyz
  1  'x, y, z'
loop_
 _atom_site_type_symbol
 _atom_site_label
 _atom_site_symmetry_multiplicity
 _atom_site_fract_x
 _atom_site_fract_y
 _atom_site_fract_z
 _atom_site_occupancy
  Ca  Ca0  1  0.331019  0.331023  0.331019  1
  Nd  Nd1  1  0.999790  0.999797  0.999789  1
  Ga  Ga2  1  0.669356  0.669354  0.669358  1
  I  I3  1  0.239808  0.592816  0.928589  1
  I  I4  1  0.592810  0.928599  0.239803  1
  I  I5  1  0.928590  0.239812  0.592804  1
  I  I6  1  0.746878  0.392246  0.099496  1
  I  I7  1  0.392250  0.099486  0.746887  1
  I  I8  1  0.099500  0.746866  0.392254  1
