# generated using pymatgen
data_Y20Ir7PtRh4
_symmetry_space_group_name_H-M   'P 1'
_cell_length_a   10.95056356
_cell_length_b   10.95056296
_cell_length_c   6.40899302
_cell_angle_alpha   89.98908451
_cell_angle_beta   89.98908778
_cell_angle_gamma   89.86402681
_symmetry_Int_Tables_number   1
_chemical_formula_structural   Y20Ir7PtRh4
_chemical_formula_sum   'Y20 Ir7 Pt1 Rh4'
_cell_volume   768.53115267
_cell_formula_units_Z   1
loop_
 _symmetry_equiv_pos_site_id
 _symmetry_equiv_pos_as_xyz
  1  'x, y, z'
loop_
 _atom_site_type_symbol
 _atom_site_label
 _atom_site_symmetry_multiplicity
 _atom_site_fract_x
 _atom_site_fract_y
 _atom_site_fract_z
 _atom_site_occupancy
  Y  Y0  1  0.290262  0.089084  0.383091  1
  Y  Y1  1  0.290993  0.910319  0.882141  1
  Y  Y2  1  0.706846  0.087945  0.878644  1
  Y  Y3  1  0.707499  0.907136  0.383525  1
  Y  Y4  1  0.589127  0.790467  0.883503  1
  Y  Y5  1  0.585837  0.209395  0.383094  1
  Y  Y6  1  0.409873  0.790615  0.382961  1
  Y  Y7  1  0.410131  0.208951  0.882512  1
  Y  Y8  1  0.209533  0.410873  0.616497  1
  Y  Y9  1  0.209385  0.590127  0.117039  1
  Y  Y10  1  0.790605  0.414163  0.116906  1
  Y  Y11  1  0.791049  0.589869  0.617488  1
  Y  Y12  1  0.910916  0.709738  0.116909  1
  Y  Y13  1  0.912055  0.293154  0.621356  1
  Y  Y14  1  0.089681  0.709007  0.617859  1
  Y  Y15  1  0.092864  0.292501  0.116475  1
  Y  Y16  1  0.000663  0.998395  0.501147  1
  Y  Y17  1  0.001605  0.999337  0.998853  1
  Y  Y18  1  0.499847  0.499468  0.999632  1
  Y  Y19  1  0.500532  0.500153  0.500368  1
  Ir  Ir20  1  0.845678  0.847481  0.750459  1
  Ir  Ir21  1  0.152519  0.154322  0.749541  1
  Ir  Ir22  1  0.153769  0.846231  0.250000  1
  Ir  Ir23  1  0.655288  0.344712  0.750000  1
  Ir  Ir24  1  0.654497  0.652999  0.249323  1
  Ir  Ir25  1  0.347001  0.345503  0.250677  1
  Ir  Ir26  1  0.346019  0.653981  0.750000  1
  Pt  Pt27  1  0.845186  0.154814  0.250000  1
  Rh  Rh28  1  0.500315  0.999880  0.131109  1
  Rh  Rh29  1  0.500356  0.000052  0.629768  1
  Rh  Rh30  1  0.999948  0.499644  0.870232  1
  Rh  Rh31  1  0.000120  0.499685  0.368891  1
