# generated using pymatgen
data_Pr2DyNpSe6
_symmetry_space_group_name_H-M   'P 1'
_cell_length_a   4.18787200
_cell_length_b   10.99306900
_cell_length_c   11.37563500
_cell_angle_alpha   90.00000000
_cell_angle_beta   90.00000000
_cell_angle_gamma   90.00000000
_symmetry_Int_Tables_number   1
_chemical_formula_structural   Pr2DyNpSe6
_chemical_formula_sum   'Pr4 Dy2 Np2 Se12'
_cell_volume   523.70654550
_cell_formula_units_Z   2
loop_
 _symmetry_equiv_pos_site_id
 _symmetry_equiv_pos_as_xyz
  1  'x, y, z'
loop_
 _atom_site_type_symbol
 _atom_site_label
 _atom_site_symmetry_multiplicity
 _atom_site_fract_x
 _atom_site_fract_y
 _atom_site_fract_z
 _atom_site_occupancy
  Pr  Pr0  1  0.750000  0.502738  0.695488  1
  Pr  Pr1  1  0.750000  0.997262  0.195488  1
  Pr  Pr2  1  0.250000  0.504938  0.304029  1
  Pr  Pr3  1  0.250000  0.995062  0.804029  1
  Dy  Dy4  1  0.750000  0.812711  0.507961  1
  Dy  Dy5  1  0.750000  0.687289  0.007961  1
  Np  Np6  1  0.250000  0.191578  0.495170  1
  Np  Np7  1  0.250000  0.308422  0.995170  1
  Se  Se8  1  0.250000  0.297617  0.732441  1
  Se  Se9  1  0.250000  0.202383  0.232441  1
  Se  Se10  1  0.750000  0.705840  0.267655  1
  Se  Se11  1  0.750000  0.794160  0.767655  1
  Se  Se12  1  0.750000  0.053824  0.614955  1
  Se  Se13  1  0.750000  0.446176  0.114955  1
  Se  Se14  1  0.250000  0.945304  0.385791  1
  Se  Se15  1  0.250000  0.554696  0.885791  1
  Se  Se16  1  0.250000  0.633133  0.542985  1
  Se  Se17  1  0.250000  0.866867  0.042985  1
  Se  Se18  1  0.750000  0.373066  0.453526  1
  Se  Se19  1  0.750000  0.126934  0.953526  1
