# generated using pymatgen
data_Tb3Tm3Th2(MgRh)2
_symmetry_space_group_name_H-M   'P 1'
_cell_length_a   9.75828550
_cell_length_b   9.75828572
_cell_length_c   9.75828600
_cell_angle_alpha   59.99999906
_cell_angle_beta   59.99999832
_cell_angle_gamma   60.00000158
_symmetry_Int_Tables_number   1
_chemical_formula_structural   Tb3Tm3Th2(MgRh)2
_chemical_formula_sum   'Tb6 Tm6 Th4 Mg4 Rh4'
_cell_volume   657.06085068
_cell_formula_units_Z   2
loop_
 _symmetry_equiv_pos_site_id
 _symmetry_equiv_pos_as_xyz
  1  'x, y, z'
loop_
 _atom_site_type_symbol
 _atom_site_label
 _atom_site_symmetry_multiplicity
 _atom_site_fract_x
 _atom_site_fract_y
 _atom_site_fract_z
 _atom_site_occupancy
  Tb  Tb0  1  0.934723  0.565277  0.565277  1
  Tb  Tb1  1  0.565277  0.934723  0.934723  1
  Tb  Tb2  1  0.565277  0.934723  0.565277  1
  Tb  Tb3  1  0.934723  0.565277  0.934723  1
  Tb  Tb4  1  0.565277  0.565277  0.934723  1
  Tb  Tb5  1  0.934723  0.934723  0.565277  1
  Tm  Tm6  1  0.813996  0.186004  0.186004  1
  Tm  Tm7  1  0.186004  0.813996  0.813996  1
  Tm  Tm8  1  0.186004  0.813996  0.186004  1
  Tm  Tm9  1  0.813996  0.186004  0.813996  1
  Tm  Tm10  1  0.186004  0.186004  0.813996  1
  Tm  Tm11  1  0.813996  0.813996  0.186004  1
  Th  Th12  1  0.348573  0.348573  0.348573  1
  Th  Th13  1  0.348573  0.348573  0.954282  1
  Th  Th14  1  0.348573  0.954282  0.348573  1
  Th  Th15  1  0.954282  0.348573  0.348573  1
  Mg  Mg16  1  0.580163  0.580163  0.580163  1
  Mg  Mg17  1  0.580163  0.580163  0.259511  1
  Mg  Mg18  1  0.580163  0.259511  0.580163  1
  Mg  Mg19  1  0.259511  0.580163  0.580163  1
  Rh  Rh20  1  0.143537  0.143537  0.143537  1
  Rh  Rh21  1  0.143537  0.143537  0.569386  1
  Rh  Rh22  1  0.143537  0.569386  0.143537  1
  Rh  Rh23  1  0.569386  0.143537  0.143537  1
