# generated using pymatgen
data_Lu16Zn2(CdIn)3
_symmetry_space_group_name_H-M   'P 1'
_cell_length_a   10.40072800
_cell_length_b   10.40072829
_cell_length_c   6.66089400
_cell_angle_alpha   90.00000000
_cell_angle_beta   90.00000000
_cell_angle_gamma   119.99999908
_symmetry_Int_Tables_number   1
_chemical_formula_structural   Lu16Zn2(CdIn)3
_chemical_formula_sum   'Lu16 Zn2 Cd3 In3'
_cell_volume   624.00870466
_cell_formula_units_Z   1
loop_
 _symmetry_equiv_pos_site_id
 _symmetry_equiv_pos_as_xyz
  1  'x, y, z'
loop_
 _atom_site_type_symbol
 _atom_site_label
 _atom_site_symmetry_multiplicity
 _atom_site_fract_x
 _atom_site_fract_y
 _atom_site_fract_z
 _atom_site_occupancy
  Lu  Lu0  1  0.520538  0.041075  0.530024  1
  Lu  Lu1  1  0.958925  0.479462  0.530024  1
  Lu  Lu2  1  0.520538  0.479462  0.530024  1
  Lu  Lu3  1  0.478121  0.956242  0.027091  1
  Lu  Lu4  1  0.043758  0.521879  0.027091  1
  Lu  Lu5  1  0.478121  0.521879  0.027091  1
  Lu  Lu6  1  0.170262  0.340524  0.742758  1
  Lu  Lu7  1  0.659476  0.829738  0.742758  1
  Lu  Lu8  1  0.170262  0.829738  0.742758  1
  Lu  Lu9  1  0.825792  0.651584  0.231860  1
  Lu  Lu10  1  0.348416  0.174208  0.231860  1
  Lu  Lu11  1  0.825792  0.174208  0.231860  1
  Lu  Lu12  1  0.666667  0.333333  0.879006  1
  Lu  Lu13  1  0.333333  0.666667  0.382958  1
  Lu  Lu14  1  0.000000  0.000000  0.503837  1
  Lu  Lu15  1  0.000000  0.000000  0.004464  1
  Zn  Zn16  1  0.666667  0.333333  0.312069  1
  Zn  Zn17  1  0.333333  0.666667  0.810558  1
  Cd  Cd18  1  0.833878  0.667755  0.761643  1
  Cd  Cd19  1  0.332245  0.166122  0.761643  1
  Cd  Cd20  1  0.833878  0.166122  0.761643  1
  In  In21  1  0.165010  0.330020  0.260888  1
  In  In22  1  0.669980  0.834990  0.260888  1
  In  In23  1  0.165010  0.834990  0.260888  1
