# generated using pymatgen
data_Sr7WF6
_symmetry_space_group_name_H-M   'P 1'
_cell_length_a   7.34766616
_cell_length_b   15.21276200
_cell_length_c   19.58109946
_cell_angle_alpha   77.36476626
_cell_angle_beta   86.23161862
_cell_angle_gamma   81.43355383
_symmetry_Int_Tables_number   1
_chemical_formula_structural   Sr7WF6
_chemical_formula_sum   'Sr7 W1 F6'
_cell_volume   2110.66319853
_cell_formula_units_Z   1
loop_
 _symmetry_equiv_pos_site_id
 _symmetry_equiv_pos_as_xyz
  1  'x, y, z'
loop_
 _atom_site_type_symbol
 _atom_site_label
 _atom_site_symmetry_multiplicity
 _atom_site_fract_x
 _atom_site_fract_y
 _atom_site_fract_z
 _atom_site_occupancy
  Sr  Sr0  1  0.286297  0.762915  0.990564  1
  Sr  Sr1  1  0.703887  0.758898  0.687978  1
  Sr  Sr2  1  0.843725  0.481620  0.768994  1
  Sr  Sr3  1  0.704416  0.572645  0.630595  1
  Sr  Sr4  1  0.571748  0.308730  0.248768  1
  Sr  Sr5  1  0.179660  0.805912  0.941807  1
  Sr  Sr6  1  0.019079  0.821443  0.969881  1
  W  W7  1  0.282109  0.627704  0.823863  1
  F  F8  1  0.282624  0.032997  0.012047  1
  F  F9  1  0.734664  0.118038  0.700381  1
  F  F10  1  0.302613  0.984251  0.640030  1
  F  F11  1  0.688005  0.730956  0.514101  1
  F  F12  1  0.643716  0.499996  0.119579  1
  F  F13  1  0.496991  0.789306  0.046304  1
