# generated using pymatgen
data_Nd5Co16(ReP4)3
_symmetry_space_group_name_H-M   'P 1'
_cell_length_a   12.17386500
_cell_length_b   12.17386481
_cell_length_c   3.76574100
_cell_angle_alpha   90.00000000
_cell_angle_beta   90.00000000
_cell_angle_gamma   119.99999236
_symmetry_Int_Tables_number   1
_chemical_formula_structural   Nd5Co16(ReP4)3
_chemical_formula_sum   'Nd5 Co16 Re3 P12'
_cell_volume   483.32367387
_cell_formula_units_Z   1
loop_
 _symmetry_equiv_pos_site_id
 _symmetry_equiv_pos_as_xyz
  1  'x, y, z'
loop_
 _atom_site_type_symbol
 _atom_site_label
 _atom_site_symmetry_multiplicity
 _atom_site_fract_x
 _atom_site_fract_y
 _atom_site_fract_z
 _atom_site_occupancy
  Nd  Nd0  1  0.666667  0.333333  0.000000  1
  Nd  Nd1  1  0.333333  0.666667  0.000000  1
  Nd  Nd2  1  0.186460  0.186460  0.500000  1
  Nd  Nd3  1  0.813540  0.000000  0.500000  1
  Nd  Nd4  1  0.000000  0.813540  0.500000  1
  Co  Co5  1  0.821285  0.199298  0.000000  1
  Co  Co6  1  0.800702  0.621987  0.000000  1
  Co  Co7  1  0.378013  0.178715  0.000000  1
  Co  Co8  1  0.199298  0.821285  0.000000  1
  Co  Co9  1  0.621987  0.800702  0.000000  1
  Co  Co10  1  0.178715  0.378013  0.000000  1
  Co  Co11  1  0.640140  0.123802  0.500000  1
  Co  Co12  1  0.876198  0.516337  0.500000  1
  Co  Co13  1  0.483663  0.359860  0.500000  1
  Co  Co14  1  0.123802  0.640140  0.500000  1
  Co  Co15  1  0.516337  0.876198  0.500000  1
  Co  Co16  1  0.359860  0.483663  0.500000  1
  Co  Co17  1  0.716547  0.716547  0.500000  1
  Co  Co18  1  0.283453  0.000000  0.500000  1
  Co  Co19  1  0.000000  0.283453  0.500000  1
  Co  Co20  1  0.000000  0.000000  0.000000  1
  Re  Re21  1  0.555813  0.555813  0.000000  1
  Re  Re22  1  0.444187  0.000000  0.000000  1
  Re  Re23  1  0.000000  0.444187  0.000000  1
  P  P24  1  0.366367  0.366367  0.000000  1
  P  P25  1  0.633633  0.000000  0.000000  1
  P  P26  1  0.000000  0.633633  0.000000  1
  P  P27  1  0.836412  0.312799  0.500000  1
  P  P28  1  0.687201  0.523614  0.500000  1
  P  P29  1  0.476386  0.163588  0.500000  1
  P  P30  1  0.312799  0.836412  0.500000  1
  P  P31  1  0.523614  0.687201  0.500000  1
  P  P32  1  0.163588  0.476386  0.500000  1
  P  P33  1  0.818481  0.818481  0.000000  1
  P  P34  1  0.181519  0.000000  0.000000  1
  P  P35  1  0.000000  0.181519  0.000000  1
