# generated using pymatgen
data_Ho4Lu8IrOs3
_symmetry_space_group_name_H-M   'P 1'
_cell_length_a   7.31766504
_cell_length_b   8.84256000
_cell_length_c   6.24724818
_cell_angle_alpha   90.00000000
_cell_angle_beta   90.01985199
_cell_angle_gamma   90.00000000
_symmetry_Int_Tables_number   1
_chemical_formula_structural   Ho4Lu8IrOs3
_chemical_formula_sum   'Ho4 Lu8 Ir1 Os3'
_cell_volume   404.23999007
_cell_formula_units_Z   1
loop_
 _symmetry_equiv_pos_site_id
 _symmetry_equiv_pos_as_xyz
  1  'x, y, z'
loop_
 _atom_site_type_symbol
 _atom_site_label
 _atom_site_symmetry_multiplicity
 _atom_site_fract_x
 _atom_site_fract_y
 _atom_site_fract_z
 _atom_site_occupancy
  Ho  Ho0  1  0.537525  0.250000  0.873772  1
  Ho  Ho1  1  0.038617  0.250000  0.626489  1
  Ho  Ho2  1  0.461703  0.750000  0.126241  1
  Ho  Ho3  1  0.961893  0.750000  0.373355  1
  Lu  Lu4  1  0.673599  0.061795  0.334545  1
  Lu  Lu5  1  0.176850  0.438341  0.167113  1
  Lu  Lu6  1  0.325170  0.562814  0.666841  1
  Lu  Lu7  1  0.824266  0.935512  0.830987  1
  Lu  Lu8  1  0.325170  0.937186  0.666841  1
  Lu  Lu9  1  0.824266  0.564488  0.830987  1
  Lu  Lu10  1  0.673599  0.438205  0.334545  1
  Lu  Lu11  1  0.176850  0.061659  0.167113  1
  Ir  Ir12  1  0.884210  0.250000  0.042762  1
  Os  Os13  1  0.383269  0.250000  0.458160  1
  Os  Os14  1  0.115921  0.750000  0.959499  1
  Os  Os15  1  0.617093  0.750000  0.540749  1
