# generated using pymatgen
data_LaYCo2(B4Os3)2
_symmetry_space_group_name_H-M   'P 1'
_cell_length_a   7.58452652
_cell_length_b   7.33631121
_cell_length_c   3.97928100
_cell_angle_alpha   90.00000000
_cell_angle_beta   90.00000000
_cell_angle_gamma   92.04011159
_symmetry_Int_Tables_number   1
_chemical_formula_structural   LaYCo2(B4Os3)2
_chemical_formula_sum   'La1 Y1 Co2 B8 Os6'
_cell_volume   221.27658644
_cell_formula_units_Z   1
loop_
 _symmetry_equiv_pos_site_id
 _symmetry_equiv_pos_as_xyz
  1  'x, y, z'
loop_
 _atom_site_type_symbol
 _atom_site_label
 _atom_site_symmetry_multiplicity
 _atom_site_fract_x
 _atom_site_fract_y
 _atom_site_fract_z
 _atom_site_occupancy
  La  La0  1  0.000000  0.000000  0.973096  1
  Y  Y1  1  0.500000  0.500000  0.404940  1
  Co  Co2  1  0.130082  0.613505  0.117630  1
  Co  Co3  1  0.869918  0.386495  0.117630  1
  B  B4  1  0.790574  0.662679  0.118672  1
  B  B5  1  0.209426  0.337321  0.118672  1
  B  B6  1  0.841147  0.311933  0.616493  1
  B  B7  1  0.158853  0.688067  0.616493  1
  B  B8  1  0.715949  0.832983  0.398094  1
  B  B9  1  0.284051  0.167017  0.398094  1
  B  B10  1  0.673451  0.229558  0.897612  1
  B  B11  1  0.326549  0.770442  0.897612  1
  Os  Os12  1  0.399068  0.154898  0.896263  1
  Os  Os13  1  0.600932  0.845102  0.896263  1
  Os  Os14  1  0.349055  0.886317  0.396174  1
  Os  Os15  1  0.650945  0.113683  0.396174  1
  Os  Os16  1  0.120146  0.372223  0.620043  1
  Os  Os17  1  0.879854  0.627777  0.620043  1
