# generated using pymatgen
data_Pr6RhAuBr6
_symmetry_space_group_name_H-M   'P 1'
_cell_length_a   10.75211859
_cell_length_b   10.75211849
_cell_length_c   10.52403295
_cell_angle_alpha   109.33643930
_cell_angle_beta   109.33644283
_cell_angle_gamma   110.59859649
_symmetry_Int_Tables_number   1
_chemical_formula_structural   Pr6RhAuBr6
_chemical_formula_sum   'Pr12 Rh2 Au2 Br12'
_cell_volume   926.42730766
_cell_formula_units_Z   2
loop_
 _symmetry_equiv_pos_site_id
 _symmetry_equiv_pos_as_xyz
  1  'x, y, z'
loop_
 _atom_site_type_symbol
 _atom_site_label
 _atom_site_symmetry_multiplicity
 _atom_site_fract_x
 _atom_site_fract_y
 _atom_site_fract_z
 _atom_site_occupancy
  Pr  Pr0  1  0.471699  0.492559  0.232291  1
  Pr  Pr1  1  0.760269  0.239410  0.267709  1
  Pr  Pr2  1  0.762932  0.023343  0.493055  1
  Pr  Pr3  1  0.230123  0.469711  0.493055  1
  Pr  Pr4  1  0.260590  0.739731  0.232291  1
  Pr  Pr5  1  0.030289  0.269877  0.006945  1
  Pr  Pr6  1  0.007441  0.028301  0.267709  1
  Pr  Pr7  1  0.476657  0.737068  0.006945  1
  Pr  Pr8  1  0.488480  0.238480  0.476959  1
  Pr  Pr9  1  0.013588  0.486412  0.750000  1
  Pr  Pr10  1  0.261520  0.011520  0.023041  1
  Pr  Pr11  1  0.236412  0.263588  0.750000  1
  Rh  Rh12  1  0.002058  0.252058  0.504115  1
  Rh  Rh13  1  0.247942  0.497942  0.995885  1
  Au  Au14  1  0.249355  0.250645  0.250000  1
  Au  Au15  1  0.500645  0.999355  0.250000  1
  Br  Br16  1  0.250863  0.756822  0.746458  1
  Br  Br17  1  0.510363  0.504405  0.753542  1
  Br  Br18  1  0.994964  0.748177  0.998921  1
  Br  Br19  1  0.743178  0.249137  0.753542  1
  Br  Br20  1  0.995595  0.989637  0.746458  1
  Br  Br21  1  0.249256  0.996042  0.501079  1
  Br  Br22  1  0.751823  0.505036  0.501079  1
  Br  Br23  1  0.503958  0.250744  0.998921  1
  Br  Br24  1  0.754082  0.745918  0.250000  1
  Br  Br25  1  0.746702  0.996702  0.993405  1
  Br  Br26  1  0.995918  0.504082  0.250000  1
  Br  Br27  1  0.503298  0.753298  0.506595  1
