# generated using pymatgen
data_Hf9Rh11
_symmetry_space_group_name_H-M   'P 1'
_cell_length_a   7.00979788
_cell_length_b   7.81396232
_cell_length_c   7.81396176
_cell_angle_alpha   78.39338903
_cell_angle_beta   63.34975601
_cell_angle_gamma   63.34974499
_symmetry_Int_Tables_number   1
_chemical_formula_structural   Hf9Rh11
_chemical_formula_sum   'Hf9 Rh11'
_cell_volume   341.89368854
_cell_formula_units_Z   1
loop_
 _symmetry_equiv_pos_site_id
 _symmetry_equiv_pos_as_xyz
  1  'x, y, z'
loop_
 _atom_site_type_symbol
 _atom_site_label
 _atom_site_symmetry_multiplicity
 _atom_site_fract_x
 _atom_site_fract_y
 _atom_site_fract_z
 _atom_site_occupancy
  Hf  Hf0  1  0.000000  0.000000  0.000000  1
  Hf  Hf1  1  0.689011  0.405499  0.216481  1
  Hf  Hf2  1  0.310989  0.594501  0.783519  1
  Hf  Hf3  1  0.094508  0.216481  0.594501  1
  Hf  Hf4  1  0.905492  0.783519  0.405499  1
  Hf  Hf5  1  0.758125  0.651983  0.831767  1
  Hf  Hf6  1  0.241875  0.348017  0.168233  1
  Hf  Hf7  1  0.410108  0.831767  0.348017  1
  Hf  Hf8  1  0.589892  0.168233  0.651983  1
  Rh  Rh9  1  0.500000  0.000000  0.000000  1
  Rh  Rh10  1  0.250000  0.500000  0.500000  1
  Rh  Rh11  1  0.750000  0.500000  0.500000  1
  Rh  Rh12  1  0.675951  0.313397  0.896955  1
  Rh  Rh13  1  0.886304  0.686603  0.103045  1
  Rh  Rh14  1  0.989349  0.896955  0.686603  1
  Rh  Rh15  1  0.572907  0.103045  0.313397  1
  Rh  Rh16  1  0.324049  0.686603  0.103045  1
  Rh  Rh17  1  0.113696  0.313397  0.896955  1
  Rh  Rh18  1  0.010651  0.103045  0.313397  1
  Rh  Rh19  1  0.427093  0.896955  0.686603  1
