# generated using pymatgen
data_Tm4CoCu3
_symmetry_space_group_name_H-M   'P 1'
_cell_length_a   4.29300300
_cell_length_b   5.33818177
_cell_length_c   6.94373800
_cell_angle_alpha   90.18473032
_cell_angle_beta   90.00000000
_cell_angle_gamma   90.00000000
_symmetry_Int_Tables_number   1
_chemical_formula_structural   Tm4CoCu3
_chemical_formula_sum   'Tm4 Co1 Cu3'
_cell_volume   159.12763862
_cell_formula_units_Z   1
loop_
 _symmetry_equiv_pos_site_id
 _symmetry_equiv_pos_as_xyz
  1  'x, y, z'
loop_
 _atom_site_type_symbol
 _atom_site_label
 _atom_site_symmetry_multiplicity
 _atom_site_fract_x
 _atom_site_fract_y
 _atom_site_fract_z
 _atom_site_occupancy
  Tm  Tm0  1  0.000000  0.630910  0.325110  1
  Tm  Tm1  1  0.000000  0.872449  0.812438  1
  Tm  Tm2  1  0.500000  0.357669  0.669832  1
  Tm  Tm3  1  0.500000  0.136851  0.194097  1
  Co  Co4  1  0.000000  0.132793  0.468000  1
  Cu  Cu5  1  0.000000  0.376168  0.964335  1
  Cu  Cu6  1  0.500000  0.867544  0.536798  1
  Cu  Cu7  1  0.500000  0.625616  0.029390  1
