# generated using pymatgen
data_Yb4Al17ZnSiIr5
_symmetry_space_group_name_H-M   'P 1'
_cell_length_a   7.57113598
_cell_length_b   7.57113665
_cell_length_c   9.51650470
_cell_angle_alpha   90.03054613
_cell_angle_beta   90.03053671
_cell_angle_gamma   119.62380551
_symmetry_Int_Tables_number   1
_chemical_formula_structural   Yb4Al17ZnSiIr5
_chemical_formula_sum   'Yb4 Al17 Zn1 Si1 Ir5'
_cell_volume   474.20251391
_cell_formula_units_Z   1
loop_
 _symmetry_equiv_pos_site_id
 _symmetry_equiv_pos_as_xyz
  1  'x, y, z'
loop_
 _atom_site_type_symbol
 _atom_site_label
 _atom_site_symmetry_multiplicity
 _atom_site_fract_x
 _atom_site_fract_y
 _atom_site_fract_z
 _atom_site_occupancy
  Yb  Yb0  1  0.996161  0.678588  0.250365  1
  Yb  Yb1  1  0.002533  0.327119  0.749951  1
  Yb  Yb2  1  0.678588  0.996161  0.250365  1
  Yb  Yb3  1  0.327119  0.002533  0.749951  1
  Al  Al4  1  0.864639  0.864639  0.741194  1
  Al  Al5  1  0.001824  0.343647  0.078075  1
  Al  Al6  1  0.997396  0.656874  0.923038  1
  Al  Al7  1  0.000814  0.665315  0.570231  1
  Al  Al8  1  0.337238  0.999243  0.429171  1
  Al  Al9  1  0.999243  0.337238  0.429171  1
  Al  Al10  1  0.665315  0.000814  0.570231  1
  Al  Al11  1  0.656874  0.997396  0.923038  1
  Al  Al12  1  0.343647  0.001824  0.078075  1
  Al  Al13  1  0.332937  0.332937  0.552643  1
  Al  Al14  1  0.664638  0.664638  0.450780  1
  Al  Al15  1  0.656243  0.656243  0.056052  1
  Al  Al16  1  0.341812  0.341812  0.939759  1
  Al  Al17  1  0.335379  0.549782  0.251473  1
  Al  Al18  1  0.661634  0.450316  0.749191  1
  Al  Al19  1  0.549782  0.335379  0.251473  1
  Al  Al20  1  0.450316  0.661634  0.749191  1
  Zn  Zn21  1  0.000271  0.000271  0.003436  1
  Si  Si22  1  0.140375  0.140375  0.258207  1
  Ir  Ir23  1  0.669499  0.326990  0.001074  1
  Ir  Ir24  1  0.326990  0.669499  0.001074  1
  Ir  Ir25  1  0.328212  0.669450  0.499837  1
  Ir  Ir26  1  0.669450  0.328212  0.499837  1
  Ir  Ir27  1  0.001071  0.001071  0.493118  1
