# generated using pymatgen
data_Y3Co8P6W
_symmetry_space_group_name_H-M   'P 1'
_cell_length_a   3.71783300
_cell_length_b   10.53977200
_cell_length_c   12.24404200
_cell_angle_alpha   90.00000000
_cell_angle_beta   90.00000000
_cell_angle_gamma   90.00000000
_symmetry_Int_Tables_number   1
_chemical_formula_structural   Y3Co8P6W
_chemical_formula_sum   'Y6 Co16 P12 W2'
_cell_volume   479.78415899
_cell_formula_units_Z   2
loop_
 _symmetry_equiv_pos_site_id
 _symmetry_equiv_pos_as_xyz
  1  'x, y, z'
loop_
 _atom_site_type_symbol
 _atom_site_label
 _atom_site_symmetry_multiplicity
 _atom_site_fract_x
 _atom_site_fract_y
 _atom_site_fract_z
 _atom_site_occupancy
  Y  Y0  1  0.000000  0.500000  0.524044  1
  Y  Y1  1  0.500000  0.000000  0.475956  1
  Y  Y2  1  0.500000  0.819345  0.204952  1
  Y  Y3  1  0.500000  0.180655  0.204952  1
  Y  Y4  1  0.000000  0.680655  0.795048  1
  Y  Y5  1  0.000000  0.319345  0.795048  1
  Co  Co6  1  0.500000  0.500000  0.701369  1
  Co  Co7  1  0.000000  0.000000  0.298631  1
  Co  Co8  1  0.000000  0.500000  0.987135  1
  Co  Co9  1  0.500000  0.000000  0.012865  1
  Co  Co10  1  0.500000  0.332769  0.990438  1
  Co  Co11  1  0.500000  0.667231  0.990438  1
  Co  Co12  1  0.000000  0.167231  0.009562  1
  Co  Co13  1  0.000000  0.832769  0.009562  1
  Co  Co14  1  0.500000  0.295952  0.431306  1
  Co  Co15  1  0.500000  0.704048  0.431306  1
  Co  Co16  1  0.000000  0.204048  0.568694  1
  Co  Co17  1  0.000000  0.795952  0.568694  1
  Co  Co18  1  0.500000  0.878452  0.707696  1
  Co  Co19  1  0.500000  0.121548  0.707696  1
  Co  Co20  1  0.000000  0.621548  0.292304  1
  Co  Co21  1  0.000000  0.378452  0.292304  1
  P  P22  1  0.500000  0.500000  0.880589  1
  P  P23  1  0.000000  0.000000  0.119411  1
  P  P24  1  0.500000  0.500000  0.349759  1
  P  P25  1  0.000000  0.000000  0.650241  1
  P  P26  1  0.500000  0.311164  0.615833  1
  P  P27  1  0.500000  0.688836  0.615833  1
  P  P28  1  0.000000  0.188836  0.384167  1
  P  P29  1  0.000000  0.811164  0.384167  1
  P  P30  1  0.500000  0.844365  0.892820  1
  P  P31  1  0.500000  0.155635  0.892820  1
  P  P32  1  0.000000  0.655635  0.107180  1
  P  P33  1  0.000000  0.344365  0.107180  1
  W  W34  1  0.500000  0.500000  0.155977  1
  W  W35  1  0.000000  0.000000  0.844023  1
