# generated using pymatgen
data_La5NbRuO12
_symmetry_space_group_name_H-M   'P 1'
_cell_length_a   7.16002252
_cell_length_b   7.16002344
_cell_length_c   7.92966611
_cell_angle_alpha   73.98590486
_cell_angle_beta   73.98590500
_cell_angle_gamma   50.14159548
_symmetry_Int_Tables_number   1
_chemical_formula_structural   La5NbRuO12
_chemical_formula_sum   'La5 Nb1 Ru1 O12'
_cell_volume   297.23271349
_cell_formula_units_Z   1
loop_
 _symmetry_equiv_pos_site_id
 _symmetry_equiv_pos_as_xyz
  1  'x, y, z'
loop_
 _atom_site_type_symbol
 _atom_site_label
 _atom_site_symmetry_multiplicity
 _atom_site_fract_x
 _atom_site_fract_y
 _atom_site_fract_z
 _atom_site_occupancy
  La  La0  1  0.303774  0.313661  0.357131  1
  La  La1  1  0.686339  0.696226  0.642869  1
  La  La2  1  0.683588  0.694262  0.169619  1
  La  La3  1  0.305738  0.316412  0.830381  1
  La  La4  1  0.999225  0.000775  0.500000  1
  Nb  Nb5  1  0.793171  0.206829  0.000000  1
  Ru  Ru6  1  0.246927  0.753073  0.000000  1
  O  O7  1  0.090912  0.597059  0.578058  1
  O  O8  1  0.001698  0.996490  0.189729  1
  O  O9  1  0.402941  0.909088  0.421942  1
  O  O10  1  0.503973  0.496860  0.168749  1
  O  O11  1  0.094549  0.589746  0.078325  1
  O  O12  1  0.901781  0.409107  0.421270  1
  O  O13  1  0.003510  0.998302  0.810271  1
  O  O14  1  0.590893  0.098218  0.578730  1
  O  O15  1  0.503140  0.496027  0.831251  1
  O  O16  1  0.579847  0.102260  0.078205  1
  O  O17  1  0.410254  0.905451  0.921675  1
  O  O18  1  0.897740  0.420153  0.921795  1
