# generated using pymatgen
data_Tm6Sc4Si5Se
_symmetry_space_group_name_H-M   'P 1'
_cell_length_a   8.18105900
_cell_length_b   8.21831513
_cell_length_c   5.92767400
_cell_angle_alpha   90.00000000
_cell_angle_beta   90.00000000
_cell_angle_gamma   119.85014039
_symmetry_Int_Tables_number   1
_chemical_formula_structural   Tm6Sc4Si5Se
_chemical_formula_sum   'Tm6 Sc4 Si5 Se1'
_cell_volume   345.66953092
_cell_formula_units_Z   1
loop_
 _symmetry_equiv_pos_site_id
 _symmetry_equiv_pos_as_xyz
  1  'x, y, z'
loop_
 _atom_site_type_symbol
 _atom_site_label
 _atom_site_symmetry_multiplicity
 _atom_site_fract_x
 _atom_site_fract_y
 _atom_site_fract_z
 _atom_site_occupancy
  Tm  Tm0  1  0.993662  0.748699  0.750000  1
  Tm  Tm1  1  0.000904  0.246573  0.250000  1
  Tm  Tm2  1  0.754331  0.753427  0.250000  1
  Tm  Tm3  1  0.757157  0.000000  0.750000  1
  Tm  Tm4  1  0.244963  0.251301  0.750000  1
  Tm  Tm5  1  0.245887  0.000000  0.250000  1
  Sc  Sc6  1  0.331781  0.660690  0.497675  1
  Sc  Sc7  1  0.671091  0.339310  0.002325  1
  Sc  Sc8  1  0.671091  0.339310  0.497675  1
  Sc  Sc9  1  0.331781  0.660690  0.002325  1
  Si  Si10  1  0.398180  0.395592  0.250000  1
  Si  Si11  1  0.002587  0.604408  0.250000  1
  Si  Si12  1  0.998872  0.397776  0.750000  1
  Si  Si13  1  0.601096  0.602224  0.750000  1
  Si  Si14  1  0.605200  0.000000  0.250000  1
  Se  Se15  1  0.391416  0.000000  0.750000  1
