# generated using pymatgen
data_DyHfP7Ru12
_symmetry_space_group_name_H-M   'P 1'
_cell_length_a   9.38942800
_cell_length_b   9.38942685
_cell_length_c   3.91745900
_cell_angle_alpha   90.00000000
_cell_angle_beta   90.00000000
_cell_angle_gamma   119.99999607
_symmetry_Int_Tables_number   1
_chemical_formula_structural   DyHfP7Ru12
_chemical_formula_sum   'Dy1 Hf1 P7 Ru12'
_cell_volume   299.09787504
_cell_formula_units_Z   1
loop_
 _symmetry_equiv_pos_site_id
 _symmetry_equiv_pos_as_xyz
  1  'x, y, z'
loop_
 _atom_site_type_symbol
 _atom_site_label
 _atom_site_symmetry_multiplicity
 _atom_site_fract_x
 _atom_site_fract_y
 _atom_site_fract_z
 _atom_site_occupancy
  Dy  Dy0  1  0.333333  0.666667  0.000000  1
  Hf  Hf1  1  0.666667  0.333333  0.500000  1
  P  P2  1  0.599471  0.719356  0.500000  1
  P  P3  1  0.000000  0.000000  0.000000  1
  P  P4  1  0.280644  0.880116  0.500000  1
  P  P5  1  0.119884  0.400529  0.500000  1
  P  P6  1  0.884814  0.573153  0.000000  1
  P  P7  1  0.426847  0.311661  0.000000  1
  P  P8  1  0.688339  0.115186  0.000000  1
  Ru  Ru9  1  0.557353  0.954001  0.500000  1
  Ru  Ru10  1  0.396649  0.442647  0.500000  1
  Ru  Ru11  1  0.913447  0.122698  0.500000  1
  Ru  Ru12  1  0.209250  0.086553  0.500000  1
  Ru  Ru13  1  0.877302  0.790750  0.500000  1
  Ru  Ru14  1  0.726367  0.889855  0.000000  1
  Ru  Ru15  1  0.110145  0.836510  0.000000  1
  Ru  Ru16  1  0.163490  0.273633  0.000000  1
  Ru  Ru17  1  0.428898  0.074249  0.000000  1
  Ru  Ru18  1  0.925751  0.354651  0.000000  1
  Ru  Ru19  1  0.645349  0.571102  0.000000  1
  Ru  Ru20  1  0.045999  0.603351  0.500000  1
