# generated using pymatgen
data_LiLaYb7MgRu2
_symmetry_space_group_name_H-M   'P 1'
_cell_length_a   9.98554851
_cell_length_b   10.02782233
_cell_length_c   9.93551996
_cell_angle_alpha   60.60178547
_cell_angle_beta   60.44682470
_cell_angle_gamma   59.52959744
_symmetry_Int_Tables_number   1
_chemical_formula_structural   LiLaYb7MgRu2
_chemical_formula_sum   'Li2 La2 Yb14 Mg2 Ru4'
_cell_volume   706.41138580
_cell_formula_units_Z   2
loop_
 _symmetry_equiv_pos_site_id
 _symmetry_equiv_pos_as_xyz
  1  'x, y, z'
loop_
 _atom_site_type_symbol
 _atom_site_label
 _atom_site_symmetry_multiplicity
 _atom_site_fract_x
 _atom_site_fract_y
 _atom_site_fract_z
 _atom_site_occupancy
  Li  Li0  1  0.826269  0.827572  0.826007  1
  Li  Li1  1  0.520153  0.826007  0.827572  1
  La  La2  1  0.064642  0.066010  0.434220  1
  La  La3  1  0.435127  0.434220  0.066010  1
  Yb  Yb4  1  0.796488  0.203512  0.203512  1
  Yb  Yb5  1  0.199445  0.200992  0.799775  1
  Yb  Yb6  1  0.799788  0.799775  0.200992  1
  Yb  Yb7  1  0.205105  0.794895  0.794895  1
  Yb  Yb8  1  0.591130  0.588959  0.229553  1
  Yb  Yb9  1  0.441643  0.058357  0.058357  1
  Yb  Yb10  1  0.057255  0.441887  0.058694  1
  Yb  Yb11  1  0.442164  0.058694  0.441887  1
  Yb  Yb12  1  0.227623  0.589100  0.590597  1
  Yb  Yb13  1  0.056908  0.443092  0.443092  1
  Yb  Yb14  1  0.590358  0.229553  0.588959  1
  Yb  Yb15  1  0.592681  0.590597  0.589100  1
  Yb  Yb16  1  0.203873  0.794904  0.205384  1
  Yb  Yb17  1  0.795839  0.205384  0.794904  1
  Mg  Mg18  1  0.823979  0.518998  0.829406  1
  Mg  Mg19  1  0.827618  0.829406  0.518998  1
  Ru  Ru20  1  0.858099  0.355109  0.393359  1
  Ru  Ru21  1  0.393434  0.393359  0.355109  1
  Ru  Ru22  1  0.357507  0.856712  0.392907  1
  Ru  Ru23  1  0.392874  0.392907  0.856712  1
