# generated using pymatgen
data_La4Ho3Tm13Pt16
_symmetry_space_group_name_H-M   'P 1'
_cell_length_a   7.54490025
_cell_length_b   7.61830893
_cell_length_c   14.62433500
_cell_angle_alpha   90.00662583
_cell_angle_beta   90.08970006
_cell_angle_gamma   89.94215473
_symmetry_Int_Tables_number   1
_chemical_formula_structural   La4Ho3Tm13Pt16
_chemical_formula_sum   'La4 Ho3 Tm13 Pt16'
_cell_volume   840.59625841
_cell_formula_units_Z   1
loop_
 _symmetry_equiv_pos_site_id
 _symmetry_equiv_pos_as_xyz
  1  'x, y, z'
loop_
 _atom_site_type_symbol
 _atom_site_label
 _atom_site_symmetry_multiplicity
 _atom_site_fract_x
 _atom_site_fract_y
 _atom_site_fract_z
 _atom_site_occupancy
  La  La0  1  0.499039  0.676324  0.093337  1
  La  La1  1  0.500755  0.326915  0.593478  1
  La  La2  1  0.001141  0.176151  0.909112  1
  La  La3  1  0.000152  0.170588  0.593719  1
  Ho  Ho4  1  0.502511  0.322400  0.902911  1
  Ho  Ho5  1  0.498186  0.680601  0.403083  1
  Ho  Ho6  1  0.997304  0.822021  0.099023  1
  Tm  Tm7  1  0.680551  0.992789  0.251444  1
  Tm  Tm8  1  0.179143  0.507212  0.251224  1
  Tm  Tm9  1  0.820550  0.494623  0.751449  1
  Tm  Tm10  1  0.322156  0.006342  0.751257  1
  Tm  Tm11  1  0.653473  0.830857  0.621704  1
  Tm  Tm12  1  0.156975  0.667114  0.879652  1
  Tm  Tm13  1  0.841844  0.333320  0.377117  1
  Tm  Tm14  1  0.342858  0.167522  0.123135  1
  Tm  Tm15  1  0.338862  0.163417  0.376716  1
  Tm  Tm16  1  0.840914  0.334004  0.125522  1
  Tm  Tm17  1  0.154747  0.668265  0.621850  1
  Tm  Tm18  1  0.658919  0.834247  0.877299  1
  Tm  Tm19  1  0.999504  0.818280  0.402397  1
  Pt  Pt20  1  0.817508  0.642793  0.252985  1
  Pt  Pt21  1  0.310536  0.860283  0.251970  1
  Pt  Pt22  1  0.684810  0.139425  0.751118  1
  Pt  Pt23  1  0.188920  0.363564  0.751700  1
  Pt  Pt24  1  0.546358  0.377448  0.252820  1
  Pt  Pt25  1  0.044287  0.119643  0.250303  1
  Pt  Pt26  1  0.953042  0.872111  0.749796  1
  Pt  Pt27  1  0.453531  0.625990  0.751621  1
  Pt  Pt28  1  0.822734  0.545775  0.538172  1
  Pt  Pt29  1  0.326027  0.967012  0.956474  1
  Pt  Pt30  1  0.686074  0.023751  0.451935  1
  Pt  Pt31  1  0.173339  0.466601  0.045061  1
  Pt  Pt32  1  0.180852  0.475822  0.451570  1
  Pt  Pt33  1  0.683468  0.036915  0.044077  1
  Pt  Pt34  1  0.323235  0.954961  0.538397  1
  Pt  Pt35  1  0.815701  0.534914  0.956569  1
