# generated using pymatgen
data_PrSmCo2Cl
_symmetry_space_group_name_H-M   'P 1'
_cell_length_a   3.93303500
_cell_length_b   3.93303542
_cell_length_c   16.46079300
_cell_angle_alpha   90.00000000
_cell_angle_beta   90.00000000
_cell_angle_gamma   119.99998804
_symmetry_Int_Tables_number   1
_chemical_formula_structural   PrSmCo2Cl
_chemical_formula_sum   'Pr2 Sm2 Co4 Cl2'
_cell_volume   220.51447699
_cell_formula_units_Z   2
loop_
 _symmetry_equiv_pos_site_id
 _symmetry_equiv_pos_as_xyz
  1  'x, y, z'
loop_
 _atom_site_type_symbol
 _atom_site_label
 _atom_site_symmetry_multiplicity
 _atom_site_fract_x
 _atom_site_fract_y
 _atom_site_fract_z
 _atom_site_occupancy
  Pr  Pr0  1  0.000000  0.000000  0.115044  1
  Pr  Pr1  1  0.000000  0.000000  0.884956  1
  Sm  Sm2  1  0.000000  0.000000  0.610906  1
  Sm  Sm3  1  0.000000  0.000000  0.389094  1
  Co  Co4  1  0.333333  0.666667  0.502299  1
  Co  Co5  1  0.666667  0.333333  0.497701  1
  Co  Co6  1  0.666667  0.333333  0.001481  1
  Co  Co7  1  0.333333  0.666667  0.998519  1
  Cl  Cl8  1  0.333333  0.666667  0.254276  1
  Cl  Cl9  1  0.666667  0.333333  0.745724  1
