# generated using pymatgen
data_Tl2PdSe16
_symmetry_space_group_name_H-M   'P 1'
_cell_length_a   12.91951000
_cell_length_b   12.91951000
_cell_length_c   6.87903500
_cell_angle_alpha   90.00000000
_cell_angle_beta   90.00000000
_cell_angle_gamma   90.00000000
_symmetry_Int_Tables_number   1
_chemical_formula_structural   Tl2PdSe16
_chemical_formula_sum   'Tl4 Pd2 Se32'
_cell_volume   1148.20545009
_cell_formula_units_Z   2
loop_
 _symmetry_equiv_pos_site_id
 _symmetry_equiv_pos_as_xyz
  1  'x, y, z'
loop_
 _atom_site_type_symbol
 _atom_site_label
 _atom_site_symmetry_multiplicity
 _atom_site_fract_x
 _atom_site_fract_y
 _atom_site_fract_z
 _atom_site_occupancy
  Tl  Tl0  1  0.500000  0.000000  0.000000  1
  Tl  Tl1  1  0.000000  0.500000  0.000000  1
  Tl  Tl2  1  0.500000  0.500000  0.500000  1
  Tl  Tl3  1  0.000000  0.000000  0.500000  1
  Pd  Pd4  1  0.000000  0.000000  0.000000  1
  Pd  Pd5  1  0.500000  0.500000  0.000000  1
  Se  Se6  1  0.191843  0.423503  0.587217  1
  Se  Se7  1  0.808157  0.576497  0.587217  1
  Se  Se8  1  0.576497  0.191843  0.412783  1
  Se  Se9  1  0.423503  0.808157  0.412783  1
  Se  Se10  1  0.308157  0.923503  0.587217  1
  Se  Se11  1  0.076497  0.308157  0.412783  1
  Se  Se12  1  0.811599  0.966782  0.968335  1
  Se  Se13  1  0.033218  0.811599  0.031665  1
  Se  Se14  1  0.966782  0.188401  0.031665  1
  Se  Se15  1  0.188401  0.033218  0.968335  1
  Se  Se16  1  0.533218  0.688401  0.031665  1
  Se  Se17  1  0.466782  0.311599  0.031665  1
  Se  Se18  1  0.688401  0.466782  0.968335  1
  Se  Se19  1  0.311599  0.533218  0.968335  1
  Se  Se20  1  0.790473  0.203654  0.132128  1
  Se  Se21  1  0.796346  0.790473  0.867872  1
  Se  Se22  1  0.203654  0.209527  0.867872  1
  Se  Se23  1  0.209527  0.796346  0.132128  1
  Se  Se24  1  0.296346  0.709527  0.867872  1
  Se  Se25  1  0.703654  0.290473  0.867872  1
  Se  Se26  1  0.709527  0.703654  0.132128  1
  Se  Se27  1  0.290473  0.296346  0.132128  1
  Se  Se28  1  0.919295  0.308310  0.595794  1
  Se  Se29  1  0.691690  0.919295  0.404206  1
  Se  Se30  1  0.308310  0.080705  0.404206  1
  Se  Se31  1  0.080705  0.691690  0.595794  1
  Se  Se32  1  0.191690  0.580705  0.404206  1
  Se  Se33  1  0.808310  0.419295  0.404206  1
  Se  Se34  1  0.580705  0.808310  0.595794  1
  Se  Se35  1  0.419295  0.191690  0.595794  1
  Se  Se36  1  0.691843  0.076497  0.587217  1
  Se  Se37  1  0.923503  0.691843  0.412783  1
