# generated using pymatgen
data_Ni3Ru(PtCl9)2
_symmetry_space_group_name_H-M   'P 1'
_cell_length_a   6.12620994
_cell_length_b   6.12746775
_cell_length_c   19.99237785
_cell_angle_alpha   90.10493534
_cell_angle_beta   90.40957298
_cell_angle_gamma   120.05213581
_symmetry_Int_Tables_number   1
_chemical_formula_structural   Ni3Ru(PtCl9)2
_chemical_formula_sum   'Ni3 Ru1 Pt2 Cl18'
_cell_volume   649.56110235
_cell_formula_units_Z   1
loop_
 _symmetry_equiv_pos_site_id
 _symmetry_equiv_pos_as_xyz
  1  'x, y, z'
loop_
 _atom_site_type_symbol
 _atom_site_label
 _atom_site_symmetry_multiplicity
 _atom_site_fract_x
 _atom_site_fract_y
 _atom_site_fract_z
 _atom_site_occupancy
  Ni  Ni0  1  0.554170  0.110254  0.167024  1
  Ni  Ni1  1  0.888696  0.444600  0.500034  1
  Ni  Ni2  1  0.555584  0.444910  0.833337  1
  Ru  Ru3  1  0.222499  0.778077  0.833271  1
  Pt  Pt4  1  0.221768  0.443734  0.166679  1
  Pt  Pt5  1  0.556066  0.778131  0.499933  1
  Cl  Cl6  1  0.516169  0.744463  0.765935  1
  Cl  Cl7  1  0.896177  0.746169  0.900812  1
  Cl  Cl8  1  0.519303  0.107764  0.901048  1
  Cl  Cl9  1  0.860078  0.756487  0.433593  1
  Cl  Cl10  1  0.227686  0.471100  0.433291  1
  Cl  Cl11  1  0.893288  0.136683  0.100052  1
  Cl  Cl12  1  0.529458  0.771549  0.233364  1
  Cl  Cl13  1  0.892239  0.481805  0.765554  1
  Cl  Cl14  1  0.256839  0.483966  0.900764  1
  Cl  Cl15  1  0.578027  0.473372  0.566327  1
  Cl  Cl16  1  0.863656  0.106017  0.566642  1
  Cl  Cl17  1  0.231614  0.758559  0.566344  1
  Cl  Cl18  1  0.243683  0.138881  0.233159  1
  Cl  Cl19  1  0.575098  0.103254  0.433390  1
  Cl  Cl20  1  0.897331  0.424220  0.233149  1
  Cl  Cl21  1  0.525828  0.422133  0.100434  1
  Cl  Cl22  1  0.253846  0.105043  0.765665  1
  Cl  Cl23  1  0.240902  0.768826  0.100202  1
