# generated using pymatgen
data_TbHo2Sn3GeIr2
_symmetry_space_group_name_H-M   'P 1'
_cell_length_a   7.39117943
_cell_length_b   7.39997380
_cell_length_c   4.18133000
_cell_angle_alpha   90.00000000
_cell_angle_beta   90.00000000
_cell_angle_gamma   120.07105925
_symmetry_Int_Tables_number   1
_chemical_formula_structural   TbHo2Sn3GeIr2
_chemical_formula_sum   'Tb1 Ho2 Sn3 Ge1 Ir2'
_cell_volume   197.91448739
_cell_formula_units_Z   1
loop_
 _symmetry_equiv_pos_site_id
 _symmetry_equiv_pos_as_xyz
  1  'x, y, z'
loop_
 _atom_site_type_symbol
 _atom_site_label
 _atom_site_symmetry_multiplicity
 _atom_site_fract_x
 _atom_site_fract_y
 _atom_site_fract_z
 _atom_site_occupancy
  Tb  Tb0  1  0.400785  0.413227  0.500000  1
  Ho  Ho1  1  0.586737  0.986296  0.500000  1
  Ho  Ho2  1  0.013918  0.600700  0.500000  1
  Sn  Sn3  1  0.741739  0.755447  0.000000  1
  Sn  Sn4  1  0.244999  0.986391  0.000000  1
  Sn  Sn5  1  0.012835  0.258373  0.000000  1
  Ge  Ge6  1  0.667234  0.333075  0.000000  1
  Ir  Ir7  1  0.332942  0.667669  0.000000  1
  Ir  Ir8  1  0.998812  0.998822  0.500000  1
