# generated using pymatgen
data_La7Pr2(BiO)5
_symmetry_space_group_name_H-M   'P 1'
_cell_length_a   10.55508651
_cell_length_b   10.55731646
_cell_length_c   9.48979606
_cell_angle_alpha   89.99595494
_cell_angle_beta   90.01269662
_cell_angle_gamma   89.96654938
_symmetry_Int_Tables_number   1
_chemical_formula_structural   La7Pr2(BiO)5
_chemical_formula_sum   'La14 Pr4 Bi10 O10'
_cell_volume   1057.47992333
_cell_formula_units_Z   2
loop_
 _symmetry_equiv_pos_site_id
 _symmetry_equiv_pos_as_xyz
  1  'x, y, z'
loop_
 _atom_site_type_symbol
 _atom_site_label
 _atom_site_symmetry_multiplicity
 _atom_site_fract_x
 _atom_site_fract_y
 _atom_site_fract_z
 _atom_site_occupancy
  La  La0  1  0.726615  0.918925  0.002326  1
  La  La1  1  0.580768  0.227840  0.001581  1
  La  La2  1  0.999426  0.499833  0.325673  1
  La  La3  1  0.771448  0.581038  0.997631  1
  La  La4  1  0.228063  0.418453  0.998647  1
  La  La5  1  0.205563  0.895677  0.340561  1
  La  La6  1  0.273566  0.081175  0.002237  1
  La  La7  1  0.894660  0.795453  0.659450  1
  La  La8  1  0.918309  0.272625  0.997104  1
  La  La9  1  0.296354  0.603600  0.659334  1
  La  La10  1  0.419443  0.772764  0.002406  1
  La  La11  1  0.104886  0.204780  0.659430  1
  La  La12  1  0.794241  0.104967  0.340969  1
  La  La13  1  0.081298  0.727269  0.997444  1
  Pr  Pr14  1  0.500486  0.000129  0.672229  1
  Pr  Pr15  1  0.396979  0.294832  0.342209  1
  Pr  Pr16  1  0.703505  0.396197  0.657879  1
  Pr  Pr17  1  0.603818  0.704736  0.342236  1
  Bi  Bi18  1  0.499964  0.999890  0.312919  1
  Bi  Bi19  1  0.197196  0.903339  0.700975  1
  Bi  Bi20  1  0.404385  0.303181  0.698964  1
  Bi  Bi21  1  0.999124  0.499825  0.688774  1
  Bi  Bi22  1  0.694856  0.404101  0.301148  1
  Bi  Bi23  1  0.097815  0.196482  0.299138  1
  Bi  Bi24  1  0.596699  0.696131  0.698926  1
  Bi  Bi25  1  0.305069  0.595864  0.299492  1
  Bi  Bi26  1  0.802719  0.097577  0.700539  1
  Bi  Bi27  1  0.902234  0.803601  0.299257  1
  O  O28  1  0.499982  0.999712  0.932242  1
  O  O29  1  0.725146  0.378848  0.913110  1
  O  O30  1  0.621064  0.725311  0.086547  1
  O  O31  1  0.378714  0.274776  0.086520  1
  O  O32  1  0.121231  0.224895  0.910150  1
  O  O33  1  0.275237  0.620822  0.910295  1
  O  O34  1  0.000177  0.500100  0.072011  1
  O  O35  1  0.224714  0.878770  0.089894  1
  O  O36  1  0.879085  0.775337  0.910087  1
  O  O37  1  0.775163  0.121146  0.089666  1
