# generated using pymatgen
data_Ta16Cu6Ni2C3N
_symmetry_space_group_name_H-M   'P 1'
_cell_length_a   8.28828630
_cell_length_b   8.28036186
_cell_length_c   8.28036100
_cell_angle_alpha   60.00000745
_cell_angle_beta   60.03162994
_cell_angle_gamma   60.04246978
_symmetry_Int_Tables_number   1
_chemical_formula_structural   Ta16Cu6Ni2C3N
_chemical_formula_sum   'Ta16 Cu6 Ni2 C3 N1'
_cell_volume   402.06042969
_cell_formula_units_Z   1
loop_
 _symmetry_equiv_pos_site_id
 _symmetry_equiv_pos_as_xyz
  1  'x, y, z'
loop_
 _atom_site_type_symbol
 _atom_site_label
 _atom_site_symmetry_multiplicity
 _atom_site_fract_x
 _atom_site_fract_y
 _atom_site_fract_z
 _atom_site_occupancy
  Ta  Ta0  1  0.120346  0.631238  0.624208  1
  Ta  Ta1  1  0.631070  0.120458  0.624236  1
  Ta  Ta2  1  0.628160  0.628175  0.123129  1
  Ta  Ta3  1  0.628160  0.628175  0.620536  1
  Ta  Ta4  1  0.816665  0.816844  0.183246  1
  Ta  Ta5  1  0.184945  0.185701  0.814677  1
  Ta  Ta6  1  0.815442  0.183457  0.815262  1
  Ta  Ta7  1  0.182420  0.816134  0.185449  1
  Ta  Ta8  1  0.182420  0.816134  0.815996  1
  Ta  Ta9  1  0.815442  0.183457  0.185839  1
  Ta  Ta10  1  0.435461  0.435457  0.064541  1
  Ta  Ta11  1  0.066468  0.065785  0.433873  1
  Ta  Ta12  1  0.434992  0.064877  0.435070  1
  Ta  Ta13  1  0.065825  0.434288  0.065286  1
  Ta  Ta14  1  0.065825  0.434288  0.434601  1
  Ta  Ta15  1  0.434992  0.064877  0.065061  1
  Cu  Cu16  1  0.749623  0.417270  0.416554  1
  Cu  Cu17  1  0.416952  0.749130  0.416960  1
  Cu  Cu18  1  0.416608  0.417273  0.749309  1
  Cu  Cu19  1  0.416608  0.417273  0.416811  1
  Cu  Cu20  1  0.500103  0.832242  0.833827  1
  Cu  Cu21  1  0.832472  0.500430  0.833548  1
  Ni  Ni22  1  0.829268  0.828324  0.511673  1
  Ni  Ni23  1  0.829268  0.828324  0.830734  1
  C  C24  1  0.623937  0.125735  0.125164  1
  C  C25  1  0.125494  0.125372  0.624217  1
  C  C26  1  0.125494  0.125372  0.124917  1
  N  N27  1  0.125537  0.623911  0.125276  1
