# generated using pymatgen
data_Ho3Lu(Ga2Ag)4
_symmetry_space_group_name_H-M   'P 1'
_cell_length_a   4.36576800
_cell_length_b   6.92326600
_cell_length_c   10.22468130
_cell_angle_alpha   89.93099102
_cell_angle_beta   90.00000000
_cell_angle_gamma   90.00000000
_symmetry_Int_Tables_number   1
_chemical_formula_structural   Ho3Lu(Ga2Ag)4
_chemical_formula_sum   'Ho3 Lu1 Ga8 Ag4'
_cell_volume   309.04458350
_cell_formula_units_Z   1
loop_
 _symmetry_equiv_pos_site_id
 _symmetry_equiv_pos_as_xyz
  1  'x, y, z'
loop_
 _atom_site_type_symbol
 _atom_site_label
 _atom_site_symmetry_multiplicity
 _atom_site_fract_x
 _atom_site_fract_y
 _atom_site_fract_z
 _atom_site_occupancy
  Ho  Ho0  1  0.250000  0.779006  0.824314  1
  Ho  Ho1  1  0.750000  0.221216  0.175596  1
  Ho  Ho2  1  0.750000  0.720914  0.324386  1
  Lu  Lu3  1  0.250000  0.279088  0.675572  1
  Ga  Ga4  1  0.250000  0.929058  0.154756  1
  Ga  Ga5  1  0.750000  0.071201  0.844992  1
  Ga  Ga6  1  0.750000  0.569598  0.654939  1
  Ga  Ga7  1  0.250000  0.429215  0.345183  1
  Ga  Ga8  1  0.250000  0.700561  0.535784  1
  Ga  Ga9  1  0.750000  0.299344  0.464791  1
  Ga  Ga10  1  0.750000  0.798939  0.035903  1
  Ga  Ga11  1  0.250000  0.201224  0.963814  1
  Ag  Ag12  1  0.250000  0.545014  0.095715  1
  Ag  Ag13  1  0.750000  0.455062  0.904307  1
  Ag  Ag14  1  0.750000  0.955505  0.595698  1
  Ag  Ag15  1  0.250000  0.045054  0.404250  1
