# generated using pymatgen
data_Y2TaNb(SbRh)4
_symmetry_space_group_name_H-M   'P 1'
_cell_length_a   6.38015779
_cell_length_b   4.50031100
_cell_length_c   9.03204211
_cell_angle_alpha   90.00000000
_cell_angle_beta   89.94310562
_cell_angle_gamma   90.00000000
_symmetry_Int_Tables_number   1
_chemical_formula_structural   Y2TaNb(SbRh)4
_chemical_formula_sum   'Y2 Ta1 Nb1 Sb4 Rh4'
_cell_volume   259.33413595
_cell_formula_units_Z   1
loop_
 _symmetry_equiv_pos_site_id
 _symmetry_equiv_pos_as_xyz
  1  'x, y, z'
loop_
 _atom_site_type_symbol
 _atom_site_label
 _atom_site_symmetry_multiplicity
 _atom_site_fract_x
 _atom_site_fract_y
 _atom_site_fract_z
 _atom_site_occupancy
  Y  Y0  1  0.005731  0.000000  0.376694  1
  Y  Y1  1  0.506011  0.500001  0.623671  1
  Ta  Ta2  1  0.994684  0.000000  0.879398  1
  Nb  Nb3  1  0.494218  0.500001  0.120566  1
  Sb  Sb4  1  0.984323  0.500001  0.124409  1
  Sb  Sb5  1  0.510555  0.000000  0.369557  1
  Sb  Sb6  1  0.009965  0.500001  0.629949  1
  Sb  Sb7  1  0.484415  0.000000  0.875901  1
  Rh  Rh8  1  0.735940  0.000000  0.108476  1
  Rh  Rh9  1  0.270975  0.500001  0.351043  1
  Rh  Rh10  1  0.772166  0.000000  0.650562  1
  Rh  Rh11  1  0.231010  0.500001  0.889769  1
