# generated using pymatgen
data_Zn2Ni3PtO8
_symmetry_space_group_name_H-M   'P 1'
_cell_length_a   5.93221671
_cell_length_b   5.93221747
_cell_length_c   6.06898705
_cell_angle_alpha   60.74272200
_cell_angle_beta   60.74272269
_cell_angle_gamma   59.99999298
_symmetry_Int_Tables_number   1
_chemical_formula_structural   Zn2Ni3PtO8
_chemical_formula_sum   'Zn2 Ni3 Pt1 O8'
_cell_volume   152.69351970
_cell_formula_units_Z   1
loop_
 _symmetry_equiv_pos_site_id
 _symmetry_equiv_pos_as_xyz
  1  'x, y, z'
loop_
 _atom_site_type_symbol
 _atom_site_label
 _atom_site_symmetry_multiplicity
 _atom_site_fract_x
 _atom_site_fract_y
 _atom_site_fract_z
 _atom_site_occupancy
  Zn  Zn0  1  0.489971  0.489971  0.530086  1
  Zn  Zn1  1  0.760029  0.760029  0.719914  1
  Ni  Ni2  1  0.125000  0.125000  0.125000  1
  Ni  Ni3  1  0.625000  0.125000  0.125000  1
  Ni  Ni4  1  0.125000  0.625000  0.125000  1
  Pt  Pt5  1  0.125000  0.125000  0.625000  1
  O  O6  1  0.888207  0.888207  0.874146  1
  O  O7  1  0.900560  0.361793  0.375854  1
  O  O8  1  0.361793  0.900560  0.375854  1
  O  O9  1  0.358066  0.358066  0.925802  1
  O  O10  1  0.888207  0.349440  0.874146  1
  O  O11  1  0.891934  0.891934  0.324198  1
  O  O12  1  0.349440  0.888207  0.874146  1
  O  O13  1  0.361793  0.361793  0.375854  1
