# generated using pymatgen
data_ErLu5(AuO7)2
_symmetry_space_group_name_H-M   'P 1'
_cell_length_a   6.37758090
_cell_length_b   6.37758075
_cell_length_c   7.30437720
_cell_angle_alpha   90.02201635
_cell_angle_beta   89.97798215
_cell_angle_gamma   108.65904278
_symmetry_Int_Tables_number   1
_chemical_formula_structural   ErLu5(AuO7)2
_chemical_formula_sum   'Er1 Lu5 Au2 O14'
_cell_volume   281.47928945
_cell_formula_units_Z   1
loop_
 _symmetry_equiv_pos_site_id
 _symmetry_equiv_pos_as_xyz
  1  'x, y, z'
loop_
 _atom_site_type_symbol
 _atom_site_label
 _atom_site_symmetry_multiplicity
 _atom_site_fract_x
 _atom_site_fract_y
 _atom_site_fract_z
 _atom_site_occupancy
  Er  Er0  1  0.499646  0.499646  0.000000  1
  Lu  Lu1  1  0.001807  0.471501  0.749030  1
  Lu  Lu2  1  0.998209  0.528487  0.250776  1
  Lu  Lu3  1  0.528487  0.998209  0.749224  1
  Lu  Lu4  1  0.471501  0.001807  0.250970  1
  Lu  Lu5  1  0.500427  0.500427  0.500000  1
  Au  Au6  1  0.000034  0.000034  0.500000  1
  Au  Au7  1  0.999957  0.999957  0.000000  1
  O  O8  1  0.640239  0.359767  0.747503  1
  O  O9  1  0.359767  0.640239  0.252497  1
  O  O10  1  0.915662  0.084330  0.749983  1
  O  O11  1  0.084330  0.915662  0.250017  1
  O  O12  1  0.915156  0.664716  0.524791  1
  O  O13  1  0.083105  0.335289  0.024760  1
  O  O14  1  0.335289  0.083105  0.975240  1
  O  O15  1  0.664716  0.915156  0.475209  1
  O  O16  1  0.365901  0.634108  0.747255  1
  O  O17  1  0.634108  0.365901  0.252745  1
  O  O18  1  0.917166  0.664914  0.975089  1
  O  O19  1  0.084526  0.335050  0.475052  1
  O  O20  1  0.335050  0.084526  0.524948  1
  O  O21  1  0.664914  0.917166  0.024911  1
