# generated using pymatgen
data_MnBe8CrTc2
_symmetry_space_group_name_H-M   'P 1'
_cell_length_a   4.28049900
_cell_length_b   4.28050072
_cell_length_c   6.99379600
_cell_angle_alpha   90.00000000
_cell_angle_beta   90.00000000
_cell_angle_gamma   120.00000986
_symmetry_Int_Tables_number   1
_chemical_formula_structural   MnBe8CrTc2
_chemical_formula_sum   'Mn1 Be8 Cr1 Tc2'
_cell_volume   110.97688327
_cell_formula_units_Z   1
loop_
 _symmetry_equiv_pos_site_id
 _symmetry_equiv_pos_as_xyz
  1  'x, y, z'
loop_
 _atom_site_type_symbol
 _atom_site_label
 _atom_site_symmetry_multiplicity
 _atom_site_fract_x
 _atom_site_fract_y
 _atom_site_fract_z
 _atom_site_occupancy
  Mn  Mn0  1  0.333333  0.666667  0.062085  1
  Be  Be1  1  0.169688  0.339375  0.751321  1
  Be  Be2  1  0.169688  0.830312  0.751321  1
  Be  Be3  1  0.338841  0.169421  0.249216  1
  Be  Be4  1  0.830579  0.661159  0.249216  1
  Be  Be5  1  0.000000  0.000000  0.000033  1
  Be  Be6  1  0.660625  0.830312  0.751321  1
  Be  Be7  1  0.830579  0.169421  0.249216  1
  Be  Be8  1  0.000000  0.000000  0.498272  1
  Cr  Cr9  1  0.666667  0.333333  0.562338  1
  Tc  Tc10  1  0.333333  0.666667  0.440821  1
  Tc  Tc11  1  0.666667  0.333333  0.934840  1
