# generated using pymatgen
data_LiTm6Co6Sn23
_symmetry_space_group_name_H-M   'P 1'
_cell_length_a   9.61720600
_cell_length_b   9.61720539
_cell_length_c   9.94762400
_cell_angle_alpha   90.00000000
_cell_angle_beta   90.00000000
_cell_angle_gamma   120.00000211
_symmetry_Int_Tables_number   1
_chemical_formula_structural   LiTm6Co6Sn23
_chemical_formula_sum   'Li1 Tm6 Co6 Sn23'
_cell_volume   796.79718954
_cell_formula_units_Z   1
loop_
 _symmetry_equiv_pos_site_id
 _symmetry_equiv_pos_as_xyz
  1  'x, y, z'
loop_
 _atom_site_type_symbol
 _atom_site_label
 _atom_site_symmetry_multiplicity
 _atom_site_fract_x
 _atom_site_fract_y
 _atom_site_fract_z
 _atom_site_occupancy
  Li  Li0  1  0.000000  0.000000  0.000000  1
  Tm  Tm1  1  0.480149  0.519851  0.305090  1
  Tm  Tm2  1  0.519851  0.480149  0.694910  1
  Tm  Tm3  1  0.480149  0.960300  0.305090  1
  Tm  Tm4  1  0.519851  0.039700  0.694910  1
  Tm  Tm5  1  0.039700  0.519851  0.305090  1
  Tm  Tm6  1  0.960300  0.480149  0.694910  1
  Co  Co7  1  0.829074  0.170926  0.201147  1
  Co  Co8  1  0.170926  0.829074  0.798853  1
  Co  Co9  1  0.829074  0.658150  0.201147  1
  Co  Co10  1  0.170926  0.341850  0.798853  1
  Co  Co11  1  0.341850  0.170926  0.201147  1
  Co  Co12  1  0.658150  0.829074  0.798853  1
  Sn  Sn13  1  0.116863  0.883137  0.270245  1
  Sn  Sn14  1  0.883137  0.116863  0.729755  1
  Sn  Sn15  1  0.116863  0.233728  0.270245  1
  Sn  Sn16  1  0.883137  0.766272  0.729755  1
  Sn  Sn17  1  0.766272  0.883137  0.270245  1
  Sn  Sn18  1  0.233728  0.116863  0.729755  1
  Sn  Sn19  1  0.781489  0.218511  0.454625  1
  Sn  Sn20  1  0.218511  0.781489  0.545375  1
  Sn  Sn21  1  0.781489  0.562977  0.454625  1
  Sn  Sn22  1  0.218511  0.437023  0.545375  1
  Sn  Sn23  1  0.437023  0.218511  0.454625  1
  Sn  Sn24  1  0.562977  0.781489  0.545375  1
  Sn  Sn25  1  0.342750  0.000000  0.000000  1
  Sn  Sn26  1  0.657250  0.000000  0.000000  1
  Sn  Sn27  1  0.000000  0.342750  0.000000  1
  Sn  Sn28  1  0.000000  0.657250  0.000000  1
  Sn  Sn29  1  0.657250  0.657250  0.000000  1
  Sn  Sn30  1  0.342750  0.342750  0.000000  1
  Sn  Sn31  1  0.333333  0.666667  0.119740  1
  Sn  Sn32  1  0.666667  0.333333  0.880260  1
  Sn  Sn33  1  0.333333  0.666667  0.817046  1
  Sn  Sn34  1  0.666667  0.333333  0.182954  1
  Sn  Sn35  1  0.000000  0.000000  0.500000  1
