# generated using pymatgen
data_TaTiGaCo5B2
_symmetry_space_group_name_H-M   'P 1'
_cell_length_a   8.45747800
_cell_length_b   8.48565100
_cell_length_c   3.03336600
_cell_angle_alpha   90.00000000
_cell_angle_beta   90.00000000
_cell_angle_gamma   90.00000000
_symmetry_Int_Tables_number   1
_chemical_formula_structural   TaTiGaCo5B2
_chemical_formula_sum   'Ta2 Ti2 Ga2 Co10 B4'
_cell_volume   217.69620456
_cell_formula_units_Z   2
loop_
 _symmetry_equiv_pos_site_id
 _symmetry_equiv_pos_as_xyz
  1  'x, y, z'
loop_
 _atom_site_type_symbol
 _atom_site_label
 _atom_site_symmetry_multiplicity
 _atom_site_fract_x
 _atom_site_fract_y
 _atom_site_fract_z
 _atom_site_occupancy
  Ta  Ta0  1  0.824199  0.325397  0.000000  1
  Ta  Ta1  1  0.324199  0.174603  0.000000  1
  Ti  Ti2  1  0.675736  0.823364  0.000000  1
  Ti  Ti3  1  0.175736  0.676636  0.000000  1
  Ga  Ga4  1  0.999591  0.997778  0.000000  1
  Ga  Ga5  1  0.499591  0.502222  0.000000  1
  Co  Co6  1  0.502907  0.995799  0.500000  1
  Co  Co7  1  0.002907  0.504201  0.500000  1
  Co  Co8  1  0.067838  0.221304  0.500000  1
  Co  Co9  1  0.221065  0.929479  0.500000  1
  Co  Co10  1  0.779333  0.068424  0.500000  1
  Co  Co11  1  0.928661  0.779948  0.500000  1
  Co  Co12  1  0.428661  0.720052  0.500000  1
  Co  Co13  1  0.567838  0.278696  0.500000  1
  Co  Co14  1  0.721065  0.570521  0.500000  1
  Co  Co15  1  0.279333  0.431576  0.500000  1
  B  B16  1  0.620778  0.118626  0.000000  1
  B  B17  1  0.120778  0.381374  0.000000  1
  B  B18  1  0.879892  0.622237  0.000000  1
  B  B19  1  0.379892  0.877763  0.000000  1
