# generated using pymatgen
data_Sc20(Si3P)3
_symmetry_space_group_name_H-M   'P 1'
_cell_length_a   5.77458900
_cell_length_b   7.84439610
_cell_length_c   13.59654604
_cell_angle_alpha   89.93884535
_cell_angle_beta   90.00000000
_cell_angle_gamma   90.00000000
_symmetry_Int_Tables_number   1
_chemical_formula_structural   Sc20(Si3P)3
_chemical_formula_sum   'Sc20 Si9 P3'
_cell_volume   615.89821323
_cell_formula_units_Z   1
loop_
 _symmetry_equiv_pos_site_id
 _symmetry_equiv_pos_as_xyz
  1  'x, y, z'
loop_
 _atom_site_type_symbol
 _atom_site_label
 _atom_site_symmetry_multiplicity
 _atom_site_fract_x
 _atom_site_fract_y
 _atom_site_fract_z
 _atom_site_occupancy
  Sc  Sc0  1  0.748896  0.998222  0.666434  1
  Sc  Sc1  1  0.749344  0.499402  0.164785  1
  Sc  Sc2  1  0.748589  0.501569  0.834251  1
  Sc  Sc3  1  0.749407  0.999490  0.334789  1
  Sc  Sc4  1  0.251411  0.501569  0.834251  1
  Sc  Sc5  1  0.250593  0.999490  0.334789  1
  Sc  Sc6  1  0.251104  0.998222  0.666434  1
  Sc  Sc7  1  0.250656  0.499402  0.164785  1
  Sc  Sc8  1  0.500000  0.256274  0.500586  1
  Sc  Sc9  1  0.500000  0.756472  0.999553  1
  Sc  Sc10  1  0.500000  0.622184  0.622623  1
  Sc  Sc11  1  0.500000  0.121437  0.120133  1
  Sc  Sc12  1  0.500000  0.120394  0.879134  1
  Sc  Sc13  1  0.500000  0.621122  0.380104  1
  Sc  Sc14  1  0.000000  0.742503  0.499476  1
  Sc  Sc15  1  0.000000  0.242726  0.999370  1
  Sc  Sc16  1  0.000000  0.880326  0.878027  1
  Sc  Sc17  1  0.000000  0.380066  0.379282  1
  Sc  Sc18  1  0.000000  0.379040  0.621105  1
  Sc  Sc19  1  0.000000  0.880840  0.119917  1
  Si  Si20  1  0.500000  0.303950  0.302801  1
  Si  Si21  1  0.500000  0.303550  0.698120  1
  Si  Si22  1  0.500000  0.803935  0.196748  1
  Si  Si23  1  0.000000  0.609680  0.998883  1
  Si  Si24  1  0.000000  0.107847  0.500619  1
  Si  Si25  1  0.000000  0.695647  0.695989  1
  Si  Si26  1  0.000000  0.197122  0.196855  1
  Si  Si27  1  0.000000  0.196982  0.802584  1
  Si  Si28  1  0.000000  0.697025  0.302304  1
  P  P29  1  0.500000  0.388565  0.999028  1
  P  P30  1  0.500000  0.887987  0.500949  1
  P  P31  1  0.500000  0.806949  0.805285  1
