# generated using pymatgen
data_Ho16Mg3InPd4
_symmetry_space_group_name_H-M   'P 1'
_cell_length_a   9.72638056
_cell_length_b   9.72637987
_cell_length_c   9.72638101
_cell_angle_alpha   59.84342467
_cell_angle_beta   59.84342664
_cell_angle_gamma   59.84342374
_symmetry_Int_Tables_number   1
_chemical_formula_structural   Ho16Mg3InPd4
_chemical_formula_sum   'Ho16 Mg3 In1 Pd4'
_cell_volume   648.32502192
_cell_formula_units_Z   1
loop_
 _symmetry_equiv_pos_site_id
 _symmetry_equiv_pos_as_xyz
  1  'x, y, z'
loop_
 _atom_site_type_symbol
 _atom_site_label
 _atom_site_symmetry_multiplicity
 _atom_site_fract_x
 _atom_site_fract_y
 _atom_site_fract_z
 _atom_site_occupancy
  Ho  Ho0  1  0.349166  0.349166  0.349166  1
  Ho  Ho1  1  0.354469  0.354469  0.942863  1
  Ho  Ho2  1  0.354469  0.942863  0.354469  1
  Ho  Ho3  1  0.942863  0.354469  0.354469  1
  Ho  Ho4  1  0.811118  0.188504  0.188504  1
  Ho  Ho5  1  0.189481  0.809716  0.809716  1
  Ho  Ho6  1  0.188504  0.811118  0.188504  1
  Ho  Ho7  1  0.809716  0.189481  0.809716  1
  Ho  Ho8  1  0.188504  0.188504  0.811118  1
  Ho  Ho9  1  0.809716  0.809716  0.189481  1
  Ho  Ho10  1  0.932942  0.567382  0.567382  1
  Ho  Ho11  1  0.565643  0.934191  0.934191  1
  Ho  Ho12  1  0.567382  0.932942  0.567382  1
  Ho  Ho13  1  0.934191  0.565643  0.934191  1
  Ho  Ho14  1  0.567382  0.567382  0.932942  1
  Ho  Ho15  1  0.934191  0.934191  0.565643  1
  Mg  Mg16  1  0.579513  0.579513  0.260287  1
  Mg  Mg17  1  0.579513  0.260287  0.579513  1
  Mg  Mg18  1  0.260287  0.579513  0.579513  1
  In  In19  1  0.582130  0.582130  0.582130  1
  Pd  Pd20  1  0.144942  0.144942  0.144942  1
  Pd  Pd21  1  0.142191  0.142191  0.569492  1
  Pd  Pd22  1  0.142191  0.569492  0.142191  1
  Pd  Pd23  1  0.569492  0.142191  0.142191  1
