# generated using pymatgen
data_EuHf(NbSe2)8
_symmetry_space_group_name_H-M   'P 1'
_cell_length_a   7.02991300
_cell_length_b   7.02991340
_cell_length_c   14.22629600
_cell_angle_alpha   90.00000000
_cell_angle_beta   90.00000000
_cell_angle_gamma   119.99999339
_symmetry_Int_Tables_number   1
_chemical_formula_structural   EuHf(NbSe2)8
_chemical_formula_sum   'Eu1 Hf1 Nb8 Se16'
_cell_volume   608.86698680
_cell_formula_units_Z   1
loop_
 _symmetry_equiv_pos_site_id
 _symmetry_equiv_pos_as_xyz
  1  'x, y, z'
loop_
 _atom_site_type_symbol
 _atom_site_label
 _atom_site_symmetry_multiplicity
 _atom_site_fract_x
 _atom_site_fract_y
 _atom_site_fract_z
 _atom_site_occupancy
  Eu  Eu0  1  0.000000  0.000000  0.500000  1
  Hf  Hf1  1  0.000000  0.000000  0.000000  1
  Nb  Nb2  1  0.000000  0.000000  0.233907  1
  Nb  Nb3  1  0.000000  0.000000  0.766093  1
  Nb  Nb4  1  0.506580  0.013159  0.234274  1
  Nb  Nb5  1  0.986841  0.493420  0.234274  1
  Nb  Nb6  1  0.506580  0.493420  0.234274  1
  Nb  Nb7  1  0.493420  0.986841  0.765726  1
  Nb  Nb8  1  0.013159  0.506580  0.765726  1
  Nb  Nb9  1  0.493420  0.506580  0.765726  1
  Se  Se10  1  0.333333  0.666667  0.885850  1
  Se  Se11  1  0.666667  0.333333  0.114150  1
  Se  Se12  1  0.666667  0.333333  0.356070  1
  Se  Se13  1  0.333333  0.666667  0.643930  1
  Se  Se14  1  0.169342  0.830658  0.350078  1
  Se  Se15  1  0.169342  0.338684  0.350078  1
  Se  Se16  1  0.661316  0.830658  0.350078  1
  Se  Se17  1  0.830658  0.169342  0.649922  1
  Se  Se18  1  0.830658  0.661316  0.649922  1
  Se  Se19  1  0.338684  0.169342  0.649922  1
  Se  Se20  1  0.830137  0.169863  0.883286  1
  Se  Se21  1  0.830137  0.660276  0.883286  1
  Se  Se22  1  0.339724  0.169863  0.883286  1
  Se  Se23  1  0.169863  0.830137  0.116714  1
  Se  Se24  1  0.169863  0.339724  0.116714  1
  Se  Se25  1  0.660276  0.830137  0.116714  1
