# generated using pymatgen
data_Ta4Nb2(MoRu)3
_symmetry_space_group_name_H-M   'P 1'
_cell_length_a   4.53749100
_cell_length_b   6.38764800
_cell_length_c   13.62474200
_cell_angle_alpha   90.00000000
_cell_angle_beta   90.00050066
_cell_angle_gamma   90.00000000
_symmetry_Int_Tables_number   1
_chemical_formula_structural   Ta4Nb2(MoRu)3
_chemical_formula_sum   'Ta8 Nb4 Mo6 Ru6'
_cell_volume   394.89809576
_cell_formula_units_Z   2
loop_
 _symmetry_equiv_pos_site_id
 _symmetry_equiv_pos_as_xyz
  1  'x, y, z'
loop_
 _atom_site_type_symbol
 _atom_site_label
 _atom_site_symmetry_multiplicity
 _atom_site_fract_x
 _atom_site_fract_y
 _atom_site_fract_z
 _atom_site_occupancy
  Ta  Ta0  1  0.499986  0.249847  0.333396  1
  Ta  Ta1  1  0.499986  0.750154  0.333396  1
  Ta  Ta2  1  0.000000  0.250116  0.499911  1
  Ta  Ta3  1  0.000000  0.749884  0.499911  1
  Ta  Ta4  1  0.500015  0.249885  0.666753  1
  Ta  Ta5  1  0.500015  0.750116  0.666753  1
  Ta  Ta6  1  0.000011  0.250151  0.833271  1
  Ta  Ta7  1  0.000011  0.749849  0.833271  1
  Nb  Nb8  1  0.500002  0.249738  0.999945  1
  Nb  Nb9  1  0.500002  0.750262  0.999945  1
  Nb  Nb10  1  0.999989  0.250262  0.166723  1
  Nb  Nb11  1  0.999989  0.749738  0.166723  1
  Mo  Mo12  1  0.000001  0.500000  0.000006  1
  Mo  Mo13  1  0.499988  0.000000  0.166661  1
  Mo  Mo14  1  0.999986  0.500000  0.333372  1
  Mo  Mo15  1  0.500000  0.000000  0.500157  1
  Mo  Mo16  1  0.000016  0.500000  0.666513  1
  Mo  Mo17  1  0.500009  0.000000  0.833291  1
  Ru  Ru18  1  0.999999  0.000000  0.999271  1
  Ru  Ru19  1  0.499991  0.500000  0.167397  1
  Ru  Ru20  1  0.999990  0.000000  0.333998  1
  Ru  Ru21  1  0.500000  0.500000  0.499975  1
  Ru  Ru22  1  0.000001  0.000000  0.666690  1
  Ru  Ru23  1  0.500016  0.500000  0.832670  1
