# generated using pymatgen
data_Er15TmZn3InRh4
_symmetry_space_group_name_H-M   'P 1'
_cell_length_a   9.46509989
_cell_length_b   9.46509920
_cell_length_c   9.45822223
_cell_angle_alpha   59.80716825
_cell_angle_beta   59.80717165
_cell_angle_gamma   59.78184681
_symmetry_Int_Tables_number   1
_chemical_formula_structural   Er15TmZn3InRh4
_chemical_formula_sum   'Er15 Tm1 Zn3 In1 Rh4'
_cell_volume   596.42517316
_cell_formula_units_Z   1
loop_
 _symmetry_equiv_pos_site_id
 _symmetry_equiv_pos_as_xyz
  1  'x, y, z'
loop_
 _atom_site_type_symbol
 _atom_site_label
 _atom_site_symmetry_multiplicity
 _atom_site_fract_x
 _atom_site_fract_y
 _atom_site_fract_z
 _atom_site_occupancy
  Er  Er0  1  0.436241  0.062926  0.062624  1
  Er  Er1  1  0.433838  0.059906  0.434225  1
  Er  Er2  1  0.062926  0.436241  0.062624  1
  Er  Er3  1  0.646568  0.058001  0.646874  1
  Er  Er4  1  0.192065  0.809316  0.809021  1
  Er  Er5  1  0.062788  0.062788  0.436420  1
  Er  Er6  1  0.810153  0.190554  0.190529  1
  Er  Er7  1  0.808953  0.808953  0.192283  1
  Er  Er8  1  0.646770  0.646770  0.057416  1
  Er  Er9  1  0.647759  0.647759  0.648318  1
  Er  Er10  1  0.059906  0.433838  0.434225  1
  Er  Er11  1  0.058001  0.646568  0.646874  1
  Er  Er12  1  0.809316  0.192065  0.809021  1
  Er  Er13  1  0.433863  0.433863  0.059897  1
  Er  Er14  1  0.190554  0.810153  0.190529  1
  Tm  Tm15  1  0.190655  0.190655  0.809835  1
  Zn  Zn16  1  0.421832  0.743096  0.421859  1
  Zn  Zn17  1  0.421902  0.421902  0.743060  1
  Zn  Zn18  1  0.743096  0.421832  0.421859  1
  In  In19  1  0.422649  0.422649  0.422672  1
  Rh  Rh20  1  0.857850  0.429494  0.856025  1
  Rh  Rh21  1  0.856013  0.856013  0.430382  1
  Rh  Rh22  1  0.429494  0.857850  0.856025  1
  Rh  Rh23  1  0.856808  0.856808  0.857403  1
