# generated using pymatgen
data_RbMnCoS4
_symmetry_space_group_name_H-M   'P 1'
_cell_length_a   5.77164600
_cell_length_b   6.75650200
_cell_length_c   15.52087500
_cell_angle_alpha   90.00000000
_cell_angle_beta   90.00000000
_cell_angle_gamma   90.00000000
_symmetry_Int_Tables_number   1
_chemical_formula_structural   RbMnCoS4
_chemical_formula_sum   'Rb4 Mn4 Co4 S16'
_cell_volume   605.25417938
_cell_formula_units_Z   4
loop_
 _symmetry_equiv_pos_site_id
 _symmetry_equiv_pos_as_xyz
  1  'x, y, z'
loop_
 _atom_site_type_symbol
 _atom_site_label
 _atom_site_symmetry_multiplicity
 _atom_site_fract_x
 _atom_site_fract_y
 _atom_site_fract_z
 _atom_site_occupancy
  Rb  Rb0  1  0.366894  0.000000  0.000000  1
  Rb  Rb1  1  0.633106  0.500000  0.500000  1
  Rb  Rb2  1  0.034444  0.000000  0.500000  1
  Rb  Rb3  1  0.965556  0.500000  0.000000  1
  Mn  Mn4  1  0.007596  0.000000  0.249719  1
  Mn  Mn5  1  0.007596  0.000000  0.750281  1
  Mn  Mn6  1  0.992404  0.500000  0.250281  1
  Mn  Mn7  1  0.992404  0.500000  0.749719  1
  Co  Co8  1  0.500000  0.250000  0.250000  1
  Co  Co9  1  0.500000  0.750000  0.750000  1
  Co  Co10  1  0.500000  0.750000  0.250000  1
  Co  Co11  1  0.500000  0.250000  0.750000  1
  S  S12  1  0.826862  0.248819  0.331624  1
  S  S13  1  0.826862  0.751181  0.668376  1
  S  S14  1  0.173138  0.748819  0.168376  1
  S  S15  1  0.173138  0.251181  0.831624  1
  S  S16  1  0.173138  0.251181  0.168376  1
  S  S17  1  0.173138  0.748819  0.831624  1
  S  S18  1  0.826862  0.751181  0.331624  1
  S  S19  1  0.826862  0.248819  0.668376  1
  S  S20  1  0.665143  0.000000  0.172377  1
  S  S21  1  0.665143  0.000000  0.827623  1
  S  S22  1  0.334857  0.500000  0.327623  1
  S  S23  1  0.334857  0.500000  0.672377  1
  S  S24  1  0.348475  0.000000  0.329688  1
  S  S25  1  0.348475  0.000000  0.670312  1
  S  S26  1  0.651525  0.500000  0.170312  1
  S  S27  1  0.651525  0.500000  0.829688  1
