# generated using pymatgen
data_Tb13Lu3In3AgRh4
_symmetry_space_group_name_H-M   'P 1'
_cell_length_a   9.64410217
_cell_length_b   9.63515972
_cell_length_c   9.63254235
_cell_angle_alpha   59.98407761
_cell_angle_beta   59.91698368
_cell_angle_gamma   59.81350061
_symmetry_Int_Tables_number   1
_chemical_formula_structural   Tb13Lu3In3AgRh4
_chemical_formula_sum   'Tb13 Lu3 In3 Ag1 Rh4'
_cell_volume   631.54784787
_cell_formula_units_Z   1
loop_
 _symmetry_equiv_pos_site_id
 _symmetry_equiv_pos_as_xyz
  1  'x, y, z'
loop_
 _atom_site_type_symbol
 _atom_site_label
 _atom_site_symmetry_multiplicity
 _atom_site_fract_x
 _atom_site_fract_y
 _atom_site_fract_z
 _atom_site_occupancy
  Tb  Tb0  1  0.647702  0.053276  0.649169  1
  Tb  Tb1  1  0.060958  0.062466  0.439592  1
  Tb  Tb2  1  0.438699  0.436498  0.064805  1
  Tb  Tb3  1  0.650932  0.648497  0.649651  1
  Tb  Tb4  1  0.814539  0.187268  0.186155  1
  Tb  Tb5  1  0.188709  0.812744  0.810389  1
  Tb  Tb6  1  0.051109  0.647421  0.650033  1
  Tb  Tb7  1  0.440174  0.061841  0.060422  1
  Tb  Tb8  1  0.438340  0.064911  0.438267  1
  Tb  Tb9  1  0.061937  0.438129  0.062370  1
  Tb  Tb10  1  0.649927  0.648764  0.051736  1
  Tb  Tb11  1  0.187980  0.813774  0.187847  1
  Tb  Tb12  1  0.064475  0.436648  0.438992  1
  Lu  Lu13  1  0.808695  0.810609  0.190423  1
  Lu  Lu14  1  0.810823  0.190015  0.810452  1
  Lu  Lu15  1  0.187766  0.188738  0.813090  1
  In  In16  1  0.417961  0.417808  0.745070  1
  In  In17  1  0.418050  0.745505  0.417766  1
  In  In18  1  0.745355  0.418208  0.417782  1
  Ag  Ag19  1  0.416672  0.417108  0.417859  1
  Rh  Rh20  1  0.860200  0.424024  0.855824  1
  Rh  Rh21  1  0.855615  0.859218  0.859544  1
  Rh  Rh22  1  0.856658  0.856126  0.426137  1
  Rh  Rh23  1  0.426725  0.860406  0.856625  1
