# generated using pymatgen
data_K7Th(SO4)6
_symmetry_space_group_name_H-M   'P 1'
_cell_length_a   9.61688991
_cell_length_b   9.61689029
_cell_length_c   9.61689013
_cell_angle_alpha   109.27258925
_cell_angle_beta   109.27258749
_cell_angle_gamma   109.27259989
_symmetry_Int_Tables_number   1
_chemical_formula_structural   K7Th(SO4)6
_chemical_formula_sum   'K7 Th1 S6 O24'
_cell_volume   689.66034690
_cell_formula_units_Z   1
loop_
 _symmetry_equiv_pos_site_id
 _symmetry_equiv_pos_as_xyz
  1  'x, y, z'
loop_
 _atom_site_type_symbol
 _atom_site_label
 _atom_site_symmetry_multiplicity
 _atom_site_fract_x
 _atom_site_fract_y
 _atom_site_fract_z
 _atom_site_occupancy
  K  K0  1  0.500000  0.500000  0.500000  1
  K  K1  1  0.840201  0.340492  0.686460  1
  K  K2  1  0.340492  0.686460  0.840201  1
  K  K3  1  0.686460  0.840201  0.340492  1
  K  K4  1  0.159799  0.659508  0.313540  1
  K  K5  1  0.659508  0.313540  0.159799  1
  K  K6  1  0.313540  0.159799  0.659508  1
  Th  Th7  1  0.000000  0.000000  0.000000  1
  S  S8  1  0.963488  0.735061  0.599513  1
  S  S9  1  0.735061  0.599513  0.963488  1
  S  S10  1  0.599513  0.963488  0.735061  1
  S  S11  1  0.036512  0.264939  0.400487  1
  S  S12  1  0.264939  0.400487  0.036512  1
  S  S13  1  0.400487  0.036512  0.264939  1
  O  O14  1  0.454748  0.919615  0.187833  1
  O  O15  1  0.919615  0.187833  0.454748  1
  O  O16  1  0.187833  0.454748  0.919615  1
  O  O17  1  0.545252  0.080385  0.812167  1
  O  O18  1  0.080385  0.812167  0.545252  1
  O  O19  1  0.812167  0.545252  0.080385  1
  O  O20  1  0.322970  0.984480  0.361148  1
  O  O21  1  0.984480  0.361148  0.322970  1
  O  O22  1  0.361148  0.322970  0.984480  1
  O  O23  1  0.677030  0.015520  0.638852  1
  O  O24  1  0.015520  0.638852  0.677030  1
  O  O25  1  0.638852  0.677030  0.015520  1
  O  O26  1  0.733877  0.968657  0.881475  1
  O  O27  1  0.968657  0.881475  0.733877  1
  O  O28  1  0.629571  0.458229  0.785949  1
  O  O29  1  0.785949  0.629571  0.458229  1
  O  O30  1  0.458229  0.785949  0.629571  1
  O  O31  1  0.370429  0.541771  0.214051  1
  O  O32  1  0.214051  0.370429  0.541771  1
  O  O33  1  0.541771  0.214051  0.370429  1
  O  O34  1  0.118525  0.266123  0.031343  1
  O  O35  1  0.031343  0.118525  0.266123  1
  O  O36  1  0.266123  0.031343  0.118525  1
  O  O37  1  0.881475  0.733877  0.968657  1
