# generated using pymatgen
data_DyEr5Lu4(Si3H)2
_symmetry_space_group_name_H-M   'P 1'
_cell_length_a   8.34247576
_cell_length_b   8.33071231
_cell_length_c   6.10726600
_cell_angle_alpha   89.99783567
_cell_angle_beta   90.00107907
_cell_angle_gamma   119.95336642
_symmetry_Int_Tables_number   1
_chemical_formula_structural   DyEr5Lu4(Si3H)2
_chemical_formula_sum   'Dy1 Er5 Lu4 Si6 H2'
_cell_volume   367.75488128
_cell_formula_units_Z   1
loop_
 _symmetry_equiv_pos_site_id
 _symmetry_equiv_pos_as_xyz
  1  'x, y, z'
loop_
 _atom_site_type_symbol
 _atom_site_label
 _atom_site_symmetry_multiplicity
 _atom_site_fract_x
 _atom_site_fract_y
 _atom_site_fract_z
 _atom_site_occupancy
  Dy  Dy0  1  0.000000  0.750325  0.250007  1
  Er  Er1  1  0.749143  0.749247  0.750018  1
  Er  Er2  1  0.250857  0.000105  0.750018  1
  Er  Er3  1  0.000000  0.250481  0.750054  1
  Er  Er4  1  0.250879  0.250710  0.249953  1
  Er  Er5  1  0.749121  0.999830  0.249953  1
  Lu  Lu6  1  0.666519  0.333091  0.999958  1
  Lu  Lu7  1  0.333481  0.666573  0.999958  1
  Lu  Lu8  1  0.333464  0.666614  0.500035  1
  Lu  Lu9  1  0.666536  0.333148  0.500035  1
  Si  Si10  1  0.390689  0.390747  0.750020  1
  Si  Si11  1  0.609311  0.000059  0.750020  1
  Si  Si12  1  0.000000  0.609162  0.750039  1
  Si  Si13  1  0.608184  0.608932  0.249979  1
  Si  Si14  1  0.391816  0.000748  0.249979  1
  Si  Si15  1  0.000000  0.389965  0.249975  1
  H  H16  1  0.000000  0.000124  0.500346  1
  H  H17  1  0.000000  0.000140  0.999654  1
