# generated using pymatgen
data_TbYb7(TmIr2)2
_symmetry_space_group_name_H-M   'P 1'
_cell_length_a   6.50399723
_cell_length_b   7.31865604
_cell_length_c   8.55238712
_cell_angle_alpha   96.80020323
_cell_angle_beta   112.86875030
_cell_angle_gamma   90.43833151
_symmetry_Int_Tables_number   1
_chemical_formula_structural   TbYb7(TmIr2)2
_chemical_formula_sum   'Tb1 Yb7 Tm2 Ir4'
_cell_volume   371.81905017
_cell_formula_units_Z   1
loop_
 _symmetry_equiv_pos_site_id
 _symmetry_equiv_pos_as_xyz
  1  'x, y, z'
loop_
 _atom_site_type_symbol
 _atom_site_label
 _atom_site_symmetry_multiplicity
 _atom_site_fract_x
 _atom_site_fract_y
 _atom_site_fract_z
 _atom_site_occupancy
  Tb  Tb0  1  0.971640  0.918954  0.166857  1
  Yb  Yb1  1  0.797971  0.575665  0.824547  1
  Yb  Yb2  1  0.027674  0.079060  0.823242  1
  Yb  Yb3  1  0.195878  0.420304  0.170187  1
  Yb  Yb4  1  0.639059  0.819139  0.433579  1
  Yb  Yb5  1  0.204800  0.681156  0.564870  1
  Yb  Yb6  1  0.361177  0.179621  0.565694  1
  Yb  Yb7  1  0.798853  0.318230  0.435100  1
  Tm  Tm8  1  0.430127  0.748777  0.998896  1
  Tm  Tm9  1  0.563574  0.251351  0.001475  1
  Ir  Ir10  1  0.813908  0.582342  0.211176  1
  Ir  Ir11  1  0.613324  0.928318  0.805435  1
  Ir  Ir12  1  0.190927  0.424792  0.788534  1
  Ir  Ir13  1  0.391090  0.072290  0.210408  1
