# generated using pymatgen
data_Th3Zr(Co4P3)2
_symmetry_space_group_name_H-M   'P 1'
_cell_length_a   3.83651500
_cell_length_b   10.85082700
_cell_length_c   12.63240100
_cell_angle_alpha   90.00000000
_cell_angle_beta   90.00000000
_cell_angle_gamma   90.00000000
_symmetry_Int_Tables_number   1
_chemical_formula_structural   Th3Zr(Co4P3)2
_chemical_formula_sum   'Th6 Zr2 Co16 P12'
_cell_volume   525.87877581
_cell_formula_units_Z   2
loop_
 _symmetry_equiv_pos_site_id
 _symmetry_equiv_pos_as_xyz
  1  'x, y, z'
loop_
 _atom_site_type_symbol
 _atom_site_label
 _atom_site_symmetry_multiplicity
 _atom_site_fract_x
 _atom_site_fract_y
 _atom_site_fract_z
 _atom_site_occupancy
  Th  Th0  1  0.000000  0.500000  0.527708  1
  Th  Th1  1  0.500000  0.000000  0.472292  1
  Th  Th2  1  0.500000  0.819710  0.207541  1
  Th  Th3  1  0.500000  0.180290  0.207541  1
  Th  Th4  1  0.000000  0.680290  0.792459  1
  Th  Th5  1  0.000000  0.319710  0.792459  1
  Zr  Zr6  1  0.500000  0.500000  0.151774  1
  Zr  Zr7  1  0.000000  0.000000  0.848226  1
  Co  Co8  1  0.500000  0.500000  0.702438  1
  Co  Co9  1  0.000000  0.000000  0.297562  1
  Co  Co10  1  0.000000  0.500000  0.983860  1
  Co  Co11  1  0.500000  0.000000  0.016140  1
  Co  Co12  1  0.500000  0.332279  0.991702  1
  Co  Co13  1  0.500000  0.667721  0.991702  1
  Co  Co14  1  0.000000  0.167721  0.008298  1
  Co  Co15  1  0.000000  0.832279  0.008298  1
  Co  Co16  1  0.500000  0.299135  0.430781  1
  Co  Co17  1  0.500000  0.700865  0.430781  1
  Co  Co18  1  0.000000  0.200865  0.569219  1
  Co  Co19  1  0.000000  0.799135  0.569219  1
  Co  Co20  1  0.500000  0.878988  0.707569  1
  Co  Co21  1  0.500000  0.121012  0.707569  1
  Co  Co22  1  0.000000  0.621012  0.292431  1
  Co  Co23  1  0.000000  0.378988  0.292431  1
  P  P24  1  0.500000  0.500000  0.886943  1
  P  P25  1  0.000000  0.000000  0.113057  1
  P  P26  1  0.500000  0.500000  0.354841  1
  P  P27  1  0.000000  0.000000  0.645159  1
  P  P28  1  0.500000  0.303732  0.612057  1
  P  P29  1  0.500000  0.696268  0.612057  1
  P  P30  1  0.000000  0.196268  0.387943  1
  P  P31  1  0.000000  0.803732  0.387943  1
  P  P32  1  0.500000  0.841371  0.900138  1
  P  P33  1  0.500000  0.158629  0.900138  1
  P  P34  1  0.000000  0.658629  0.099862  1
  P  P35  1  0.000000  0.341371  0.099862  1
