# generated using pymatgen
data_PrSm4(RuO6)2
_symmetry_space_group_name_H-M   'P 1'
_cell_length_a   7.02368475
_cell_length_b   7.02368457
_cell_length_c   7.62369509
_cell_angle_alpha   74.19577618
_cell_angle_beta   74.19577862
_cell_angle_gamma   50.02964166
_symmetry_Int_Tables_number   1
_chemical_formula_structural   PrSm4(RuO6)2
_chemical_formula_sum   'Pr1 Sm4 Ru2 O12'
_cell_volume   274.90387534
_cell_formula_units_Z   1
loop_
 _symmetry_equiv_pos_site_id
 _symmetry_equiv_pos_as_xyz
  1  'x, y, z'
loop_
 _atom_site_type_symbol
 _atom_site_label
 _atom_site_symmetry_multiplicity
 _atom_site_fract_x
 _atom_site_fract_y
 _atom_site_fract_z
 _atom_site_occupancy
  Pr  Pr0  1  0.000000  0.000000  0.500000  1
  Sm  Sm1  1  0.305364  0.305364  0.358245  1
  Sm  Sm2  1  0.694636  0.694636  0.641755  1
  Sm  Sm3  1  0.691431  0.691431  0.167950  1
  Sm  Sm4  1  0.308569  0.308569  0.832050  1
  Ru  Ru5  1  0.763753  0.236247  0.000000  1
  Ru  Ru6  1  0.236247  0.763753  0.000000  1
  O  O7  1  0.095799  0.589665  0.578853  1
  O  O8  1  0.999102  0.999102  0.187052  1
  O  O9  1  0.410335  0.904201  0.421147  1
  O  O10  1  0.499816  0.499816  0.177283  1
  O  O11  1  0.096014  0.581818  0.079580  1
  O  O12  1  0.904201  0.410335  0.421147  1
  O  O13  1  0.000898  0.000898  0.812948  1
  O  O14  1  0.589665  0.095798  0.578853  1
  O  O15  1  0.500184  0.500184  0.822717  1
  O  O16  1  0.581818  0.096014  0.079580  1
  O  O17  1  0.418182  0.903986  0.920420  1
  O  O18  1  0.903986  0.418182  0.920420  1
