# generated using pymatgen
data_Pa4V3B16W
_symmetry_space_group_name_H-M   'P 1'
_cell_length_a   3.63164700
_cell_length_b   5.97126677
_cell_length_c   11.55568370
_cell_angle_alpha   90.06402098
_cell_angle_beta   90.00000000
_cell_angle_gamma   90.00000000
_symmetry_Int_Tables_number   1
_chemical_formula_structural   Pa4V3B16W
_chemical_formula_sum   'Pa4 V3 B16 W1'
_cell_volume   250.59100434
_cell_formula_units_Z   1
loop_
 _symmetry_equiv_pos_site_id
 _symmetry_equiv_pos_as_xyz
  1  'x, y, z'
loop_
 _atom_site_type_symbol
 _atom_site_label
 _atom_site_symmetry_multiplicity
 _atom_site_fract_x
 _atom_site_fract_y
 _atom_site_fract_z
 _atom_site_occupancy
  Pa  Pa0  1  0.000000  0.624317  0.346463  1
  Pa  Pa1  1  0.000000  0.374222  0.652693  1
  Pa  Pa2  1  0.000000  0.124982  0.150541  1
  Pa  Pa3  1  0.000000  0.875154  0.851546  1
  V  V4  1  0.000000  0.626209  0.083204  1
  V  V5  1  0.000000  0.373667  0.917108  1
  V  V6  1  0.000000  0.130951  0.413809  1
  B  B7  1  0.500000  0.784404  0.184949  1
  B  B8  1  0.500000  0.215991  0.815570  1
  B  B9  1  0.500000  0.284946  0.313447  1
  B  B10  1  0.500000  0.712243  0.687740  1
  B  B11  1  0.500000  0.863802  0.032833  1
  B  B12  1  0.500000  0.136271  0.967816  1
  B  B13  1  0.500000  0.364515  0.466504  1
  B  B14  1  0.500000  0.633597  0.531440  1
  B  B15  1  0.500000  0.887123  0.452053  1
  B  B16  1  0.500000  0.115748  0.545457  1
  B  B17  1  0.500000  0.386933  0.046244  1
  B  B18  1  0.500000  0.612701  0.954450  1
  B  B19  1  0.500000  0.973854  0.307041  1
  B  B20  1  0.500000  0.028767  0.693149  1
  B  B21  1  0.500000  0.474236  0.191292  1
  B  B22  1  0.500000  0.525008  0.809395  1
  W  W23  1  0.000000  0.870361  0.585255  1
