# generated using pymatgen
data_KNdHf2O6
_symmetry_space_group_name_H-M   'P 1'
_cell_length_a   5.72335000
_cell_length_b   5.80215900
_cell_length_c   8.27635300
_cell_angle_alpha   90.00000000
_cell_angle_beta   90.00000000
_cell_angle_gamma   90.00000000
_symmetry_Int_Tables_number   1
_chemical_formula_structural   KNdHf2O6
_chemical_formula_sum   'K2 Nd2 Hf4 O12'
_cell_volume   274.83936518
_cell_formula_units_Z   2
loop_
 _symmetry_equiv_pos_site_id
 _symmetry_equiv_pos_as_xyz
  1  'x, y, z'
loop_
 _atom_site_type_symbol
 _atom_site_label
 _atom_site_symmetry_multiplicity
 _atom_site_fract_x
 _atom_site_fract_y
 _atom_site_fract_z
 _atom_site_occupancy
  K  K0  1  0.258032  0.510756  0.000000  1
  K  K1  1  0.741968  0.010756  0.000000  1
  Nd  Nd2  1  0.251020  0.449459  0.500000  1
  Nd  Nd3  1  0.748980  0.949459  0.500000  1
  Hf  Hf4  1  0.746947  0.495189  0.753577  1
  Hf  Hf5  1  0.253053  0.995189  0.246423  1
  Hf  Hf6  1  0.746947  0.495189  0.246423  1
  Hf  Hf7  1  0.253053  0.995189  0.753577  1
  O  O8  1  0.210596  0.993946  0.000000  1
  O  O9  1  0.789404  0.493946  0.000000  1
  O  O10  1  0.330439  0.026543  0.500000  1
  O  O11  1  0.669561  0.526543  0.500000  1
  O  O12  1  0.545274  0.794658  0.753206  1
  O  O13  1  0.454726  0.294658  0.246794  1
  O  O14  1  0.968689  0.219802  0.310086  1
  O  O15  1  0.031311  0.719802  0.689914  1
  O  O16  1  0.968689  0.219802  0.689914  1
  O  O17  1  0.031311  0.719802  0.310086  1
  O  O18  1  0.545274  0.794658  0.246794  1
  O  O19  1  0.454726  0.294658  0.753206  1
