# generated using pymatgen
data_Tm2Al4Ga5Ir3
_symmetry_space_group_name_H-M   'P 1'
_cell_length_a   7.53152853
_cell_length_b   7.52633022
_cell_length_c   9.49810973
_cell_angle_alpha   90.15039291
_cell_angle_beta   89.89010445
_cell_angle_gamma   119.72063355
_symmetry_Int_Tables_number   1
_chemical_formula_structural   Tm2Al4Ga5Ir3
_chemical_formula_sum   'Tm4 Al8 Ga10 Ir6'
_cell_volume   467.57179667
_cell_formula_units_Z   2
loop_
 _symmetry_equiv_pos_site_id
 _symmetry_equiv_pos_as_xyz
  1  'x, y, z'
loop_
 _atom_site_type_symbol
 _atom_site_label
 _atom_site_symmetry_multiplicity
 _atom_site_fract_x
 _atom_site_fract_y
 _atom_site_fract_z
 _atom_site_occupancy
  Tm  Tm0  1  0.999347  0.669677  0.250041  1
  Tm  Tm1  1  0.004070  0.335220  0.753694  1
  Tm  Tm2  1  0.669947  0.998091  0.249976  1
  Tm  Tm3  1  0.324898  0.998608  0.746356  1
  Al  Al4  1  0.001782  0.333856  0.427767  1
  Al  Al5  1  0.666456  0.999880  0.574030  1
  Al  Al6  1  0.663850  0.998199  0.925923  1
  Al  Al7  1  0.335575  0.002673  0.072093  1
  Al  Al8  1  0.333029  0.332439  0.555904  1
  Al  Al9  1  0.667743  0.667094  0.444149  1
  Al  Al10  1  0.667680  0.667228  0.055843  1
  Al  Al11  1  0.332262  0.333022  0.944142  1
  Ga  Ga12  1  0.128227  0.126550  0.250060  1
  Ga  Ga13  1  0.870128  0.875119  0.749988  1
  Ga  Ga14  1  0.998087  0.333606  0.080759  1
  Ga  Ga15  1  0.000762  0.666589  0.921549  1
  Ga  Ga16  1  0.998815  0.663306  0.578520  1
  Ga  Ga17  1  0.336301  0.999615  0.419378  1
  Ga  Ga18  1  0.340948  0.548075  0.250558  1
  Ga  Ga19  1  0.654825  0.447844  0.749699  1
  Ga  Ga20  1  0.549725  0.343649  0.249411  1
  Ga  Ga21  1  0.454221  0.660480  0.750244  1
  Ir  Ir22  1  0.667394  0.325620  0.999139  1
  Ir  Ir23  1  0.332488  0.674430  0.000817  1
  Ir  Ir24  1  0.330616  0.669629  0.500786  1
  Ir  Ir25  1  0.672512  0.327507  0.499118  1
  Ir  Ir26  1  0.000160  0.000020  0.999966  1
  Ir  Ir27  1  0.998150  0.001974  0.500090  1
