# generated using pymatgen
data_Pr2EuCo2
_symmetry_space_group_name_H-M   'P 1'
_cell_length_a   3.99482400
_cell_length_b   3.99329600
_cell_length_c   20.47434400
_cell_angle_alpha   90.00000000
_cell_angle_beta   90.00000000
_cell_angle_gamma   120.01267501
_symmetry_Int_Tables_number   1
_chemical_formula_structural   Pr2EuCo2
_chemical_formula_sum   'Pr4 Eu2 Co4'
_cell_volume   282.82272241
_cell_formula_units_Z   2
loop_
 _symmetry_equiv_pos_site_id
 _symmetry_equiv_pos_as_xyz
  1  'x, y, z'
loop_
 _atom_site_type_symbol
 _atom_site_label
 _atom_site_symmetry_multiplicity
 _atom_site_fract_x
 _atom_site_fract_y
 _atom_site_fract_z
 _atom_site_occupancy
  Pr  Pr0  1  0.999918  0.999836  0.091240  1
  Pr  Pr1  1  0.999918  0.999836  0.408760  1
  Pr  Pr2  1  0.000082  0.000164  0.591240  1
  Pr  Pr3  1  0.000082  0.000164  0.908760  1
  Eu  Eu4  1  0.665618  0.331236  0.250000  1
  Eu  Eu5  1  0.334382  0.668763  0.750000  1
  Co  Co6  1  0.333205  0.666410  0.999061  1
  Co  Co7  1  0.333205  0.666410  0.500939  1
  Co  Co8  1  0.666795  0.333590  0.499061  1
  Co  Co9  1  0.666795  0.333590  0.000939  1
