# generated using pymatgen
data_La20Sn8Ir3Rh
_symmetry_space_group_name_H-M   'P 1'
_cell_length_a   8.40614600
_cell_length_b   9.24840601
_cell_length_c   12.93878500
_cell_angle_alpha   89.99715640
_cell_angle_beta   90.00083836
_cell_angle_gamma   90.00089835
_symmetry_Int_Tables_number   1
_chemical_formula_structural   La20Sn8Ir3Rh
_chemical_formula_sum   'La20 Sn8 Ir3 Rh1'
_cell_volume   1005.90579898
_cell_formula_units_Z   1
loop_
 _symmetry_equiv_pos_site_id
 _symmetry_equiv_pos_as_xyz
  1  'x, y, z'
loop_
 _atom_site_type_symbol
 _atom_site_label
 _atom_site_symmetry_multiplicity
 _atom_site_fract_x
 _atom_site_fract_y
 _atom_site_fract_z
 _atom_site_occupancy
  La  La0  1  0.677478  0.465689  0.070703  1
  La  La1  1  0.178073  0.532827  0.429029  1
  La  La2  1  0.323044  0.965844  0.929414  1
  La  La3  1  0.822451  0.034489  0.570919  1
  La  La4  1  0.323041  0.534159  0.929414  1
  La  La5  1  0.822438  0.465534  0.570931  1
  La  La6  1  0.677467  0.034296  0.070710  1
  La  La7  1  0.178071  0.967169  0.429031  1
  La  La8  1  0.947641  0.750001  0.000272  1
  La  La9  1  0.448822  0.250002  0.499555  1
  La  La10  1  0.051811  0.250004  0.999022  1
  La  La11  1  0.551055  0.750000  0.500935  1
  La  La12  1  0.360681  0.750001  0.198390  1
  La  La13  1  0.860989  0.249999  0.302001  1
  La  La14  1  0.639039  0.249993  0.801566  1
  La  La15  1  0.140034  0.750000  0.699000  1
  La  La16  1  0.833041  0.750004  0.289439  1
  La  La17  1  0.334601  0.250002  0.209021  1
  La  La18  1  0.165412  0.250001  0.708639  1
  La  La19  1  0.665477  0.750001  0.790936  1
  Sn  Sn20  1  0.561734  0.493471  0.328232  1
  Sn  Sn21  1  0.061116  0.506644  0.172325  1
  Sn  Sn22  1  0.438833  0.993639  0.672036  1
  Sn  Sn23  1  0.938964  0.006475  0.827352  1
  Sn  Sn24  1  0.438819  0.506364  0.672035  1
  Sn  Sn25  1  0.938943  0.493522  0.827358  1
  Sn  Sn26  1  0.561711  0.006533  0.328214  1
  Sn  Sn27  1  0.061103  0.993347  0.172326  1
  Ir  Ir28  1  0.576390  0.749995  0.013023  1
  Ir  Ir29  1  0.076283  0.250004  0.487065  1
  Ir  Ir30  1  0.424008  0.249999  0.987526  1
  Rh  Rh31  1  0.921430  0.749991  0.513578  1
