# generated using pymatgen
data_Sm3NiAg5
_symmetry_space_group_name_H-M   'P 1'
_cell_length_a   7.77985300
_cell_length_b   7.77985333
_cell_length_c   3.89509600
_cell_angle_alpha   90.00000000
_cell_angle_beta   90.00000000
_cell_angle_gamma   119.99999436
_symmetry_Int_Tables_number   1
_chemical_formula_structural   Sm3NiAg5
_chemical_formula_sum   'Sm3 Ni1 Ag5'
_cell_volume   204.16985607
_cell_formula_units_Z   1
loop_
 _symmetry_equiv_pos_site_id
 _symmetry_equiv_pos_as_xyz
  1  'x, y, z'
loop_
 _atom_site_type_symbol
 _atom_site_label
 _atom_site_symmetry_multiplicity
 _atom_site_fract_x
 _atom_site_fract_y
 _atom_site_fract_z
 _atom_site_occupancy
  Sm  Sm0  1  0.970685  0.389149  0.500000  1
  Sm  Sm1  1  0.610851  0.581537  0.500000  1
  Sm  Sm2  1  0.418463  0.029315  0.500000  1
  Ni  Ni3  1  0.666667  0.333333  0.000000  1
  Ag  Ag4  1  0.271126  0.265851  0.000000  1
  Ag  Ag5  1  0.994725  0.728874  0.000000  1
  Ag  Ag6  1  0.734149  0.005275  0.000000  1
  Ag  Ag7  1  0.333333  0.666667  0.000000  1
  Ag  Ag8  1  0.000000  0.000000  0.500000  1
