# generated using pymatgen
data_PrTh2(InIr)3
_symmetry_space_group_name_H-M   'P 1'
_cell_length_a   7.75434145
_cell_length_b   7.64488261
_cell_length_c   4.03550200
_cell_angle_alpha   90.00000000
_cell_angle_beta   90.00000000
_cell_angle_gamma   119.53414312
_symmetry_Int_Tables_number   1
_chemical_formula_structural   PrTh2(InIr)3
_chemical_formula_sum   'Pr1 Th2 In3 Ir3'
_cell_volume   208.14383900
_cell_formula_units_Z   1
loop_
 _symmetry_equiv_pos_site_id
 _symmetry_equiv_pos_as_xyz
  1  'x, y, z'
loop_
 _atom_site_type_symbol
 _atom_site_label
 _atom_site_symmetry_multiplicity
 _atom_site_fract_x
 _atom_site_fract_y
 _atom_site_fract_z
 _atom_site_occupancy
  Pr  Pr0  1  0.000000  0.409848  0.000000  1
  Th  Th1  1  0.587766  0.589198  0.000000  1
  Th  Th2  1  0.412234  0.001433  0.000000  1
  In  In3  1  0.000000  0.738861  0.500000  1
  In  In4  1  0.240177  0.249987  0.500000  1
  In  In5  1  0.759823  0.009809  0.500000  1
  Ir  Ir6  1  0.000000  0.984490  0.000000  1
  Ir  Ir7  1  0.641962  0.329168  0.500000  1
  Ir  Ir8  1  0.358038  0.687207  0.500000  1
