# generated using pymatgen
data_V12FeCo3(Si2C)4
_symmetry_space_group_name_H-M   'P 1'
_cell_length_a   7.66159382
_cell_length_b   7.65157555
_cell_length_c   7.65157400
_cell_angle_alpha   59.99999807
_cell_angle_beta   60.04324358
_cell_angle_gamma   60.04324370
_symmetry_Int_Tables_number   1
_chemical_formula_structural   V12FeCo3(Si2C)4
_chemical_formula_sum   'V12 Fe1 Co3 Si8 C4'
_cell_volume   317.38714404
_cell_formula_units_Z   1
loop_
 _symmetry_equiv_pos_site_id
 _symmetry_equiv_pos_as_xyz
  1  'x, y, z'
loop_
 _atom_site_type_symbol
 _atom_site_label
 _atom_site_symmetry_multiplicity
 _atom_site_fract_x
 _atom_site_fract_y
 _atom_site_fract_z
 _atom_site_occupancy
  V  V0  1  0.812125  0.811922  0.187976  1
  V  V1  1  0.187311  0.188353  0.812168  1
  V  V2  1  0.812125  0.187976  0.811922  1
  V  V3  1  0.187311  0.812168  0.188353  1
  V  V4  1  0.187311  0.812168  0.812168  1
  V  V5  1  0.812125  0.187976  0.187976  1
  V  V6  1  0.437875  0.438078  0.062024  1
  V  V7  1  0.062689  0.061647  0.437832  1
  V  V8  1  0.437875  0.062024  0.438078  1
  V  V9  1  0.062689  0.437832  0.061647  1
  V  V10  1  0.062689  0.437832  0.437832  1
  V  V11  1  0.437875  0.062024  0.062024  1
  Fe  Fe12  1  0.125000  0.625000  0.625000  1
  Co  Co13  1  0.625000  0.125000  0.625000  1
  Co  Co14  1  0.625000  0.625000  0.125000  1
  Co  Co15  1  0.625000  0.625000  0.625000  1
  Si  Si16  1  0.760201  0.413267  0.413267  1
  Si  Si17  1  0.412823  0.759685  0.413747  1
  Si  Si18  1  0.412823  0.413747  0.759685  1
  Si  Si19  1  0.412823  0.413747  0.413747  1
  Si  Si20  1  0.489799  0.836733  0.836733  1
  Si  Si21  1  0.837177  0.490315  0.836253  1
  Si  Si22  1  0.837177  0.836253  0.490315  1
  Si  Si23  1  0.837177  0.836253  0.836253  1
  C  C24  1  0.625000  0.125000  0.125000  1
  C  C25  1  0.125000  0.625000  0.125000  1
  C  C26  1  0.125000  0.125000  0.625000  1
  C  C27  1  0.125000  0.125000  0.125000  1
