# generated using pymatgen
data_Sm2Co2Te
_symmetry_space_group_name_H-M   'P 1'
_cell_length_a   4.01947300
_cell_length_b   4.01947162
_cell_length_c   16.30895300
_cell_angle_alpha   90.00000000
_cell_angle_beta   90.00000000
_cell_angle_gamma   119.99998667
_symmetry_Int_Tables_number   1
_chemical_formula_structural   Sm2Co2Te
_chemical_formula_sum   'Sm4 Co4 Te2'
_cell_volume   228.18907795
_cell_formula_units_Z   2
loop_
 _symmetry_equiv_pos_site_id
 _symmetry_equiv_pos_as_xyz
  1  'x, y, z'
loop_
 _atom_site_type_symbol
 _atom_site_label
 _atom_site_symmetry_multiplicity
 _atom_site_fract_x
 _atom_site_fract_y
 _atom_site_fract_z
 _atom_site_occupancy
  Sm  Sm0  1  0.000000  0.000000  0.115051  1
  Sm  Sm1  1  0.000000  0.000000  0.884949  1
  Sm  Sm2  1  0.000000  0.000000  0.615051  1
  Sm  Sm3  1  0.000000  0.000000  0.384949  1
  Co  Co4  1  0.333333  0.666667  0.501170  1
  Co  Co5  1  0.666667  0.333333  0.498830  1
  Co  Co6  1  0.666667  0.333333  0.001170  1
  Co  Co7  1  0.333333  0.666667  0.998830  1
  Te  Te8  1  0.333333  0.666667  0.250000  1
  Te  Te9  1  0.666667  0.333333  0.750000  1
