# generated using pymatgen
data_Tb3Pa(ReN3)4
_symmetry_space_group_name_H-M   'P 1'
_cell_length_a   5.38613512
_cell_length_b   5.67266233
_cell_length_c   7.76720100
_cell_angle_alpha   90.00000000
_cell_angle_beta   90.00000000
_cell_angle_gamma   89.73312226
_symmetry_Int_Tables_number   1
_chemical_formula_structural   Tb3Pa(ReN3)4
_chemical_formula_sum   'Tb3 Pa1 Re4 N12'
_cell_volume   237.31435549
_cell_formula_units_Z   1
loop_
 _symmetry_equiv_pos_site_id
 _symmetry_equiv_pos_as_xyz
  1  'x, y, z'
loop_
 _atom_site_type_symbol
 _atom_site_label
 _atom_site_symmetry_multiplicity
 _atom_site_fract_x
 _atom_site_fract_y
 _atom_site_fract_z
 _atom_site_occupancy
  Tb  Tb0  1  0.016409  0.932403  0.250000  1
  Tb  Tb1  1  0.510475  0.564671  0.750000  1
  Tb  Tb2  1  0.988394  0.061825  0.750000  1
  Pa  Pa3  1  0.480753  0.432246  0.250000  1
  Re  Re4  1  0.502380  0.003397  0.505476  1
  Re  Re5  1  0.991180  0.500897  0.994554  1
  Re  Re6  1  0.991180  0.500897  0.505446  1
  Re  Re7  1  0.502380  0.003397  0.994524  1
  N  N8  1  0.699609  0.293689  0.542436  1
  N  N9  1  0.312464  0.692890  0.053524  1
  N  N10  1  0.200427  0.204887  0.048721  1
  N  N11  1  0.420941  0.983760  0.750000  1
  N  N12  1  0.898513  0.524926  0.250000  1
  N  N13  1  0.312464  0.692890  0.446476  1
  N  N14  1  0.801405  0.793844  0.955790  1
  N  N15  1  0.699609  0.293689  0.957564  1
  N  N16  1  0.801405  0.793844  0.544210  1
  N  N17  1  0.077726  0.485284  0.750000  1
  N  N18  1  0.200427  0.204887  0.451279  1
  N  N19  1  0.591859  0.035678  0.250000  1
