# generated using pymatgen
data_Co6TcMo6
_symmetry_space_group_name_H-M   'P 1'
_cell_length_a   9.10191022
_cell_length_b   9.10191008
_cell_length_c   9.10191047
_cell_angle_alpha   30.30101435
_cell_angle_beta   30.30101636
_cell_angle_gamma   30.30101303
_symmetry_Int_Tables_number   1
_chemical_formula_structural   Co6TcMo6
_chemical_formula_sum   'Co6 Tc1 Mo6'
_cell_volume   170.10434465
_cell_formula_units_Z   1
loop_
 _symmetry_equiv_pos_site_id
 _symmetry_equiv_pos_as_xyz
  1  'x, y, z'
loop_
 _atom_site_type_symbol
 _atom_site_label
 _atom_site_symmetry_multiplicity
 _atom_site_fract_x
 _atom_site_fract_y
 _atom_site_fract_z
 _atom_site_occupancy
  Co  Co0  1  0.090364  0.090364  0.584230  1
  Co  Co1  1  0.415770  0.909636  0.909636  1
  Co  Co2  1  0.584230  0.090364  0.090364  1
  Co  Co3  1  0.909636  0.909636  0.415770  1
  Co  Co4  1  0.909636  0.415770  0.909636  1
  Co  Co5  1  0.090364  0.584230  0.090364  1
  Tc  Tc6  1  0.000000  0.000000  0.000000  1
  Mo  Mo7  1  0.837123  0.837123  0.837123  1
  Mo  Mo8  1  0.650353  0.650353  0.650353  1
  Mo  Mo9  1  0.451289  0.451289  0.451289  1
  Mo  Mo10  1  0.548711  0.548711  0.548711  1
  Mo  Mo11  1  0.162877  0.162877  0.162877  1
  Mo  Mo12  1  0.349647  0.349647  0.349647  1
