# generated using pymatgen
data_Ho3Fe8Co3B4
_symmetry_space_group_name_H-M   'P 1'
_cell_length_a   5.04438754
_cell_length_b   5.05395082
_cell_length_c   9.97772425
_cell_angle_alpha   90.01405174
_cell_angle_beta   90.01135219
_cell_angle_gamma   119.97092929
_symmetry_Int_Tables_number   1
_chemical_formula_structural   Ho3Fe8Co3B4
_chemical_formula_sum   'Ho3 Fe8 Co3 B4'
_cell_volume   220.35793193
_cell_formula_units_Z   1
loop_
 _symmetry_equiv_pos_site_id
 _symmetry_equiv_pos_as_xyz
  1  'x, y, z'
loop_
 _atom_site_type_symbol
 _atom_site_label
 _atom_site_symmetry_multiplicity
 _atom_site_fract_x
 _atom_site_fract_y
 _atom_site_fract_z
 _atom_site_occupancy
  Ho  Ho0  1  0.000196  0.999881  0.999989  1
  Ho  Ho1  1  0.999947  0.000067  0.348071  1
  Ho  Ho2  1  0.999885  0.999978  0.651890  1
  Fe  Fe3  1  0.333477  0.666655  0.000046  1
  Fe  Fe4  1  0.666698  0.333292  0.999965  1
  Fe  Fe5  1  0.500369  0.000121  0.202535  1
  Fe  Fe6  1  0.500155  0.499922  0.202850  1
  Fe  Fe7  1  0.999770  0.499830  0.202792  1
  Fe  Fe8  1  0.500360  0.000236  0.797488  1
  Fe  Fe9  1  0.499437  0.499644  0.797228  1
  Fe  Fe10  1  0.999941  0.500185  0.797227  1
  Co  Co11  1  0.499928  0.000003  0.499975  1
  Co  Co12  1  0.499941  0.500015  0.499989  1
  Co  Co13  1  0.999956  0.500032  0.499985  1
  B  B14  1  0.333226  0.666660  0.353042  1
  B  B15  1  0.666728  0.333447  0.353100  1
  B  B16  1  0.666601  0.333305  0.646883  1
  B  B17  1  0.333286  0.666726  0.646946  1
