# generated using pymatgen
data_DyLu4P12Ir16Rh3
_symmetry_space_group_name_H-M   'P 1'
_cell_length_a   12.69967000
_cell_length_b   12.69967014
_cell_length_c   3.94420700
_cell_angle_alpha   90.00000000
_cell_angle_beta   90.00000000
_cell_angle_gamma   119.99999964
_symmetry_Int_Tables_number   1
_chemical_formula_structural   DyLu4P12Ir16Rh3
_chemical_formula_sum   'Dy1 Lu4 P12 Ir16 Rh3'
_cell_volume   550.90309153
_cell_formula_units_Z   1
loop_
 _symmetry_equiv_pos_site_id
 _symmetry_equiv_pos_as_xyz
  1  'x, y, z'
loop_
 _atom_site_type_symbol
 _atom_site_label
 _atom_site_symmetry_multiplicity
 _atom_site_fract_x
 _atom_site_fract_y
 _atom_site_fract_z
 _atom_site_occupancy
  Dy  Dy0  1  0.666667  0.333333  0.500000  1
  Lu  Lu1  1  0.333333  0.666667  0.500000  1
  Lu  Lu2  1  0.999971  0.814762  0.000000  1
  Lu  Lu3  1  0.185238  0.185209  0.000000  1
  Lu  Lu4  1  0.814791  0.000029  0.000000  1
  P  P5  1  0.999794  0.641466  0.500000  1
  P  P6  1  0.358534  0.358328  0.500000  1
  P  P7  1  0.641672  0.000206  0.500000  1
  P  P8  1  0.516293  0.686653  0.000000  1
  P  P9  1  0.313347  0.829640  0.000000  1
  P  P10  1  0.170360  0.483707  0.000000  1
  P  P11  1  0.483007  0.169321  0.000000  1
  P  P12  1  0.686313  0.516993  0.000000  1
  P  P13  1  0.830679  0.313687  0.000000  1
  P  P14  1  0.000192  0.177734  0.500000  1
  P  P15  1  0.822266  0.822458  0.500000  1
  P  P16  1  0.177542  0.999808  0.500000  1
  Ir  Ir17  1  0.506206  0.864837  0.000000  1
  Ir  Ir18  1  0.135163  0.641370  0.000000  1
  Ir  Ir19  1  0.358630  0.493794  0.000000  1
  Ir  Ir20  1  0.491640  0.358784  0.000000  1
  Ir  Ir21  1  0.867145  0.508360  0.000000  1
  Ir  Ir22  1  0.641216  0.132855  0.000000  1
  Ir  Ir23  1  0.000328  0.281967  0.000000  1
  Ir  Ir24  1  0.718033  0.718361  0.000000  1
  Ir  Ir25  1  0.281639  0.999672  0.000000  1
  Ir  Ir26  1  0.627333  0.807805  0.500000  1
  Ir  Ir27  1  0.192195  0.819528  0.500000  1
  Ir  Ir28  1  0.180472  0.372667  0.500000  1
  Ir  Ir29  1  0.372186  0.179998  0.500000  1
  Ir  Ir30  1  0.807811  0.627814  0.500000  1
  Ir  Ir31  1  0.820002  0.192189  0.500000  1
  Ir  Ir32  1  0.000000  0.000000  0.500000  1
  Rh  Rh33  1  0.000058  0.461321  0.500000  1
  Rh  Rh34  1  0.538679  0.538737  0.500000  1
  Rh  Rh35  1  0.461263  0.999942  0.500000  1
