# generated using pymatgen
data_Ac8Nd12Si15Au
_symmetry_space_group_name_H-M   'P 1'
_cell_length_a   8.15924172
_cell_length_b   8.15007761
_cell_length_c   15.71525500
_cell_angle_alpha   90.03347729
_cell_angle_beta   89.57665615
_cell_angle_gamma   90.11453951
_symmetry_Int_Tables_number   1
_chemical_formula_structural   Ac8Nd12Si15Au
_chemical_formula_sum   'Ac8 Nd12 Si15 Au1'
_cell_volume   1045.00936596
_cell_formula_units_Z   1
loop_
 _symmetry_equiv_pos_site_id
 _symmetry_equiv_pos_as_xyz
  1  'x, y, z'
loop_
 _atom_site_type_symbol
 _atom_site_label
 _atom_site_symmetry_multiplicity
 _atom_site_fract_x
 _atom_site_fract_y
 _atom_site_fract_z
 _atom_site_occupancy
  Ac  Ac0  1  0.987739  0.624616  0.051788  1
  Ac  Ac1  1  0.015702  0.371283  0.550832  1
  Ac  Ac2  1  0.627521  0.984339  0.949487  1
  Ac  Ac3  1  0.128010  0.514202  0.800819  1
  Ac  Ac4  1  0.867543  0.480514  0.297717  1
  Ac  Ac5  1  0.512151  0.125571  0.197453  1
  Ac  Ac6  1  0.489213  0.873711  0.699644  1
  Ac  Ac7  1  0.374622  0.017044  0.451488  1
  Nd  Nd8  1  0.376814  0.481181  0.372958  1
  Nd  Nd9  1  0.864941  0.022785  0.372928  1
  Nd  Nd10  1  0.983041  0.128507  0.123463  1
  Nd  Nd11  1  0.018320  0.873595  0.624429  1
  Nd  Nd12  1  0.629498  0.515740  0.872895  1
  Nd  Nd13  1  0.486696  0.370817  0.628469  1
  Nd  Nd14  1  0.514103  0.627129  0.125866  1
  Nd  Nd15  1  0.127475  0.984991  0.878335  1
  Nd  Nd16  1  0.689608  0.694397  0.497956  1
  Nd  Nd17  1  0.812734  0.187876  0.750102  1
  Nd  Nd18  1  0.183778  0.808129  0.252389  1
  Nd  Nd19  1  0.307351  0.311130  0.999734  1
  Si  Si20  1  0.920093  0.281994  0.938510  1
  Si  Si21  1  0.717374  0.079594  0.562034  1
  Si  Si22  1  0.218693  0.420458  0.189688  1
  Si  Si23  1  0.784475  0.579609  0.688844  1
  Si  Si24  1  0.421551  0.217374  0.812013  1
  Si  Si25  1  0.577272  0.783094  0.309086  1
  Si  Si26  1  0.283343  0.921419  0.060586  1
  Si  Si27  1  0.836192  0.805089  0.795356  1
  Si  Si28  1  0.165139  0.196893  0.296282  1
  Si  Si29  1  0.800093  0.835287  0.202284  1
  Si  Si30  1  0.311648  0.664020  0.549535  1
  Si  Si31  1  0.695253  0.335129  0.044594  1
  Si  Si32  1  0.665923  0.305294  0.456422  1
  Si  Si33  1  0.334783  0.695022  0.954474  1
  Si  Si34  1  0.197630  0.165318  0.704602  1
  Au  Au35  1  0.073677  0.716844  0.436934  1
