# generated using pymatgen
data_Tb3YCd2Cu3Pd
_symmetry_space_group_name_H-M   'P 1'
_cell_length_a   3.74426600
_cell_length_b   7.61725733
_cell_length_c   7.61109622
_cell_angle_alpha   89.30476795
_cell_angle_beta   90.00000000
_cell_angle_gamma   90.00000000
_symmetry_Int_Tables_number   1
_chemical_formula_structural   Tb3YCd2Cu3Pd
_chemical_formula_sum   'Tb3 Y1 Cd2 Cu3 Pd1'
_cell_volume   217.06038095
_cell_formula_units_Z   1
loop_
 _symmetry_equiv_pos_site_id
 _symmetry_equiv_pos_as_xyz
  1  'x, y, z'
loop_
 _atom_site_type_symbol
 _atom_site_label
 _atom_site_symmetry_multiplicity
 _atom_site_fract_x
 _atom_site_fract_y
 _atom_site_fract_z
 _atom_site_occupancy
  Tb  Tb0  1  0.500000  0.829192  0.324475  1
  Tb  Tb1  1  0.500000  0.325396  0.173872  1
  Tb  Tb2  1  0.500000  0.671488  0.828369  1
  Y  Y3  1  0.500000  0.176293  0.671427  1
  Cd  Cd4  1  0.000000  0.998568  0.995207  1
  Cd  Cd5  1  0.000000  0.504498  0.501936  1
  Cu  Cu6  1  0.000000  0.618155  0.118599  1
  Cu  Cu7  1  0.000000  0.381574  0.882031  1
  Cu  Cu8  1  0.000000  0.874798  0.624938  1
  Pd  Pd9  1  0.000000  0.120039  0.379144  1
