# generated using pymatgen
data_Tb3Y5(AlPd)2
_symmetry_space_group_name_H-M   'P 1'
_cell_length_a   9.63463281
_cell_length_b   9.64143743
_cell_length_c   9.64143740
_cell_angle_alpha   59.95331595
_cell_angle_beta   60.02334508
_cell_angle_gamma   60.02334492
_symmetry_Int_Tables_number   1
_chemical_formula_structural   Tb3Y5(AlPd)2
_chemical_formula_sum   'Tb6 Y10 Al4 Pd4'
_cell_volume   633.29102012
_cell_formula_units_Z   2
loop_
 _symmetry_equiv_pos_site_id
 _symmetry_equiv_pos_as_xyz
  1  'x, y, z'
loop_
 _atom_site_type_symbol
 _atom_site_label
 _atom_site_symmetry_multiplicity
 _atom_site_fract_x
 _atom_site_fract_y
 _atom_site_fract_z
 _atom_site_occupancy
  Tb  Tb0  1  0.355858  0.355591  0.355591  1
  Tb  Tb1  1  0.355591  0.355858  0.932958  1
  Tb  Tb2  1  0.355591  0.932958  0.355858  1
  Tb  Tb3  1  0.932958  0.355591  0.355591  1
  Tb  Tb4  1  0.806798  0.193202  0.193202  1
  Tb  Tb5  1  0.193202  0.806798  0.806798  1
  Y  Y6  1  0.193245  0.806755  0.193245  1
  Y  Y7  1  0.806755  0.193245  0.806755  1
  Y  Y8  1  0.193245  0.193245  0.806755  1
  Y  Y9  1  0.806755  0.806755  0.193245  1
  Y  Y10  1  0.935012  0.564988  0.564988  1
  Y  Y11  1  0.564988  0.935012  0.935012  1
  Y  Y12  1  0.564980  0.935020  0.564980  1
  Y  Y13  1  0.935020  0.564980  0.935020  1
  Y  Y14  1  0.564980  0.564980  0.935020  1
  Y  Y15  1  0.935020  0.935020  0.564980  1
  Al  Al16  1  0.577868  0.577864  0.577864  1
  Al  Al17  1  0.577864  0.577868  0.266405  1
  Al  Al18  1  0.577864  0.266405  0.577868  1
  Al  Al19  1  0.266405  0.577864  0.577864  1
  Pd  Pd20  1  0.144713  0.145011  0.145011  1
  Pd  Pd21  1  0.145011  0.144713  0.565264  1
  Pd  Pd22  1  0.145011  0.565264  0.144713  1
  Pd  Pd23  1  0.565264  0.145011  0.145011  1
