# generated using pymatgen
data_Hf11Pa3Pt20
_symmetry_space_group_name_H-M   'P 1'
_cell_length_a   8.26218420
_cell_length_b   8.26223613
_cell_length_c   9.71187594
_cell_angle_alpha   89.88118000
_cell_angle_beta   89.88144569
_cell_angle_gamma   107.81786888
_symmetry_Int_Tables_number   1
_chemical_formula_structural   Hf11Pa3Pt20
_chemical_formula_sum   'Hf11 Pa3 Pt20'
_cell_volume   631.16859145
_cell_formula_units_Z   1
loop_
 _symmetry_equiv_pos_site_id
 _symmetry_equiv_pos_as_xyz
  1  'x, y, z'
loop_
 _atom_site_type_symbol
 _atom_site_label
 _atom_site_symmetry_multiplicity
 _atom_site_fract_x
 _atom_site_fract_y
 _atom_site_fract_z
 _atom_site_occupancy
  Hf  Hf0  1  0.691340  0.305494  0.001543  1
  Hf  Hf1  1  0.305494  0.691341  0.001541  1
  Hf  Hf2  1  0.804994  0.195102  0.499705  1
  Hf  Hf3  1  0.195099  0.804993  0.499706  1
  Hf  Hf4  1  0.003525  0.003521  0.003369  1
  Hf  Hf5  1  0.499647  0.499647  0.495205  1
  Hf  Hf6  1  0.003963  0.494558  0.249985  1
  Hf  Hf7  1  0.998555  0.499995  0.751823  1
  Hf  Hf8  1  0.499996  0.998555  0.751822  1
  Hf  Hf9  1  0.494555  0.003961  0.249985  1
  Hf  Hf10  1  0.318601  0.318603  0.182633  1
  Pa  Pa11  1  0.685686  0.685686  0.814423  1
  Pa  Pa12  1  0.187858  0.187857  0.683613  1
  Pa  Pa13  1  0.815319  0.815319  0.313417  1
  Pt  Pt14  1  0.849107  0.146677  0.207578  1
  Pt  Pt15  1  0.146885  0.852945  0.793448  1
  Pt  Pt16  1  0.645374  0.351606  0.707955  1
  Pt  Pt17  1  0.645077  0.353239  0.290761  1
  Pt  Pt18  1  0.353235  0.645076  0.290760  1
  Pt  Pt19  1  0.351606  0.645375  0.707956  1
  Pt  Pt20  1  0.852944  0.146889  0.793446  1
  Pt  Pt21  1  0.146675  0.849106  0.207579  1
  Pt  Pt22  1  0.936096  0.641768  0.002825  1
  Pt  Pt23  1  0.064461  0.354940  0.000889  1
  Pt  Pt24  1  0.563159  0.856783  0.500423  1
  Pt  Pt25  1  0.143367  0.437611  0.499269  1
  Pt  Pt26  1  0.437611  0.143366  0.499268  1
  Pt  Pt27  1  0.856783  0.563158  0.500423  1
  Pt  Pt28  1  0.354941  0.064458  0.000890  1
  Pt  Pt29  1  0.641770  0.936098  0.002824  1
  Pt  Pt30  1  0.109952  0.109951  0.386446  1
  Pt  Pt31  1  0.897628  0.897627  0.603256  1
  Pt  Pt32  1  0.393922  0.393922  0.897400  1
  Pt  Pt33  1  0.604774  0.604774  0.107834  1
