# generated using pymatgen
data_Y19Ho(SiBi2)4
_symmetry_space_group_name_H-M   'P 1'
_cell_length_a   12.15516341
_cell_length_b   9.17477220
_cell_length_c   8.08036720
_cell_angle_alpha   89.98726548
_cell_angle_beta   89.97790008
_cell_angle_gamma   90.02007596
_symmetry_Int_Tables_number   1
_chemical_formula_structural   Y19Ho(SiBi2)4
_chemical_formula_sum   'Y19 Ho1 Si4 Bi8'
_cell_volume   901.12931694
_cell_formula_units_Z   1
loop_
 _symmetry_equiv_pos_site_id
 _symmetry_equiv_pos_as_xyz
  1  'x, y, z'
loop_
 _atom_site_type_symbol
 _atom_site_label
 _atom_site_symmetry_multiplicity
 _atom_site_fract_x
 _atom_site_fract_y
 _atom_site_fract_z
 _atom_site_occupancy
  Y  Y0  1  0.064216  0.448643  0.180510  1
  Y  Y1  1  0.435776  0.551342  0.680556  1
  Y  Y2  1  0.935781  0.948625  0.819489  1
  Y  Y3  1  0.436003  0.948753  0.680002  1
  Y  Y4  1  0.935790  0.551336  0.819465  1
  Y  Y5  1  0.564203  0.448351  0.319369  1
  Y  Y6  1  0.064227  0.051374  0.180543  1
  Y  Y7  1  0.710887  0.249772  0.661227  1
  Y  Y8  1  0.210982  0.249984  0.838660  1
  Y  Y9  1  0.288970  0.750008  0.338646  1
  Y  Y10  1  0.788988  0.750046  0.161437  1
  Y  Y11  1  0.500632  0.249665  0.959633  1
  Y  Y12  1  0.000561  0.249956  0.540931  1
  Y  Y13  1  0.499417  0.750300  0.041112  1
  Y  Y14  1  0.999409  0.750017  0.459088  1
  Y  Y15  1  0.795494  0.249691  0.135216  1
  Y  Y16  1  0.295924  0.249777  0.364906  1
  Y  Y17  1  0.204281  0.750014  0.864976  1
  Y  Y18  1  0.704244  0.749991  0.635024  1
  Ho  Ho19  1  0.564065  0.052094  0.320119  1
  Si  Si20  1  0.980882  0.250021  0.916502  1
  Si  Si21  1  0.481075  0.249462  0.582888  1
  Si  Si22  1  0.019092  0.750015  0.083569  1
  Si  Si23  1  0.519297  0.750937  0.416011  1
  Bi  Bi24  1  0.826431  0.010225  0.430201  1
  Bi  Bi25  1  0.326748  0.489738  0.069571  1
  Bi  Bi26  1  0.173304  0.510256  0.569563  1
  Bi  Bi27  1  0.673204  0.989678  0.930706  1
  Bi  Bi28  1  0.173314  0.989742  0.569578  1
  Bi  Bi29  1  0.673249  0.510234  0.930451  1
  Bi  Bi30  1  0.826687  0.489729  0.430421  1
  Bi  Bi31  1  0.326869  0.010224  0.069629  1
