# generated using pymatgen
data_Ho11TmMn2In3
_symmetry_space_group_name_H-M   'P 1'
_cell_length_a   8.41970102
_cell_length_b   8.41396660
_cell_length_c   8.41396782
_cell_angle_alpha   110.17257716
_cell_angle_beta   110.29477317
_cell_angle_gamma   107.92999943
_symmetry_Int_Tables_number   1
_chemical_formula_structural   Ho11TmMn2In3
_chemical_formula_sum   'Ho11 Tm1 Mn2 In3'
_cell_volume   458.76362052
_cell_formula_units_Z   1
loop_
 _symmetry_equiv_pos_site_id
 _symmetry_equiv_pos_as_xyz
  1  'x, y, z'
loop_
 _atom_site_type_symbol
 _atom_site_label
 _atom_site_symmetry_multiplicity
 _atom_site_fract_x
 _atom_site_fract_y
 _atom_site_fract_z
 _atom_site_occupancy
  Ho  Ho0  1  0.543388  0.789992  0.753396  1
  Ho  Ho1  1  0.963426  0.210185  0.753241  1
  Ho  Ho2  1  0.210343  0.963795  0.754025  1
  Ho  Ho3  1  0.036547  0.790017  0.246529  1
  Ho  Ho4  1  0.789572  0.036899  0.246729  1
  Ho  Ho5  1  0.210343  0.456318  0.246549  1
  Ho  Ho6  1  0.789572  0.542843  0.752673  1
  Ho  Ho7  1  0.303412  0.302951  0.606172  1
  Ho  Ho8  1  0.696312  0.696001  0.393144  1
  Ho  Ho9  1  0.303412  0.697240  0.000462  1
  Ho  Ho10  1  0.696312  0.303168  0.000311  1
  Tm  Tm11  1  0.456689  0.210324  0.246365  1
  Mn  Mn12  1  0.394468  0.394367  0.000101  1
  Mn  Mn13  1  0.605571  0.605550  0.000021  1
  In  In14  1  0.499979  0.000196  0.499783  1
  In  In15  1  0.999988  0.499978  0.500010  1
  In  In16  1  0.000666  0.000176  0.000490  1
