# generated using pymatgen
data_Y4Pd3PtO14
_symmetry_space_group_name_H-M   'P 1'
_cell_length_a   7.26756634
_cell_length_b   7.26756648
_cell_length_c   7.26756629
_cell_angle_alpha   60.07434401
_cell_angle_beta   60.07434343
_cell_angle_gamma   60.07434710
_symmetry_Int_Tables_number   1
_chemical_formula_structural   Y4Pd3PtO14
_chemical_formula_sum   'Y4 Pd3 Pt1 O14'
_cell_volume   271.88365677
_cell_formula_units_Z   1
loop_
 _symmetry_equiv_pos_site_id
 _symmetry_equiv_pos_as_xyz
  1  'x, y, z'
loop_
 _atom_site_type_symbol
 _atom_site_label
 _atom_site_symmetry_multiplicity
 _atom_site_fract_x
 _atom_site_fract_y
 _atom_site_fract_z
 _atom_site_occupancy
  Y  Y0  1  0.125000  0.625000  0.125000  1
  Y  Y1  1  0.125000  0.125000  0.625000  1
  Y  Y2  1  0.625000  0.125000  0.125000  1
  Y  Y3  1  0.125000  0.125000  0.125000  1
  Pd  Pd4  1  0.125000  0.625000  0.625000  1
  Pd  Pd5  1  0.625000  0.625000  0.125000  1
  Pd  Pd6  1  0.625000  0.125000  0.625000  1
  Pt  Pt7  1  0.625000  0.625000  0.625000  1
  O  O8  1  0.286277  0.715072  0.715072  1
  O  O9  1  0.535371  0.964723  0.964723  1
  O  O10  1  0.715072  0.715072  0.286277  1
  O  O11  1  0.285277  0.285277  0.714629  1
  O  O12  1  0.999913  0.999913  0.999913  1
  O  O13  1  0.285277  0.714629  0.285277  1
  O  O14  1  0.715072  0.286277  0.715072  1
  O  O15  1  0.964723  0.535371  0.964723  1
  O  O16  1  0.534928  0.534928  0.963723  1
  O  O17  1  0.964723  0.964723  0.535371  1
  O  O18  1  0.250087  0.250087  0.250087  1
  O  O19  1  0.534928  0.963723  0.534928  1
  O  O20  1  0.714629  0.285277  0.285277  1
  O  O21  1  0.963723  0.534928  0.534928  1
