# generated using pymatgen
data_Yb2Cu5Ni2
_symmetry_space_group_name_H-M   'P 1'
_cell_length_a   4.96957505
_cell_length_b   4.97110200
_cell_length_c   12.47698781
_cell_angle_alpha   78.61620236
_cell_angle_beta   78.78827776
_cell_angle_gamma   60.15016883
_symmetry_Int_Tables_number   1
_chemical_formula_structural   Yb2Cu5Ni2
_chemical_formula_sum   'Yb4 Cu10 Ni4'
_cell_volume   260.40017227
_cell_formula_units_Z   2
loop_
 _symmetry_equiv_pos_site_id
 _symmetry_equiv_pos_as_xyz
  1  'x, y, z'
loop_
 _atom_site_type_symbol
 _atom_site_label
 _atom_site_symmetry_multiplicity
 _atom_site_fract_x
 _atom_site_fract_y
 _atom_site_fract_z
 _atom_site_occupancy
  Yb  Yb0  1  0.950091  0.950314  0.149549  1
  Yb  Yb1  1  0.052923  0.052418  0.841151  1
  Yb  Yb2  1  0.848708  0.849331  0.454597  1
  Yb  Yb3  1  0.145980  0.145344  0.560889  1
  Cu  Cu4  1  0.723130  0.732521  0.831976  1
  Cu  Cu5  1  0.280947  0.273300  0.165450  1
  Cu  Cu6  1  0.609436  0.617367  0.163909  1
  Cu  Cu7  1  0.388310  0.377987  0.832446  1
  Cu  Cu8  1  0.000604  0.500213  0.998485  1
  Cu  Cu9  1  0.500551  0.500996  0.997379  1
  Cu  Cu10  1  0.389077  0.389669  0.332845  1
  Cu  Cu11  1  0.889670  0.389597  0.332932  1
  Cu  Cu12  1  0.388980  0.889502  0.333441  1
  Cu  Cu13  1  0.611387  0.610824  0.669406  1
  Ni  Ni14  1  0.497057  0.496891  0.502419  1
  Ni  Ni15  1  0.500200  0.000092  0.999321  1
  Ni  Ni16  1  0.110635  0.612048  0.667446  1
  Ni  Ni17  1  0.612313  0.111585  0.666359  1
