# generated using pymatgen
data_Ta7Nb3Ir5
_symmetry_space_group_name_H-M   'P 1'
_cell_length_a   9.95276659
_cell_length_b   9.95276659
_cell_length_c   5.13868000
_cell_angle_alpha   90.00000000
_cell_angle_beta   90.00000000
_cell_angle_gamma   89.87857820
_symmetry_Int_Tables_number   1
_chemical_formula_structural   Ta7Nb3Ir5
_chemical_formula_sum   'Ta14 Nb6 Ir10'
_cell_volume   509.02397348
_cell_formula_units_Z   2
loop_
 _symmetry_equiv_pos_site_id
 _symmetry_equiv_pos_as_xyz
  1  'x, y, z'
loop_
 _atom_site_type_symbol
 _atom_site_label
 _atom_site_symmetry_multiplicity
 _atom_site_fract_x
 _atom_site_fract_y
 _atom_site_fract_z
 _atom_site_occupancy
  Ta  Ta0  1  0.129499  0.462172  0.999667  1
  Ta  Ta1  1  0.962149  0.370735  0.499944  1
  Ta  Ta2  1  0.037851  0.629265  0.499944  1
  Ta  Ta3  1  0.870501  0.537828  0.999667  1
  Ta  Ta4  1  0.370735  0.962149  0.499944  1
  Ta  Ta5  1  0.629265  0.037851  0.499944  1
  Ta  Ta6  1  0.462172  0.129499  0.999667  1
  Ta  Ta7  1  0.537828  0.870501  0.999667  1
  Ta  Ta8  1  0.178874  0.178874  0.250726  1
  Ta  Ta9  1  0.678981  0.321019  0.750751  1
  Ta  Ta10  1  0.321019  0.678981  0.750751  1
  Ta  Ta11  1  0.821126  0.821126  0.250726  1
  Ta  Ta12  1  0.321503  0.678497  0.248959  1
  Ta  Ta13  1  0.678497  0.321503  0.248959  1
  Nb  Nb14  1  0.395259  0.395259  0.999381  1
  Nb  Nb15  1  0.894862  0.105138  0.500845  1
  Nb  Nb16  1  0.105138  0.894862  0.500845  1
  Nb  Nb17  1  0.604741  0.604741  0.999381  1
  Nb  Nb18  1  0.178846  0.178846  0.748812  1
  Nb  Nb19  1  0.821154  0.821154  0.748812  1
  Ir  Ir20  1  0.000000  0.000000  0.004797  1
  Ir  Ir21  1  0.500000  0.500000  0.501780  1
  Ir  Ir22  1  0.263102  0.929955  0.000786  1
  Ir  Ir23  1  0.431253  0.237461  0.498222  1
  Ir  Ir24  1  0.568747  0.762539  0.498222  1
  Ir  Ir25  1  0.736898  0.070045  0.000786  1
  Ir  Ir26  1  0.237461  0.431253  0.498222  1
  Ir  Ir27  1  0.762539  0.568747  0.498222  1
  Ir  Ir28  1  0.929955  0.263102  0.000786  1
  Ir  Ir29  1  0.070045  0.736898  0.000786  1
