# generated using pymatgen
data_ErLu2In4CoPt
_symmetry_space_group_name_H-M   'P 1'
_cell_length_a   7.86253586
_cell_length_b   7.88041697
_cell_length_c   3.67521600
_cell_angle_alpha   90.00000000
_cell_angle_beta   90.00000000
_cell_angle_gamma   120.22402983
_symmetry_Int_Tables_number   1
_chemical_formula_structural   ErLu2In4CoPt
_chemical_formula_sum   'Er1 Lu2 In4 Co1 Pt1'
_cell_volume   196.76166827
_cell_formula_units_Z   1
loop_
 _symmetry_equiv_pos_site_id
 _symmetry_equiv_pos_as_xyz
  1  'x, y, z'
loop_
 _atom_site_type_symbol
 _atom_site_label
 _atom_site_symmetry_multiplicity
 _atom_site_fract_x
 _atom_site_fract_y
 _atom_site_fract_z
 _atom_site_occupancy
  Er  Er0  1  0.043529  0.742605  0.500000  1
  Lu  Lu1  1  0.701455  0.958753  0.500000  1
  Lu  Lu2  1  0.256680  0.298376  0.500000  1
  In  In3  1  0.917982  0.338660  0.000000  1
  In  In4  1  0.421454  0.081835  0.000000  1
  In  In5  1  0.658897  0.578247  0.000000  1
  In  In6  1  0.334314  0.666427  0.000000  1
  Co  Co7  1  0.666245  0.332980  0.500000  1
  Pt  Pt8  1  0.999444  0.002117  0.000000  1
