# generated using pymatgen
data_Y2Tm14MgCo4Ag3
_symmetry_space_group_name_H-M   'P 1'
_cell_length_a   9.33033115
_cell_length_b   9.33731701
_cell_length_c   9.33952400
_cell_angle_alpha   59.99218091
_cell_angle_beta   59.96740235
_cell_angle_gamma   59.91645415
_symmetry_Int_Tables_number   1
_chemical_formula_structural   Y2Tm14MgCo4Ag3
_chemical_formula_sum   'Y2 Tm14 Mg1 Co4 Ag3'
_cell_volume   574.80607293
_cell_formula_units_Z   1
loop_
 _symmetry_equiv_pos_site_id
 _symmetry_equiv_pos_as_xyz
  1  'x, y, z'
loop_
 _atom_site_type_symbol
 _atom_site_label
 _atom_site_symmetry_multiplicity
 _atom_site_fract_x
 _atom_site_fract_y
 _atom_site_fract_z
 _atom_site_occupancy
  Y  Y0  1  0.562950  0.564104  0.936473  1
  Y  Y1  1  0.935073  0.937984  0.563472  1
  Tm  Tm2  1  0.346351  0.345317  0.345954  1
  Tm  Tm3  1  0.346351  0.345317  0.962378  1
  Tm  Tm4  1  0.347263  0.962294  0.345222  1
  Tm  Tm5  1  0.951689  0.349866  0.349222  1
  Tm  Tm6  1  0.810273  0.188533  0.188676  1
  Tm  Tm7  1  0.185637  0.813996  0.814112  1
  Tm  Tm8  1  0.185637  0.813996  0.186254  1
  Tm  Tm9  1  0.810273  0.188533  0.812518  1
  Tm  Tm10  1  0.185880  0.186516  0.813802  1
  Tm  Tm11  1  0.810026  0.812269  0.188853  1
  Tm  Tm12  1  0.935940  0.561572  0.561719  1
  Tm  Tm13  1  0.561274  0.938114  0.938006  1
  Tm  Tm14  1  0.561274  0.938114  0.562606  1
  Tm  Tm15  1  0.935940  0.561572  0.940769  1
  Mg  Mg16  1  0.287528  0.570671  0.570900  1
  Co  Co17  1  0.139027  0.143114  0.141877  1
  Co  Co18  1  0.139027  0.143114  0.575982  1
  Co  Co19  1  0.138048  0.575938  0.143007  1
  Co  Co20  1  0.575612  0.140892  0.141748  1
  Ag  Ag21  1  0.583515  0.583105  0.581333  1
  Ag  Ag22  1  0.583515  0.583105  0.252047  1
  Ag  Ag23  1  0.581896  0.251967  0.583069  1
