# generated using pymatgen
data_Ho6Zn23P
_symmetry_space_group_name_H-M   'P 1'
_cell_length_a   9.02424748
_cell_length_b   9.02424698
_cell_length_c   9.02424700
_cell_angle_alpha   60.00000358
_cell_angle_beta   60.00000544
_cell_angle_gamma   60.00000177
_symmetry_Int_Tables_number   1
_chemical_formula_structural   Ho6Zn23P
_chemical_formula_sum   'Ho6 Zn23 P1'
_cell_volume   519.65843502
_cell_formula_units_Z   1
loop_
 _symmetry_equiv_pos_site_id
 _symmetry_equiv_pos_as_xyz
  1  'x, y, z'
loop_
 _atom_site_type_symbol
 _atom_site_label
 _atom_site_symmetry_multiplicity
 _atom_site_fract_x
 _atom_site_fract_y
 _atom_site_fract_z
 _atom_site_occupancy
  Ho  Ho0  1  0.711451  0.288549  0.288549  1
  Ho  Ho1  1  0.288549  0.711451  0.711451  1
  Ho  Ho2  1  0.288549  0.711451  0.288549  1
  Ho  Ho3  1  0.711451  0.288549  0.711451  1
  Ho  Ho4  1  0.288549  0.288549  0.711451  1
  Ho  Ho5  1  0.711451  0.711451  0.288549  1
  Zn  Zn6  1  0.124093  0.124093  0.124093  1
  Zn  Zn7  1  0.875907  0.875907  0.875907  1
  Zn  Zn8  1  0.124093  0.124093  0.627721  1
  Zn  Zn9  1  0.124093  0.627721  0.124093  1
  Zn  Zn10  1  0.875907  0.875907  0.372279  1
  Zn  Zn11  1  0.875907  0.372279  0.875907  1
  Zn  Zn12  1  0.627721  0.124093  0.124093  1
  Zn  Zn13  1  0.372279  0.875907  0.875907  1
  Zn  Zn14  1  0.500000  0.000000  0.000000  1
  Zn  Zn15  1  0.000000  0.500000  0.500000  1
  Zn  Zn16  1  0.000000  0.500000  0.000000  1
  Zn  Zn17  1  0.500000  0.000000  0.500000  1
  Zn  Zn18  1  0.000000  0.000000  0.500000  1
  Zn  Zn19  1  0.500000  0.500000  0.000000  1
  Zn  Zn20  1  0.329853  0.329853  0.329853  1
  Zn  Zn21  1  0.670147  0.670147  0.670147  1
  Zn  Zn22  1  0.329853  0.329853  0.010442  1
  Zn  Zn23  1  0.329853  0.010442  0.329853  1
  Zn  Zn24  1  0.670147  0.670147  0.989558  1
  Zn  Zn25  1  0.670147  0.989558  0.670147  1
  Zn  Zn26  1  0.010442  0.329853  0.329853  1
  Zn  Zn27  1  0.989558  0.670147  0.670147  1
  Zn  Zn28  1  0.000000  0.000000  0.000000  1
  P  P29  1  0.500000  0.500000  0.500000  1
