# generated using pymatgen
data_La4Nd3Ho3Pb8
_symmetry_space_group_name_H-M   'P 1'
_cell_length_a   8.47909100
_cell_length_b   8.59846101
_cell_length_c   16.22618900
_cell_angle_alpha   89.99752118
_cell_angle_beta   90.00000000
_cell_angle_gamma   90.00000000
_symmetry_Int_Tables_number   1
_chemical_formula_structural   La4Nd3Ho3Pb8
_chemical_formula_sum   'La8 Nd6 Ho6 Pb16'
_cell_volume   1183.00492403
_cell_formula_units_Z   2
loop_
 _symmetry_equiv_pos_site_id
 _symmetry_equiv_pos_as_xyz
  1  'x, y, z'
loop_
 _atom_site_type_symbol
 _atom_site_label
 _atom_site_symmetry_multiplicity
 _atom_site_fract_x
 _atom_site_fract_y
 _atom_site_fract_z
 _atom_site_occupancy
  La  La0  1  0.472936  0.678029  0.599004  1
  La  La1  1  0.972936  0.821971  0.900996  1
  La  La2  1  0.526694  0.321201  0.097986  1
  La  La3  1  0.026694  0.178799  0.402014  1
  La  La4  1  0.525666  0.320263  0.403076  1
  La  La5  1  0.025666  0.179737  0.096924  1
  La  La6  1  0.473919  0.677837  0.900517  1
  La  La7  1  0.973919  0.822163  0.599483  1
  Nd  Nd8  1  0.367517  0.843378  0.118712  1
  Nd  Nd9  1  0.867517  0.656622  0.381288  1
  Nd  Nd10  1  0.369039  0.842068  0.379218  1
  Nd  Nd11  1  0.869039  0.657932  0.120782  1
  Nd  Nd12  1  0.630522  0.156573  0.879730  1
  Nd  Nd13  1  0.130522  0.343427  0.620270  1
  Ho  Ho14  1  0.632999  0.155622  0.623533  1
  Ho  Ho15  1  0.132999  0.344378  0.876467  1
  Ho  Ho16  1  0.796730  0.494617  0.750027  1
  Ho  Ho17  1  0.296730  0.005383  0.749973  1
  Ho  Ho18  1  0.203507  0.503704  0.249301  1
  Ho  Ho19  1  0.703507  0.996296  0.250699  1
  Pb  Pb20  1  0.709756  0.966883  0.457429  1
  Pb  Pb21  1  0.209756  0.533117  0.042571  1
  Pb  Pb22  1  0.285041  0.041275  0.952854  1
  Pb  Pb23  1  0.785041  0.458725  0.547146  1
  Pb  Pb24  1  0.295937  0.038022  0.546745  1
  Pb  Pb25  1  0.795937  0.461978  0.953255  1
  Pb  Pb26  1  0.710557  0.963681  0.046124  1
  Pb  Pb27  1  0.210557  0.536319  0.453876  1
  Pb  Pb28  1  0.436699  0.370410  0.749694  1
  Pb  Pb29  1  0.936699  0.129590  0.750306  1
  Pb  Pb30  1  0.563236  0.626660  0.249489  1
  Pb  Pb31  1  0.063236  0.873340  0.250511  1
  Pb  Pb32  1  0.662446  0.849805  0.749156  1
  Pb  Pb33  1  0.162446  0.650195  0.750844  1
  Pb  Pb34  1  0.336800  0.151391  0.249857  1
  Pb  Pb35  1  0.836800  0.348609  0.250143  1
