# generated using pymatgen
data_Zr6Cu2TcOs3
_symmetry_space_group_name_H-M   'P 1'
_cell_length_a   4.66161301
_cell_length_b   6.56969600
_cell_length_c   13.98556402
_cell_angle_alpha   90.00000000
_cell_angle_beta   89.99444053
_cell_angle_gamma   90.00000000
_symmetry_Int_Tables_number   1
_chemical_formula_structural   Zr6Cu2TcOs3
_chemical_formula_sum   'Zr12 Cu4 Tc2 Os6'
_cell_volume   428.31321492
_cell_formula_units_Z   2
loop_
 _symmetry_equiv_pos_site_id
 _symmetry_equiv_pos_as_xyz
  1  'x, y, z'
loop_
 _atom_site_type_symbol
 _atom_site_label
 _atom_site_symmetry_multiplicity
 _atom_site_fract_x
 _atom_site_fract_y
 _atom_site_fract_z
 _atom_site_occupancy
  Zr  Zr0  1  0.499985  0.249984  0.001298  1
  Zr  Zr1  1  0.499985  0.750015  0.001298  1
  Zr  Zr2  1  0.999902  0.250003  0.165360  1
  Zr  Zr3  1  0.999902  0.749997  0.165360  1
  Zr  Zr4  1  0.499869  0.247819  0.331845  1
  Zr  Zr5  1  0.499869  0.752180  0.331845  1
  Zr  Zr6  1  0.999997  0.250035  0.499683  1
  Zr  Zr7  1  0.999997  0.749966  0.499683  1
  Zr  Zr8  1  0.500116  0.249978  0.667007  1
  Zr  Zr9  1  0.500116  0.750021  0.667007  1
  Zr  Zr10  1  0.000098  0.252180  0.834838  1
  Zr  Zr11  1  0.000098  0.747820  0.834838  1
  Cu  Cu12  1  0.999850  0.500000  0.331106  1
  Cu  Cu13  1  0.500030  0.000000  0.499799  1
  Cu  Cu14  1  0.000137  0.500000  0.666844  1
  Cu  Cu15  1  0.500228  0.000000  0.835460  1
  Tc  Tc16  1  0.999988  0.500000  0.998521  1
  Tc  Tc17  1  0.499886  0.000000  0.168151  1
  Os  Os18  1  0.999988  0.000000  0.998061  1
  Os  Os19  1  0.499897  0.500000  0.168603  1
  Os  Os20  1  0.999861  0.000000  0.335636  1
  Os  Os21  1  0.499996  0.500000  0.501906  1
  Os  Os22  1  0.000117  0.000000  0.664810  1
  Os  Os23  1  0.500091  0.500000  0.831042  1
