# generated using pymatgen
data_CaYMgRuO6
_symmetry_space_group_name_H-M   'P 1'
_cell_length_a   5.65533100
_cell_length_b   5.39273378
_cell_length_c   9.43394153
_cell_angle_alpha   55.14263279
_cell_angle_beta   90.00000000
_cell_angle_gamma   90.00000000
_symmetry_Int_Tables_number   1
_chemical_formula_structural   CaYMgRuO6
_chemical_formula_sum   'Ca2 Y2 Mg2 Ru2 O12'
_cell_volume   236.09116070
_cell_formula_units_Z   2
loop_
 _symmetry_equiv_pos_site_id
 _symmetry_equiv_pos_as_xyz
  1  'x, y, z'
loop_
 _atom_site_type_symbol
 _atom_site_label
 _atom_site_symmetry_multiplicity
 _atom_site_fract_x
 _atom_site_fract_y
 _atom_site_fract_z
 _atom_site_occupancy
  Ca  Ca0  1  0.191554  0.235705  0.250053  1
  Ca  Ca1  1  0.808446  0.235705  0.750053  1
  Y  Y2  1  0.318412  0.767503  0.752639  1
  Y  Y3  1  0.681588  0.767503  0.252639  1
  Mg  Mg4  1  0.756147  0.500891  0.000453  1
  Mg  Mg5  1  0.243853  0.500891  0.500453  1
  Ru  Ru6  1  0.752975  0.000378  0.500172  1
  Ru  Ru7  1  0.247025  0.000378  0.000172  1
  O  O8  1  0.049190  0.122547  0.558683  1
  O  O9  1  0.950810  0.122547  0.058683  1
  O  O10  1  0.466090  0.860535  0.442586  1
  O  O11  1  0.533910  0.860535  0.942586  1
  O  O12  1  0.786083  0.359154  0.256648  1
  O  O13  1  0.213917  0.359154  0.756648  1
  O  O14  1  0.710681  0.659089  0.743474  1
  O  O15  1  0.289319  0.659089  0.243474  1
  O  O16  1  0.938672  0.754397  0.444515  1
  O  O17  1  0.061328  0.754397  0.944515  1
  O  O18  1  0.550312  0.239801  0.550779  1
  O  O19  1  0.449688  0.239801  0.050779  1
