# generated using pymatgen
data_TbY2ErCdPd
_symmetry_space_group_name_H-M   'P 1'
_cell_length_a   9.70465379
_cell_length_b   9.70465325
_cell_length_c   9.71661600
_cell_angle_alpha   59.95921483
_cell_angle_beta   59.95921667
_cell_angle_gamma   60.08156491
_symmetry_Int_Tables_number   1
_chemical_formula_structural   TbY2ErCdPd
_chemical_formula_sum   'Tb4 Y8 Er4 Cd4 Pd4'
_cell_volume   647.08119383
_cell_formula_units_Z   4
loop_
 _symmetry_equiv_pos_site_id
 _symmetry_equiv_pos_as_xyz
  1  'x, y, z'
loop_
 _atom_site_type_symbol
 _atom_site_label
 _atom_site_symmetry_multiplicity
 _atom_site_fract_x
 _atom_site_fract_y
 _atom_site_fract_z
 _atom_site_occupancy
  Tb  Tb0  1  0.354285  0.354285  0.353660  1
  Tb  Tb1  1  0.354285  0.354285  0.937769  1
  Tb  Tb2  1  0.353660  0.937769  0.354285  1
  Tb  Tb3  1  0.937769  0.353660  0.354285  1
  Y  Y4  1  0.188304  0.188304  0.811696  1
  Y  Y5  1  0.811696  0.811696  0.188304  1
  Y  Y6  1  0.934555  0.565445  0.565445  1
  Y  Y7  1  0.565445  0.934555  0.934555  1
  Y  Y8  1  0.565445  0.934555  0.565445  1
  Y  Y9  1  0.934555  0.565445  0.934555  1
  Y  Y10  1  0.565319  0.565319  0.934681  1
  Y  Y11  1  0.934681  0.934681  0.565319  1
  Er  Er12  1  0.811451  0.188549  0.188549  1
  Er  Er13  1  0.188549  0.811451  0.811451  1
  Er  Er14  1  0.188549  0.811451  0.188549  1
  Er  Er15  1  0.811451  0.188549  0.811451  1
  Cd  Cd16  1  0.582348  0.582348  0.582342  1
  Cd  Cd17  1  0.582348  0.582348  0.252963  1
  Cd  Cd18  1  0.582342  0.252963  0.582348  1
  Cd  Cd19  1  0.252963  0.582342  0.582348  1
  Pd  Pd20  1  0.143473  0.143473  0.145779  1
  Pd  Pd21  1  0.143473  0.143473  0.567273  1
  Pd  Pd22  1  0.145779  0.567273  0.143473  1
  Pd  Pd23  1  0.567273  0.145779  0.143473  1
