# generated using pymatgen
data_La11Tb4Pr5Sn16
_symmetry_space_group_name_H-M   'P 1'
_cell_length_a   8.36632718
_cell_length_b   8.49311615
_cell_length_c   16.11818200
_cell_angle_alpha   90.03108623
_cell_angle_beta   89.95864264
_cell_angle_gamma   90.06158099
_symmetry_Int_Tables_number   1
_chemical_formula_structural   La11Tb4Pr5Sn16
_chemical_formula_sum   'La11 Tb4 Pr5 Sn16'
_cell_volume   1145.29545053
_cell_formula_units_Z   1
loop_
 _symmetry_equiv_pos_site_id
 _symmetry_equiv_pos_as_xyz
  1  'x, y, z'
loop_
 _atom_site_type_symbol
 _atom_site_label
 _atom_site_symmetry_multiplicity
 _atom_site_fract_x
 _atom_site_fract_y
 _atom_site_fract_z
 _atom_site_occupancy
  La  La0  1  0.131020  0.339567  0.380267  1
  La  La1  1  0.369269  0.839442  0.619494  1
  La  La2  1  0.868827  0.660756  0.880828  1
  La  La3  1  0.520151  0.317859  0.901704  1
  La  La4  1  0.020129  0.182105  0.598564  1
  La  La5  1  0.479862  0.682031  0.401166  1
  La  La6  1  0.979677  0.818072  0.098551  1
  La  La7  1  0.479627  0.681553  0.098530  1
  La  La8  1  0.979462  0.818850  0.401307  1
  La  La9  1  0.520522  0.318688  0.598472  1
  La  La10  1  0.020333  0.181407  0.901653  1
  Tb  Tb11  1  0.201669  0.502691  0.750272  1
  Tb  Tb12  1  0.701833  0.997337  0.749888  1
  Tb  Tb13  1  0.798200  0.497053  0.250070  1
  Tb  Tb14  1  0.298515  0.002769  0.249662  1
  Pr  Pr15  1  0.367736  0.840037  0.880243  1
  Pr  Pr16  1  0.867980  0.659723  0.619676  1
  Pr  Pr17  1  0.631870  0.159727  0.380091  1
  Pr  Pr18  1  0.131909  0.340144  0.119794  1
  Pr  Pr19  1  0.631584  0.160039  0.120173  1
  Sn  Sn20  1  0.290541  0.035022  0.045389  1
  Sn  Sn21  1  0.787923  0.465910  0.454935  1
  Sn  Sn22  1  0.712138  0.965978  0.545074  1
  Sn  Sn23  1  0.211828  0.534113  0.954878  1
  Sn  Sn24  1  0.707789  0.967174  0.954799  1
  Sn  Sn25  1  0.208039  0.533742  0.546510  1
  Sn  Sn26  1  0.291887  0.033709  0.453384  1
  Sn  Sn27  1  0.790408  0.464202  0.046667  1
  Sn  Sn28  1  0.566539  0.616807  0.749548  1
  Sn  Sn29  1  0.066414  0.883422  0.750371  1
  Sn  Sn30  1  0.434675  0.381892  0.249139  1
  Sn  Sn31  1  0.932337  0.116858  0.249631  1
  Sn  Sn32  1  0.323921  0.145780  0.750492  1
  Sn  Sn33  1  0.823997  0.354293  0.749582  1
  Sn  Sn34  1  0.675639  0.855315  0.249817  1
  Sn  Sn35  1  0.175748  0.645936  0.249380  1
