# generated using pymatgen
data_Y3Ho4Co6AgSn22
_symmetry_space_group_name_H-M   'P 1'
_cell_length_a   9.66135400
_cell_length_b   9.66145372
_cell_length_c   9.98221101
_cell_angle_alpha   90.00127956
_cell_angle_beta   90.00332504
_cell_angle_gamma   120.00065657
_symmetry_Int_Tables_number   1
_chemical_formula_structural   Y3Ho4Co6AgSn22
_chemical_formula_sum   'Y3 Ho4 Co6 Ag1 Sn22'
_cell_volume   806.92835434
_cell_formula_units_Z   1
loop_
 _symmetry_equiv_pos_site_id
 _symmetry_equiv_pos_as_xyz
  1  'x, y, z'
loop_
 _atom_site_type_symbol
 _atom_site_label
 _atom_site_symmetry_multiplicity
 _atom_site_fract_x
 _atom_site_fract_y
 _atom_site_fract_z
 _atom_site_occupancy
  Y  Y0  1  0.999966  0.999990  0.000026  1
  Y  Y1  1  0.521967  0.043867  0.693056  1
  Y  Y2  1  0.521940  0.478092  0.693061  1
  Ho  Ho3  1  0.043266  0.521631  0.306769  1
  Ho  Ho4  1  0.478370  0.956757  0.306693  1
  Ho  Ho5  1  0.478366  0.521610  0.306691  1
  Ho  Ho6  1  0.956737  0.478353  0.693203  1
  Co  Co7  1  0.167640  0.831707  0.803581  1
  Co  Co8  1  0.664302  0.832149  0.803682  1
  Co  Co9  1  0.167645  0.335937  0.803581  1
  Co  Co10  1  0.831981  0.168038  0.196566  1
  Co  Co11  1  0.336073  0.168035  0.196523  1
  Co  Co12  1  0.831980  0.663939  0.196563  1
  Ag  Ag13  1  0.999997  0.999999  0.499972  1
  Sn  Sn14  1  0.114217  0.885786  0.276182  1
  Sn  Sn15  1  0.771585  0.885813  0.276194  1
  Sn  Sn16  1  0.114197  0.228428  0.276177  1
  Sn  Sn17  1  0.886105  0.114206  0.723869  1
  Sn  Sn18  1  0.227618  0.113844  0.723960  1
  Sn  Sn19  1  0.886070  0.771889  0.723866  1
  Sn  Sn20  1  0.346045  0.999933  0.000167  1
  Sn  Sn21  1  0.653911  0.653957  0.000164  1
  Sn  Sn22  1  0.999954  0.346127  0.000088  1
  Sn  Sn23  1  0.346025  0.346114  0.000136  1
  Sn  Sn24  1  0.999946  0.653802  0.000101  1
  Sn  Sn25  1  0.653929  0.999967  0.000182  1
  Sn  Sn26  1  0.783565  0.566553  0.452436  1
  Sn  Sn27  1  0.783570  0.217005  0.452417  1
  Sn  Sn28  1  0.433388  0.216693  0.452135  1
  Sn  Sn29  1  0.216311  0.433497  0.547089  1
  Sn  Sn30  1  0.216317  0.782808  0.547059  1
  Sn  Sn31  1  0.566506  0.783253  0.546973  1
  Sn  Sn32  1  0.666667  0.333321  0.182440  1
  Sn  Sn33  1  0.333164  0.666566  0.817576  1
  Sn  Sn34  1  0.667346  0.333670  0.883504  1
  Sn  Sn35  1  0.333334  0.666664  0.117318  1
