# generated using pymatgen
data_CeDy3Al4IrRu3
_symmetry_space_group_name_H-M   'P 1'
_cell_length_a   6.98956842
_cell_length_b   4.05397900
_cell_length_c   8.16446011
_cell_angle_alpha   90.00000000
_cell_angle_beta   90.90945365
_cell_angle_gamma   90.00000000
_symmetry_Int_Tables_number   1
_chemical_formula_structural   CeDy3Al4IrRu3
_chemical_formula_sum   'Ce1 Dy3 Al4 Ir1 Ru3'
_cell_volume   231.31543579
_cell_formula_units_Z   1
loop_
 _symmetry_equiv_pos_site_id
 _symmetry_equiv_pos_as_xyz
  1  'x, y, z'
loop_
 _atom_site_type_symbol
 _atom_site_label
 _atom_site_symmetry_multiplicity
 _atom_site_fract_x
 _atom_site_fract_y
 _atom_site_fract_z
 _atom_site_occupancy
  Ce  Ce0  1  0.528469  0.750000  0.686037  1
  Dy  Dy1  1  0.964329  0.250000  0.177622  1
  Dy  Dy2  1  0.466034  0.250000  0.316804  1
  Dy  Dy3  1  0.032775  0.750000  0.819184  1
  Al  Al4  1  0.869410  0.250000  0.557995  1
  Al  Al5  1  0.356722  0.250000  0.946958  1
  Al  Al6  1  0.140414  0.750000  0.439097  1
  Al  Al7  1  0.635110  0.750000  0.062829  1
  Ir  Ir8  1  0.773113  0.750000  0.377680  1
  Ru  Ru9  1  0.724031  0.250000  0.869263  1
  Ru  Ru10  1  0.246283  0.250000  0.624090  1
  Ru  Ru11  1  0.263311  0.750000  0.122440  1
