# generated using pymatgen
data_TbFeCo3B
_symmetry_space_group_name_H-M   'P 1'
_cell_length_a   5.04984600
_cell_length_b   5.05051169
_cell_length_c   6.79768200
_cell_angle_alpha   90.00000000
_cell_angle_beta   90.00000000
_cell_angle_gamma   119.99565307
_symmetry_Int_Tables_number   1
_chemical_formula_structural   TbFeCo3B
_chemical_formula_sum   'Tb2 Fe2 Co6 B2'
_cell_volume   150.14954212
_cell_formula_units_Z   2
loop_
 _symmetry_equiv_pos_site_id
 _symmetry_equiv_pos_as_xyz
  1  'x, y, z'
loop_
 _atom_site_type_symbol
 _atom_site_label
 _atom_site_symmetry_multiplicity
 _atom_site_fract_x
 _atom_site_fract_y
 _atom_site_fract_z
 _atom_site_occupancy
  Tb  Tb0  1  0.999975  0.000000  0.000000  1
  Tb  Tb1  1  0.999990  0.000000  0.500000  1
  Fe  Fe2  1  0.333306  0.666665  0.000000  1
  Fe  Fe3  1  0.666642  0.333335  0.000000  1
  Co  Co4  1  0.499989  0.000000  0.288138  1
  Co  Co5  1  0.499984  0.500002  0.288147  1
  Co  Co6  1  0.999981  0.499998  0.288147  1
  Co  Co7  1  0.499989  0.000000  0.711862  1
  Co  Co8  1  0.499984  0.500002  0.711853  1
  Co  Co9  1  0.999981  0.499998  0.711853  1
  B  B10  1  0.333321  0.666664  0.500000  1
  B  B11  1  0.666657  0.333336  0.500000  1
