# generated using pymatgen
data_Y2Lu2AlRh
_symmetry_space_group_name_H-M   'P 1'
_cell_length_a   9.43434691
_cell_length_b   9.43478146
_cell_length_c   9.46017804
_cell_angle_alpha   60.03011325
_cell_angle_beta   60.02522726
_cell_angle_gamma   60.28179405
_symmetry_Int_Tables_number   1
_chemical_formula_structural   Y2Lu2AlRh
_chemical_formula_sum   'Y8 Lu8 Al4 Rh4'
_cell_volume   596.93446701
_cell_formula_units_Z   4
loop_
 _symmetry_equiv_pos_site_id
 _symmetry_equiv_pos_as_xyz
  1  'x, y, z'
loop_
 _atom_site_type_symbol
 _atom_site_label
 _atom_site_symmetry_multiplicity
 _atom_site_fract_x
 _atom_site_fract_y
 _atom_site_fract_z
 _atom_site_occupancy
  Y  Y0  1  0.442532  0.442525  0.056612  1
  Y  Y1  1  0.058372  0.058402  0.441455  1
  Y  Y2  1  0.187410  0.812752  0.812728  1
  Y  Y3  1  0.812203  0.189211  0.189336  1
  Y  Y4  1  0.812764  0.187459  0.812714  1
  Y  Y5  1  0.189214  0.812137  0.189357  1
  Y  Y6  1  0.812584  0.812669  0.187884  1
  Y  Y7  1  0.189677  0.189670  0.811869  1
  Lu  Lu8  1  0.599618  0.599592  0.598736  1
  Lu  Lu9  1  0.604413  0.604379  0.191943  1
  Lu  Lu10  1  0.603353  0.192033  0.604399  1
  Lu  Lu11  1  0.192037  0.603328  0.604413  1
  Lu  Lu12  1  0.055541  0.443712  0.443261  1
  Lu  Lu13  1  0.442306  0.057598  0.057349  1
  Lu  Lu14  1  0.443616  0.055604  0.443225  1
  Lu  Lu15  1  0.057638  0.442304  0.057354  1
  Al  Al16  1  0.827862  0.827943  0.827862  1
  Al  Al17  1  0.826678  0.826686  0.517849  1
  Al  Al18  1  0.826410  0.518201  0.826826  1
  Al  Al19  1  0.518261  0.826389  0.826821  1
  Rh  Rh20  1  0.391981  0.391946  0.396903  1
  Rh  Rh21  1  0.389612  0.389653  0.821433  1
  Rh  Rh22  1  0.394549  0.821295  0.389865  1
  Rh  Rh23  1  0.821372  0.394515  0.389805  1
