# generated using pymatgen
data_Tb4SmNb3(Co4P3)4
_symmetry_space_group_name_H-M   'P 1'
_cell_length_a   12.22088900
_cell_length_b   12.22088846
_cell_length_c   3.71622800
_cell_angle_alpha   90.00000000
_cell_angle_beta   90.00000000
_cell_angle_gamma   119.99999875
_symmetry_Int_Tables_number   1
_chemical_formula_structural   Tb4SmNb3(Co4P3)4
_chemical_formula_sum   'Tb4 Sm1 Nb3 Co16 P12'
_cell_volume   480.66064880
_cell_formula_units_Z   1
loop_
 _symmetry_equiv_pos_site_id
 _symmetry_equiv_pos_as_xyz
  1  'x, y, z'
loop_
 _atom_site_type_symbol
 _atom_site_label
 _atom_site_symmetry_multiplicity
 _atom_site_fract_x
 _atom_site_fract_y
 _atom_site_fract_z
 _atom_site_occupancy
  Tb  Tb0  1  0.816087  0.999842  0.500000  1
  Tb  Tb1  1  0.000158  0.816246  0.500000  1
  Tb  Tb2  1  0.183754  0.183913  0.500000  1
  Tb  Tb3  1  0.666667  0.333333  0.000000  1
  Sm  Sm4  1  0.333333  0.666667  0.000000  1
  Nb  Nb5  1  0.444085  0.000634  0.000000  1
  Nb  Nb6  1  0.999366  0.443451  0.000000  1
  Nb  Nb7  1  0.556549  0.555915  0.000000  1
  Co  Co8  1  0.279231  0.000846  0.500000  1
  Co  Co9  1  0.999154  0.278385  0.500000  1
  Co  Co10  1  0.721615  0.720769  0.500000  1
  Co  Co11  1  0.627171  0.803433  0.000000  1
  Co  Co12  1  0.196567  0.823738  0.000000  1
  Co  Co13  1  0.176262  0.372829  0.000000  1
  Co  Co14  1  0.374037  0.177391  0.000000  1
  Co  Co15  1  0.803354  0.625963  0.000000  1
  Co  Co16  1  0.822609  0.196646  0.000000  1
  Co  Co17  1  0.521290  0.875103  0.500000  1
  Co  Co18  1  0.124897  0.646187  0.500000  1
  Co  Co19  1  0.353813  0.478710  0.500000  1
  Co  Co20  1  0.481008  0.354163  0.500000  1
  Co  Co21  1  0.873155  0.518992  0.500000  1
  Co  Co22  1  0.645837  0.126845  0.500000  1
  Co  Co23  1  0.000000  0.000000  0.000000  1
  P  P24  1  0.178751  0.000539  0.000000  1
  P  P25  1  0.999461  0.178212  0.000000  1
  P  P26  1  0.821788  0.821249  0.000000  1
  P  P27  1  0.523348  0.689572  0.500000  1
  P  P28  1  0.310428  0.833776  0.500000  1
  P  P29  1  0.166224  0.476652  0.500000  1
  P  P30  1  0.478781  0.168032  0.500000  1
  P  P31  1  0.689251  0.521219  0.500000  1
  P  P32  1  0.831968  0.310749  0.500000  1
  P  P33  1  0.642937  0.999973  0.000000  1
  P  P34  1  0.000027  0.642963  0.000000  1
  P  P35  1  0.357037  0.357063  0.000000  1
