# generated using pymatgen
data_CeNd4Tm3(Si3Rh)4
_symmetry_space_group_name_H-M   'P 1'
_cell_length_a   8.22616800
_cell_length_b   8.22616760
_cell_length_c   8.10984500
_cell_angle_alpha   90.00000000
_cell_angle_beta   90.00000000
_cell_angle_gamma   120.00000162
_symmetry_Int_Tables_number   1
_chemical_formula_structural   CeNd4Tm3(Si3Rh)4
_chemical_formula_sum   'Ce1 Nd4 Tm3 Si12 Rh4'
_cell_volume   475.26770735
_cell_formula_units_Z   1
loop_
 _symmetry_equiv_pos_site_id
 _symmetry_equiv_pos_as_xyz
  1  'x, y, z'
loop_
 _atom_site_type_symbol
 _atom_site_label
 _atom_site_symmetry_multiplicity
 _atom_site_fract_x
 _atom_site_fract_y
 _atom_site_fract_z
 _atom_site_occupancy
  Ce  Ce0  1  0.000000  0.000000  0.750000  1
  Nd  Nd1  1  0.000000  0.000000  0.250000  1
  Nd  Nd2  1  0.501398  0.498602  0.250000  1
  Nd  Nd3  1  0.997207  0.498602  0.250000  1
  Nd  Nd4  1  0.501398  0.002793  0.250000  1
  Tm  Tm5  1  0.496437  0.503563  0.750000  1
  Tm  Tm6  1  0.496437  0.992876  0.750000  1
  Tm  Tm7  1  0.007124  0.503563  0.750000  1
  Si  Si8  1  0.832336  0.167664  0.994169  1
  Si  Si9  1  0.832336  0.664674  0.994169  1
  Si  Si10  1  0.335326  0.167664  0.994169  1
  Si  Si11  1  0.832336  0.167664  0.505831  1
  Si  Si12  1  0.832336  0.664674  0.505831  1
  Si  Si13  1  0.335326  0.167664  0.505831  1
  Si  Si14  1  0.166174  0.833826  0.510402  1
  Si  Si15  1  0.667650  0.833826  0.510402  1
  Si  Si16  1  0.166174  0.332350  0.510402  1
  Si  Si17  1  0.166174  0.833826  0.989598  1
  Si  Si18  1  0.667650  0.833826  0.989598  1
  Si  Si19  1  0.166174  0.332350  0.989598  1
  Rh  Rh20  1  0.666667  0.333333  0.958589  1
  Rh  Rh21  1  0.666667  0.333333  0.541411  1
  Rh  Rh22  1  0.333333  0.666667  0.512577  1
  Rh  Rh23  1  0.333333  0.666667  0.987423  1
