# generated using pymatgen
data_Ho8Si8Pt5Au3
_symmetry_space_group_name_H-M   'P 1'
_cell_length_a   4.29856900
_cell_length_b   7.49036693
_cell_length_c   14.08448100
_cell_angle_alpha   89.94130720
_cell_angle_beta   90.00000000
_cell_angle_gamma   90.00000000
_symmetry_Int_Tables_number   1
_chemical_formula_structural   Ho8Si8Pt5Au3
_chemical_formula_sum   'Ho8 Si8 Pt5 Au3'
_cell_volume   453.48989657
_cell_formula_units_Z   1
loop_
 _symmetry_equiv_pos_site_id
 _symmetry_equiv_pos_as_xyz
  1  'x, y, z'
loop_
 _atom_site_type_symbol
 _atom_site_label
 _atom_site_symmetry_multiplicity
 _atom_site_fract_x
 _atom_site_fract_y
 _atom_site_fract_z
 _atom_site_occupancy
  Ho  Ho0  1  0.000000  0.298694  0.002348  1
  Ho  Ho1  1  0.500000  0.705211  0.499503  1
  Ho  Ho2  1  0.000000  0.290089  0.497965  1
  Ho  Ho3  1  0.500000  0.706846  0.003576  1
  Ho  Ho4  1  0.000000  0.203545  0.247201  1
  Ho  Ho5  1  0.500000  0.795504  0.246728  1
  Ho  Ho6  1  0.000000  0.203028  0.748941  1
  Ho  Ho7  1  0.500000  0.798584  0.752467  1
  Si  Si8  1  0.000000  0.914621  0.591061  1
  Si  Si9  1  0.500000  0.084881  0.910712  1
  Si  Si10  1  0.000000  0.916633  0.408247  1
  Si  Si11  1  0.500000  0.092260  0.093799  1
  Si  Si12  1  0.000000  0.591288  0.145299  1
  Si  Si13  1  0.500000  0.399130  0.349199  1
  Si  Si14  1  0.000000  0.604336  0.858672  1
  Si  Si15  1  0.500000  0.396974  0.639706  1
  Pt  Pt16  1  0.500000  0.070005  0.608767  1
  Pt  Pt17  1  0.000000  0.930113  0.892067  1
  Pt  Pt18  1  0.500000  0.072207  0.390647  1
  Pt  Pt19  1  0.000000  0.924388  0.108852  1
  Pt  Pt20  1  0.500000  0.416414  0.154552  1
  Au  Au21  1  0.000000  0.584577  0.348969  1
  Au  Au22  1  0.500000  0.417182  0.845812  1
  Au  Au23  1  0.000000  0.583488  0.654908  1
