# generated using pymatgen
data_HfZr3Sc2As3
_symmetry_space_group_name_H-M   'P 1'
_cell_length_a   7.31498341
_cell_length_b   7.31498266
_cell_length_c   3.81618600
_cell_angle_alpha   90.00000000
_cell_angle_beta   90.00000000
_cell_angle_gamma   119.83693807
_symmetry_Int_Tables_number   1
_chemical_formula_structural   HfZr3Sc2As3
_chemical_formula_sum   'Hf1 Zr3 Sc2 As3'
_cell_volume   177.13242473
_cell_formula_units_Z   1
loop_
 _symmetry_equiv_pos_site_id
 _symmetry_equiv_pos_as_xyz
  1  'x, y, z'
loop_
 _atom_site_type_symbol
 _atom_site_label
 _atom_site_symmetry_multiplicity
 _atom_site_fract_x
 _atom_site_fract_y
 _atom_site_fract_z
 _atom_site_occupancy
  Hf  Hf0  1  0.747111  0.747110  0.000000  1
  Zr  Zr1  1  0.591613  0.994949  0.500000  1
  Zr  Zr2  1  0.410705  0.410704  0.500000  1
  Zr  Zr3  1  0.994949  0.591614  0.500000  1
  Sc  Sc4  1  0.256002  0.999928  0.000000  1
  Sc  Sc5  1  0.999928  0.256002  0.000000  1
  As  As6  1  0.665733  0.331312  0.000000  1
  As  As7  1  0.331312  0.665733  0.000000  1
  As  As8  1  0.002651  0.002651  0.500000  1
