# generated using pymatgen
data_KRb5Dy2Br12
_symmetry_space_group_name_H-M   'P 1'
_cell_length_a   9.79309800
_cell_length_b   9.79112134
_cell_length_c   8.16099400
_cell_angle_alpha   90.00000000
_cell_angle_beta   90.00000000
_cell_angle_gamma   90.26196888
_symmetry_Int_Tables_number   1
_chemical_formula_structural   KRb5Dy2Br12
_chemical_formula_sum   'K1 Rb5 Dy2 Br12'
_cell_volume   782.51208317
_cell_formula_units_Z   1
loop_
 _symmetry_equiv_pos_site_id
 _symmetry_equiv_pos_as_xyz
  1  'x, y, z'
loop_
 _atom_site_type_symbol
 _atom_site_label
 _atom_site_symmetry_multiplicity
 _atom_site_fract_x
 _atom_site_fract_y
 _atom_site_fract_z
 _atom_site_occupancy
  K  K0  1  0.544137  0.777317  0.000000  1
  Rb  Rb1  1  0.998739  0.001914  0.500000  1
  Rb  Rb2  1  0.000740  0.999585  0.000000  1
  Rb  Rb3  1  0.231727  0.554425  0.500000  1
  Rb  Rb4  1  0.773434  0.447331  0.500000  1
  Rb  Rb5  1  0.447329  0.232751  0.000000  1
  Dy  Dy6  1  0.500114  0.994807  0.500000  1
  Dy  Dy7  1  0.999930  0.503355  0.000000  1
  Br  Br8  1  0.696464  0.029115  0.749601  1
  Br  Br9  1  0.302148  0.958320  0.747690  1
  Br  Br10  1  0.966346  0.699477  0.247789  1
  Br  Br11  1  0.035440  0.303578  0.245145  1
  Br  Br12  1  0.302148  0.958320  0.252310  1
  Br  Br13  1  0.696464  0.029115  0.250399  1
  Br  Br14  1  0.035440  0.303578  0.754855  1
  Br  Br15  1  0.966346  0.699477  0.752211  1
  Br  Br16  1  0.545048  0.712865  0.500000  1
  Br  Br17  1  0.458171  0.278039  0.500000  1
  Br  Br18  1  0.284981  0.549154  0.000000  1
  Br  Br19  1  0.714854  0.467480  0.000000  1
