# generated using pymatgen
data_Y5Ru2C7
_symmetry_space_group_name_H-M   'P 1'
_cell_length_a   8.20669476
_cell_length_b   8.20669343
_cell_length_c   3.52385400
_cell_angle_alpha   90.00000000
_cell_angle_beta   90.00000000
_cell_angle_gamma   122.06103057
_symmetry_Int_Tables_number   1
_chemical_formula_structural   Y5Ru2C7
_chemical_formula_sum   'Y5 Ru2 C7'
_cell_volume   201.13399107
_cell_formula_units_Z   1
loop_
 _symmetry_equiv_pos_site_id
 _symmetry_equiv_pos_as_xyz
  1  'x, y, z'
loop_
 _atom_site_type_symbol
 _atom_site_label
 _atom_site_symmetry_multiplicity
 _atom_site_fract_x
 _atom_site_fract_y
 _atom_site_fract_z
 _atom_site_occupancy
  Y  Y0  1  0.500000  0.500000  0.000000  1
  Y  Y1  1  0.076668  0.338423  0.500000  1
  Y  Y2  1  0.923332  0.661577  0.500000  1
  Y  Y3  1  0.661577  0.923332  0.500000  1
  Y  Y4  1  0.338423  0.076668  0.500000  1
  Ru  Ru5  1  0.712981  0.287019  0.000000  1
  Ru  Ru6  1  0.287019  0.712981  0.000000  1
  C  C7  1  0.630580  0.369420  0.500000  1
  C  C8  1  0.369420  0.630580  0.500000  1
  C  C9  1  0.000000  0.000000  0.000000  1
  C  C10  1  0.170710  0.170710  0.000000  1
  C  C11  1  0.829290  0.829290  0.000000  1
  C  C12  1  0.000000  0.500000  0.000000  1
  C  C13  1  0.500000  0.000000  0.000000  1
