# generated using pymatgen
data_Nd10AlSi3Pb2
_symmetry_space_group_name_H-M   'P 1'
_cell_length_a   8.06122427
_cell_length_b   8.06122512
_cell_length_c   9.25724300
_cell_angle_alpha   115.69704599
_cell_angle_beta   115.69704889
_cell_angle_gamma   90.23534361
_symmetry_Int_Tables_number   1
_chemical_formula_structural   Nd10AlSi3Pb2
_chemical_formula_sum   'Nd10 Al1 Si3 Pb2'
_cell_volume   474.58941623
_cell_formula_units_Z   1
loop_
 _symmetry_equiv_pos_site_id
 _symmetry_equiv_pos_as_xyz
  1  'x, y, z'
loop_
 _atom_site_type_symbol
 _atom_site_label
 _atom_site_symmetry_multiplicity
 _atom_site_fract_x
 _atom_site_fract_y
 _atom_site_fract_z
 _atom_site_occupancy
  Nd  Nd0  1  0.497667  0.495902  0.000000  1
  Nd  Nd1  1  0.004098  0.002333  0.000000  1
  Nd  Nd2  1  0.976940  0.805102  0.282042  1
  Nd  Nd3  1  0.307908  0.471704  0.279613  1
  Nd  Nd4  1  0.812277  0.316600  0.277152  1
  Nd  Nd5  1  0.460551  0.964873  0.277152  1
  Nd  Nd6  1  0.028296  0.192092  0.720387  1
  Nd  Nd7  1  0.694898  0.523060  0.717958  1
  Nd  Nd8  1  0.183400  0.687723  0.722848  1
  Nd  Nd9  1  0.535127  0.039449  0.722848  1
  Al  Al10  1  0.620663  0.879337  0.000000  1
  Si  Si11  1  0.379239  0.120761  0.000000  1
  Si  Si12  1  0.880587  0.379584  0.000000  1
  Si  Si13  1  0.120416  0.619413  0.000000  1
  Pb  Pb14  1  0.748968  0.751032  0.500000  1
  Pb  Pb15  1  0.248968  0.251032  0.500000  1
