# generated using pymatgen
data_Ce2NpS5
_symmetry_space_group_name_H-M   'P 1'
_cell_length_a   7.43360800
_cell_length_b   8.07534300
_cell_length_c   11.79150300
_cell_angle_alpha   90.00000000
_cell_angle_beta   90.00000000
_cell_angle_gamma   90.00000000
_symmetry_Int_Tables_number   1
_chemical_formula_structural   Ce2NpS5
_chemical_formula_sum   'Ce8 Np4 S20'
_cell_volume   707.83135921
_cell_formula_units_Z   4
loop_
 _symmetry_equiv_pos_site_id
 _symmetry_equiv_pos_as_xyz
  1  'x, y, z'
loop_
 _atom_site_type_symbol
 _atom_site_label
 _atom_site_symmetry_multiplicity
 _atom_site_fract_x
 _atom_site_fract_y
 _atom_site_fract_z
 _atom_site_occupancy
  Ce  Ce0  1  0.023667  0.001376  0.677549  1
  Ce  Ce1  1  0.523667  0.998624  0.822451  1
  Ce  Ce2  1  0.476333  0.498624  0.177549  1
  Ce  Ce3  1  0.976333  0.501376  0.322451  1
  Ce  Ce4  1  0.976333  0.998624  0.322451  1
  Ce  Ce5  1  0.476333  0.001376  0.177549  1
  Ce  Ce6  1  0.523667  0.501376  0.822451  1
  Ce  Ce7  1  0.023667  0.498624  0.677549  1
  Np  Np8  1  0.569657  0.250000  0.508052  1
  Np  Np9  1  0.069657  0.750000  0.991948  1
  Np  Np10  1  0.930343  0.250000  0.008052  1
  Np  Np11  1  0.430343  0.750000  0.491948  1
  S  S12  1  0.333140  0.250000  0.688828  1
  S  S13  1  0.833140  0.750000  0.811172  1
  S  S14  1  0.166860  0.250000  0.188828  1
  S  S15  1  0.666860  0.750000  0.311172  1
  S  S16  1  0.958799  0.250000  0.501314  1
  S  S17  1  0.458799  0.750000  0.998686  1
  S  S18  1  0.541201  0.250000  0.001314  1
  S  S19  1  0.041201  0.750000  0.498686  1
  S  S20  1  0.664518  0.542100  0.595667  1
  S  S21  1  0.164518  0.457900  0.904333  1
  S  S22  1  0.835482  0.957900  0.095667  1
  S  S23  1  0.335482  0.042100  0.404333  1
  S  S24  1  0.335482  0.457900  0.404333  1
  S  S25  1  0.835482  0.542100  0.095667  1
  S  S26  1  0.164518  0.042100  0.904333  1
  S  S27  1  0.664518  0.957900  0.595667  1
  S  S28  1  0.801442  0.250000  0.784679  1
  S  S29  1  0.301442  0.750000  0.715321  1
  S  S30  1  0.698558  0.250000  0.284679  1
  S  S31  1  0.198558  0.750000  0.215321  1
