# generated using pymatgen
data_Dy9ErAl4(SnC4)2
_symmetry_space_group_name_H-M   'P 1'
_cell_length_a   10.94900853
_cell_length_b   10.95555270
_cell_length_c   3.54475600
_cell_angle_alpha   90.00000000
_cell_angle_beta   90.00000000
_cell_angle_gamma   90.04978304
_symmetry_Int_Tables_number   1
_chemical_formula_structural   Dy9ErAl4(SnC4)2
_chemical_formula_sum   'Dy9 Er1 Al4 Sn2 C8'
_cell_volume   425.20197089
_cell_formula_units_Z   1
loop_
 _symmetry_equiv_pos_site_id
 _symmetry_equiv_pos_as_xyz
  1  'x, y, z'
loop_
 _atom_site_type_symbol
 _atom_site_label
 _atom_site_symmetry_multiplicity
 _atom_site_fract_x
 _atom_site_fract_y
 _atom_site_fract_z
 _atom_site_occupancy
  Dy  Dy0  1  0.551228  0.733184  0.500000  1
  Dy  Dy1  1  0.449895  0.266900  0.500000  1
  Dy  Dy2  1  0.049978  0.766939  0.500000  1
  Dy  Dy3  1  0.949783  0.233081  0.500000  1
  Dy  Dy4  1  0.267222  0.550554  0.500000  1
  Dy  Dy5  1  0.732663  0.449467  0.500000  1
  Dy  Dy6  1  0.232419  0.049937  0.500000  1
  Dy  Dy7  1  0.499910  0.999988  0.000000  1
  Dy  Dy8  1  0.999940  0.500104  0.000000  1
  Er  Er9  1  0.765606  0.950283  0.500000  1
  Al  Al10  1  0.703978  0.203968  0.000000  1
  Al  Al11  1  0.296962  0.795097  0.000000  1
  Al  Al12  1  0.204967  0.296817  0.000000  1
  Al  Al13  1  0.795891  0.704187  0.000000  1
  Sn  Sn14  1  0.500012  0.499911  0.000000  1
  Sn  Sn15  1  0.997416  0.999587  0.000000  1
  C  C16  1  0.634189  0.132363  0.500000  1
  C  C17  1  0.366886  0.866939  0.500000  1
  C  C18  1  0.133173  0.366366  0.500000  1
  C  C19  1  0.866882  0.633321  0.500000  1
  C  C20  1  0.162585  0.662693  0.000000  1
  C  C21  1  0.837453  0.337233  0.000000  1
  C  C22  1  0.663669  0.838827  0.000000  1
  C  C23  1  0.337293  0.162252  0.000000  1
