# generated using pymatgen
data_CeRe3Si2W
_symmetry_space_group_name_H-M   'P 1'
_cell_length_a   7.08758100
_cell_length_b   7.89377800
_cell_length_c   4.19153500
_cell_angle_alpha   90.00000000
_cell_angle_beta   90.00000000
_cell_angle_gamma   90.00000000
_symmetry_Int_Tables_number   1
_chemical_formula_structural   CeRe3Si2W
_chemical_formula_sum   'Ce2 Re6 Si4 W2'
_cell_volume   234.50712403
_cell_formula_units_Z   2
loop_
 _symmetry_equiv_pos_site_id
 _symmetry_equiv_pos_as_xyz
  1  'x, y, z'
loop_
 _atom_site_type_symbol
 _atom_site_label
 _atom_site_symmetry_multiplicity
 _atom_site_fract_x
 _atom_site_fract_y
 _atom_site_fract_z
 _atom_site_occupancy
  Ce  Ce0  1  0.498512  0.497807  0.000000  1
  Ce  Ce1  1  0.998512  0.002193  0.500000  1
  Re  Re2  1  0.075355  0.337669  0.000000  1
  Re  Re3  1  0.926853  0.657791  0.000000  1
  Re  Re4  1  0.426853  0.842209  0.500000  1
  Re  Re5  1  0.575355  0.162331  0.500000  1
  Re  Re6  1  0.344777  0.109938  0.000000  1
  Re  Re7  1  0.844777  0.390062  0.500000  1
  Si  Si8  1  0.230463  0.812645  0.000000  1
  Si  Si9  1  0.771597  0.192348  0.000000  1
  Si  Si10  1  0.730463  0.687355  0.500000  1
  Si  Si11  1  0.271597  0.307652  0.500000  1
  W  W12  1  0.652443  0.891022  0.000000  1
  W  W13  1  0.152443  0.608978  0.500000  1
