# generated using pymatgen
data_BeFe2CoSi2
_symmetry_space_group_name_H-M   'P 1'
_cell_length_a   3.82696300
_cell_length_b   3.82696260
_cell_length_c   4.72041200
_cell_angle_alpha   90.00000000
_cell_angle_beta   90.00000000
_cell_angle_gamma   119.99999484
_symmetry_Int_Tables_number   1
_chemical_formula_structural   BeFe2CoSi2
_chemical_formula_sum   'Be1 Fe2 Co1 Si2'
_cell_volume   59.87134863
_cell_formula_units_Z   1
loop_
 _symmetry_equiv_pos_site_id
 _symmetry_equiv_pos_as_xyz
  1  'x, y, z'
loop_
 _atom_site_type_symbol
 _atom_site_label
 _atom_site_symmetry_multiplicity
 _atom_site_fract_x
 _atom_site_fract_y
 _atom_site_fract_z
 _atom_site_occupancy
  Be  Be0  1  0.000000  0.000000  0.497450  1
  Fe  Fe1  1  0.666667  0.333333  0.331675  1
  Fe  Fe2  1  0.000000  0.000000  0.997579  1
  Co  Co3  1  0.333333  0.666667  0.669347  1
  Si  Si4  1  0.666667  0.333333  0.821268  1
  Si  Si5  1  0.333333  0.666667  0.182682  1
