# generated using pymatgen
data_Hf4Ti2PdRh9
_symmetry_space_group_name_H-M   'P 1'
_cell_length_a   4.22536700
_cell_length_b   5.55300324
_cell_length_c   10.87092605
_cell_angle_alpha   89.01583962
_cell_angle_beta   90.00000000
_cell_angle_gamma   90.00000000
_symmetry_Int_Tables_number   1
_chemical_formula_structural   Hf4Ti2PdRh9
_chemical_formula_sum   'Hf4 Ti2 Pd1 Rh9'
_cell_volume   255.03209210
_cell_formula_units_Z   1
loop_
 _symmetry_equiv_pos_site_id
 _symmetry_equiv_pos_as_xyz
  1  'x, y, z'
loop_
 _atom_site_type_symbol
 _atom_site_label
 _atom_site_symmetry_multiplicity
 _atom_site_fract_x
 _atom_site_fract_y
 _atom_site_fract_z
 _atom_site_occupancy
  Hf  Hf0  1  0.500000  0.152384  0.642342  1
  Hf  Hf1  1  0.500000  0.837987  0.356364  1
  Hf  Hf2  1  0.500000  0.669403  0.859428  1
  Hf  Hf3  1  0.500000  0.339502  0.143917  1
  Ti  Ti4  1  0.000000  0.492533  0.493385  1
  Ti  Ti5  1  0.000000  0.004695  0.000006  1
  Pd  Pd6  1  0.000000  0.410401  0.743630  1
  Rh  Rh7  1  0.500000  0.181219  0.895160  1
  Rh  Rh8  1  0.500000  0.823973  0.105018  1
  Rh  Rh9  1  0.500000  0.669057  0.603882  1
  Rh  Rh10  1  0.500000  0.318865  0.395956  1
  Rh  Rh11  1  0.000000  0.595196  0.262837  1
  Rh  Rh12  1  0.000000  0.997744  0.498858  1
  Rh  Rh13  1  0.000000  0.504957  0.002998  1
  Rh  Rh14  1  0.000000  0.094729  0.237168  1
  Rh  Rh15  1  0.000000  0.907355  0.759051  1
