# generated using pymatgen
data_K11LiV4O16
_symmetry_space_group_name_H-M   'P 1'
_cell_length_a   8.05697438
_cell_length_b   8.05601610
_cell_length_c   10.57837923
_cell_angle_alpha   112.36422121
_cell_angle_beta   112.38635005
_cell_angle_gamma   89.99731050
_symmetry_Int_Tables_number   1
_chemical_formula_structural   K11LiV4O16
_chemical_formula_sum   'K11 Li1 V4 O16'
_cell_volume   578.62780536
_cell_formula_units_Z   1
loop_
 _symmetry_equiv_pos_site_id
 _symmetry_equiv_pos_as_xyz
  1  'x, y, z'
loop_
 _atom_site_type_symbol
 _atom_site_label
 _atom_site_symmetry_multiplicity
 _atom_site_fract_x
 _atom_site_fract_y
 _atom_site_fract_z
 _atom_site_occupancy
  K  K0  1  0.290835  0.290851  0.581625  1
  K  K1  1  0.500059  0.000046  0.000016  1
  K  K2  1  0.250061  0.750029  0.500014  1
  K  K3  1  0.923201  0.923248  0.240475  1
  K  K4  1  0.076886  0.682909  0.759699  1
  K  K5  1  0.709164  0.709180  0.418442  1
  K  K6  1  0.000022  0.500058  0.000002  1
  K  K7  1  0.682902  0.076893  0.759689  1
  K  K8  1  0.317028  0.317031  0.240316  1
  K  K9  1  0.750011  0.250059  0.500012  1
  K  K10  1  0.500013  0.500013  0.000037  1
  Li  Li11  1  0.999941  0.999970  0.999997  1
  V  V12  1  0.867609  0.380791  0.248315  1
  V  V13  1  0.132464  0.132314  0.751665  1
  V  V14  1  0.619275  0.619244  0.751710  1
  V  V15  1  0.380701  0.867490  0.248283  1
  O  O16  1  0.417722  0.014053  0.431640  1
  O  O17  1  0.799023  0.799045  0.882858  1
  O  O18  1  0.643355  0.332611  0.224181  1
  O  O19  1  0.332599  0.643338  0.224181  1
  O  O20  1  0.014070  0.417747  0.431676  1
  O  O21  1  0.580870  0.891481  0.224087  1
  O  O22  1  0.356625  0.108352  0.775801  1
  O  O23  1  0.200965  0.916153  0.117038  1
  O  O24  1  0.582223  0.582277  0.568290  1
  O  O25  1  0.083831  0.083765  0.882890  1
  O  O26  1  0.667417  0.419176  0.775919  1
  O  O27  1  0.985934  0.985929  0.568278  1
  O  O28  1  0.891480  0.580895  0.224086  1
  O  O29  1  0.916193  0.201021  0.117102  1
  O  O30  1  0.108378  0.356623  0.775780  1
  O  O31  1  0.419142  0.667408  0.775896  1
