# generated using pymatgen
data_Hf3Re2SiGe2Ru
_symmetry_space_group_name_H-M   'P 1'
_cell_length_a   7.02193002
_cell_length_b   7.02193034
_cell_length_c   3.43119300
_cell_angle_alpha   90.00000000
_cell_angle_beta   90.00000000
_cell_angle_gamma   120.31196473
_symmetry_Int_Tables_number   1
_chemical_formula_structural   Hf3Re2SiGe2Ru
_chemical_formula_sum   'Hf3 Re2 Si1 Ge2 Ru1'
_cell_volume   146.05450557
_cell_formula_units_Z   1
loop_
 _symmetry_equiv_pos_site_id
 _symmetry_equiv_pos_as_xyz
  1  'x, y, z'
loop_
 _atom_site_type_symbol
 _atom_site_label
 _atom_site_symmetry_multiplicity
 _atom_site_fract_x
 _atom_site_fract_y
 _atom_site_fract_z
 _atom_site_occupancy
  Hf  Hf0  1  0.394781  0.394781  0.500000  1
  Hf  Hf1  1  0.599711  0.005854  0.500000  1
  Hf  Hf2  1  0.005854  0.599711  0.500000  1
  Re  Re3  1  0.249185  0.999903  0.000000  1
  Re  Re4  1  0.999903  0.249185  0.000000  1
  Si  Si5  1  0.992401  0.992401  0.500000  1
  Ge  Ge6  1  0.668138  0.338607  0.000000  1
  Ge  Ge7  1  0.338607  0.668138  0.000000  1
  Ru  Ru8  1  0.751423  0.751423  0.000000  1
