# generated using pymatgen
data_AgHgPt2O7
_symmetry_space_group_name_H-M   'P 1'
_cell_length_a   7.27164632
_cell_length_b   7.27158311
_cell_length_c   7.24699804
_cell_angle_alpha   60.12170910
_cell_angle_beta   60.12208771
_cell_angle_gamma   60.01536069
_symmetry_Int_Tables_number   1
_chemical_formula_structural   AgHgPt2O7
_chemical_formula_sum   'Ag2 Hg2 Pt4 O14'
_cell_volume   271.48958538
_cell_formula_units_Z   2
loop_
 _symmetry_equiv_pos_site_id
 _symmetry_equiv_pos_as_xyz
  1  'x, y, z'
loop_
 _atom_site_type_symbol
 _atom_site_label
 _atom_site_symmetry_multiplicity
 _atom_site_fract_x
 _atom_site_fract_y
 _atom_site_fract_z
 _atom_site_occupancy
  Ag  Ag0  1  0.125000  0.125000  0.125000  1
  Ag  Ag1  1  0.125000  0.125000  0.625000  1
  Hg  Hg2  1  0.625000  0.125000  0.125000  1
  Hg  Hg3  1  0.125000  0.625000  0.125000  1
  Pt  Pt4  1  0.625000  0.625000  0.125000  1
  Pt  Pt5  1  0.625000  0.625000  0.625000  1
  Pt  Pt6  1  0.625000  0.125000  0.625000  1
  Pt  Pt7  1  0.125000  0.625000  0.625000  1
  O  O8  1  0.708044  0.294036  0.293765  1
  O  O9  1  0.708009  0.294056  0.704156  1
  O  O10  1  0.015880  0.015885  0.984139  1
  O  O11  1  0.294037  0.708046  0.293758  1
  O  O12  1  0.706557  0.706557  0.293422  1
  O  O13  1  0.955943  0.541990  0.545840  1
  O  O14  1  0.294057  0.708010  0.704160  1
  O  O15  1  0.234120  0.234115  0.265861  1
  O  O16  1  0.955963  0.541954  0.956242  1
  O  O17  1  0.541991  0.955944  0.545844  1
  O  O18  1  0.543443  0.543443  0.956578  1
  O  O19  1  0.953810  0.953806  0.546206  1
  O  O20  1  0.541956  0.955964  0.956235  1
  O  O21  1  0.296190  0.296194  0.703794  1
