# generated using pymatgen
data_La6Zn4Pt11Rh2
_symmetry_space_group_name_H-M   'P 1'
_cell_length_a   8.46548342
_cell_length_b   8.50680543
_cell_length_c   8.42335597
_cell_angle_alpha   109.17520235
_cell_angle_beta   109.41944878
_cell_angle_gamma   109.81771668
_symmetry_Int_Tables_number   1
_chemical_formula_structural   La6Zn4Pt11Rh2
_chemical_formula_sum   'La6 Zn4 Pt11 Rh2'
_cell_volume   466.95821440
_cell_formula_units_Z   1
loop_
 _symmetry_equiv_pos_site_id
 _symmetry_equiv_pos_as_xyz
  1  'x, y, z'
loop_
 _atom_site_type_symbol
 _atom_site_label
 _atom_site_symmetry_multiplicity
 _atom_site_fract_x
 _atom_site_fract_y
 _atom_site_fract_z
 _atom_site_occupancy
  La  La0  1  0.692298  0.694249  0.996568  1
  La  La1  1  0.307702  0.001951  0.304270  1
  La  La2  1  0.000000  0.300642  0.304926  1
  La  La3  1  0.302861  0.303262  0.994409  1
  La  La4  1  0.697139  0.000401  0.691548  1
  La  La5  1  0.000000  0.695810  0.696593  1
  Zn  Zn6  1  0.000000  0.003748  0.496910  1
  Zn  Zn7  1  0.000000  0.499656  0.999543  1
  Zn  Zn8  1  0.503650  0.999913  0.003946  1
  Zn  Zn9  1  0.496350  0.496263  0.500296  1
  Pt  Pt10  1  0.000000  0.670576  0.329670  1
  Pt  Pt11  1  0.669513  0.328278  0.997895  1
  Pt  Pt12  1  0.330487  0.658766  0.328382  1
  Pt  Pt13  1  0.000000  0.327537  0.669013  1
  Pt  Pt14  1  0.329360  0.671204  0.998538  1
  Pt  Pt15  1  0.327812  0.999663  0.670099  1
  Pt  Pt16  1  0.658919  0.329149  0.328037  1
  Pt  Pt17  1  0.672188  0.671851  0.342286  1
  Pt  Pt18  1  0.670640  0.341842  0.669178  1
  Pt  Pt19  1  0.341081  0.670231  0.669120  1
  Pt  Pt20  1  0.000000  0.999741  0.999057  1
  Rh  Rh21  1  0.336360  0.335813  0.673038  1
  Rh  Rh22  1  0.663640  0.999453  0.336677  1
