# generated using pymatgen
data_YEr11(Tm2Bi3)4
_symmetry_space_group_name_H-M   'P 1'
_cell_length_a   8.18440527
_cell_length_b   9.46168600
_cell_length_c   11.94165340
_cell_angle_alpha   90.00204534
_cell_angle_beta   89.97030120
_cell_angle_gamma   89.99985759
_symmetry_Int_Tables_number   1
_chemical_formula_structural   YEr11(Tm2Bi3)4
_chemical_formula_sum   'Y1 Er11 Tm8 Bi12'
_cell_volume   924.74088932
_cell_formula_units_Z   1
loop_
 _symmetry_equiv_pos_site_id
 _symmetry_equiv_pos_as_xyz
  1  'x, y, z'
loop_
 _atom_site_type_symbol
 _atom_site_label
 _atom_site_symmetry_multiplicity
 _atom_site_fract_x
 _atom_site_fract_y
 _atom_site_fract_z
 _atom_site_occupancy
  Y  Y0  1  0.145573  0.249865  0.716004  1
  Er  Er1  1  0.186847  0.749817  0.718326  1
  Er  Er2  1  0.687070  0.750164  0.781926  1
  Er  Er3  1  0.812693  0.249839  0.281530  1
  Er  Er4  1  0.312941  0.250170  0.218209  1
  Er  Er5  1  0.693280  0.563922  0.059695  1
  Er  Er6  1  0.193349  0.936101  0.440282  1
  Er  Er7  1  0.306974  0.063501  0.941003  1
  Er  Er8  1  0.806532  0.436294  0.559478  1
  Er  Er9  1  0.354724  0.750151  0.217002  1
  Er  Er10  1  0.854549  0.749837  0.283094  1
  Er  Er11  1  0.645649  0.250160  0.783012  1
  Tm  Tm12  1  0.024441  0.749930  0.988986  1
  Tm  Tm13  1  0.524538  0.750045  0.511155  1
  Tm  Tm14  1  0.975290  0.249989  0.011606  1
  Tm  Tm15  1  0.475461  0.250084  0.488679  1
  Tm  Tm16  1  0.307364  0.433993  0.941042  1
  Tm  Tm17  1  0.807051  0.066155  0.559333  1
  Tm  Tm18  1  0.692652  0.933813  0.059568  1
  Tm  Tm19  1  0.192731  0.566182  0.440489  1
  Bi  Bi20  1  0.434210  0.003418  0.673612  1
  Bi  Bi21  1  0.932926  0.496706  0.826813  1
  Bi  Bi22  1  0.566590  0.503894  0.326337  1
  Bi  Bi23  1  0.066538  0.996165  0.173646  1
  Bi  Bi24  1  0.567000  0.996046  0.326460  1
  Bi  Bi25  1  0.066945  0.503895  0.173529  1
  Bi  Bi26  1  0.433787  0.496539  0.673510  1
  Bi  Bi27  1  0.932536  0.003329  0.826941  1
  Bi  Bi28  1  0.406133  0.748457  0.957466  1
  Bi  Bi29  1  0.906107  0.751524  0.542653  1
  Bi  Bi30  1  0.593980  0.248499  0.042471  1
  Bi  Bi31  1  0.093538  0.251514  0.456145  1
