# generated using pymatgen
data_Ta4Be4VAu
_symmetry_space_group_name_H-M   'P 1'
_cell_length_a   6.31019800
_cell_length_b   6.31019800
_cell_length_c   3.39479200
_cell_angle_alpha   90.00000000
_cell_angle_beta   90.00000000
_cell_angle_gamma   90.00000000
_symmetry_Int_Tables_number   1
_chemical_formula_structural   Ta4Be4VAu
_chemical_formula_sum   'Ta4 Be4 V1 Au1'
_cell_volume   135.17586065
_cell_formula_units_Z   1
loop_
 _symmetry_equiv_pos_site_id
 _symmetry_equiv_pos_as_xyz
  1  'x, y, z'
loop_
 _atom_site_type_symbol
 _atom_site_label
 _atom_site_symmetry_multiplicity
 _atom_site_fract_x
 _atom_site_fract_y
 _atom_site_fract_z
 _atom_site_occupancy
  Ta  Ta0  1  0.686932  0.161546  0.500000  1
  Ta  Ta1  1  0.313068  0.838454  0.500000  1
  Ta  Ta2  1  0.161546  0.313068  0.500000  1
  Ta  Ta3  1  0.838454  0.686932  0.500000  1
  Be  Be4  1  0.121950  0.619259  0.000000  1
  Be  Be5  1  0.878050  0.380741  0.000000  1
  Be  Be6  1  0.619259  0.878050  0.000000  1
  Be  Be7  1  0.380741  0.121950  0.000000  1
  V  V8  1  0.000000  0.000000  0.000000  1
  Au  Au9  1  0.500000  0.500000  0.000000  1
