# generated using pymatgen
data_Tb7Y(TmIr2)2
_symmetry_space_group_name_H-M   'P 1'
_cell_length_a   6.51135287
_cell_length_b   7.21723302
_cell_length_c   8.55149700
_cell_angle_alpha   96.58912777
_cell_angle_beta   112.35648858
_cell_angle_gamma   89.90203784
_symmetry_Int_Tables_number   1
_chemical_formula_structural   Tb7Y(TmIr2)2
_chemical_formula_sum   'Tb7 Y1 Tm2 Ir4'
_cell_volume   368.82239748
_cell_formula_units_Z   1
loop_
 _symmetry_equiv_pos_site_id
 _symmetry_equiv_pos_as_xyz
  1  'x, y, z'
loop_
 _atom_site_type_symbol
 _atom_site_label
 _atom_site_symmetry_multiplicity
 _atom_site_fract_x
 _atom_site_fract_y
 _atom_site_fract_z
 _atom_site_occupancy
  Tb  Tb0  1  0.789090  0.580980  0.818763  1
  Tb  Tb1  1  0.029552  0.081043  0.818739  1
  Tb  Tb2  1  0.210870  0.418876  0.181424  1
  Tb  Tb3  1  0.652537  0.816739  0.439595  1
  Tb  Tb4  1  0.212751  0.683291  0.560149  1
  Tb  Tb5  1  0.347422  0.183318  0.560079  1
  Tb  Tb6  1  0.787217  0.316708  0.439849  1
  Y  Y7  1  0.970326  0.919513  0.181300  1
  Tm  Tm8  1  0.430120  0.750006  0.000122  1
  Tm  Tm9  1  0.570072  0.249980  0.000014  1
  Ir  Ir10  1  0.821363  0.571940  0.216652  1
  Ir  Ir11  1  0.604894  0.927611  0.783377  1
  Ir  Ir12  1  0.178343  0.427601  0.783359  1
  Ir  Ir13  1  0.395444  0.072395  0.216580  1
