# generated using pymatgen
data_Dy2HoIn3RhAu2
_symmetry_space_group_name_H-M   'P 1'
_cell_length_a   7.76825800
_cell_length_b   7.76869679
_cell_length_c   3.88228600
_cell_angle_alpha   90.00000000
_cell_angle_beta   90.00000000
_cell_angle_gamma   120.00186268
_symmetry_Int_Tables_number   1
_chemical_formula_structural   Dy2HoIn3RhAu2
_chemical_formula_sum   'Dy2 Ho1 In3 Rh1 Au2'
_cell_volume   202.89989306
_cell_formula_units_Z   1
loop_
 _symmetry_equiv_pos_site_id
 _symmetry_equiv_pos_as_xyz
  1  'x, y, z'
loop_
 _atom_site_type_symbol
 _atom_site_label
 _atom_site_symmetry_multiplicity
 _atom_site_fract_x
 _atom_site_fract_y
 _atom_site_fract_z
 _atom_site_occupancy
  Dy  Dy0  1  0.399608  0.399496  0.500000  1
  Dy  Dy1  1  0.600392  0.999889  0.500000  1
  Ho  Ho2  1  0.000000  0.600829  0.500000  1
  In  In3  1  0.745348  0.745259  0.000000  1
  In  In4  1  0.254652  0.999911  0.000000  1
  In  In5  1  0.000000  0.254764  0.000000  1
  Rh  Rh6  1  0.000000  0.999758  0.500000  1
  Au  Au7  1  0.667505  0.333800  0.000000  1
  Au  Au8  1  0.332495  0.666296  0.000000  1
