# generated using pymatgen
data_LuTh5PtBr15
_symmetry_space_group_name_H-M   'P 1'
_cell_length_a   10.18418758
_cell_length_b   10.18387191
_cell_length_c   10.18387117
_cell_angle_alpha   110.25657450
_cell_angle_beta   109.08001722
_cell_angle_gamma   109.08002670
_symmetry_Int_Tables_number   1
_chemical_formula_structural   LuTh5PtBr15
_chemical_formula_sum   'Lu1 Th5 Pt1 Br15'
_cell_volume   812.95881446
_cell_formula_units_Z   1
loop_
 _symmetry_equiv_pos_site_id
 _symmetry_equiv_pos_as_xyz
  1  'x, y, z'
loop_
 _atom_site_type_symbol
 _atom_site_label
 _atom_site_symmetry_multiplicity
 _atom_site_fract_x
 _atom_site_fract_y
 _atom_site_fract_z
 _atom_site_occupancy
  Lu  Lu0  1  0.999998  0.238293  0.238293  1
  Th  Th1  1  0.000006  0.748622  0.748622  1
  Th  Th2  1  0.241875  0.004444  0.246312  1
  Th  Th3  1  0.758139  0.004444  0.762573  1
  Th  Th4  1  0.241875  0.246312  0.004444  1
  Th  Th5  1  0.758139  0.762573  0.004444  1
  Pt  Pt6  1  0.999998  0.994759  0.994759  1
  Br  Br7  1  0.497418  0.248720  0.248720  1
  Br  Br8  1  0.502578  0.751298  0.751298  1
  Br  Br9  1  0.999992  0.248721  0.751297  1
  Br  Br10  1  0.999992  0.751297  0.248721  1
  Br  Br11  1  0.238361  0.491298  0.252933  1
  Br  Br12  1  0.761644  0.014579  0.252937  1
  Br  Br13  1  0.751023  0.501672  0.750638  1
  Br  Br14  1  0.248974  0.999616  0.750646  1
  Br  Br15  1  0.238361  0.252933  0.491298  1
  Br  Br16  1  0.751023  0.750638  0.501672  1
  Br  Br17  1  0.761644  0.252937  0.014579  1
  Br  Br18  1  0.248974  0.750646  0.999616  1
  Br  Br19  1  0.999996  0.490143  0.490143  1
  Br  Br20  1  0.499995  0.998028  0.498028  1
  Br  Br21  1  0.499995  0.498028  0.998028  1
