# generated using pymatgen
data_Tb10Y6CdIn3Ni4
_symmetry_space_group_name_H-M   'P 1'
_cell_length_a   9.60715460
_cell_length_b   9.63407880
_cell_length_c   9.63572933
_cell_angle_alpha   60.03614638
_cell_angle_beta   60.01251535
_cell_angle_gamma   60.01156904
_symmetry_Int_Tables_number   1
_chemical_formula_structural   Tb10Y6CdIn3Ni4
_chemical_formula_sum   'Tb10 Y6 Cd1 In3 Ni4'
_cell_volume   630.91686282
_cell_formula_units_Z   1
loop_
 _symmetry_equiv_pos_site_id
 _symmetry_equiv_pos_as_xyz
  1  'x, y, z'
loop_
 _atom_site_type_symbol
 _atom_site_label
 _atom_site_symmetry_multiplicity
 _atom_site_fract_x
 _atom_site_fract_y
 _atom_site_fract_z
 _atom_site_occupancy
  Tb  Tb0  1  0.595691  0.596411  0.596383  1
  Tb  Tb1  1  0.598408  0.598539  0.204749  1
  Tb  Tb2  1  0.598357  0.204755  0.598447  1
  Tb  Tb3  1  0.203699  0.597739  0.597692  1
  Tb  Tb4  1  0.061569  0.439720  0.439791  1
  Tb  Tb5  1  0.439156  0.061987  0.062034  1
  Tb  Tb6  1  0.438781  0.062448  0.438459  1
  Tb  Tb7  1  0.061277  0.440083  0.060508  1
  Tb  Tb8  1  0.438787  0.438380  0.062538  1
  Tb  Tb9  1  0.061221  0.060415  0.440163  1
  Y  Y10  1  0.188609  0.814196  0.814283  1
  Y  Y11  1  0.813837  0.186824  0.186722  1
  Y  Y12  1  0.813962  0.186991  0.812694  1
  Y  Y13  1  0.189403  0.812208  0.186953  1
  Y  Y14  1  0.813998  0.812683  0.186962  1
  Y  Y15  1  0.189499  0.187115  0.812089  1
  Cd  Cd16  1  0.505205  0.830772  0.830827  1
  In  In17  1  0.831551  0.833220  0.833285  1
  In  In18  1  0.829734  0.832743  0.503846  1
  In  In19  1  0.829715  0.504003  0.832698  1
  Ni  Ni20  1  0.392696  0.393066  0.393120  1
  Ni  Ni21  1  0.390997  0.391191  0.823290  1
  Ni  Ni22  1  0.390995  0.823227  0.391199  1
  Ni  Ni23  1  0.822852  0.391283  0.391267  1
