# generated using pymatgen
data_Lu2Sc3As2Os
_symmetry_space_group_name_H-M   'P 1'
_cell_length_a   5.90495100
_cell_length_b   7.99201615
_cell_length_c   8.11786400
_cell_angle_alpha   119.48849319
_cell_angle_beta   90.00000000
_cell_angle_gamma   90.00000000
_symmetry_Int_Tables_number   1
_chemical_formula_structural   Lu2Sc3As2Os
_chemical_formula_sum   'Lu4 Sc6 As4 Os2'
_cell_volume   333.47288984
_cell_formula_units_Z   2
loop_
 _symmetry_equiv_pos_site_id
 _symmetry_equiv_pos_as_xyz
  1  'x, y, z'
loop_
 _atom_site_type_symbol
 _atom_site_label
 _atom_site_symmetry_multiplicity
 _atom_site_fract_x
 _atom_site_fract_y
 _atom_site_fract_z
 _atom_site_occupancy
  Lu  Lu0  1  0.750000  0.742898  0.765559  1
  Lu  Lu1  1  0.250000  0.257102  0.234441  1
  Lu  Lu2  1  0.750000  0.977340  0.234441  1
  Lu  Lu3  1  0.250000  0.022660  0.765559  1
  Sc  Sc4  1  0.000000  0.661128  0.322254  1
  Sc  Sc5  1  0.000000  0.338872  0.677746  1
  Sc  Sc6  1  0.500000  0.338872  0.677746  1
  Sc  Sc7  1  0.500000  0.661128  0.322254  1
  Sc  Sc8  1  0.750000  0.255530  0.000000  1
  Sc  Sc9  1  0.250000  0.744470  0.000000  1
  As  As10  1  0.750000  0.382560  0.388827  1
  As  As11  1  0.250000  0.617440  0.611173  1
  As  As12  1  0.750000  0.993733  0.611173  1
  As  As13  1  0.250000  0.006267  0.388827  1
  Os  Os14  1  0.750000  0.582911  0.000000  1
  Os  Os15  1  0.250000  0.417089  0.000000  1
