# generated using pymatgen
data_Tm4Tl3Ni2
_symmetry_space_group_name_H-M   'P 1'
_cell_length_a   3.59413800
_cell_length_b   7.34483143
_cell_length_c   8.01237400
_cell_angle_alpha   108.26735401
_cell_angle_beta   90.00000000
_cell_angle_gamma   90.00000000
_symmetry_Int_Tables_number   1
_chemical_formula_structural   Tm4Tl3Ni2
_chemical_formula_sum   'Tm4 Tl3 Ni2'
_cell_volume   200.85397677
_cell_formula_units_Z   1
loop_
 _symmetry_equiv_pos_site_id
 _symmetry_equiv_pos_as_xyz
  1  'x, y, z'
loop_
 _atom_site_type_symbol
 _atom_site_label
 _atom_site_symmetry_multiplicity
 _atom_site_fract_x
 _atom_site_fract_y
 _atom_site_fract_z
 _atom_site_occupancy
  Tm  Tm0  1  0.500000  0.914425  0.779898  1
  Tm  Tm1  1  0.500000  0.085575  0.220102  1
  Tm  Tm2  1  0.500000  0.395395  0.678512  1
  Tm  Tm3  1  0.500000  0.604605  0.321488  1
  Tl  Tl4  1  0.000000  0.709199  0.994425  1
  Tl  Tl5  1  0.000000  0.290801  0.005575  1
  Tl  Tl6  1  0.000000  0.000000  0.500000  1
  Ni  Ni7  1  0.000000  0.656380  0.609401  1
  Ni  Ni8  1  0.000000  0.343620  0.390599  1
