# generated using pymatgen
data_Nd3Co3Si7
_symmetry_space_group_name_H-M   'P 1'
_cell_length_a   13.00919078
_cell_length_b   13.00919083
_cell_length_c   4.10945800
_cell_angle_alpha   90.00000000
_cell_angle_beta   90.00000000
_cell_angle_gamma   161.65056391
_symmetry_Int_Tables_number   1
_chemical_formula_structural   Nd3Co3Si7
_chemical_formula_sum   'Nd3 Co3 Si7'
_cell_volume   218.94535491
_cell_formula_units_Z   1
loop_
 _symmetry_equiv_pos_site_id
 _symmetry_equiv_pos_as_xyz
  1  'x, y, z'
loop_
 _atom_site_type_symbol
 _atom_site_label
 _atom_site_symmetry_multiplicity
 _atom_site_fract_x
 _atom_site_fract_y
 _atom_site_fract_z
 _atom_site_occupancy
  Nd  Nd0  1  0.003375  0.996625  0.000000  1
  Nd  Nd1  1  0.686538  0.313462  0.500000  1
  Nd  Nd2  1  0.317751  0.682249  0.500000  1
  Co  Co3  1  0.865542  0.134458  0.000000  1
  Co  Co4  1  0.133814  0.866186  0.000000  1
  Co  Co5  1  0.450153  0.549847  0.500000  1
  Si  Si6  1  0.594413  0.405587  0.000000  1
  Si  Si7  1  0.408376  0.591624  0.000000  1
  Si  Si8  1  0.776026  0.223974  0.000000  1
  Si  Si9  1  0.225930  0.774070  0.000000  1
  Si  Si10  1  0.907921  0.092079  0.500000  1
  Si  Si11  1  0.093767  0.906233  0.500000  1
  Si  Si12  1  0.536395  0.463605  0.500000  1
