# generated using pymatgen
data_DyHo(Lu4Tl3)2
_symmetry_space_group_name_H-M   'P 1'
_cell_length_a   8.89615400
_cell_length_b   8.92333902
_cell_length_c   6.51167900
_cell_angle_alpha   90.00000000
_cell_angle_beta   90.00000000
_cell_angle_gamma   119.89927339
_symmetry_Int_Tables_number   1
_chemical_formula_structural   DyHo(Lu4Tl3)2
_chemical_formula_sum   'Dy1 Ho1 Lu8 Tl6'
_cell_volume   448.11884754
_cell_formula_units_Z   1
loop_
 _symmetry_equiv_pos_site_id
 _symmetry_equiv_pos_as_xyz
  1  'x, y, z'
loop_
 _atom_site_type_symbol
 _atom_site_label
 _atom_site_symmetry_multiplicity
 _atom_site_fract_x
 _atom_site_fract_y
 _atom_site_fract_z
 _atom_site_occupancy
  Dy  Dy0  1  0.764796  0.000000  0.750000  1
  Ho  Ho1  1  0.234087  0.000000  0.250000  1
  Lu  Lu2  1  0.235743  0.235770  0.750000  1
  Lu  Lu3  1  0.334120  0.667604  0.000051  1
  Lu  Lu4  1  0.666517  0.332396  0.000051  1
  Lu  Lu5  1  0.999972  0.764230  0.750000  1
  Lu  Lu6  1  0.763614  0.763593  0.250000  1
  Lu  Lu7  1  0.000022  0.236407  0.250000  1
  Lu  Lu8  1  0.334120  0.667604  0.499949  1
  Lu  Lu9  1  0.666517  0.332396  0.499949  1
  Tl  Tl10  1  0.001841  0.402335  0.750000  1
  Tl  Tl11  1  0.400252  0.401101  0.250000  1
  Tl  Tl12  1  0.601754  0.000000  0.250000  1
  Tl  Tl13  1  0.599505  0.597665  0.750000  1
  Tl  Tl14  1  0.397988  0.000000  0.750000  1
  Tl  Tl15  1  0.999152  0.598899  0.250000  1
