# generated using pymatgen
data_Pr9Lu3In20
_symmetry_space_group_name_H-M   'P 1'
_cell_length_a   6.70825098
_cell_length_b   10.57394600
_cell_length_c   12.48877800
_cell_angle_alpha   90.00000000
_cell_angle_beta   89.93855572
_cell_angle_gamma   90.00000000
_symmetry_Int_Tables_number   1
_chemical_formula_structural   Pr9Lu3In20
_chemical_formula_sum   'Pr9 Lu3 In20'
_cell_volume   885.86202873
_cell_formula_units_Z   1
loop_
 _symmetry_equiv_pos_site_id
 _symmetry_equiv_pos_as_xyz
  1  'x, y, z'
loop_
 _atom_site_type_symbol
 _atom_site_label
 _atom_site_symmetry_multiplicity
 _atom_site_fract_x
 _atom_site_fract_y
 _atom_site_fract_z
 _atom_site_occupancy
  Pr  Pr0  1  0.350469  0.750000  0.059623  1
  Pr  Pr1  1  0.887407  0.489938  0.143449  1
  Pr  Pr2  1  0.612776  0.012349  0.642821  1
  Pr  Pr3  1  0.109920  0.990891  0.855252  1
  Pr  Pr4  1  0.389314  0.510157  0.356337  1
  Pr  Pr5  1  0.109920  0.509109  0.855252  1
  Pr  Pr6  1  0.389314  0.989843  0.356337  1
  Pr  Pr7  1  0.887407  0.010062  0.143449  1
  Pr  Pr8  1  0.612776  0.487651  0.642821  1
  Lu  Lu9  1  0.151400  0.750000  0.557874  1
  Lu  Lu10  1  0.650393  0.250000  0.940472  1
  Lu  Lu11  1  0.849119  0.250000  0.441500  1
  In  In12  1  0.615510  0.750000  0.506142  1
  In  In13  1  0.873764  0.750000  0.001167  1
  In  In14  1  0.385708  0.250000  0.496032  1
  In  In15  1  0.111052  0.250000  0.996244  1
  In  In16  1  0.661751  0.750000  0.247536  1
  In  In17  1  0.848728  0.750000  0.740777  1
  In  In18  1  0.348046  0.250000  0.756893  1
  In  In19  1  0.151469  0.250000  0.258007  1
  In  In20  1  0.109509  0.750000  0.288810  1
  In  In21  1  0.390928  0.750000  0.779408  1
  In  In22  1  0.891975  0.250000  0.717442  1
  In  In23  1  0.611827  0.250000  0.218689  1
  In  In24  1  0.874560  0.543430  0.405461  1
  In  In25  1  0.624666  0.958287  0.902847  1
  In  In26  1  0.127026  0.044022  0.595143  1
  In  In27  1  0.373504  0.449197  0.095380  1
  In  In28  1  0.127026  0.455978  0.595143  1
  In  In29  1  0.373504  0.050803  0.095380  1
  In  In30  1  0.874560  0.956570  0.405461  1
  In  In31  1  0.624666  0.541713  0.902847  1
