# generated using pymatgen
data_Li4FeAuO6
_symmetry_space_group_name_H-M   'P 1'
_cell_length_a   5.19914595
_cell_length_b   5.19916080
_cell_length_c   5.19810182
_cell_angle_alpha   99.79123488
_cell_angle_beta   99.79153305
_cell_angle_gamma   119.79430300
_symmetry_Int_Tables_number   1
_chemical_formula_structural   Li4FeAuO6
_chemical_formula_sum   'Li4 Fe1 Au1 O6'
_cell_volume   114.71406482
_cell_formula_units_Z   1
loop_
 _symmetry_equiv_pos_site_id
 _symmetry_equiv_pos_as_xyz
  1  'x, y, z'
loop_
 _atom_site_type_symbol
 _atom_site_label
 _atom_site_symmetry_multiplicity
 _atom_site_fract_x
 _atom_site_fract_y
 _atom_site_fract_z
 _atom_site_occupancy
  Li  Li0  1  0.500109  0.499882  0.999990  1
  Li  Li1  1  0.008770  0.991233  0.499999  1
  Li  Li2  1  0.659419  0.340590  0.499997  1
  Li  Li3  1  0.332432  0.667574  0.500000  1
  Fe  Fe4  1  0.833108  0.166884  0.000006  1
  Au  Au5  1  0.166688  0.833317  0.000001  1
  O  O6  1  0.928077  0.579196  0.233655  1
  O  O7  1  0.578041  0.928159  0.235459  1
  O  O8  1  0.230155  0.229445  0.239375  1
  O  O9  1  0.770556  0.769843  0.760625  1
  O  O10  1  0.071843  0.421958  0.764551  1
  O  O11  1  0.420807  0.071925  0.766347  1
