# generated using pymatgen
data_Hf8NbNi2Pt
_symmetry_space_group_name_H-M   'P 1'
_cell_length_a   8.71810301
_cell_length_b   8.71810203
_cell_length_c   8.75171500
_cell_angle_alpha   59.87237389
_cell_angle_beta   59.87237762
_cell_angle_gamma   59.45949954
_symmetry_Int_Tables_number   1
_chemical_formula_structural   Hf8NbNi2Pt
_chemical_formula_sum   'Hf16 Nb2 Ni4 Pt2'
_cell_volume   467.50146071
_cell_formula_units_Z   2
loop_
 _symmetry_equiv_pos_site_id
 _symmetry_equiv_pos_as_xyz
  1  'x, y, z'
loop_
 _atom_site_type_symbol
 _atom_site_label
 _atom_site_symmetry_multiplicity
 _atom_site_fract_x
 _atom_site_fract_y
 _atom_site_fract_z
 _atom_site_occupancy
  Hf  Hf0  1  0.698056  0.102403  0.099771  1
  Hf  Hf1  1  0.102403  0.698056  0.099771  1
  Hf  Hf2  1  0.102478  0.102478  0.689436  1
  Hf  Hf3  1  0.102478  0.102478  0.105608  1
  Hf  Hf4  1  0.314120  0.314120  0.685880  1
  Hf  Hf5  1  0.684629  0.684629  0.315371  1
  Hf  Hf6  1  0.315195  0.677523  0.316367  1
  Hf  Hf7  1  0.677523  0.315195  0.690914  1
  Hf  Hf8  1  0.677523  0.315195  0.316367  1
  Hf  Hf9  1  0.315195  0.677523  0.690914  1
  Hf  Hf10  1  0.951856  0.951856  0.548144  1
  Hf  Hf11  1  0.547349  0.547349  0.952651  1
  Hf  Hf12  1  0.949224  0.554477  0.944602  1
  Hf  Hf13  1  0.554477  0.949224  0.551698  1
  Hf  Hf14  1  0.554477  0.949224  0.944602  1
  Hf  Hf15  1  0.949224  0.554477  0.551698  1
  Nb  Nb16  1  0.332254  0.332254  0.001673  1
  Nb  Nb17  1  0.332254  0.332254  0.333820  1
  Ni  Ni18  1  0.322701  0.896775  0.890263  1
  Ni  Ni19  1  0.896775  0.322701  0.890263  1
  Ni  Ni20  1  0.893913  0.893913  0.325642  1
  Ni  Ni21  1  0.893913  0.893913  0.886533  1
  Pt  Pt22  1  0.992267  0.339716  0.334009  1
  Pt  Pt23  1  0.339716  0.992267  0.334009  1
