# generated using pymatgen
data_Tb2Er8AlBi5
_symmetry_space_group_name_H-M   'P 1'
_cell_length_a   9.05249326
_cell_length_b   9.05249210
_cell_length_c   6.37797900
_cell_angle_alpha   90.00000000
_cell_angle_beta   90.00000000
_cell_angle_gamma   119.72049172
_symmetry_Int_Tables_number   1
_chemical_formula_structural   Tb2Er8AlBi5
_chemical_formula_sum   'Tb2 Er8 Al1 Bi5'
_cell_volume   453.90649683
_cell_formula_units_Z   1
loop_
 _symmetry_equiv_pos_site_id
 _symmetry_equiv_pos_as_xyz
  1  'x, y, z'
loop_
 _atom_site_type_symbol
 _atom_site_label
 _atom_site_symmetry_multiplicity
 _atom_site_fract_x
 _atom_site_fract_y
 _atom_site_fract_z
 _atom_site_occupancy
  Tb  Tb0  1  0.758555  0.000213  0.250000  1
  Tb  Tb1  1  0.000213  0.758555  0.250000  1
  Er  Er2  1  0.659310  0.335460  0.996600  1
  Er  Er3  1  0.335460  0.659310  0.996600  1
  Er  Er4  1  0.335460  0.659310  0.503400  1
  Er  Er5  1  0.659310  0.335460  0.503400  1
  Er  Er6  1  0.749806  0.749806  0.750000  1
  Er  Er7  1  0.243398  0.013304  0.750000  1
  Er  Er8  1  0.013304  0.243398  0.750000  1
  Er  Er9  1  0.240318  0.240318  0.250000  1
  Al  Al10  1  0.396508  0.396508  0.750000  1
  Bi  Bi11  1  0.611360  0.002803  0.750000  1
  Bi  Bi12  1  0.002803  0.611360  0.750000  1
  Bi  Bi13  1  0.606174  0.606174  0.250000  1
  Bi  Bi14  1  0.391374  0.996647  0.250000  1
  Bi  Bi15  1  0.996647  0.391374  0.250000  1
