# generated using pymatgen
data_Th3Zn3Pd2Rh
_symmetry_space_group_name_H-M   'P 1'
_cell_length_a   7.55329600
_cell_length_b   7.55329618
_cell_length_c   3.87025300
_cell_angle_alpha   90.00000000
_cell_angle_beta   90.00000000
_cell_angle_gamma   119.99999047
_symmetry_Int_Tables_number   1
_chemical_formula_structural   Th3Zn3Pd2Rh
_chemical_formula_sum   'Th3 Zn3 Pd2 Rh1'
_cell_volume   191.22428601
_cell_formula_units_Z   1
loop_
 _symmetry_equiv_pos_site_id
 _symmetry_equiv_pos_as_xyz
  1  'x, y, z'
loop_
 _atom_site_type_symbol
 _atom_site_label
 _atom_site_symmetry_multiplicity
 _atom_site_fract_x
 _atom_site_fract_y
 _atom_site_fract_z
 _atom_site_occupancy
  Th  Th0  1  0.594661  0.586230  0.000000  1
  Th  Th1  1  0.413770  0.008430  0.000000  1
  Th  Th2  1  0.991570  0.405339  0.000000  1
  Zn  Zn3  1  0.249460  0.250633  0.500000  1
  Zn  Zn4  1  0.749367  0.998827  0.500000  1
  Zn  Zn5  1  0.001173  0.750540  0.500000  1
  Pd  Pd6  1  0.000000  0.000000  0.000000  1
  Pd  Pd7  1  0.333333  0.666667  0.500000  1
  Rh  Rh8  1  0.666667  0.333333  0.500000  1
