# generated using pymatgen
data_Er8Ti8Re3Si16Ag
_symmetry_space_group_name_H-M   'P 1'
_cell_length_a   6.94896887
_cell_length_b   6.94896923
_cell_length_c   12.72946172
_cell_angle_alpha   89.98255987
_cell_angle_beta   90.01744117
_cell_angle_gamma   89.77157789
_symmetry_Int_Tables_number   1
_chemical_formula_structural   Er8Ti8Re3Si16Ag
_chemical_formula_sum   'Er8 Ti8 Re3 Si16 Ag1'
_cell_volume   614.67748057
_cell_formula_units_Z   1
loop_
 _symmetry_equiv_pos_site_id
 _symmetry_equiv_pos_as_xyz
  1  'x, y, z'
loop_
 _atom_site_type_symbol
 _atom_site_label
 _atom_site_symmetry_multiplicity
 _atom_site_fract_x
 _atom_site_fract_y
 _atom_site_fract_z
 _atom_site_occupancy
  Er  Er0  1  0.340718  0.999278  0.468632  1
  Er  Er1  1  0.499991  0.841121  0.718032  1
  Er  Er2  1  0.501882  0.159142  0.218782  1
  Er  Er3  1  0.841121  0.499991  0.281968  1
  Er  Er4  1  0.159142  0.501882  0.781218  1
  Er  Er5  1  0.657511  0.001872  0.969262  1
  Er  Er6  1  0.999278  0.340718  0.531368  1
  Er  Er7  1  0.001872  0.657511  0.030738  1
  Ti  Ti8  1  0.149772  0.008503  0.878455  1
  Ti  Ti9  1  0.501870  0.648550  0.125093  1
  Ti  Ti10  1  0.503942  0.348836  0.622436  1
  Ti  Ti11  1  0.648550  0.501870  0.874907  1
  Ti  Ti12  1  0.348836  0.503942  0.377564  1
  Ti  Ti13  1  0.848757  0.993775  0.375454  1
  Ti  Ti14  1  0.008503  0.149772  0.121545  1
  Ti  Ti15  1  0.993775  0.848757  0.624546  1
  Re  Re16  1  0.167319  0.825806  0.253269  1
  Re  Re17  1  0.825806  0.167319  0.746731  1
  Re  Re18  1  0.669504  0.669504  0.500000  1
  Si  Si19  1  0.200447  0.130964  0.683612  1
  Si  Si20  1  0.372908  0.719663  0.929828  1
  Si  Si21  1  0.631095  0.295286  0.430591  1
  Si  Si22  1  0.719663  0.372908  0.070172  1
  Si  Si23  1  0.295286  0.631095  0.569409  1
  Si  Si24  1  0.801151  0.869357  0.181990  1
  Si  Si25  1  0.130964  0.200447  0.316388  1
  Si  Si26  1  0.869357  0.801151  0.818010  1
  Si  Si27  1  0.289424  0.935416  0.071484  1
  Si  Si28  1  0.545381  0.789521  0.316029  1
  Si  Si29  1  0.459769  0.208321  0.809122  1
  Si  Si30  1  0.789521  0.545381  0.683971  1
  Si  Si31  1  0.208321  0.459769  0.190878  1
  Si  Si32  1  0.707802  0.045367  0.565035  1
  Si  Si33  1  0.935416  0.289424  0.928516  1
  Si  Si34  1  0.045367  0.707802  0.434965  1
  Ag  Ag35  1  0.329981  0.329981  0.000000  1
