# generated using pymatgen
data_TmLuCo9P6Ru
_symmetry_space_group_name_H-M   'P 1'
_cell_length_a   3.65173300
_cell_length_b   10.28832700
_cell_length_c   11.71054400
_cell_angle_alpha   90.00000000
_cell_angle_beta   90.00000000
_cell_angle_gamma   90.00000000
_symmetry_Int_Tables_number   1
_chemical_formula_structural   TmLuCo9P6Ru
_chemical_formula_sum   'Tm2 Lu2 Co18 P12 Ru2'
_cell_volume   439.96775212
_cell_formula_units_Z   2
loop_
 _symmetry_equiv_pos_site_id
 _symmetry_equiv_pos_as_xyz
  1  'x, y, z'
loop_
 _atom_site_type_symbol
 _atom_site_label
 _atom_site_symmetry_multiplicity
 _atom_site_fract_x
 _atom_site_fract_y
 _atom_site_fract_z
 _atom_site_occupancy
  Tm  Tm0  1  0.250000  0.581871  0.702311  1
  Tm  Tm1  1  0.250000  0.918129  0.202311  1
  Lu  Lu2  1  0.750000  0.413968  0.295384  1
  Lu  Lu3  1  0.750000  0.086032  0.795384  1
  Co  Co4  1  0.750000  0.282995  0.007874  1
  Co  Co5  1  0.750000  0.217005  0.507874  1
  Co  Co6  1  0.250000  0.405931  0.486323  1
  Co  Co7  1  0.250000  0.094069  0.986323  1
  Co  Co8  1  0.750000  0.589812  0.510940  1
  Co  Co9  1  0.750000  0.910188  0.010940  1
  Co  Co10  1  0.250000  0.221084  0.176896  1
  Co  Co11  1  0.250000  0.278916  0.676896  1
  Co  Co12  1  0.750000  0.778376  0.822677  1
  Co  Co13  1  0.750000  0.721624  0.322677  1
  Co  Co14  1  0.250000  0.887495  0.702618  1
  Co  Co15  1  0.250000  0.612505  0.202618  1
  Co  Co16  1  0.750000  0.116296  0.300381  1
  Co  Co17  1  0.750000  0.383704  0.800381  1
  Co  Co18  1  0.250000  0.464161  0.932292  1
  Co  Co19  1  0.250000  0.035839  0.432292  1
  Co  Co20  1  0.750000  0.532647  0.069975  1
  Co  Co21  1  0.750000  0.967353  0.569975  1
  P  P22  1  0.250000  0.417027  0.113335  1
  P  P23  1  0.250000  0.082973  0.613335  1
  P  P24  1  0.750000  0.578658  0.886588  1
  P  P25  1  0.750000  0.921342  0.386588  1
  P  P26  1  0.250000  0.268817  0.868707  1
  P  P27  1  0.250000  0.231183  0.368707  1
  P  P28  1  0.750000  0.730222  0.132882  1
  P  P29  1  0.750000  0.769778  0.632882  1
  P  P30  1  0.250000  0.593126  0.389729  1
  P  P31  1  0.250000  0.906874  0.889729  1
  P  P32  1  0.750000  0.397715  0.608895  1
  P  P33  1  0.750000  0.102285  0.108895  1
  Ru  Ru34  1  0.250000  0.716264  0.992190  1
  Ru  Ru35  1  0.250000  0.783736  0.492190  1
