# generated using pymatgen
data_La2Nd2PdAu3
_symmetry_space_group_name_H-M   'P 1'
_cell_length_a   4.81745300
_cell_length_b   5.91230158
_cell_length_c   7.53072243
_cell_angle_alpha   87.80807923
_cell_angle_beta   90.00000000
_cell_angle_gamma   90.00000000
_symmetry_Int_Tables_number   1
_chemical_formula_structural   La2Nd2PdAu3
_chemical_formula_sum   'La2 Nd2 Pd1 Au3'
_cell_volume   214.33486636
_cell_formula_units_Z   1
loop_
 _symmetry_equiv_pos_site_id
 _symmetry_equiv_pos_as_xyz
  1  'x, y, z'
loop_
 _atom_site_type_symbol
 _atom_site_label
 _atom_site_symmetry_multiplicity
 _atom_site_fract_x
 _atom_site_fract_y
 _atom_site_fract_z
 _atom_site_occupancy
  La  La0  1  0.250000  0.355513  0.684985  1
  La  La1  1  0.750000  0.650904  0.316128  1
  Nd  Nd2  1  0.250000  0.143683  0.185327  1
  Nd  Nd3  1  0.750000  0.854985  0.812255  1
  Pd  Pd4  1  0.250000  0.849917  0.542472  1
  Au  Au5  1  0.250000  0.654604  0.038373  1
  Au  Au6  1  0.750000  0.145491  0.457618  1
  Au  Au7  1  0.750000  0.344900  0.962842  1
