# generated using pymatgen
data_TbEr2BiO7
_symmetry_space_group_name_H-M   'P 1'
_cell_length_a   6.53762672
_cell_length_b   6.51408374
_cell_length_c   7.67401015
_cell_angle_alpha   106.93592966
_cell_angle_beta   89.75503410
_cell_angle_gamma   98.93139177
_symmetry_Int_Tables_number   1
_chemical_formula_structural   TbEr2BiO7
_chemical_formula_sum   'Tb2 Er4 Bi2 O14'
_cell_volume   308.55613983
_cell_formula_units_Z   2
loop_
 _symmetry_equiv_pos_site_id
 _symmetry_equiv_pos_as_xyz
  1  'x, y, z'
loop_
 _atom_site_type_symbol
 _atom_site_label
 _atom_site_symmetry_multiplicity
 _atom_site_fract_x
 _atom_site_fract_y
 _atom_site_fract_z
 _atom_site_occupancy
  Tb  Tb0  1  0.733935  0.476212  0.613776  1
  Tb  Tb1  1  0.266065  0.523788  0.386224  1
  Er  Er2  1  0.462881  0.005939  0.251205  1
  Er  Er3  1  0.537119  0.994061  0.748795  1
  Er  Er4  1  0.274256  0.538121  0.883616  1
  Er  Er5  1  0.725744  0.461879  0.116384  1
  Bi  Bi6  1  0.000000  0.000000  0.500000  1
  Bi  Bi7  1  0.000000  0.000000  0.000000  1
  O  O8  1  0.448825  0.651043  0.165182  1
  O  O9  1  0.551175  0.348957  0.834818  1
  O  O10  1  0.302642  0.920569  0.951011  1
  O  O11  1  0.697358  0.079431  0.048989  1
  O  O12  1  0.300243  0.925381  0.513278  1
  O  O13  1  0.699757  0.074619  0.486722  1
  O  O14  1  0.545563  0.361711  0.342255  1
  O  O15  1  0.454437  0.638289  0.657745  1
  O  O16  1  0.925436  0.665223  0.961979  1
  O  O17  1  0.074564  0.334777  0.038021  1
  O  O18  1  0.071356  0.350935  0.623269  1
  O  O19  1  0.928644  0.649065  0.376731  1
  O  O20  1  0.870642  0.898904  0.724065  1
  O  O21  1  0.129358  0.101096  0.275935  1
