# generated using pymatgen
data_Ti4InGeRh10
_symmetry_space_group_name_H-M   'P 1'
_cell_length_a   4.00668300
_cell_length_b   5.46773499
_cell_length_c   10.81863486
_cell_angle_alpha   91.08868889
_cell_angle_beta   90.00000000
_cell_angle_gamma   90.00000000
_symmetry_Int_Tables_number   1
_chemical_formula_structural   Ti4InGeRh10
_chemical_formula_sum   'Ti4 In1 Ge1 Rh10'
_cell_volume   236.96625153
_cell_formula_units_Z   1
loop_
 _symmetry_equiv_pos_site_id
 _symmetry_equiv_pos_as_xyz
  1  'x, y, z'
loop_
 _atom_site_type_symbol
 _atom_site_label
 _atom_site_symmetry_multiplicity
 _atom_site_fract_x
 _atom_site_fract_y
 _atom_site_fract_z
 _atom_site_occupancy
  Ti  Ti0  1  0.500000  0.318572  0.143283  1
  Ti  Ti1  1  0.500000  0.681428  0.856717  1
  Ti  Ti2  1  0.500000  0.823301  0.361034  1
  Ti  Ti3  1  0.500000  0.176699  0.638966  1
  In  In4  1  0.000000  0.000000  0.000000  1
  Ge  Ge5  1  0.000000  0.500000  0.500000  1
  Rh  Rh6  1  0.000000  0.000000  0.500000  1
  Rh  Rh7  1  0.000000  0.500000  0.000000  1
  Rh  Rh8  1  0.000000  0.062638  0.252891  1
  Rh  Rh9  1  0.000000  0.937362  0.747109  1
  Rh  Rh10  1  0.000000  0.559905  0.258087  1
  Rh  Rh11  1  0.000000  0.440095  0.741913  1
  Rh  Rh12  1  0.500000  0.307134  0.392154  1
  Rh  Rh13  1  0.500000  0.692866  0.607846  1
  Rh  Rh14  1  0.500000  0.783676  0.124857  1
  Rh  Rh15  1  0.500000  0.216324  0.875143  1
