# generated using pymatgen
data_TbEr19CoBi8Ir3
_symmetry_space_group_name_H-M   'P 1'
_cell_length_a   7.94469712
_cell_length_b   8.95704100
_cell_length_c   12.42065463
_cell_angle_alpha   90.00000000
_cell_angle_beta   90.26019474
_cell_angle_gamma   90.00000000
_symmetry_Int_Tables_number   1
_chemical_formula_structural   TbEr19CoBi8Ir3
_chemical_formula_sum   'Tb1 Er19 Co1 Bi8 Ir3'
_cell_volume   883.85681519
_cell_formula_units_Z   1
loop_
 _symmetry_equiv_pos_site_id
 _symmetry_equiv_pos_as_xyz
  1  'x, y, z'
loop_
 _atom_site_type_symbol
 _atom_site_label
 _atom_site_symmetry_multiplicity
 _atom_site_fract_x
 _atom_site_fract_y
 _atom_site_fract_z
 _atom_site_occupancy
  Tb  Tb0  1  0.657827  0.750000  0.700485  1
  Er  Er1  1  0.338595  0.250000  0.293003  1
  Er  Er2  1  0.161094  0.250000  0.793283  1
  Er  Er3  1  0.838922  0.750000  0.206598  1
  Er  Er4  1  0.123123  0.750000  0.808214  1
  Er  Er5  1  0.875625  0.250000  0.191359  1
  Er  Er6  1  0.623930  0.250000  0.691410  1
  Er  Er7  1  0.381500  0.750000  0.314703  1
  Er  Er8  1  0.556504  0.750000  0.997835  1
  Er  Er9  1  0.446443  0.250000  0.001162  1
  Er  Er10  1  0.055505  0.250000  0.501419  1
  Er  Er11  1  0.947171  0.750000  0.498143  1
  Er  Er12  1  0.825748  0.456915  0.933206  1
  Er  Er13  1  0.175626  0.542063  0.066763  1
  Er  Er14  1  0.325044  0.543471  0.565274  1
  Er  Er15  1  0.175626  0.957937  0.066763  1
  Er  Er16  1  0.672860  0.464141  0.435602  1
  Er  Er17  1  0.825748  0.043085  0.933206  1
  Er  Er18  1  0.672860  0.035859  0.435602  1
  Er  Er19  1  0.325044  0.956529  0.565274  1
  Co  Co20  1  0.567093  0.750000  0.491545  1
  Bi  Bi21  1  0.933220  0.009586  0.671909  1
  Bi  Bi22  1  0.066318  0.990847  0.327733  1
  Bi  Bi23  1  0.432986  0.991357  0.826966  1
  Bi  Bi24  1  0.066318  0.509153  0.327733  1
  Bi  Bi25  1  0.565981  0.008073  0.173579  1
  Bi  Bi26  1  0.933220  0.490414  0.671909  1
  Bi  Bi27  1  0.565981  0.491927  0.173579  1
  Bi  Bi28  1  0.432986  0.508643  0.826966  1
  Ir  Ir29  1  0.928931  0.750000  0.991554  1
  Ir  Ir30  1  0.072461  0.250000  0.009122  1
  Ir  Ir31  1  0.429706  0.250000  0.508100  1
