# generated using pymatgen
data_Dy2YIn3CoPt2
_symmetry_space_group_name_H-M   'P 1'
_cell_length_a   7.67408593
_cell_length_b   7.67408441
_cell_length_c   3.77164100
_cell_angle_alpha   90.00000000
_cell_angle_beta   90.00000000
_cell_angle_gamma   120.15401220
_symmetry_Int_Tables_number   1
_chemical_formula_structural   Dy2YIn3CoPt2
_chemical_formula_sum   'Dy2 Y1 In3 Co1 Pt2'
_cell_volume   192.06052913
_cell_formula_units_Z   1
loop_
 _symmetry_equiv_pos_site_id
 _symmetry_equiv_pos_as_xyz
  1  'x, y, z'
loop_
 _atom_site_type_symbol
 _atom_site_label
 _atom_site_symmetry_multiplicity
 _atom_site_fract_x
 _atom_site_fract_y
 _atom_site_fract_z
 _atom_site_occupancy
  Dy  Dy0  1  0.406224  0.999937  0.500000  1
  Dy  Dy1  1  0.999937  0.406224  0.500000  1
  Y  Y2  1  0.593963  0.593963  0.500000  1
  In  In3  1  0.752341  0.000109  0.000000  1
  In  In4  1  0.247646  0.247646  0.000000  1
  In  In5  1  0.000109  0.752341  0.000000  1
  Co  Co6  1  0.000445  0.000445  0.500000  1
  Pt  Pt7  1  0.667031  0.332304  0.000000  1
  Pt  Pt8  1  0.332304  0.667031  0.000000  1
