# generated using pymatgen
data_TbHoTcB6
_symmetry_space_group_name_H-M   'P 1'
_cell_length_a   3.68770900
_cell_length_b   9.16488300
_cell_length_c   11.56114800
_cell_angle_alpha   90.00000000
_cell_angle_beta   90.00000000
_cell_angle_gamma   90.00000000
_symmetry_Int_Tables_number   1
_chemical_formula_structural   TbHoTcB6
_chemical_formula_sum   'Tb4 Ho4 Tc4 B24'
_cell_volume   390.73699225
_cell_formula_units_Z   4
loop_
 _symmetry_equiv_pos_site_id
 _symmetry_equiv_pos_as_xyz
  1  'x, y, z'
loop_
 _atom_site_type_symbol
 _atom_site_label
 _atom_site_symmetry_multiplicity
 _atom_site_fract_x
 _atom_site_fract_y
 _atom_site_fract_z
 _atom_site_occupancy
  Tb  Tb0  1  0.000000  0.324148  0.414283  1
  Tb  Tb1  1  0.000000  0.675852  0.585717  1
  Tb  Tb2  1  0.000000  0.824148  0.085717  1
  Tb  Tb3  1  0.000000  0.175852  0.914283  1
  Ho  Ho4  1  0.000000  0.943040  0.369534  1
  Ho  Ho5  1  0.000000  0.056960  0.630466  1
  Ho  Ho6  1  0.000000  0.443040  0.130466  1
  Ho  Ho7  1  0.000000  0.556960  0.869534  1
  Tc  Tc8  1  0.000000  0.639038  0.320256  1
  Tc  Tc9  1  0.000000  0.360962  0.679744  1
  Tc  Tc10  1  0.000000  0.139038  0.179744  1
  Tc  Tc11  1  0.000000  0.860962  0.820256  1
  B  B12  1  0.500000  0.553721  0.432469  1
  B  B13  1  0.500000  0.446279  0.567531  1
  B  B14  1  0.500000  0.053721  0.067531  1
  B  B15  1  0.500000  0.946279  0.932469  1
  B  B16  1  0.500000  0.749189  0.418197  1
  B  B17  1  0.500000  0.250811  0.581803  1
  B  B18  1  0.500000  0.249189  0.081803  1
  B  B19  1  0.500000  0.750811  0.918197  1
  B  B20  1  0.500000  0.792164  0.265532  1
  B  B21  1  0.500000  0.207836  0.734468  1
  B  B22  1  0.500000  0.292164  0.234468  1
  B  B23  1  0.500000  0.707836  0.765532  1
  B  B24  1  0.500000  0.630845  0.185716  1
  B  B25  1  0.500000  0.369155  0.814284  1
  B  B26  1  0.500000  0.130845  0.314284  1
  B  B27  1  0.500000  0.869155  0.685716  1
  B  B28  1  0.500000  0.982652  0.212051  1
  B  B29  1  0.500000  0.017348  0.787949  1
  B  B30  1  0.500000  0.482652  0.287949  1
  B  B31  1  0.500000  0.517348  0.712051  1
  B  B32  1  0.500000  0.599339  0.027706  1
  B  B33  1  0.500000  0.400661  0.972294  1
  B  B34  1  0.500000  0.099339  0.472294  1
  B  B35  1  0.500000  0.900661  0.527706  1
