# generated using pymatgen
data_Dy4Pd3PtPb2
_symmetry_space_group_name_H-M   'P 1'
_cell_length_a   7.92216907
_cell_length_b   7.92216907
_cell_length_c   3.64377200
_cell_angle_alpha   90.00000000
_cell_angle_beta   90.00000000
_cell_angle_gamma   89.72949596
_symmetry_Int_Tables_number   1
_chemical_formula_structural   Dy4Pd3PtPb2
_chemical_formula_sum   'Dy4 Pd3 Pt1 Pb2'
_cell_volume   228.68336160
_cell_formula_units_Z   1
loop_
 _symmetry_equiv_pos_site_id
 _symmetry_equiv_pos_as_xyz
  1  'x, y, z'
loop_
 _atom_site_type_symbol
 _atom_site_label
 _atom_site_symmetry_multiplicity
 _atom_site_fract_x
 _atom_site_fract_y
 _atom_site_fract_z
 _atom_site_occupancy
  Dy  Dy0  1  0.665667  0.172071  0.500000  1
  Dy  Dy1  1  0.176078  0.323922  0.500000  1
  Dy  Dy2  1  0.828072  0.671928  0.500000  1
  Dy  Dy3  1  0.327929  0.834333  0.500000  1
  Pd  Pd4  1  0.125401  0.625328  0.000000  1
  Pd  Pd5  1  0.628588  0.871412  0.000000  1
  Pd  Pd6  1  0.874672  0.374599  0.000000  1
  Pt  Pt7  1  0.376942  0.123058  0.000000  1
  Pb  Pb8  1  0.996426  0.999775  0.000000  1
  Pb  Pb9  1  0.500225  0.503574  0.000000  1
