# generated using pymatgen
data_TlBiPb2F14
_symmetry_space_group_name_H-M   'P 1'
_cell_length_a   5.66127950
_cell_length_b   9.24333856
_cell_length_c   12.43661400
_cell_angle_alpha   62.17767647
_cell_angle_beta   89.73952416
_cell_angle_gamma   89.88899664
_symmetry_Int_Tables_number   1
_chemical_formula_structural   TlBiPb2F14
_chemical_formula_sum   'Tl2 Bi2 Pb4 F28'
_cell_volume   575.55847545
_cell_formula_units_Z   2
loop_
 _symmetry_equiv_pos_site_id
 _symmetry_equiv_pos_as_xyz
  1  'x, y, z'
loop_
 _atom_site_type_symbol
 _atom_site_label
 _atom_site_symmetry_multiplicity
 _atom_site_fract_x
 _atom_site_fract_y
 _atom_site_fract_z
 _atom_site_occupancy
  Tl  Tl0  1  0.240640  0.812946  0.762427  1
  Tl  Tl1  1  0.759360  0.187168  0.237604  1
  Bi  Bi2  1  0.256114  0.821638  0.262242  1
  Bi  Bi3  1  0.743943  0.178467  0.737685  1
  Pb  Pb4  1  0.756217  0.720837  0.040421  1
  Pb  Pb5  1  0.243722  0.279249  0.959573  1
  Pb  Pb6  1  0.257865  0.269080  0.456672  1
  Pb  Pb7  1  0.742282  0.730850  0.543405  1
  F  F8  1  0.940812  0.712926  0.406601  1
  F  F9  1  0.060090  0.287095  0.593622  1
  F  F10  1  0.444261  0.305482  0.089223  1
  F  F11  1  0.555791  0.694730  0.910690  1
  F  F12  1  0.455115  0.726512  0.137511  1
  F  F13  1  0.544692  0.273605  0.862378  1
  F  F14  1  0.949541  0.273980  0.360850  1
  F  F15  1  0.050215  0.725842  0.639434  1
  F  F16  1  0.943206  0.747590  0.176737  1
  F  F17  1  0.056601  0.252498  0.823320  1
  F  F18  1  0.445143  0.254500  0.314037  1
  F  F19  1  0.554256  0.744917  0.686013  1
  F  F20  1  0.792091  0.467627  0.148816  1
  F  F21  1  0.207823  0.532462  0.851368  1
  F  F22  1  0.284512  0.522824  0.360251  1
  F  F23  1  0.715762  0.477076  0.639501  1
  F  F24  1  0.920025  0.276748  0.046629  1
  F  F25  1  0.079926  0.723427  0.953377  1
  F  F26  1  0.422037  0.732492  0.455524  1
  F  F27  1  0.578593  0.267161  0.544321  1
  F  F28  1  0.738824  0.985937  0.446820  1
  F  F29  1  0.260959  0.013957  0.553218  1
  F  F30  1  0.237934  0.021185  0.058042  1
  F  F31  1  0.761839  0.978910  0.941901  1
  F  F32  1  0.592313  0.976997  0.230868  1
  F  F33  1  0.407613  0.023228  0.768994  1
  F  F34  1  0.088638  0.040401  0.267319  1
  F  F35  1  0.911245  0.959657  0.732609  1
