# generated using pymatgen
data_Dy16Tl2CdInRh4
_symmetry_space_group_name_H-M   'P 1'
_cell_length_a   9.67357415
_cell_length_b   9.67126699
_cell_length_c   9.66286698
_cell_angle_alpha   60.00326030
_cell_angle_beta   59.96333853
_cell_angle_gamma   59.99211620
_symmetry_Int_Tables_number   1
_chemical_formula_structural   Dy16Tl2CdInRh4
_chemical_formula_sum   'Dy16 Tl2 Cd1 In1 Rh4'
_cell_volume   639.03653861
_cell_formula_units_Z   1
loop_
 _symmetry_equiv_pos_site_id
 _symmetry_equiv_pos_as_xyz
  1  'x, y, z'
loop_
 _atom_site_type_symbol
 _atom_site_label
 _atom_site_symmetry_multiplicity
 _atom_site_fract_x
 _atom_site_fract_y
 _atom_site_fract_z
 _atom_site_occupancy
  Dy  Dy0  1  0.565450  0.559985  0.937123  1
  Dy  Dy1  1  0.150560  0.549468  0.149413  1
  Dy  Dy2  1  0.688495  0.311161  0.311851  1
  Dy  Dy3  1  0.937809  0.560714  0.563668  1
  Dy  Dy4  1  0.937441  0.559985  0.937123  1
  Dy  Dy5  1  0.688619  0.690110  0.312174  1
  Dy  Dy6  1  0.563111  0.935875  0.937903  1
  Dy  Dy7  1  0.151844  0.150316  0.150805  1
  Dy  Dy8  1  0.309097  0.690110  0.312174  1
  Dy  Dy9  1  0.547036  0.150316  0.150805  1
  Dy  Dy10  1  0.310435  0.313545  0.688566  1
  Dy  Dy11  1  0.310926  0.689214  0.688933  1
  Dy  Dy12  1  0.150679  0.149492  0.549152  1
  Dy  Dy13  1  0.687455  0.313545  0.688566  1
  Dy  Dy14  1  0.938170  0.936427  0.562082  1
  Dy  Dy15  1  0.563321  0.936427  0.562082  1
  Tl  Tl16  1  0.913570  0.917660  0.915427  1
  Tl  Tl17  1  0.253342  0.917660  0.915427  1
  Cd  Cd18  1  0.916519  0.248395  0.918565  1
  In  In19  1  0.915534  0.919811  0.249119  1
  Rh  Rh20  1  0.357702  0.357539  0.927057  1
  Rh  Rh21  1  0.357491  0.357501  0.357217  1
  Rh  Rh22  1  0.927792  0.357501  0.357217  1
  Rh  Rh23  1  0.357603  0.927243  0.357550  1
