# generated using pymatgen
data_HoEr4TmIr2
_symmetry_space_group_name_H-M   'P 1'
_cell_length_a   6.36613853
_cell_length_b   7.20227800
_cell_length_c   9.07709376
_cell_angle_alpha   90.00000000
_cell_angle_beta   89.95308360
_cell_angle_gamma   90.00000000
_symmetry_Int_Tables_number   1
_chemical_formula_structural   HoEr4TmIr2
_chemical_formula_sum   'Ho2 Er8 Tm2 Ir4'
_cell_volume   416.19095888
_cell_formula_units_Z   2
loop_
 _symmetry_equiv_pos_site_id
 _symmetry_equiv_pos_as_xyz
  1  'x, y, z'
loop_
 _atom_site_type_symbol
 _atom_site_label
 _atom_site_symmetry_multiplicity
 _atom_site_fract_x
 _atom_site_fract_y
 _atom_site_fract_z
 _atom_site_occupancy
  Ho  Ho0  1  0.872269  0.533989  0.249969  1
  Ho  Ho1  1  0.627731  0.033989  0.250031  1
  Er  Er2  1  0.672641  0.322520  0.562114  1
  Er  Er3  1  0.827359  0.822520  0.937886  1
  Er  Er4  1  0.672527  0.322663  0.937871  1
  Er  Er5  1  0.827473  0.822663  0.562129  1
  Er  Er6  1  0.327754  0.677220  0.438313  1
  Er  Er7  1  0.172246  0.177220  0.061687  1
  Er  Er8  1  0.127577  0.466193  0.750003  1
  Er  Er9  1  0.372423  0.966193  0.749997  1
  Tm  Tm10  1  0.327845  0.677122  0.061699  1
  Tm  Tm11  1  0.172155  0.177122  0.438301  1
  Ir  Ir12  1  0.043778  0.884353  0.249956  1
  Ir  Ir13  1  0.456222  0.384353  0.250044  1
  Ir  Ir14  1  0.958469  0.115939  0.749833  1
  Ir  Ir15  1  0.541531  0.615939  0.750167  1
