# generated using pymatgen
data_K3ScIr2O9
_symmetry_space_group_name_H-M   'P 1'
_cell_length_a   5.86041600
_cell_length_b   5.86045575
_cell_length_c   14.25056000
_cell_angle_alpha   90.00000000
_cell_angle_beta   90.00000000
_cell_angle_gamma   119.99936561
_symmetry_Int_Tables_number   1
_chemical_formula_structural   K3ScIr2O9
_chemical_formula_sum   'K6 Sc2 Ir4 O18'
_cell_volume   423.86267567
_cell_formula_units_Z   2
loop_
 _symmetry_equiv_pos_site_id
 _symmetry_equiv_pos_as_xyz
  1  'x, y, z'
loop_
 _atom_site_type_symbol
 _atom_site_label
 _atom_site_symmetry_multiplicity
 _atom_site_fract_x
 _atom_site_fract_y
 _atom_site_fract_z
 _atom_site_occupancy
  K  K0  1  0.333344  0.666663  0.096449  1
  K  K1  1  0.666656  0.333337  0.903551  1
  K  K2  1  0.666656  0.333337  0.596449  1
  K  K3  1  0.333344  0.666663  0.403551  1
  K  K4  1  0.999997  0.999997  0.250000  1
  K  K5  1  0.000003  0.000003  0.750000  1
  Sc  Sc6  1  0.000000  0.000000  0.000000  1
  Sc  Sc7  1  0.000000  0.000000  0.500000  1
  Ir  Ir8  1  0.333331  0.666664  0.650907  1
  Ir  Ir9  1  0.666669  0.333336  0.349093  1
  Ir  Ir10  1  0.666669  0.333336  0.150907  1
  Ir  Ir11  1  0.333331  0.666664  0.849093  1
  O  O12  1  0.526130  0.052260  0.250000  1
  O  O13  1  0.473870  0.947740  0.750000  1
  O  O14  1  0.947731  0.473861  0.250000  1
  O  O15  1  0.052269  0.526139  0.750000  1
  O  O16  1  0.526131  0.473861  0.250000  1
  O  O17  1  0.473869  0.526139  0.750000  1
  O  O18  1  0.173389  0.346778  0.580774  1
  O  O19  1  0.826611  0.653222  0.419226  1
  O  O20  1  0.653224  0.826615  0.580774  1
  O  O21  1  0.826611  0.653222  0.080774  1
  O  O22  1  0.346776  0.173385  0.419226  1
  O  O23  1  0.173389  0.346778  0.919226  1
  O  O24  1  0.173389  0.826615  0.580774  1
  O  O25  1  0.346776  0.173385  0.080774  1
  O  O26  1  0.826611  0.173385  0.419226  1
  O  O27  1  0.653224  0.826615  0.919226  1
  O  O28  1  0.826611  0.173385  0.080774  1
  O  O29  1  0.173389  0.826615  0.919226  1
