# generated using pymatgen
data_Er2Lu(SnPd)3
_symmetry_space_group_name_H-M   'P 1'
_cell_length_a   7.63719450
_cell_length_b   7.63719411
_cell_length_c   3.82200500
_cell_angle_alpha   90.00000000
_cell_angle_beta   90.00000000
_cell_angle_gamma   119.80117131
_symmetry_Int_Tables_number   1
_chemical_formula_structural   Er2Lu(SnPd)3
_chemical_formula_sum   'Er2 Lu1 Sn3 Pd3'
_cell_volume   193.44441789
_cell_formula_units_Z   1
loop_
 _symmetry_equiv_pos_site_id
 _symmetry_equiv_pos_as_xyz
  1  'x, y, z'
loop_
 _atom_site_type_symbol
 _atom_site_label
 _atom_site_symmetry_multiplicity
 _atom_site_fract_x
 _atom_site_fract_y
 _atom_site_fract_z
 _atom_site_occupancy
  Er  Er0  1  0.598521  0.000245  0.500000  1
  Er  Er1  1  0.000245  0.598521  0.500000  1
  Lu  Lu2  1  0.400982  0.400982  0.500000  1
  Sn  Sn3  1  0.736351  0.736351  0.000000  1
  Sn  Sn4  1  0.263750  0.001087  0.000000  1
  Sn  Sn5  1  0.001087  0.263750  0.000000  1
  Pd  Pd6  1  0.664701  0.333725  0.000000  1
  Pd  Pd7  1  0.333725  0.664701  0.000000  1
  Pd  Pd8  1  0.000637  0.000637  0.500000  1
