# generated using pymatgen
data_Pr4Al18Ir2Pt3Rh
_symmetry_space_group_name_H-M   'P 1'
_cell_length_a   7.67388747
_cell_length_b   7.67389073
_cell_length_c   9.58966707
_cell_angle_alpha   89.92591771
_cell_angle_beta   89.92580948
_cell_angle_gamma   119.67295326
_symmetry_Int_Tables_number   1
_chemical_formula_structural   Pr4Al18Ir2Pt3Rh
_chemical_formula_sum   'Pr4 Al18 Ir2 Pt3 Rh1'
_cell_volume   490.66556605
_cell_formula_units_Z   1
loop_
 _symmetry_equiv_pos_site_id
 _symmetry_equiv_pos_as_xyz
  1  'x, y, z'
loop_
 _atom_site_type_symbol
 _atom_site_label
 _atom_site_symmetry_multiplicity
 _atom_site_fract_x
 _atom_site_fract_y
 _atom_site_fract_z
 _atom_site_occupancy
  Pr  Pr0  1  0.994640  0.668928  0.250051  1
  Pr  Pr1  1  0.005360  0.331072  0.749949  1
  Pr  Pr2  1  0.668929  0.994639  0.250051  1
  Pr  Pr3  1  0.331071  0.005361  0.749949  1
  Al  Al4  1  0.131095  0.131094  0.247963  1
  Al  Al5  1  0.868905  0.868906  0.752037  1
  Al  Al6  1  0.002571  0.330659  0.074378  1
  Al  Al7  1  0.997429  0.669341  0.925622  1
  Al  Al8  1  0.998855  0.662049  0.572362  1
  Al  Al9  1  0.337951  0.001145  0.427638  1
  Al  Al10  1  0.001145  0.337951  0.427638  1
  Al  Al11  1  0.662049  0.998855  0.572362  1
  Al  Al12  1  0.669342  0.997429  0.925622  1
  Al  Al13  1  0.330658  0.002571  0.074378  1
  Al  Al14  1  0.336217  0.336217  0.546955  1
  Al  Al15  1  0.663783  0.663783  0.453045  1
  Al  Al16  1  0.668008  0.668008  0.052308  1
  Al  Al17  1  0.331992  0.331992  0.947692  1
  Al  Al18  1  0.340664  0.545477  0.253310  1
  Al  Al19  1  0.659336  0.454523  0.746690  1
  Al  Al20  1  0.545477  0.340664  0.253310  1
  Al  Al21  1  0.454523  0.659336  0.746690  1
  Ir  Ir22  1  0.329273  0.670725  0.499999  1
  Ir  Ir23  1  0.670727  0.329275  0.500001  1
  Pt  Pt24  1  0.671319  0.328678  0.000000  1
  Pt  Pt25  1  0.328681  0.671322  0.000000  1
  Pt  Pt26  1  0.000000  0.000000  0.500000  1
  Rh  Rh27  1  0.000000  0.000000  0.000000  1
