# generated using pymatgen
data_Tm2Al7Si2OsRh2
_symmetry_space_group_name_H-M   'P 1'
_cell_length_a   7.49853139
_cell_length_b   7.46671963
_cell_length_c   9.27549280
_cell_angle_alpha   89.98800280
_cell_angle_beta   89.84691611
_cell_angle_gamma   119.46216100
_symmetry_Int_Tables_number   1
_chemical_formula_structural   Tm2Al7Si2OsRh2
_chemical_formula_sum   'Tm4 Al14 Si4 Os2 Rh4'
_cell_volume   452.16793127
_cell_formula_units_Z   2
loop_
 _symmetry_equiv_pos_site_id
 _symmetry_equiv_pos_as_xyz
  1  'x, y, z'
loop_
 _atom_site_type_symbol
 _atom_site_label
 _atom_site_symmetry_multiplicity
 _atom_site_fract_x
 _atom_site_fract_y
 _atom_site_fract_z
 _atom_site_occupancy
  Tm  Tm0  1  0.994164  0.673692  0.242520  1
  Tm  Tm1  1  0.005836  0.326308  0.757480  1
  Tm  Tm2  1  0.685790  0.001066  0.247642  1
  Tm  Tm3  1  0.314210  0.998934  0.752358  1
  Al  Al4  1  0.997509  0.662844  0.573172  1
  Al  Al5  1  0.337397  0.999776  0.421929  1
  Al  Al6  1  0.002491  0.337156  0.426828  1
  Al  Al7  1  0.662603  0.000224  0.578071  1
  Al  Al8  1  0.658578  0.995708  0.920028  1
  Al  Al9  1  0.341422  0.004292  0.079972  1
  Al  Al10  1  0.333670  0.332618  0.556628  1
  Al  Al11  1  0.666330  0.667382  0.443372  1
  Al  Al12  1  0.662254  0.666411  0.056582  1
  Al  Al13  1  0.337746  0.333589  0.943418  1
  Al  Al14  1  0.337304  0.553658  0.249487  1
  Al  Al15  1  0.662696  0.446342  0.750513  1
  Al  Al16  1  0.552008  0.340115  0.250613  1
  Al  Al17  1  0.447992  0.659885  0.749387  1
  Si  Si18  1  0.133076  0.127166  0.250788  1
  Si  Si19  1  0.866924  0.872834  0.749212  1
  Si  Si20  1  0.003994  0.330779  0.080103  1
  Si  Si21  1  0.996006  0.669221  0.919897  1
  Os  Os22  1  0.000000  0.000000  0.000000  1
  Os  Os23  1  0.000000  0.000000  0.500000  1
  Rh  Rh24  1  0.689894  0.337342  0.002078  1
  Rh  Rh25  1  0.310106  0.662658  0.997922  1
  Rh  Rh26  1  0.326894  0.671064  0.500247  1
  Rh  Rh27  1  0.673106  0.328936  0.499753  1
