# generated using pymatgen
data_Gd8Y12Si15S
_symmetry_space_group_name_H-M   'P 1'
_cell_length_a   7.56482663
_cell_length_b   7.73277378
_cell_length_c   14.75586500
_cell_angle_alpha   89.76620825
_cell_angle_beta   86.59614134
_cell_angle_gamma   89.96770194
_symmetry_Int_Tables_number   1
_chemical_formula_structural   Gd8Y12Si15S
_chemical_formula_sum   'Gd8 Y12 Si15 S1'
_cell_volume   861.64520243
_cell_formula_units_Z   1
loop_
 _symmetry_equiv_pos_site_id
 _symmetry_equiv_pos_as_xyz
  1  'x, y, z'
loop_
 _atom_site_type_symbol
 _atom_site_label
 _atom_site_symmetry_multiplicity
 _atom_site_fract_x
 _atom_site_fract_y
 _atom_site_fract_z
 _atom_site_occupancy
  Gd  Gd0  1  0.021094  0.182322  0.100336  1
  Gd  Gd1  1  0.978700  0.819246  0.899149  1
  Gd  Gd2  1  0.478744  0.684670  0.899408  1
  Gd  Gd3  1  0.003799  0.826203  0.599233  1
  Gd  Gd4  1  0.520888  0.317982  0.100744  1
  Gd  Gd5  1  0.986178  0.167401  0.396476  1
  Gd  Gd6  1  0.499729  0.311620  0.397672  1
  Gd  Gd7  1  0.507448  0.683939  0.600328  1
  Y  Y8  1  0.172746  0.510804  0.750350  1
  Y  Y9  1  0.828276  0.491313  0.253691  1
  Y  Y10  1  0.325699  0.005808  0.253306  1
  Y  Y11  1  0.672609  0.993020  0.746710  1
  Y  Y12  1  0.358297  0.169118  0.618776  1
  Y  Y13  1  0.642487  0.832747  0.380267  1
  Y  Y14  1  0.145160  0.657116  0.385750  1
  Y  Y15  1  0.672287  0.820576  0.122485  1
  Y  Y16  1  0.860813  0.336535  0.616276  1
  Y  Y17  1  0.326286  0.178742  0.876757  1
  Y  Y18  1  0.826859  0.323263  0.876510  1
  Y  Y19  1  0.173644  0.677248  0.122253  1
  Si  Si20  1  0.046379  0.112117  0.748281  1
  Si  Si21  1  0.953672  0.886727  0.249571  1
  Si  Si22  1  0.452034  0.607689  0.250765  1
  Si  Si23  1  0.547876  0.391008  0.748176  1
  Si  Si24  1  0.287074  0.874742  0.749699  1
  Si  Si25  1  0.712412  0.125488  0.247861  1
  Si  Si26  1  0.212422  0.372590  0.249722  1
  Si  Si27  1  0.788792  0.627615  0.750014  1
  Si  Si28  1  0.790289  0.531249  0.455838  1
  Si  Si29  1  0.291787  0.965389  0.457946  1
  Si  Si30  1  0.854105  0.528256  0.040469  1
  Si  Si31  1  0.701295  0.035266  0.543621  1
  Si  Si32  1  0.145259  0.473458  0.958095  1
  Si  Si33  1  0.644782  0.030308  0.958952  1
  Si  Si34  1  0.353898  0.972930  0.041349  1
  S  S35  1  0.216188  0.475494  0.553160  1
