# generated using pymatgen
data_YAlCd2(Ni3B)2
_symmetry_space_group_name_H-M   'P 1'
_cell_length_a   5.11809300
_cell_length_b   5.11809277
_cell_length_c   13.66321200
_cell_angle_alpha   90.00000000
_cell_angle_beta   90.00000000
_cell_angle_gamma   120.00000796
_symmetry_Int_Tables_number   1
_chemical_formula_structural   YAlCd2(Ni3B)2
_chemical_formula_sum   'Y2 Al2 Cd4 Ni12 B4'
_cell_volume   309.95577350
_cell_formula_units_Z   2
loop_
 _symmetry_equiv_pos_site_id
 _symmetry_equiv_pos_as_xyz
  1  'x, y, z'
loop_
 _atom_site_type_symbol
 _atom_site_label
 _atom_site_symmetry_multiplicity
 _atom_site_fract_x
 _atom_site_fract_y
 _atom_site_fract_z
 _atom_site_occupancy
  Y  Y0  1  0.333333  0.666667  0.750000  1
  Y  Y1  1  0.666667  0.333333  0.250000  1
  Al  Al2  1  0.000000  0.000000  0.500000  1
  Al  Al3  1  0.000000  0.000000  0.000000  1
  Cd  Cd4  1  0.333333  0.666667  0.972884  1
  Cd  Cd5  1  0.666667  0.333333  0.027116  1
  Cd  Cd6  1  0.666667  0.333333  0.472884  1
  Cd  Cd7  1  0.333333  0.666667  0.527116  1
  Ni  Ni8  1  0.165931  0.834069  0.351508  1
  Ni  Ni9  1  0.165931  0.331863  0.351508  1
  Ni  Ni10  1  0.668137  0.834069  0.351508  1
  Ni  Ni11  1  0.834069  0.165931  0.648492  1
  Ni  Ni12  1  0.834069  0.668137  0.648492  1
  Ni  Ni13  1  0.331863  0.165931  0.648492  1
  Ni  Ni14  1  0.834069  0.165931  0.851508  1
  Ni  Ni15  1  0.834069  0.668137  0.851508  1
  Ni  Ni16  1  0.331863  0.165931  0.851508  1
  Ni  Ni17  1  0.165931  0.834069  0.148492  1
  Ni  Ni18  1  0.165931  0.331863  0.148492  1
  Ni  Ni19  1  0.668137  0.834069  0.148492  1
  B  B20  1  0.333333  0.666667  0.250000  1
  B  B21  1  0.666667  0.333333  0.750000  1
  B  B22  1  0.000000  0.000000  0.250000  1
  B  B23  1  0.000000  0.000000  0.750000  1
