# generated using pymatgen
data_Sr5Sn2Pb
_symmetry_space_group_name_H-M   'P 1'
_cell_length_a   10.37523974
_cell_length_b   10.37523982
_cell_length_c   10.37523911
_cell_angle_alpha   131.10904414
_cell_angle_beta   131.10904222
_cell_angle_gamma   71.63988912
_symmetry_Int_Tables_number   1
_chemical_formula_structural   Sr5Sn2Pb
_chemical_formula_sum   'Sr10 Sn4 Pb2'
_cell_volume   620.35218007
_cell_formula_units_Z   2
loop_
 _symmetry_equiv_pos_site_id
 _symmetry_equiv_pos_as_xyz
  1  'x, y, z'
loop_
 _atom_site_type_symbol
 _atom_site_label
 _atom_site_symmetry_multiplicity
 _atom_site_fract_x
 _atom_site_fract_y
 _atom_site_fract_z
 _atom_site_occupancy
  Sr  Sr0  1  0.000000  0.000000  0.000000  1
  Sr  Sr1  1  0.500000  0.500000  0.000000  1
  Sr  Sr2  1  0.816880  0.316881  0.849094  1
  Sr  Sr3  1  0.467786  0.967787  0.150907  1
  Sr  Sr4  1  0.683120  0.532214  0.500001  1
  Sr  Sr5  1  0.032214  0.183120  0.500001  1
  Sr  Sr6  1  0.183119  0.683120  0.150907  1
  Sr  Sr7  1  0.532214  0.032214  0.849094  1
  Sr  Sr8  1  0.967787  0.816881  0.500001  1
  Sr  Sr9  1  0.316881  0.467787  0.500001  1
  Sn  Sn10  1  0.878701  0.378701  0.257402  1
  Sn  Sn11  1  0.121299  0.621299  0.742598  1
  Sn  Sn12  1  0.621299  0.878701  0.500000  1
  Sn  Sn13  1  0.378701  0.121299  0.500000  1
  Pb  Pb14  1  0.250000  0.250000  0.000000  1
  Pb  Pb15  1  0.750000  0.750000  0.000000  1
