# generated using pymatgen
data_Nd4ZnCo
_symmetry_space_group_name_H-M   'P 1'
_cell_length_a   9.67912736
_cell_length_b   9.67912790
_cell_length_c   9.67912800
_cell_angle_alpha   59.99999966
_cell_angle_beta   59.99999783
_cell_angle_gamma   60.00000236
_symmetry_Int_Tables_number   1
_chemical_formula_structural   Nd4ZnCo
_chemical_formula_sum   'Nd16 Zn4 Co4'
_cell_volume   641.20022792
_cell_formula_units_Z   4
loop_
 _symmetry_equiv_pos_site_id
 _symmetry_equiv_pos_as_xyz
  1  'x, y, z'
loop_
 _atom_site_type_symbol
 _atom_site_label
 _atom_site_symmetry_multiplicity
 _atom_site_fract_x
 _atom_site_fract_y
 _atom_site_fract_z
 _atom_site_occupancy
  Nd  Nd0  1  0.599339  0.599339  0.599339  1
  Nd  Nd1  1  0.599339  0.599339  0.201983  1
  Nd  Nd2  1  0.599339  0.201983  0.599339  1
  Nd  Nd3  1  0.201983  0.599339  0.599339  1
  Nd  Nd4  1  0.057919  0.442081  0.442081  1
  Nd  Nd5  1  0.442081  0.057919  0.057919  1
  Nd  Nd6  1  0.442081  0.057919  0.442081  1
  Nd  Nd7  1  0.057919  0.442081  0.057919  1
  Nd  Nd8  1  0.442081  0.442081  0.057919  1
  Nd  Nd9  1  0.057919  0.057919  0.442081  1
  Nd  Nd10  1  0.188969  0.811031  0.811031  1
  Nd  Nd11  1  0.811031  0.188969  0.188969  1
  Nd  Nd12  1  0.811031  0.188969  0.811031  1
  Nd  Nd13  1  0.188969  0.811031  0.188969  1
  Nd  Nd14  1  0.811031  0.811031  0.188969  1
  Nd  Nd15  1  0.188969  0.188969  0.811031  1
  Zn  Zn16  1  0.827105  0.827105  0.827105  1
  Zn  Zn17  1  0.827105  0.827105  0.518685  1
  Zn  Zn18  1  0.827105  0.518685  0.827105  1
  Zn  Zn19  1  0.518685  0.827105  0.827105  1
  Co  Co20  1  0.391020  0.391020  0.391020  1
  Co  Co21  1  0.391020  0.391020  0.826941  1
  Co  Co22  1  0.391020  0.826941  0.391020  1
  Co  Co23  1  0.826941  0.391020  0.391020  1
