# generated using pymatgen
data_Sc6Zn21SiAu2
_symmetry_space_group_name_H-M   'P 1'
_cell_length_a   8.83433251
_cell_length_b   8.83433130
_cell_length_c   8.82598100
_cell_angle_alpha   60.03126611
_cell_angle_beta   60.03127063
_cell_angle_gamma   60.21624180
_symmetry_Int_Tables_number   1
_chemical_formula_structural   Sc6Zn21SiAu2
_chemical_formula_sum   'Sc6 Zn21 Si1 Au2'
_cell_volume   488.09673536
_cell_formula_units_Z   1
loop_
 _symmetry_equiv_pos_site_id
 _symmetry_equiv_pos_as_xyz
  1  'x, y, z'
loop_
 _atom_site_type_symbol
 _atom_site_label
 _atom_site_symmetry_multiplicity
 _atom_site_fract_x
 _atom_site_fract_y
 _atom_site_fract_z
 _atom_site_occupancy
  Sc  Sc0  1  0.712298  0.287702  0.285881  1
  Sc  Sc1  1  0.287702  0.712298  0.714119  1
  Sc  Sc2  1  0.287702  0.712298  0.285881  1
  Sc  Sc3  1  0.712298  0.287702  0.714119  1
  Sc  Sc4  1  0.283767  0.283767  0.716233  1
  Sc  Sc5  1  0.716233  0.716233  0.283767  1
  Zn  Zn6  1  0.125646  0.125646  0.124268  1
  Zn  Zn7  1  0.874354  0.874354  0.875732  1
  Zn  Zn8  1  0.125646  0.125646  0.624443  1
  Zn  Zn9  1  0.126882  0.624717  0.124201  1
  Zn  Zn10  1  0.874354  0.874354  0.375557  1
  Zn  Zn11  1  0.873118  0.375283  0.875799  1
  Zn  Zn12  1  0.624717  0.126882  0.124201  1
  Zn  Zn13  1  0.375283  0.873118  0.875799  1
  Zn  Zn14  1  0.500000  0.000000  0.000000  1
  Zn  Zn15  1  0.000000  0.500000  0.500000  1
  Zn  Zn16  1  0.000000  0.500000  0.000000  1
  Zn  Zn17  1  0.500000  0.000000  0.500000  1
  Zn  Zn18  1  0.500000  0.500000  0.000000  1
  Zn  Zn19  1  0.338628  0.338628  0.340280  1
  Zn  Zn20  1  0.661372  0.661372  0.659720  1
  Zn  Zn21  1  0.338628  0.338628  0.982467  1
  Zn  Zn22  1  0.346644  0.976545  0.338406  1
  Zn  Zn23  1  0.661372  0.661372  0.017533  1
  Zn  Zn24  1  0.653356  0.023455  0.661594  1
  Zn  Zn25  1  0.976545  0.346644  0.338406  1
  Zn  Zn26  1  0.023455  0.653356  0.661594  1
  Si  Si27  1  0.500000  0.500000  0.500000  1
  Au  Au28  1  0.000000  0.000000  0.500000  1
  Au  Au29  1  0.000000  0.000000  0.000000  1
