# generated using pymatgen
data_BaSr3(Si5Pt3)2
_symmetry_space_group_name_H-M   'P 1'
_cell_length_a   8.41323842
_cell_length_b   8.40221839
_cell_length_c   8.40221700
_cell_angle_alpha   136.89329473
_cell_angle_beta   105.86638012
_cell_angle_gamma   89.78051411
_symmetry_Int_Tables_number   1
_chemical_formula_structural   BaSr3(Si5Pt3)2
_chemical_formula_sum   'Ba1 Sr3 Si10 Pt6'
_cell_volume   372.70150249
_cell_formula_units_Z   1
loop_
 _symmetry_equiv_pos_site_id
 _symmetry_equiv_pos_as_xyz
  1  'x, y, z'
loop_
 _atom_site_type_symbol
 _atom_site_label
 _atom_site_symmetry_multiplicity
 _atom_site_fract_x
 _atom_site_fract_y
 _atom_site_fract_z
 _atom_site_occupancy
  Ba  Ba0  1  0.867389  0.629441  0.237947  1
  Sr  Sr1  1  0.134347  0.370979  0.763367  1
  Sr  Sr2  1  0.392317  0.128809  0.263509  1
  Sr  Sr3  1  0.607225  0.871409  0.735816  1
  Si  Si4  1  0.498238  0.747997  0.247525  1
  Si  Si5  1  0.498238  0.250714  0.750243  1
  Si  Si6  1  0.235345  0.985720  0.752436  1
  Si  Si7  1  0.766055  0.518136  0.748856  1
  Si  Si8  1  0.766055  0.017200  0.247921  1
  Si  Si9  1  0.235345  0.482910  0.249626  1
  Si  Si10  1  0.034146  0.888446  0.145700  1
  Si  Si11  1  0.970093  0.113432  0.856660  1
  Si  Si12  1  0.739082  0.383753  0.355329  1
  Si  Si13  1  0.258393  0.613868  0.644524  1
  Pt  Pt14  1  0.999991  0.747515  0.751040  1
  Pt  Pt15  1  0.999991  0.248953  0.252475  1
  Pt  Pt16  1  0.257375  0.868357  0.389018  1
  Pt  Pt17  1  0.743511  0.134048  0.609463  1
  Pt  Pt18  1  0.476678  0.364442  0.112237  1
  Pt  Pt19  1  0.520178  0.633875  0.886305  1
