# generated using pymatgen
data_SbTe24
_symmetry_space_group_name_H-M   'P 1'
_cell_length_a   8.66280900
_cell_length_b   8.66280854
_cell_length_c   13.41581800
_cell_angle_alpha   90.00000000
_cell_angle_beta   90.00000000
_cell_angle_gamma   119.99999029
_symmetry_Int_Tables_number   1
_chemical_formula_structural   SbTe24
_chemical_formula_sum   'Sb1 Te24'
_cell_volume   871.89720876
_cell_formula_units_Z   1
loop_
 _symmetry_equiv_pos_site_id
 _symmetry_equiv_pos_as_xyz
  1  'x, y, z'
loop_
 _atom_site_type_symbol
 _atom_site_label
 _atom_site_symmetry_multiplicity
 _atom_site_fract_x
 _atom_site_fract_y
 _atom_site_fract_z
 _atom_site_occupancy
  Sb  Sb0  1  0.000000  0.000000  0.000000  1
  Te  Te1  1  0.502549  0.497451  0.724752  1
  Te  Te2  1  0.497451  0.502549  0.275248  1
  Te  Te3  1  0.502549  0.005098  0.724752  1
  Te  Te4  1  0.497451  0.994902  0.275248  1
  Te  Te5  1  0.994902  0.497451  0.724752  1
  Te  Te6  1  0.005098  0.502549  0.275248  1
  Te  Te7  1  0.000000  0.000000  0.715730  1
  Te  Te8  1  0.000000  0.000000  0.284270  1
  Te  Te9  1  0.836587  0.673174  0.137205  1
  Te  Te10  1  0.832833  0.665667  0.584165  1
  Te  Te11  1  0.836587  0.163413  0.137205  1
  Te  Te12  1  0.832833  0.167167  0.584165  1
  Te  Te13  1  0.333333  0.666667  0.141730  1
  Te  Te14  1  0.333333  0.666667  0.593546  1
  Te  Te15  1  0.326826  0.163413  0.137205  1
  Te  Te16  1  0.334333  0.167167  0.584165  1
  Te  Te17  1  0.673174  0.836587  0.862795  1
  Te  Te18  1  0.665667  0.832833  0.415835  1
  Te  Te19  1  0.666667  0.333333  0.858270  1
  Te  Te20  1  0.666667  0.333333  0.406454  1
  Te  Te21  1  0.163413  0.836587  0.862795  1
  Te  Te22  1  0.167167  0.832833  0.415835  1
  Te  Te23  1  0.163413  0.326826  0.862795  1
  Te  Te24  1  0.167167  0.334333  0.415835  1
