# generated using pymatgen
data_Pr2B2Rh5
_symmetry_space_group_name_H-M   'P 1'
_cell_length_a   5.55498416
_cell_length_b   5.55498543
_cell_length_c   21.24734600
_cell_angle_alpha   90.00000000
_cell_angle_beta   90.00000000
_cell_angle_gamma   120.00486711
_symmetry_Int_Tables_number   1
_chemical_formula_structural   Pr2B2Rh5
_chemical_formula_sum   'Pr8 B8 Rh20'
_cell_volume   567.77958002
_cell_formula_units_Z   4
loop_
 _symmetry_equiv_pos_site_id
 _symmetry_equiv_pos_as_xyz
  1  'x, y, z'
loop_
 _atom_site_type_symbol
 _atom_site_label
 _atom_site_symmetry_multiplicity
 _atom_site_fract_x
 _atom_site_fract_y
 _atom_site_fract_z
 _atom_site_occupancy
  Pr  Pr0  1  0.666726  0.333274  0.521185  1
  Pr  Pr1  1  0.333274  0.666726  0.478815  1
  Pr  Pr2  1  0.333274  0.666726  0.021185  1
  Pr  Pr3  1  0.666726  0.333274  0.978815  1
  Pr  Pr4  1  0.666740  0.333260  0.674140  1
  Pr  Pr5  1  0.333260  0.666740  0.325860  1
  Pr  Pr6  1  0.333260  0.666740  0.174140  1
  Pr  Pr7  1  0.666740  0.333260  0.825860  1
  B  B8  1  0.000080  0.999920  0.677634  1
  B  B9  1  0.999920  0.000080  0.322366  1
  B  B10  1  0.999920  0.000080  0.177634  1
  B  B11  1  0.000080  0.999920  0.822366  1
  B  B12  1  0.666592  0.333408  0.325920  1
  B  B13  1  0.333408  0.666592  0.674080  1
  B  B14  1  0.333408  0.666592  0.825920  1
  B  B15  1  0.666592  0.333408  0.174080  1
  Rh  Rh16  1  0.000000  0.000000  0.500000  1
  Rh  Rh17  1  0.000000  0.000000  0.000000  1
  Rh  Rh18  1  0.167565  0.334972  0.750000  1
  Rh  Rh19  1  0.167558  0.832442  0.750000  1
  Rh  Rh20  1  0.665028  0.832435  0.750000  1
  Rh  Rh21  1  0.832435  0.665028  0.250000  1
  Rh  Rh22  1  0.832442  0.167558  0.250000  1
  Rh  Rh23  1  0.334972  0.167565  0.250000  1
  Rh  Rh24  1  0.163299  0.326288  0.609446  1
  Rh  Rh25  1  0.163286  0.836714  0.609437  1
  Rh  Rh26  1  0.673712  0.836701  0.609446  1
  Rh  Rh27  1  0.836701  0.673712  0.390554  1
  Rh  Rh28  1  0.836714  0.163286  0.390563  1
  Rh  Rh29  1  0.326288  0.163299  0.390554  1
  Rh  Rh30  1  0.836701  0.673712  0.109446  1
  Rh  Rh31  1  0.836714  0.163286  0.109437  1
  Rh  Rh32  1  0.326288  0.163299  0.109446  1
  Rh  Rh33  1  0.163299  0.326288  0.890554  1
  Rh  Rh34  1  0.163286  0.836714  0.890563  1
  Rh  Rh35  1  0.673712  0.836701  0.890554  1
