# generated using pymatgen
data_LiY7(Si4W3)4
_symmetry_space_group_name_H-M   'P 1'
_cell_length_a   6.73216596
_cell_length_b   6.91217818
_cell_length_c   12.91290936
_cell_angle_alpha   90.00906957
_cell_angle_beta   89.86155776
_cell_angle_gamma   89.89063667
_symmetry_Int_Tables_number   1
_chemical_formula_structural   LiY7(Si4W3)4
_chemical_formula_sum   'Li1 Y7 Si16 W12'
_cell_volume   600.88557196
_cell_formula_units_Z   1
loop_
 _symmetry_equiv_pos_site_id
 _symmetry_equiv_pos_as_xyz
  1  'x, y, z'
loop_
 _atom_site_type_symbol
 _atom_site_label
 _atom_site_symmetry_multiplicity
 _atom_site_fract_x
 _atom_site_fract_y
 _atom_site_fract_z
 _atom_site_occupancy
  Li  Li0  1  0.976205  0.829910  0.590456  1
  Y  Y1  1  0.498788  0.669045  0.593533  1
  Y  Y2  1  0.998539  0.830700  0.907022  1
  Y  Y3  1  0.505068  0.331122  0.093322  1
  Y  Y4  1  0.002316  0.164132  0.412716  1
  Y  Y5  1  0.500926  0.331712  0.410036  1
  Y  Y6  1  0.004934  0.168412  0.093656  1
  Y  Y7  1  0.497126  0.670697  0.902833  1
  Si  Si8  1  0.660626  0.956365  0.456670  1
  Si  Si9  1  0.164265  0.544571  0.044845  1
  Si  Si10  1  0.338525  0.045196  0.953343  1
  Si  Si11  1  0.844487  0.467126  0.548866  1
  Si  Si12  1  0.327006  0.033368  0.548587  1
  Si  Si13  1  0.837362  0.454909  0.954302  1
  Si  Si14  1  0.664170  0.955151  0.044967  1
  Si  Si15  1  0.157967  0.550095  0.456710  1
  Si  Si16  1  0.466792  0.372632  0.750157  1
  Si  Si17  1  0.969923  0.121727  0.745322  1
  Si  Si18  1  0.534474  0.627191  0.250748  1
  Si  Si19  1  0.034528  0.870548  0.251631  1
  Si  Si20  1  0.710145  0.865638  0.744021  1
  Si  Si21  1  0.188518  0.645042  0.741856  1
  Si  Si22  1  0.301046  0.134475  0.251546  1
  Si  Si23  1  0.803110  0.363872  0.252836  1
  W  W24  1  0.667855  0.165162  0.624237  1
  W  W25  1  0.169074  0.339592  0.873167  1
  W  W26  1  0.333471  0.838454  0.125861  1
  W  W27  1  0.828341  0.662608  0.375700  1
  W  W28  1  0.333339  0.837247  0.374433  1
  W  W29  1  0.831427  0.660220  0.126294  1
  W  W30  1  0.671396  0.160463  0.872527  1
  W  W31  1  0.172554  0.335749  0.626328  1
  W  W32  1  0.838351  0.493795  0.750849  1
  W  W33  1  0.338964  0.003272  0.750166  1
  W  W34  1  0.164182  0.503452  0.250292  1
  W  W35  1  0.664201  0.996349  0.250165  1
