# generated using pymatgen
data_LiPrInAg
_symmetry_space_group_name_H-M   'P 1'
_cell_length_a   5.01419813
_cell_length_b   5.01419749
_cell_length_c   5.01419700
_cell_angle_alpha   59.99999664
_cell_angle_beta   60.00000087
_cell_angle_gamma   60.00000016
_symmetry_Int_Tables_number   1
_chemical_formula_structural   LiPrInAg
_chemical_formula_sum   'Li1 Pr1 In1 Ag1'
_cell_volume   89.14342440
_cell_formula_units_Z   1
loop_
 _symmetry_equiv_pos_site_id
 _symmetry_equiv_pos_as_xyz
  1  'x, y, z'
loop_
 _atom_site_type_symbol
 _atom_site_label
 _atom_site_symmetry_multiplicity
 _atom_site_fract_x
 _atom_site_fract_y
 _atom_site_fract_z
 _atom_site_occupancy
  Li  Li0  1  0.750000  0.750000  0.750000  1
  Pr  Pr1  1  0.500000  0.500000  0.500000  1
  In  In2  1  0.000000  0.000000  0.000000  1
  Ag  Ag3  1  0.250000  0.250000  0.250000  1
