# generated using pymatgen
data_V2PbF12
_symmetry_space_group_name_H-M   'P 1'
_cell_length_a   10.19716331
_cell_length_b   10.19716416
_cell_length_c   10.19716500
_cell_angle_alpha   131.70967751
_cell_angle_beta   131.70967423
_cell_angle_gamma   70.68794956
_symmetry_Int_Tables_number   1
_chemical_formula_structural   V2PbF12
_chemical_formula_sum   'V4 Pb2 F24'
_cell_volume   578.86579774
_cell_formula_units_Z   2
loop_
 _symmetry_equiv_pos_site_id
 _symmetry_equiv_pos_as_xyz
  1  'x, y, z'
loop_
 _atom_site_type_symbol
 _atom_site_label
 _atom_site_symmetry_multiplicity
 _atom_site_fract_x
 _atom_site_fract_y
 _atom_site_fract_z
 _atom_site_occupancy
  V  V0  1  0.777719  0.777720  0.999998  1
  V  V1  1  0.222270  0.222292  0.000012  1
  V  V2  1  0.972292  0.472270  0.500012  1
  V  V3  1  0.527720  0.027719  0.499998  1
  Pb  Pb4  1  0.750015  0.250015  0.500000  1
  Pb  Pb5  1  0.000015  0.000015  0.000000  1
  F  F6  1  0.856463  0.747528  0.191674  1
  F  F7  1  0.555853  0.664788  0.808323  1
  F  F8  1  0.414788  0.805853  0.308323  1
  F  F9  1  0.335189  0.143563  0.891095  1
  F  F10  1  0.252467  0.444103  0.108906  1
  F  F11  1  0.194103  0.502467  0.608906  1
  F  F12  1  0.648426  0.254168  0.680894  1
  F  F13  1  0.745805  0.426728  0.394239  1
  F  F14  1  0.032493  0.351562  0.605763  1
  F  F15  1  0.101562  0.282493  0.105763  1
  F  F16  1  0.176728  0.995805  0.894239  1
  F  F17  1  0.573271  0.967531  0.319102  1
  F  F18  1  0.717531  0.823271  0.819102  1
  F  F19  1  0.004168  0.898426  0.180894  1
  F  F20  1  0.318120  0.089282  0.344623  1
  F  F21  1  0.910723  0.255355  0.228839  1
  F  F22  1  0.026516  0.681881  0.771158  1
  F  F23  1  0.431881  0.276516  0.271158  1
  F  F24  1  0.005355  0.160723  0.728839  1
  F  F25  1  0.744658  0.973496  0.655374  1
  F  F26  1  0.723496  0.994658  0.155374  1
  F  F27  1  0.839282  0.568120  0.844623  1
  F  F28  1  0.497528  0.106463  0.691674  1
  F  F29  1  0.893563  0.585189  0.391095  1
