# generated using pymatgen
data_Pr2Nd2AgIr
_symmetry_space_group_name_H-M   'P 1'
_cell_length_a   9.90725584
_cell_length_b   9.90725492
_cell_length_c   9.90741700
_cell_angle_alpha   59.99946217
_cell_angle_beta   59.99946522
_cell_angle_gamma   60.00108305
_symmetry_Int_Tables_number   1
_chemical_formula_structural   Pr2Nd2AgIr
_chemical_formula_sum   'Pr8 Nd8 Ag4 Ir4'
_cell_volume   687.62585011
_cell_formula_units_Z   4
loop_
 _symmetry_equiv_pos_site_id
 _symmetry_equiv_pos_as_xyz
  1  'x, y, z'
loop_
 _atom_site_type_symbol
 _atom_site_label
 _atom_site_symmetry_multiplicity
 _atom_site_fract_x
 _atom_site_fract_y
 _atom_site_fract_z
 _atom_site_occupancy
  Pr  Pr0  1  0.189719  0.189719  0.810281  1
  Pr  Pr1  1  0.810281  0.810281  0.189719  1
  Pr  Pr2  1  0.938272  0.561728  0.561728  1
  Pr  Pr3  1  0.561728  0.938272  0.938272  1
  Pr  Pr4  1  0.561728  0.938272  0.561728  1
  Pr  Pr5  1  0.938272  0.561728  0.938272  1
  Pr  Pr6  1  0.561669  0.561669  0.938331  1
  Pr  Pr7  1  0.938331  0.938331  0.561669  1
  Nd  Nd8  1  0.350538  0.350538  0.350161  1
  Nd  Nd9  1  0.350538  0.350538  0.948760  1
  Nd  Nd10  1  0.350161  0.948760  0.350538  1
  Nd  Nd11  1  0.948760  0.350161  0.350538  1
  Nd  Nd12  1  0.810251  0.189749  0.189749  1
  Nd  Nd13  1  0.189749  0.810251  0.810251  1
  Nd  Nd14  1  0.189749  0.810251  0.189749  1
  Nd  Nd15  1  0.810251  0.189749  0.810251  1
  Ag  Ag16  1  0.580871  0.580871  0.580997  1
  Ag  Ag17  1  0.580871  0.580871  0.257261  1
  Ag  Ag18  1  0.580997  0.257261  0.580871  1
  Ag  Ag19  1  0.257261  0.580997  0.580871  1
  Ir  Ir20  1  0.141962  0.141962  0.142505  1
  Ir  Ir21  1  0.141962  0.141962  0.573572  1
  Ir  Ir22  1  0.142505  0.573572  0.141962  1
  Ir  Ir23  1  0.573572  0.142505  0.141962  1
