# generated using pymatgen
data_Nd6Y10Cd4IrPd3
_symmetry_space_group_name_H-M   'P 1'
_cell_length_a   9.83807842
_cell_length_b   9.80323700
_cell_length_c   9.80323800
_cell_angle_alpha   59.99999661
_cell_angle_beta   60.11707909
_cell_angle_gamma   60.11707841
_symmetry_Int_Tables_number   1
_chemical_formula_structural   Nd6Y10Cd4IrPd3
_chemical_formula_sum   'Nd6 Y10 Cd4 Ir1 Pd3'
_cell_volume   669.73131190
_cell_formula_units_Z   1
loop_
 _symmetry_equiv_pos_site_id
 _symmetry_equiv_pos_as_xyz
  1  'x, y, z'
loop_
 _atom_site_type_symbol
 _atom_site_label
 _atom_site_symmetry_multiplicity
 _atom_site_fract_x
 _atom_site_fract_y
 _atom_site_fract_z
 _atom_site_occupancy
  Nd  Nd0  1  0.936958  0.563853  0.563853  1
  Nd  Nd1  1  0.566118  0.936508  0.936508  1
  Nd  Nd2  1  0.566118  0.936508  0.560867  1
  Nd  Nd3  1  0.936958  0.563853  0.935336  1
  Nd  Nd4  1  0.566118  0.560867  0.936508  1
  Nd  Nd5  1  0.936958  0.935336  0.563853  1
  Y  Y6  1  0.354241  0.347036  0.347036  1
  Y  Y7  1  0.354241  0.347036  0.951686  1
  Y  Y8  1  0.354241  0.951686  0.347036  1
  Y  Y9  1  0.941099  0.352967  0.352967  1
  Y  Y10  1  0.808260  0.187232  0.187232  1
  Y  Y11  1  0.190024  0.811389  0.811389  1
  Y  Y12  1  0.190024  0.811389  0.187197  1
  Y  Y13  1  0.808260  0.187232  0.817275  1
  Y  Y14  1  0.190024  0.187197  0.811389  1
  Y  Y15  1  0.808260  0.817275  0.187232  1
  Cd  Cd16  1  0.579017  0.580748  0.580748  1
  Cd  Cd17  1  0.579017  0.580748  0.259485  1
  Cd  Cd18  1  0.579017  0.259485  0.580748  1
  Cd  Cd19  1  0.260627  0.579790  0.579790  1
  Ir  Ir20  1  0.573373  0.142209  0.142209  1
  Pd  Pd21  1  0.140349  0.143763  0.143763  1
  Pd  Pd22  1  0.140349  0.143763  0.572125  1
  Pd  Pd23  1  0.140349  0.572125  0.143763  1
