# generated using pymatgen
data_TbHo7AlPd24
_symmetry_space_group_name_H-M   'P 1'
_cell_length_a   8.32573500
_cell_length_b   8.32573500
_cell_length_c   8.32573500
_cell_angle_alpha   89.99873375
_cell_angle_beta   89.99873375
_cell_angle_gamma   89.99873375
_symmetry_Int_Tables_number   1
_chemical_formula_structural   TbHo7AlPd24
_chemical_formula_sum   'Tb1 Ho7 Al1 Pd24'
_cell_volume   577.12216031
_cell_formula_units_Z   1
loop_
 _symmetry_equiv_pos_site_id
 _symmetry_equiv_pos_as_xyz
  1  'x, y, z'
loop_
 _atom_site_type_symbol
 _atom_site_label
 _atom_site_symmetry_multiplicity
 _atom_site_fract_x
 _atom_site_fract_y
 _atom_site_fract_z
 _atom_site_occupancy
  Tb  Tb0  1  0.251493  0.251493  0.251493  1
  Ho  Ho1  1  0.748513  0.748513  0.748513  1
  Ho  Ho2  1  0.748533  0.748533  0.251476  1
  Ho  Ho3  1  0.748533  0.251476  0.748533  1
  Ho  Ho4  1  0.251481  0.251481  0.748511  1
  Ho  Ho5  1  0.251481  0.748511  0.251481  1
  Ho  Ho6  1  0.251476  0.748533  0.748533  1
  Ho  Ho7  1  0.748511  0.251481  0.251481  1
  Al  Al8  1  0.999965  0.999965  0.999965  1
  Pd  Pd9  1  0.259875  0.500205  0.999782  1
  Pd  Pd10  1  0.740111  0.499998  0.999997  1
  Pd  Pd11  1  0.999782  0.259875  0.500205  1
  Pd  Pd12  1  0.500205  0.259875  0.999782  1
  Pd  Pd13  1  0.999997  0.740111  0.499998  1
  Pd  Pd14  1  0.499998  0.740111  0.999997  1
  Pd  Pd15  1  0.500205  0.999782  0.259875  1
  Pd  Pd16  1  0.259875  0.999782  0.500205  1
  Pd  Pd17  1  0.499998  0.999997  0.740111  1
  Pd  Pd18  1  0.740111  0.999997  0.499998  1
  Pd  Pd19  1  0.999782  0.500205  0.259875  1
  Pd  Pd20  1  0.999997  0.499998  0.740111  1
  Pd  Pd21  1  0.252773  0.500219  0.500219  1
  Pd  Pd22  1  0.747234  0.500003  0.500003  1
  Pd  Pd23  1  0.500219  0.252773  0.500219  1
  Pd  Pd24  1  0.500003  0.747234  0.500003  1
  Pd  Pd25  1  0.500219  0.500219  0.252773  1
  Pd  Pd26  1  0.500003  0.500003  0.747234  1
  Pd  Pd27  1  0.289422  0.999807  0.999807  1
  Pd  Pd28  1  0.710597  0.999999  0.999999  1
  Pd  Pd29  1  0.999807  0.289422  0.999807  1
  Pd  Pd30  1  0.999999  0.710597  0.999999  1
  Pd  Pd31  1  0.999807  0.999807  0.289422  1
  Pd  Pd32  1  0.999999  0.999999  0.710597  1
