# generated using pymatgen
data_Tm17Lu3(Ir3Rh)3
_symmetry_space_group_name_H-M   'P 1'
_cell_length_a   10.71741501
_cell_length_b   10.71747401
_cell_length_c   6.31317700
_cell_angle_alpha   90.00000000
_cell_angle_beta   90.00000000
_cell_angle_gamma   90.00354976
_symmetry_Int_Tables_number   1
_chemical_formula_structural   Tm17Lu3(Ir3Rh)3
_chemical_formula_sum   'Tm17 Lu3 Ir9 Rh3'
_cell_volume   725.15434182
_cell_formula_units_Z   1
loop_
 _symmetry_equiv_pos_site_id
 _symmetry_equiv_pos_as_xyz
  1  'x, y, z'
loop_
 _atom_site_type_symbol
 _atom_site_label
 _atom_site_symmetry_multiplicity
 _atom_site_fract_x
 _atom_site_fract_y
 _atom_site_fract_z
 _atom_site_occupancy
  Tm  Tm0  1  0.290347  0.087912  0.377823  1
  Tm  Tm1  1  0.290306  0.911838  0.877615  1
  Tm  Tm2  1  0.709694  0.088162  0.877615  1
  Tm  Tm3  1  0.709653  0.912088  0.377823  1
  Tm  Tm4  1  0.588157  0.790353  0.877651  1
  Tm  Tm5  1  0.587988  0.209476  0.377751  1
  Tm  Tm6  1  0.412012  0.790524  0.377751  1
  Tm  Tm7  1  0.411843  0.209647  0.877651  1
  Tm  Tm8  1  0.208859  0.412046  0.621294  1
  Tm  Tm9  1  0.209232  0.588110  0.123294  1
  Tm  Tm10  1  0.790768  0.411890  0.123294  1
  Tm  Tm11  1  0.791141  0.587954  0.621294  1
  Tm  Tm12  1  0.911898  0.709281  0.123339  1
  Tm  Tm13  1  0.912113  0.290969  0.621218  1
  Tm  Tm14  1  0.087887  0.709031  0.621218  1
  Tm  Tm15  1  0.088102  0.290719  0.123339  1
  Tm  Tm16  1  0.500000  0.500000  0.500329  1
  Lu  Lu17  1  0.000000  0.000000  0.500318  1
  Lu  Lu18  1  0.000000  0.000000  0.000178  1
  Lu  Lu19  1  0.500000  0.500000  0.000168  1
  Ir  Ir20  1  0.846151  0.152879  0.249769  1
  Ir  Ir21  1  0.846307  0.846865  0.750013  1
  Ir  Ir22  1  0.153693  0.153135  0.750013  1
  Ir  Ir23  1  0.153849  0.847121  0.249769  1
  Ir  Ir24  1  0.653399  0.346033  0.750401  1
  Ir  Ir25  1  0.653150  0.654106  0.249372  1
  Ir  Ir26  1  0.346850  0.345894  0.249372  1
  Ir  Ir27  1  0.346601  0.653967  0.750401  1
  Ir  Ir28  1  0.000000  0.500000  0.376775  1
  Rh  Rh29  1  0.500000  0.000000  0.122801  1
  Rh  Rh30  1  0.500000  0.000000  0.622861  1
  Rh  Rh31  1  0.000000  0.500000  0.877490  1
