# generated using pymatgen
data_Er2CoNi(P3Ir4)2
_symmetry_space_group_name_H-M   'P 1'
_cell_length_a   3.93223000
_cell_length_b   10.69799400
_cell_length_c   12.39826500
_cell_angle_alpha   90.00000000
_cell_angle_beta   90.00000000
_cell_angle_gamma   90.00000000
_symmetry_Int_Tables_number   1
_chemical_formula_structural   Er2CoNi(P3Ir4)2
_chemical_formula_sum   'Er4 Co2 Ni2 P12 Ir16'
_cell_volume   521.55747834
_cell_formula_units_Z   2
loop_
 _symmetry_equiv_pos_site_id
 _symmetry_equiv_pos_as_xyz
  1  'x, y, z'
loop_
 _atom_site_type_symbol
 _atom_site_label
 _atom_site_symmetry_multiplicity
 _atom_site_fract_x
 _atom_site_fract_y
 _atom_site_fract_z
 _atom_site_occupancy
  Er  Er0  1  0.250000  0.585371  0.709156  1
  Er  Er1  1  0.250000  0.914629  0.209156  1
  Er  Er2  1  0.750000  0.413483  0.289982  1
  Er  Er3  1  0.750000  0.086517  0.789982  1
  Co  Co4  1  0.750000  0.539486  0.065197  1
  Co  Co5  1  0.750000  0.960514  0.565197  1
  Ni  Ni6  1  0.250000  0.463470  0.934054  1
  Ni  Ni7  1  0.250000  0.036530  0.434054  1
  P  P8  1  0.250000  0.425951  0.107278  1
  P  P9  1  0.250000  0.074049  0.607278  1
  P  P10  1  0.750000  0.575727  0.893688  1
  P  P11  1  0.750000  0.924273  0.393688  1
  P  P12  1  0.250000  0.269846  0.870665  1
  P  P13  1  0.250000  0.230154  0.370665  1
  P  P14  1  0.750000  0.729204  0.128946  1
  P  P15  1  0.750000  0.770796  0.628946  1
  P  P16  1  0.250000  0.594218  0.385312  1
  P  P17  1  0.250000  0.905782  0.885312  1
  P  P18  1  0.750000  0.406626  0.615896  1
  P  P19  1  0.750000  0.093374  0.115896  1
  Ir  Ir20  1  0.250000  0.718939  0.978034  1
  Ir  Ir21  1  0.250000  0.781061  0.478034  1
  Ir  Ir22  1  0.750000  0.278492  0.021317  1
  Ir  Ir23  1  0.750000  0.221508  0.521317  1
  Ir  Ir24  1  0.250000  0.407732  0.477915  1
  Ir  Ir25  1  0.250000  0.092268  0.977915  1
  Ir  Ir26  1  0.750000  0.593481  0.521890  1
  Ir  Ir27  1  0.750000  0.906519  0.021890  1
  Ir  Ir28  1  0.250000  0.232152  0.179963  1
  Ir  Ir29  1  0.250000  0.267848  0.679963  1
  Ir  Ir30  1  0.750000  0.768286  0.819327  1
  Ir  Ir31  1  0.750000  0.731714  0.319327  1
  Ir  Ir32  1  0.250000  0.886251  0.699962  1
  Ir  Ir33  1  0.250000  0.613749  0.199962  1
  Ir  Ir34  1  0.750000  0.113534  0.301421  1
  Ir  Ir35  1  0.750000  0.386466  0.801421  1
