# generated using pymatgen
data_Th(As2Ru3)2
_symmetry_space_group_name_H-M   'P 1'
_cell_length_a   7.17695200
_cell_length_b   7.17695271
_cell_length_c   3.93212400
_cell_angle_alpha   90.00000000
_cell_angle_beta   90.00000000
_cell_angle_gamma   120.00000593
_symmetry_Int_Tables_number   1
_chemical_formula_structural   Th(As2Ru3)2
_chemical_formula_sum   'Th1 As4 Ru6'
_cell_volume   175.40337160
_cell_formula_units_Z   1
loop_
 _symmetry_equiv_pos_site_id
 _symmetry_equiv_pos_as_xyz
  1  'x, y, z'
loop_
 _atom_site_type_symbol
 _atom_site_label
 _atom_site_symmetry_multiplicity
 _atom_site_fract_x
 _atom_site_fract_y
 _atom_site_fract_z
 _atom_site_occupancy
  Th  Th0  1  0.000000  0.000000  0.000000  1
  As  As1  1  0.333333  0.666667  0.000000  1
  As  As2  1  0.388665  0.194332  0.500001  1
  As  As3  1  0.805668  0.194332  0.500001  1
  As  As4  1  0.805668  0.611335  0.500001  1
  Ru  Ru5  1  0.533685  0.067369  0.000000  1
  Ru  Ru6  1  0.932631  0.466314  0.000000  1
  Ru  Ru7  1  0.533685  0.466314  0.000000  1
  Ru  Ru8  1  0.199848  0.399695  0.500001  1
  Ru  Ru9  1  0.199848  0.800152  0.500001  1
  Ru  Ru10  1  0.600304  0.800152  0.500001  1
