# generated using pymatgen
data_Yb3Dy7(In2Au)4
_symmetry_space_group_name_H-M   'P 1'
_cell_length_a   3.67094200
_cell_length_b   8.18470914
_cell_length_c   18.30661400
_cell_angle_alpha   89.92981453
_cell_angle_beta   90.00000000
_cell_angle_gamma   90.00000000
_symmetry_Int_Tables_number   1
_chemical_formula_structural   Yb3Dy7(In2Au)4
_chemical_formula_sum   'Yb3 Dy7 In8 Au4'
_cell_volume   550.03265240
_cell_formula_units_Z   1
loop_
 _symmetry_equiv_pos_site_id
 _symmetry_equiv_pos_as_xyz
  1  'x, y, z'
loop_
 _atom_site_type_symbol
 _atom_site_label
 _atom_site_symmetry_multiplicity
 _atom_site_fract_x
 _atom_site_fract_y
 _atom_site_fract_z
 _atom_site_occupancy
  Yb  Yb0  1  0.000000  0.119156  0.420019  1
  Yb  Yb1  1  0.000000  0.880621  0.580233  1
  Yb  Yb2  1  0.000000  0.380395  0.918897  1
  Dy  Dy3  1  0.000000  0.618814  0.079300  1
  Dy  Dy4  1  0.000000  0.240971  0.217906  1
  Dy  Dy5  1  0.000000  0.758950  0.783433  1
  Dy  Dy6  1  0.000000  0.258802  0.716370  1
  Dy  Dy7  1  0.000000  0.739538  0.284985  1
  Dy  Dy8  1  0.000000  0.001144  0.999707  1
  Dy  Dy9  1  0.000000  0.500140  0.500910  1
  In  In10  1  0.500000  0.419945  0.352774  1
  In  In11  1  0.500000  0.581132  0.646688  1
  In  In12  1  0.500000  0.080213  0.853055  1
  In  In13  1  0.500000  0.920322  0.146308  1
  In  In14  1  0.500000  0.290318  0.066433  1
  In  In15  1  0.500000  0.707315  0.932901  1
  In  In16  1  0.500000  0.208603  0.566860  1
  In  In17  1  0.500000  0.791811  0.433815  1
  Au  Au18  1  0.500000  0.026711  0.303157  1
  Au  Au19  1  0.500000  0.972449  0.696646  1
  Au  Au20  1  0.500000  0.472172  0.802547  1
  Au  Au21  1  0.500000  0.530477  0.197058  1
