# generated using pymatgen
data_Tb18DyMgIr12
_symmetry_space_group_name_H-M   'P 1'
_cell_length_a   10.92119200
_cell_length_b   10.92119200
_cell_length_c   6.34426700
_cell_angle_alpha   90.00000000
_cell_angle_beta   90.00000000
_cell_angle_gamma   90.00000000
_symmetry_Int_Tables_number   1
_chemical_formula_structural   Tb18DyMgIr12
_chemical_formula_sum   'Tb18 Dy1 Mg1 Ir12'
_cell_volume   756.69617148
_cell_formula_units_Z   1
loop_
 _symmetry_equiv_pos_site_id
 _symmetry_equiv_pos_as_xyz
  1  'x, y, z'
loop_
 _atom_site_type_symbol
 _atom_site_label
 _atom_site_symmetry_multiplicity
 _atom_site_fract_x
 _atom_site_fract_y
 _atom_site_fract_z
 _atom_site_occupancy
  Tb  Tb0  1  0.284064  0.084847  0.379926  1
  Tb  Tb1  1  0.290461  0.911801  0.879984  1
  Tb  Tb2  1  0.709539  0.088199  0.879984  1
  Tb  Tb3  1  0.715936  0.915153  0.379926  1
  Tb  Tb4  1  0.589037  0.792033  0.880704  1
  Tb  Tb5  1  0.587883  0.207866  0.378728  1
  Tb  Tb6  1  0.412117  0.792134  0.378728  1
  Tb  Tb7  1  0.410963  0.207967  0.880704  1
  Tb  Tb8  1  0.207866  0.412117  0.621272  1
  Tb  Tb9  1  0.207967  0.589037  0.119296  1
  Tb  Tb10  1  0.792033  0.410963  0.119296  1
  Tb  Tb11  1  0.792134  0.587883  0.621272  1
  Tb  Tb12  1  0.911801  0.709539  0.120016  1
  Tb  Tb13  1  0.915153  0.284064  0.620074  1
  Tb  Tb14  1  0.084847  0.715936  0.620074  1
  Tb  Tb15  1  0.088199  0.290461  0.120016  1
  Tb  Tb16  1  0.000000  0.000000  0.000000  1
  Tb  Tb17  1  0.500000  0.500000  0.000000  1
  Dy  Dy18  1  0.500000  0.500000  0.500000  1
  Mg  Mg19  1  0.000000  0.000000  0.500000  1
  Ir  Ir20  1  0.846698  0.153904  0.248005  1
  Ir  Ir21  1  0.846096  0.846698  0.751995  1
  Ir  Ir22  1  0.153904  0.153302  0.751995  1
  Ir  Ir23  1  0.153302  0.846096  0.248005  1
  Ir  Ir24  1  0.654585  0.345936  0.748018  1
  Ir  Ir25  1  0.654064  0.654585  0.251982  1
  Ir  Ir26  1  0.345936  0.345415  0.251982  1
  Ir  Ir27  1  0.345415  0.654064  0.748018  1
  Ir  Ir28  1  0.500000  0.000000  0.125073  1
  Ir  Ir29  1  0.500000  0.000000  0.621211  1
  Ir  Ir30  1  0.000000  0.500000  0.874927  1
  Ir  Ir31  1  0.000000  0.500000  0.378789  1
