# generated using pymatgen
data_Ti20Ga7As2Se3
_symmetry_space_group_name_H-M   'P 1'
_cell_length_a   6.72110312
_cell_length_b   7.93286746
_cell_length_c   9.87476931
_cell_angle_alpha   89.95879720
_cell_angle_beta   89.88259018
_cell_angle_gamma   90.07902661
_symmetry_Int_Tables_number   1
_chemical_formula_structural   Ti20Ga7As2Se3
_chemical_formula_sum   'Ti20 Ga7 As2 Se3'
_cell_volume   526.49745621
_cell_formula_units_Z   1
loop_
 _symmetry_equiv_pos_site_id
 _symmetry_equiv_pos_as_xyz
  1  'x, y, z'
loop_
 _atom_site_type_symbol
 _atom_site_label
 _atom_site_symmetry_multiplicity
 _atom_site_fract_x
 _atom_site_fract_y
 _atom_site_fract_z
 _atom_site_occupancy
  Ti  Ti0  1  0.812983  0.555853  0.057372  1
  Ti  Ti1  1  0.684770  0.940936  0.562331  1
  Ti  Ti2  1  0.186548  0.059392  0.937960  1
  Ti  Ti3  1  0.315347  0.442245  0.439377  1
  Ti  Ti4  1  0.185329  0.444066  0.937557  1
  Ti  Ti5  1  0.315115  0.057154  0.439297  1
  Ti  Ti6  1  0.813899  0.942908  0.061134  1
  Ti  Ti7  1  0.681185  0.556078  0.564529  1
  Ti  Ti8  1  0.171037  0.750552  0.224816  1
  Ti  Ti9  1  0.330331  0.745518  0.724055  1
  Ti  Ti10  1  0.827153  0.254918  0.776592  1
  Ti  Ti11  1  0.672796  0.249976  0.273281  1
  Ti  Ti12  1  0.484037  0.747941  0.004284  1
  Ti  Ti13  1  0.012440  0.749886  0.504045  1
  Ti  Ti14  1  0.517122  0.252257  0.996461  1
  Ti  Ti15  1  0.985683  0.249688  0.496513  1
  Ti  Ti16  1  0.666540  0.749193  0.285649  1
  Ti  Ti17  1  0.836076  0.748580  0.786171  1
  Ti  Ti18  1  0.333982  0.252940  0.713127  1
  Ti  Ti19  1  0.167015  0.248906  0.214667  1
  Ga  Ga20  1  0.937896  0.505189  0.323962  1
  Ga  Ga21  1  0.561685  0.993926  0.825319  1
  Ga  Ga22  1  0.062392  0.006695  0.675468  1
  Ga  Ga23  1  0.437457  0.493672  0.177099  1
  Ga  Ga24  1  0.062206  0.494141  0.672639  1
  Ga  Ga25  1  0.439082  0.005977  0.174337  1
  Ga  Ga26  1  0.937915  0.993991  0.324707  1
  As  As27  1  0.900433  0.249221  0.031868  1
  As  As28  1  0.562990  0.508643  0.826819  1
  Se  Se29  1  0.397549  0.749840  0.469241  1
  Se  Se30  1  0.099652  0.751589  0.971727  1
  Se  Se31  1  0.601354  0.248132  0.527595  1
