# generated using pymatgen
data_Ga2Ge(PPd4)3
_symmetry_space_group_name_H-M   'P 1'
_cell_length_a   3.47153500
_cell_length_b   6.67473580
_cell_length_c   11.53783504
_cell_angle_alpha   89.93403081
_cell_angle_beta   90.00000000
_cell_angle_gamma   90.00000000
_symmetry_Int_Tables_number   1
_chemical_formula_structural   Ga2Ge(PPd4)3
_chemical_formula_sum   'Ga2 Ge1 P3 Pd12'
_cell_volume   267.34967837
_cell_formula_units_Z   1
loop_
 _symmetry_equiv_pos_site_id
 _symmetry_equiv_pos_as_xyz
  1  'x, y, z'
loop_
 _atom_site_type_symbol
 _atom_site_label
 _atom_site_symmetry_multiplicity
 _atom_site_fract_x
 _atom_site_fract_y
 _atom_site_fract_z
 _atom_site_occupancy
  Ga  Ga0  1  0.000000  0.498906  0.833171  1
  Ga  Ga1  1  0.000000  0.000716  0.333490  1
  Ge  Ge2  1  0.000000  0.501969  0.166857  1
  P  P3  1  0.500000  0.001730  0.999165  1
  P  P4  1  0.500000  0.496402  0.500877  1
  P  P5  1  0.000000  0.996650  0.666388  1
  Pd  Pd6  1  0.000000  0.746519  0.999249  1
  Pd  Pd7  1  0.000000  0.238212  0.506307  1
  Pd  Pd8  1  0.000000  0.635347  0.628402  1
  Pd  Pd9  1  0.000000  0.130368  0.125759  1
  Pd  Pd10  1  0.000000  0.121360  0.864421  1
  Pd  Pd11  1  0.000000  0.627267  0.374950  1
  Pd  Pd12  1  0.500000  0.899438  0.508062  1
  Pd  Pd13  1  0.500000  0.392140  0.998020  1
  Pd  Pd14  1  0.500000  0.809835  0.796758  1
  Pd  Pd15  1  0.500000  0.303370  0.304726  1
  Pd  Pd16  1  0.500000  0.297476  0.695047  1
  Pd  Pd17  1  0.500000  0.802497  0.198351  1
