# generated using pymatgen
data_Lu12ZnInFe2Tc
_symmetry_space_group_name_H-M   'P 1'
_cell_length_a   8.12995396
_cell_length_b   8.12988491
_cell_length_c   8.12995346
_cell_angle_alpha   110.05953467
_cell_angle_beta   107.97088067
_cell_angle_gamma   110.39412487
_symmetry_Int_Tables_number   1
_chemical_formula_structural   Lu12ZnInFe2Tc
_chemical_formula_sum   'Lu12 Zn1 In1 Fe2 Tc1'
_cell_volume   413.43781441
_cell_formula_units_Z   1
loop_
 _symmetry_equiv_pos_site_id
 _symmetry_equiv_pos_as_xyz
  1  'x, y, z'
loop_
 _atom_site_type_symbol
 _atom_site_label
 _atom_site_symmetry_multiplicity
 _atom_site_fract_x
 _atom_site_fract_y
 _atom_site_fract_z
 _atom_site_occupancy
  Lu  Lu0  1  0.307929  0.308350  0.616335  1
  Lu  Lu1  1  0.692071  0.691650  0.383665  1
  Lu  Lu2  1  0.692016  0.308350  0.000421  1
  Lu  Lu3  1  0.307984  0.691650  0.999579  1
  Lu  Lu4  1  0.192407  0.440774  0.248367  1
  Lu  Lu5  1  0.807593  0.559226  0.751633  1
  Lu  Lu6  1  0.192543  0.944071  0.751529  1
  Lu  Lu7  1  0.957924  0.192364  0.765564  1
  Lu  Lu8  1  0.807457  0.055929  0.248471  1
  Lu  Lu9  1  0.042076  0.807636  0.234436  1
  Lu  Lu10  1  0.426800  0.192364  0.234439  1
  Lu  Lu11  1  0.573200  0.807636  0.765561  1
  Zn  Zn12  1  0.000000  0.500000  0.500000  1
  In  In13  1  0.500000  0.000000  0.500000  1
  Fe  Fe14  1  0.381599  0.381400  0.999800  1
  Fe  Fe15  1  0.618401  0.618600  0.000200  1
  Tc  Tc16  1  0.000000  0.000000  0.000000  1
