# generated using pymatgen
data_Lu12Mn2In2Tc
_symmetry_space_group_name_H-M   'P 1'
_cell_length_a   8.21117436
_cell_length_b   8.21117515
_cell_length_c   8.21117537
_cell_angle_alpha   108.34866159
_cell_angle_beta   108.34866521
_cell_angle_gamma   111.74044318
_symmetry_Int_Tables_number   1
_chemical_formula_structural   Lu12Mn2In2Tc
_chemical_formula_sum   'Lu12 Mn2 In2 Tc1'
_cell_volume   425.67738065
_cell_formula_units_Z   1
loop_
 _symmetry_equiv_pos_site_id
 _symmetry_equiv_pos_as_xyz
  1  'x, y, z'
loop_
 _atom_site_type_symbol
 _atom_site_label
 _atom_site_symmetry_multiplicity
 _atom_site_fract_x
 _atom_site_fract_y
 _atom_site_fract_z
 _atom_site_occupancy
  Lu  Lu0  1  0.306905  0.306905  0.613810  1
  Lu  Lu1  1  0.693095  0.693095  0.386190  1
  Lu  Lu2  1  0.693095  0.306905  0.000000  1
  Lu  Lu3  1  0.306905  0.693095  0.000000  1
  Lu  Lu4  1  0.193146  0.431082  0.237936  1
  Lu  Lu5  1  0.806854  0.568918  0.762064  1
  Lu  Lu6  1  0.193146  0.955207  0.762064  1
  Lu  Lu7  1  0.955207  0.193146  0.762064  1
  Lu  Lu8  1  0.806854  0.044793  0.237936  1
  Lu  Lu9  1  0.044793  0.806854  0.237936  1
  Lu  Lu10  1  0.431082  0.193146  0.237936  1
  Lu  Lu11  1  0.568918  0.806854  0.762064  1
  Mn  Mn12  1  0.384165  0.384165  0.000000  1
  Mn  Mn13  1  0.615835  0.615835  0.000000  1
  In  In14  1  0.000000  0.500000  0.500000  1
  In  In15  1  0.500000  0.000000  0.500000  1
  Tc  Tc16  1  0.000000  0.000000  0.000000  1
