# generated using pymatgen
data_YHo3Mn2(Co2Si5)2
_symmetry_space_group_name_H-M   'P 1'
_cell_length_a   7.98710682
_cell_length_b   7.98626874
_cell_length_c   7.98627001
_cell_angle_alpha   140.35945373
_cell_angle_beta   107.23026349
_cell_angle_gamma   86.19857367
_symmetry_Int_Tables_number   1
_chemical_formula_structural   YHo3Mn2(Co2Si5)2
_chemical_formula_sum   'Y1 Ho3 Mn2 Co4 Si10'
_cell_volume   299.26642988
_cell_formula_units_Z   1
loop_
 _symmetry_equiv_pos_site_id
 _symmetry_equiv_pos_as_xyz
  1  'x, y, z'
loop_
 _atom_site_type_symbol
 _atom_site_label
 _atom_site_symmetry_multiplicity
 _atom_site_fract_x
 _atom_site_fract_y
 _atom_site_fract_z
 _atom_site_occupancy
  Y  Y0  1  0.596344  0.863923  0.732422  1
  Ho  Ho1  1  0.131541  0.363888  0.767652  1
  Ho  Ho2  1  0.868490  0.636119  0.232372  1
  Ho  Ho3  1  0.403707  0.136080  0.267626  1
  Mn  Mn4  1  0.000107  0.250111  0.250135  1
  Mn  Mn5  1  0.000107  0.749972  0.749997  1
  Co  Co6  1  0.262689  0.859310  0.403380  1
  Co  Co7  1  0.544197  0.640554  0.903642  1
  Co  Co8  1  0.455581  0.359315  0.096267  1
  Co  Co9  1  0.737158  0.140697  0.596460  1
  Si  Si10  1  0.782500  0.032530  0.250267  1
  Si  Si11  1  0.217438  0.967611  0.750005  1
  Si  Si12  1  0.782500  0.532233  0.749970  1
  Si  Si13  1  0.929830  0.099176  0.830654  1
  Si  Si14  1  0.070425  0.900991  0.169434  1
  Si  Si15  1  0.499944  0.250185  0.750002  1
  Si  Si16  1  0.499944  0.749941  0.249759  1
  Si  Si17  1  0.731741  0.401020  0.330721  1
  Si  Si18  1  0.268319  0.598913  0.669407  1
  Si  Si19  1  0.217438  0.467433  0.249827  1
