# generated using pymatgen
data_LuTiGeRh5
_symmetry_space_group_name_H-M   'P 1'
_cell_length_a   4.05643700
_cell_length_b   5.52421574
_cell_length_c   10.87883332
_cell_angle_alpha   90.66366857
_cell_angle_beta   90.00000000
_cell_angle_gamma   90.00000000
_symmetry_Int_Tables_number   1
_chemical_formula_structural   LuTiGeRh5
_chemical_formula_sum   'Lu2 Ti2 Ge2 Rh10'
_cell_volume   243.76343070
_cell_formula_units_Z   2
loop_
 _symmetry_equiv_pos_site_id
 _symmetry_equiv_pos_as_xyz
  1  'x, y, z'
loop_
 _atom_site_type_symbol
 _atom_site_label
 _atom_site_symmetry_multiplicity
 _atom_site_fract_x
 _atom_site_fract_y
 _atom_site_fract_z
 _atom_site_occupancy
  Lu  Lu0  1  0.500000  0.319973  0.140868  1
  Lu  Lu1  1  0.500000  0.680027  0.859132  1
  Ti  Ti2  1  0.500000  0.827858  0.359049  1
  Ti  Ti3  1  0.500000  0.172142  0.640951  1
  Ge  Ge4  1  0.000000  0.000000  0.000000  1
  Ge  Ge5  1  0.000000  0.500000  0.500000  1
  Rh  Rh6  1  0.000000  0.000000  0.500000  1
  Rh  Rh7  1  0.000000  0.500000  0.000000  1
  Rh  Rh8  1  0.000000  0.060761  0.254848  1
  Rh  Rh9  1  0.000000  0.939239  0.745152  1
  Rh  Rh10  1  0.000000  0.575981  0.265666  1
  Rh  Rh11  1  0.000000  0.424019  0.734334  1
  Rh  Rh12  1  0.500000  0.307653  0.401575  1
  Rh  Rh13  1  0.500000  0.692347  0.598425  1
  Rh  Rh14  1  0.500000  0.816661  0.116737  1
  Rh  Rh15  1  0.500000  0.183339  0.883263  1
