# generated using pymatgen
data_Ho4SbRh3O14
_symmetry_space_group_name_H-M   'P 1'
_cell_length_a   7.29598328
_cell_length_b   7.29598296
_cell_length_c   7.29598448
_cell_angle_alpha   59.12813554
_cell_angle_beta   59.12813588
_cell_angle_gamma   59.12813775
_symmetry_Int_Tables_number   1
_chemical_formula_structural   Ho4SbRh3O14
_chemical_formula_sum   'Ho4 Sb1 Rh3 O14'
_cell_volume   269.16528239
_cell_formula_units_Z   1
loop_
 _symmetry_equiv_pos_site_id
 _symmetry_equiv_pos_as_xyz
  1  'x, y, z'
loop_
 _atom_site_type_symbol
 _atom_site_label
 _atom_site_symmetry_multiplicity
 _atom_site_fract_x
 _atom_site_fract_y
 _atom_site_fract_z
 _atom_site_occupancy
  Ho  Ho0  1  0.125000  0.625000  0.125000  1
  Ho  Ho1  1  0.125000  0.125000  0.625000  1
  Ho  Ho2  1  0.625000  0.125000  0.125000  1
  Ho  Ho3  1  0.125000  0.125000  0.125000  1
  Sb  Sb4  1  0.625000  0.625000  0.625000  1
  Rh  Rh5  1  0.125000  0.625000  0.625000  1
  Rh  Rh6  1  0.625000  0.125000  0.625000  1
  Rh  Rh7  1  0.625000  0.625000  0.125000  1
  O  O8  1  0.288854  0.712450  0.712450  1
  O  O9  1  0.541258  0.963930  0.963930  1
  O  O10  1  0.712450  0.288854  0.712450  1
  O  O11  1  0.286070  0.286070  0.708742  1
  O  O12  1  0.712450  0.712450  0.288854  1
  O  O13  1  0.000509  0.000509  0.000509  1
  O  O14  1  0.286070  0.708742  0.286070  1
  O  O15  1  0.963930  0.541258  0.963930  1
  O  O16  1  0.963930  0.963930  0.541258  1
  O  O17  1  0.537550  0.537550  0.961146  1
  O  O18  1  0.249491  0.249491  0.249491  1
  O  O19  1  0.537550  0.961146  0.537550  1
  O  O20  1  0.708742  0.286070  0.286070  1
  O  O21  1  0.961146  0.537550  0.537550  1
