# generated using pymatgen
data_Nd4ReBr4
_symmetry_space_group_name_H-M   'P 1'
_cell_length_a   9.35234461
_cell_length_b   9.35234426
_cell_length_c   6.77440513
_cell_angle_alpha   90.01180712
_cell_angle_beta   90.01180441
_cell_angle_gamma   89.52130512
_symmetry_Int_Tables_number   1
_chemical_formula_structural   Nd4ReBr4
_chemical_formula_sum   'Nd8 Re2 Br8'
_cell_volume   592.51176154
_cell_formula_units_Z   2
loop_
 _symmetry_equiv_pos_site_id
 _symmetry_equiv_pos_as_xyz
  1  'x, y, z'
loop_
 _atom_site_type_symbol
 _atom_site_label
 _atom_site_symmetry_multiplicity
 _atom_site_fract_x
 _atom_site_fract_y
 _atom_site_fract_z
 _atom_site_occupancy
  Nd  Nd0  1  0.249615  0.900976  0.011279  1
  Nd  Nd1  1  0.750385  0.099024  0.988721  1
  Nd  Nd2  1  0.099024  0.750385  0.488721  1
  Nd  Nd3  1  0.900976  0.249615  0.511279  1
  Nd  Nd4  1  0.750861  0.902026  0.504246  1
  Nd  Nd5  1  0.249139  0.097974  0.495754  1
  Nd  Nd6  1  0.097974  0.249139  0.995754  1
  Nd  Nd7  1  0.902026  0.750861  0.004246  1
  Re  Re8  1  0.997141  0.002859  0.250000  1
  Re  Re9  1  0.002859  0.997141  0.750000  1
  Br  Br10  1  0.414162  0.818514  0.418521  1
  Br  Br11  1  0.585838  0.181486  0.581479  1
  Br  Br12  1  0.181486  0.585838  0.081479  1
  Br  Br13  1  0.818514  0.414162  0.918521  1
  Br  Br14  1  0.410866  0.186419  0.084828  1
  Br  Br15  1  0.589134  0.813581  0.915172  1
  Br  Br16  1  0.813581  0.589134  0.415172  1
  Br  Br17  1  0.186419  0.410866  0.584828  1
