# generated using pymatgen
data_SrNiSb12Os2Pd
_symmetry_space_group_name_H-M   'P 1'
_cell_length_a   8.18009185
_cell_length_b   8.17188449
_cell_length_c   8.19823466
_cell_angle_alpha   109.38519088
_cell_angle_beta   109.53459117
_cell_angle_gamma   109.35164101
_symmetry_Int_Tables_number   1
_chemical_formula_structural   SrNiSb12Os2Pd
_chemical_formula_sum   'Sr1 Ni1 Sb12 Os2 Pd1'
_cell_volume   422.60822473
_cell_formula_units_Z   1
loop_
 _symmetry_equiv_pos_site_id
 _symmetry_equiv_pos_as_xyz
  1  'x, y, z'
loop_
 _atom_site_type_symbol
 _atom_site_label
 _atom_site_symmetry_multiplicity
 _atom_site_fract_x
 _atom_site_fract_y
 _atom_site_fract_z
 _atom_site_occupancy
  Sr  Sr0  1  0.000000  0.000000  0.000000  1
  Ni  Ni1  1  0.500000  0.000000  0.000000  1
  Sb  Sb2  1  0.340131  0.178357  0.842719  1
  Sb  Sb3  1  0.659869  0.821643  0.157281  1
  Sb  Sb4  1  0.653515  0.501661  0.841342  1
  Sb  Sb5  1  0.346485  0.498339  0.158658  1
  Sb  Sb6  1  0.187721  0.847816  0.345668  1
  Sb  Sb7  1  0.812279  0.152184  0.654332  1
  Sb  Sb8  1  0.503236  0.842759  0.664969  1
  Sb  Sb9  1  0.496764  0.157241  0.335031  1
  Sb  Sb10  1  0.836291  0.334015  0.184426  1
  Sb  Sb11  1  0.163709  0.665985  0.815574  1
  Sb  Sb12  1  0.844003  0.661298  0.504926  1
  Sb  Sb13  1  0.155997  0.338702  0.495074  1
  Os  Os14  1  0.000000  0.000000  0.500000  1
  Os  Os15  1  0.500000  0.500000  0.500000  1
  Pd  Pd16  1  0.000000  0.500000  0.000000  1
