# generated using pymatgen
data_Dy3Tm13(C2Br3)4
_symmetry_space_group_name_H-M   'P 1'
_cell_length_a   3.64976500
_cell_length_b   10.57749453
_cell_length_c   20.27628700
_cell_angle_alpha   90.03610663
_cell_angle_beta   90.00000000
_cell_angle_gamma   90.00000000
_symmetry_Int_Tables_number   1
_chemical_formula_structural   Dy3Tm13(C2Br3)4
_chemical_formula_sum   'Dy3 Tm13 C8 Br12'
_cell_volume   782.77339260
_cell_formula_units_Z   1
loop_
 _symmetry_equiv_pos_site_id
 _symmetry_equiv_pos_as_xyz
  1  'x, y, z'
loop_
 _atom_site_type_symbol
 _atom_site_label
 _atom_site_symmetry_multiplicity
 _atom_site_fract_x
 _atom_site_fract_y
 _atom_site_fract_z
 _atom_site_occupancy
  Dy  Dy0  1  0.250000  0.866449  0.580690  1
  Dy  Dy1  1  0.750000  0.133572  0.419409  1
  Dy  Dy2  1  0.750000  0.633344  0.080658  1
  Tm  Tm3  1  0.250000  0.366251  0.918085  1
  Tm  Tm4  1  0.250000  0.865976  0.744090  1
  Tm  Tm5  1  0.750000  0.133924  0.255870  1
  Tm  Tm6  1  0.750000  0.634135  0.244110  1
  Tm  Tm7  1  0.250000  0.366038  0.756163  1
  Tm  Tm8  1  0.250000  0.866861  0.169981  1
  Tm  Tm9  1  0.750000  0.133206  0.830088  1
  Tm  Tm10  1  0.750000  0.633205  0.670041  1
  Tm  Tm11  1  0.250000  0.366957  0.329981  1
  Tm  Tm12  1  0.250000  0.900701  0.327101  1
  Tm  Tm13  1  0.750000  0.099109  0.672899  1
  Tm  Tm14  1  0.750000  0.599228  0.827319  1
  Tm  Tm15  1  0.250000  0.400790  0.172831  1
  C  C16  1  0.250000  0.614615  0.750469  1
  C  C17  1  0.750000  0.384583  0.249701  1
  C  C18  1  0.750000  0.884935  0.250269  1
  C  C19  1  0.250000  0.115924  0.749956  1
  C  C20  1  0.250000  0.632627  0.157979  1
  C  C21  1  0.750000  0.367422  0.843252  1
  C  C22  1  0.750000  0.867249  0.658160  1
  C  C23  1  0.250000  0.132756  0.342046  1
  Br  Br24  1  0.250000  0.609648  0.556649  1
  Br  Br25  1  0.750000  0.390272  0.443478  1
  Br  Br26  1  0.750000  0.890135  0.056419  1
  Br  Br27  1  0.250000  0.113017  0.943516  1
  Br  Br28  1  0.250000  0.627247  0.951914  1
  Br  Br29  1  0.750000  0.369606  0.046336  1
  Br  Br30  1  0.750000  0.869610  0.452268  1
  Br  Br31  1  0.250000  0.130450  0.547863  1
  Br  Br32  1  0.250000  0.635933  0.356153  1
  Br  Br33  1  0.750000  0.364006  0.644158  1
  Br  Br34  1  0.750000  0.864228  0.856297  1
  Br  Br35  1  0.250000  0.135991  0.143799  1
