# generated using pymatgen
data_HoTa6CdS12
_symmetry_space_group_name_H-M   'P 1'
_cell_length_a   5.79809000
_cell_length_b   5.79808893
_cell_length_c   13.83520300
_cell_angle_alpha   90.00000000
_cell_angle_beta   90.00000000
_cell_angle_gamma   120.00000609
_symmetry_Int_Tables_number   1
_chemical_formula_structural   HoTa6CdS12
_chemical_formula_sum   'Ho1 Ta6 Cd1 S12'
_cell_volume   402.79675719
_cell_formula_units_Z   1
loop_
 _symmetry_equiv_pos_site_id
 _symmetry_equiv_pos_as_xyz
  1  'x, y, z'
loop_
 _atom_site_type_symbol
 _atom_site_label
 _atom_site_symmetry_multiplicity
 _atom_site_fract_x
 _atom_site_fract_y
 _atom_site_fract_z
 _atom_site_occupancy
  Ho  Ho0  1  0.000000  0.000000  0.500000  1
  Ta  Ta1  1  0.333333  0.666667  0.249707  1
  Ta  Ta2  1  0.666667  0.333333  0.750293  1
  Ta  Ta3  1  0.666667  0.333333  0.249707  1
  Ta  Ta4  1  0.333333  0.666667  0.750293  1
  Ta  Ta5  1  0.000000  0.000000  0.251486  1
  Ta  Ta6  1  0.000000  0.000000  0.748514  1
  Cd  Cd7  1  0.000000  0.000000  0.000000  1
  S  S8  1  0.336071  0.000000  0.137216  1
  S  S9  1  0.000000  0.336071  0.137216  1
  S  S10  1  0.663929  0.663929  0.137216  1
  S  S11  1  0.337416  0.337416  0.635679  1
  S  S12  1  0.662584  0.662584  0.364321  1
  S  S13  1  0.662584  0.000000  0.635679  1
  S  S14  1  0.000000  0.662584  0.635679  1
  S  S15  1  0.000000  0.663929  0.862784  1
  S  S16  1  0.336071  0.336071  0.862784  1
  S  S17  1  0.000000  0.337416  0.364321  1
  S  S18  1  0.337416  0.000000  0.364321  1
  S  S19  1  0.663929  0.000000  0.862784  1
