# generated using pymatgen
data_NdZn10Ni
_symmetry_space_group_name_H-M   'P 1'
_cell_length_a   8.20164643
_cell_length_b   8.17066431
_cell_length_c   8.22378423
_cell_angle_alpha   99.65862671
_cell_angle_beta   99.84039049
_cell_angle_gamma   131.28166668
_symmetry_Int_Tables_number   1
_chemical_formula_structural   NdZn10Ni
_chemical_formula_sum   'Nd2 Zn20 Ni2'
_cell_volume   377.62259616
_cell_formula_units_Z   2
loop_
 _symmetry_equiv_pos_site_id
 _symmetry_equiv_pos_as_xyz
  1  'x, y, z'
loop_
 _atom_site_type_symbol
 _atom_site_label
 _atom_site_symmetry_multiplicity
 _atom_site_fract_x
 _atom_site_fract_y
 _atom_site_fract_z
 _atom_site_occupancy
  Nd  Nd0  1  0.253069  0.753069  0.506138  1
  Nd  Nd1  1  0.996931  0.996931  0.993862  1
  Zn  Zn2  1  0.431629  0.110188  0.927159  1
  Zn  Zn3  1  0.190228  0.520291  0.091653  1
  Zn  Zn4  1  0.508044  0.508044  0.016088  1
  Zn  Zn5  1  0.741956  0.241956  0.483912  1
  Zn  Zn6  1  0.625000  0.375000  0.750000  1
  Zn  Zn7  1  0.125000  0.375000  0.750000  1
  Zn  Zn8  1  0.181575  0.095690  0.670248  1
  Zn  Zn9  1  0.754470  0.933029  0.572841  1
  Zn  Zn10  1  0.348575  0.178639  0.408347  1
  Zn  Zn11  1  0.433494  0.512747  0.323581  1
  Zn  Zn12  1  0.890088  0.810835  0.323581  1
  Zn  Zn13  1  0.488673  0.574558  0.670248  1
  Zn  Zn14  1  0.059772  0.229709  0.408347  1
  Zn  Zn15  1  0.818371  0.639812  0.572841  1
  Zn  Zn16  1  0.068425  0.654310  0.829752  1
  Zn  Zn17  1  0.495530  0.816971  0.927159  1
  Zn  Zn18  1  0.901425  0.571361  0.091653  1
  Zn  Zn19  1  0.816506  0.237253  0.176419  1
  Zn  Zn20  1  0.359912  0.939165  0.176419  1
  Zn  Zn21  1  0.761327  0.175442  0.829752  1
  Ni  Ni22  1  0.625000  0.375000  0.250000  1
  Ni  Ni23  1  0.625000  0.875000  0.250000  1
