# generated using pymatgen
data_HoNiB2Ir
_symmetry_space_group_name_H-M   'P 1'
_cell_length_a   5.07178866
_cell_length_b   5.07178896
_cell_length_c   7.24965500
_cell_angle_alpha   58.69978823
_cell_angle_beta   58.69978680
_cell_angle_gamma   62.15603443
_symmetry_Int_Tables_number   1
_chemical_formula_structural   HoNiB2Ir
_chemical_formula_sum   'Ho2 Ni2 B4 Ir2'
_cell_volume   131.09226780
_cell_formula_units_Z   2
loop_
 _symmetry_equiv_pos_site_id
 _symmetry_equiv_pos_as_xyz
  1  'x, y, z'
loop_
 _atom_site_type_symbol
 _atom_site_label
 _atom_site_symmetry_multiplicity
 _atom_site_fract_x
 _atom_site_fract_y
 _atom_site_fract_z
 _atom_site_occupancy
  Ho  Ho0  1  0.111958  0.888042  0.750000  1
  Ho  Ho1  1  0.875498  0.124502  0.250000  1
  Ni  Ni2  1  0.529747  0.730576  0.292862  1
  Ni  Ni3  1  0.269424  0.470253  0.207138  1
  B  B4  1  0.166299  0.498381  0.505501  1
  B  B5  1  0.501619  0.833701  0.994499  1
  B  B6  1  0.842222  0.489676  0.470473  1
  B  B7  1  0.510324  0.157778  0.029527  1
  Ir  Ir8  1  0.729606  0.536698  0.802669  1
  Ir  Ir9  1  0.463302  0.270394  0.697331  1
