# generated using pymatgen
data_Tm3In4RuPt
_symmetry_space_group_name_H-M   'P 1'
_cell_length_a   7.98701100
_cell_length_b   7.98701088
_cell_length_c   3.65702000
_cell_angle_alpha   90.00000000
_cell_angle_beta   90.00000000
_cell_angle_gamma   120.00000464
_symmetry_Int_Tables_number   1
_chemical_formula_structural   Tm3In4RuPt
_chemical_formula_sum   'Tm3 In4 Ru1 Pt1'
_cell_volume   202.03495048
_cell_formula_units_Z   1
loop_
 _symmetry_equiv_pos_site_id
 _symmetry_equiv_pos_as_xyz
  1  'x, y, z'
loop_
 _atom_site_type_symbol
 _atom_site_label
 _atom_site_symmetry_multiplicity
 _atom_site_fract_x
 _atom_site_fract_y
 _atom_site_fract_z
 _atom_site_occupancy
  Tm  Tm0  1  0.299473  0.260225  0.500000  1
  Tm  Tm1  1  0.739775  0.039247  0.500000  1
  Tm  Tm2  1  0.960753  0.700527  0.500000  1
  In  In3  1  0.067817  0.407528  0.000000  1
  In  In4  1  0.592472  0.660288  0.000000  1
  In  In5  1  0.339712  0.932183  0.000000  1
  In  In6  1  0.666667  0.333333  0.000000  1
  Ru  Ru7  1  0.333333  0.666667  0.500000  1
  Pt  Pt8  1  0.000000  0.000000  0.000000  1
