# generated using pymatgen
data_CeHo19(Bi2Os)4
_symmetry_space_group_name_H-M   'P 1'
_cell_length_a   7.93283104
_cell_length_b   9.02474319
_cell_length_c   12.47250700
_cell_angle_alpha   89.99281957
_cell_angle_beta   90.00569864
_cell_angle_gamma   89.99085217
_symmetry_Int_Tables_number   1
_chemical_formula_structural   CeHo19(Bi2Os)4
_chemical_formula_sum   'Ce1 Ho19 Bi8 Os4'
_cell_volume   892.92874068
_cell_formula_units_Z   1
loop_
 _symmetry_equiv_pos_site_id
 _symmetry_equiv_pos_as_xyz
  1  'x, y, z'
loop_
 _atom_site_type_symbol
 _atom_site_label
 _atom_site_symmetry_multiplicity
 _atom_site_fract_x
 _atom_site_fract_y
 _atom_site_fract_z
 _atom_site_occupancy
  Ce  Ce0  1  0.669797  0.037044  0.559654  1
  Ho  Ho1  1  0.838288  0.749428  0.791208  1
  Ho  Ho2  1  0.159869  0.250390  0.207731  1
  Ho  Ho3  1  0.337263  0.251199  0.710128  1
  Ho  Ho4  1  0.661658  0.749783  0.292532  1
  Ho  Ho5  1  0.371775  0.747897  0.694914  1
  Ho  Ho6  1  0.623436  0.253687  0.306818  1
  Ho  Ho7  1  0.874680  0.249312  0.806741  1
  Ho  Ho8  1  0.124184  0.749434  0.192523  1
  Ho  Ho9  1  0.949994  0.749157  0.502791  1
  Ho  Ho10  1  0.059357  0.249472  0.497293  1
  Ho  Ho11  1  0.440968  0.249605  0.996462  1
  Ho  Ho12  1  0.557202  0.750446  0.003739  1
  Ho  Ho13  1  0.320330  0.954674  0.432084  1
  Ho  Ho14  1  0.173063  0.957096  0.936030  1
  Ho  Ho15  1  0.329197  0.543976  0.436349  1
  Ho  Ho16  1  0.826473  0.042067  0.064092  1
  Ho  Ho17  1  0.675689  0.459768  0.564611  1
  Ho  Ho18  1  0.826889  0.457806  0.064104  1
  Ho  Ho19  1  0.173081  0.542549  0.935444  1
  Bi  Bi20  1  0.567104  0.491823  0.828467  1
  Bi  Bi21  1  0.433007  0.508278  0.171957  1
  Bi  Bi22  1  0.066617  0.507054  0.672163  1
  Bi  Bi23  1  0.433024  0.992344  0.172207  1
  Bi  Bi24  1  0.934592  0.492048  0.328209  1
  Bi  Bi25  1  0.565606  0.007739  0.827539  1
  Bi  Bi26  1  0.931086  0.008790  0.327134  1
  Bi  Bi27  1  0.069587  0.990667  0.672822  1
  Os  Os28  1  0.580066  0.758259  0.514355  1
  Os  Os29  1  0.426527  0.248361  0.490934  1
  Os  Os30  1  0.075633  0.249857  0.988991  1
  Os  Os31  1  0.923962  0.749989  0.009972  1
