# generated using pymatgen
data_YEr3Np2O12
_symmetry_space_group_name_H-M   'P 1'
_cell_length_a   5.50713200
_cell_length_b   7.80825204
_cell_length_c   11.78913098
_cell_angle_alpha   73.71576839
_cell_angle_beta   90.00000000
_cell_angle_gamma   90.00000000
_symmetry_Int_Tables_number   1
_chemical_formula_structural   YEr3Np2O12
_chemical_formula_sum   'Y2 Er6 Np4 O24'
_cell_volume   486.60792225
_cell_formula_units_Z   2
loop_
 _symmetry_equiv_pos_site_id
 _symmetry_equiv_pos_as_xyz
  1  'x, y, z'
loop_
 _atom_site_type_symbol
 _atom_site_label
 _atom_site_symmetry_multiplicity
 _atom_site_fract_x
 _atom_site_fract_y
 _atom_site_fract_z
 _atom_site_occupancy
  Y  Y0  1  0.302586  0.500000  0.750000  1
  Y  Y1  1  0.697414  0.500000  0.250000  1
  Er  Er2  1  0.186089  0.795120  0.079378  1
  Er  Er3  1  0.254640  0.000000  0.750000  1
  Er  Er4  1  0.745360  0.000000  0.250000  1
  Er  Er5  1  0.186089  0.204880  0.420622  1
  Er  Er6  1  0.813911  0.204880  0.920622  1
  Er  Er7  1  0.813911  0.795120  0.579378  1
  Np  Np8  1  0.743860  0.722132  0.886287  1
  Np  Np9  1  0.256140  0.722132  0.386287  1
  Np  Np10  1  0.743860  0.277868  0.613713  1
  Np  Np11  1  0.256140  0.277868  0.113713  1
  O  O12  1  0.876302  0.371417  0.445345  1
  O  O13  1  0.443534  0.849153  0.931357  1
  O  O14  1  0.876302  0.628583  0.054655  1
  O  O15  1  0.035460  0.284659  0.733863  1
  O  O16  1  0.964540  0.284659  0.233863  1
  O  O17  1  0.123698  0.371417  0.945345  1
  O  O18  1  0.614453  0.480290  0.883808  1
  O  O19  1  0.556466  0.150847  0.068643  1
  O  O20  1  0.123698  0.628583  0.554655  1
  O  O21  1  0.035460  0.715341  0.766137  1
  O  O22  1  0.450995  0.197403  0.274757  1
  O  O23  1  0.043425  0.946065  0.396403  1
  O  O24  1  0.443534  0.150847  0.568643  1
  O  O25  1  0.964540  0.715341  0.266137  1
  O  O26  1  0.956575  0.053935  0.603597  1
  O  O27  1  0.549005  0.197403  0.774757  1
  O  O28  1  0.549005  0.802597  0.725243  1
  O  O29  1  0.043425  0.053935  0.103597  1
  O  O30  1  0.614453  0.519710  0.616192  1
  O  O31  1  0.385547  0.519710  0.116192  1
  O  O32  1  0.450995  0.802597  0.225243  1
  O  O33  1  0.385547  0.480290  0.383808  1
  O  O34  1  0.556466  0.849153  0.431357  1
  O  O35  1  0.956575  0.946065  0.896403  1
