# generated using pymatgen
data_Tb5(BiO6)2
_symmetry_space_group_name_H-M   'P 1'
_cell_length_a   6.65540509
_cell_length_b   6.64079712
_cell_length_c   6.57442822
_cell_angle_alpha   99.25130927
_cell_angle_beta   98.59160481
_cell_angle_gamma   99.38517545
_symmetry_Int_Tables_number   1
_chemical_formula_structural   Tb5(BiO6)2
_chemical_formula_sum   'Tb5 Bi2 O12'
_cell_volume   278.31392688
_cell_formula_units_Z   1
loop_
 _symmetry_equiv_pos_site_id
 _symmetry_equiv_pos_as_xyz
  1  'x, y, z'
loop_
 _atom_site_type_symbol
 _atom_site_label
 _atom_site_symmetry_multiplicity
 _atom_site_fract_x
 _atom_site_fract_y
 _atom_site_fract_z
 _atom_site_occupancy
  Tb  Tb0  1  0.859098  0.695202  0.392652  1
  Tb  Tb1  1  0.387719  0.857214  0.686245  1
  Tb  Tb2  1  0.310048  0.610900  0.147167  1
  Tb  Tb3  1  0.140926  0.310389  0.608596  1
  Tb  Tb4  1  0.608218  0.133936  0.307189  1
  Bi  Bi5  1  0.677345  0.394589  0.855057  1
  Bi  Bi6  1  0.003474  0.003540  0.999079  1
  O  O7  1  0.430582  0.178697  0.587255  1
  O  O8  1  0.588121  0.430456  0.177682  1
  O  O9  1  0.173122  0.586755  0.434651  1
  O  O10  1  0.566589  0.819317  0.412101  1
  O  O11  1  0.420574  0.571188  0.820536  1
  O  O12  1  0.817798  0.412905  0.570078  1
  O  O13  1  0.090891  0.313320  0.953280  1
  O  O14  1  0.687320  0.049531  0.928899  1
  O  O15  1  0.050494  0.929509  0.683383  1
  O  O16  1  0.926192  0.685112  0.047762  1
  O  O17  1  0.313144  0.946050  0.072851  1
  O  O18  1  0.948344  0.071391  0.315538  1
