# generated using pymatgen
data_Ho4Lu(SiBi)2
_symmetry_space_group_name_H-M   'P 1'
_cell_length_a   8.61598227
_cell_length_b   8.61598266
_cell_length_c   7.85915800
_cell_angle_alpha   90.00000000
_cell_angle_beta   90.00000000
_cell_angle_gamma   125.84853259
_symmetry_Int_Tables_number   1
_chemical_formula_structural   Ho4Lu(SiBi)2
_chemical_formula_sum   'Ho8 Lu2 Si4 Bi4'
_cell_volume   472.90630831
_cell_formula_units_Z   2
loop_
 _symmetry_equiv_pos_site_id
 _symmetry_equiv_pos_as_xyz
  1  'x, y, z'
loop_
 _atom_site_type_symbol
 _atom_site_label
 _atom_site_symmetry_multiplicity
 _atom_site_fract_x
 _atom_site_fract_y
 _atom_site_fract_z
 _atom_site_occupancy
  Ho  Ho0  1  0.043306  0.286920  0.335161  1
  Ho  Ho1  1  0.956694  0.713080  0.664839  1
  Ho  Ho2  1  0.456694  0.213080  0.835161  1
  Ho  Ho3  1  0.786920  0.543306  0.164839  1
  Ho  Ho4  1  0.543306  0.786920  0.164839  1
  Ho  Ho5  1  0.213080  0.456694  0.835161  1
  Ho  Ho6  1  0.713080  0.956694  0.664839  1
  Ho  Ho7  1  0.286920  0.043306  0.335161  1
  Lu  Lu8  1  0.000000  0.000000  0.000000  1
  Lu  Lu9  1  0.500000  0.500000  0.500000  1
  Si  Si10  1  0.365104  0.365104  0.133708  1
  Si  Si11  1  0.634896  0.634896  0.866292  1
  Si  Si12  1  0.134896  0.134896  0.633708  1
  Si  Si13  1  0.865104  0.865104  0.366292  1
  Bi  Bi14  1  0.792954  0.207046  0.000000  1
  Bi  Bi15  1  0.207046  0.792954  0.000000  1
  Bi  Bi16  1  0.707046  0.292954  0.500000  1
  Bi  Bi17  1  0.292954  0.707046  0.500000  1
