# generated using pymatgen
data_Er3Cu7Ni5
_symmetry_space_group_name_H-M   'P 1'
_cell_length_a   4.89514082
_cell_length_b   4.89263400
_cell_length_c   10.38376290
_cell_angle_alpha   85.12817740
_cell_angle_beta   80.12166461
_cell_angle_gamma   60.19637862
_symmetry_Int_Tables_number   1
_chemical_formula_structural   Er3Cu7Ni5
_chemical_formula_sum   'Er3 Cu7 Ni5'
_cell_volume   212.59954980
_cell_formula_units_Z   1
loop_
 _symmetry_equiv_pos_site_id
 _symmetry_equiv_pos_as_xyz
  1  'x, y, z'
loop_
 _atom_site_type_symbol
 _atom_site_label
 _atom_site_symmetry_multiplicity
 _atom_site_fract_x
 _atom_site_fract_y
 _atom_site_fract_z
 _atom_site_occupancy
  Er  Er0  1  0.998449  0.000523  0.004267  1
  Er  Er1  1  0.871775  0.999856  0.345149  1
  Er  Er2  1  0.130275  0.999798  0.651037  1
  Cu  Cu3  1  0.429539  0.501019  0.194276  1
  Cu  Cu4  1  0.069136  0.501474  0.806156  1
  Cu  Cu5  1  0.570760  0.498417  0.806366  1
  Cu  Cu6  1  0.189260  0.334611  0.404849  1
  Cu  Cu7  1  0.525778  0.665744  0.405175  1
  Cu  Cu8  1  0.810605  0.666437  0.593007  1
  Cu  Cu9  1  0.476243  0.332917  0.592992  1
  Ni  Ni10  1  0.336639  0.318467  0.001017  1
  Ni  Ni11  1  0.662060  0.682008  0.000894  1
  Ni  Ni12  1  0.428972  0.999816  0.199514  1
  Ni  Ni13  1  0.570385  0.999858  0.800729  1
  Ni  Ni14  1  0.930123  0.499052  0.194573  1
