# generated using pymatgen
data_LaNd(Be12Cu)2
_symmetry_space_group_name_H-M   'P 1'
_cell_length_a   7.38407597
_cell_length_b   7.43075130
_cell_length_c   7.36564846
_cell_angle_alpha   59.87424413
_cell_angle_beta   59.85995652
_cell_angle_gamma   59.62661066
_symmetry_Int_Tables_number   1
_chemical_formula_structural   LaNd(Be12Cu)2
_chemical_formula_sum   'La1 Nd1 Be24 Cu2'
_cell_volume   284.38973001
_cell_formula_units_Z   1
loop_
 _symmetry_equiv_pos_site_id
 _symmetry_equiv_pos_as_xyz
  1  'x, y, z'
loop_
 _atom_site_type_symbol
 _atom_site_label
 _atom_site_symmetry_multiplicity
 _atom_site_fract_x
 _atom_site_fract_y
 _atom_site_fract_z
 _atom_site_occupancy
  La  La0  1  0.497570  0.502434  0.497553  1
  Nd  Nd1  1  0.002963  0.997037  0.002970  1
  Be  Be2  1  0.314981  0.539965  0.183397  1
  Be  Be3  1  0.183410  0.961651  0.314993  1
  Be  Be4  1  0.036814  0.686686  0.461528  1
  Be  Be5  1  0.461559  0.814950  0.036806  1
  Be  Be6  1  0.682354  0.027764  0.819061  1
  Be  Be7  1  0.819067  0.470815  0.682346  1
  Be  Be8  1  0.961080  0.546245  0.308682  1
  Be  Be9  1  0.540079  0.955197  0.190188  1
  Be  Be10  1  0.190213  0.314524  0.540091  1
  Be  Be11  1  0.308677  0.183977  0.961113  1
  Be  Be12  1  0.463782  0.033616  0.686551  1
  Be  Be13  1  0.035085  0.465404  0.814655  1
  Be  Be14  1  0.814647  0.684845  0.035078  1
  Be  Be15  1  0.686554  0.816057  0.463760  1
  Be  Be16  1  0.316744  0.958757  0.540271  1
  Be  Be17  1  0.182245  0.542588  0.961143  1
  Be  Be18  1  0.540322  0.184260  0.316700  1
  Be  Be19  1  0.961085  0.314004  0.182302  1
  Be  Be20  1  0.687460  0.464581  0.035787  1
  Be  Be21  1  0.813928  0.034137  0.462712  1
  Be  Be22  1  0.035832  0.812141  0.687479  1
  Be  Be23  1  0.462658  0.689259  0.813902  1
  Be  Be24  1  0.249992  0.250014  0.250007  1
  Be  Be25  1  0.750091  0.749911  0.750074  1
  Cu  Cu26  1  0.549889  0.308714  0.950898  1
  Cu  Cu27  1  0.950917  0.190467  0.549956  1
