# generated using pymatgen
data_Y6Tm11Lu3(Cd3Ru)2
_symmetry_space_group_name_H-M   'P 1'
_cell_length_a   9.51329023
_cell_length_b   9.50457304
_cell_length_c   9.73936017
_cell_angle_alpha   89.99999902
_cell_angle_beta   89.95074560
_cell_angle_gamma   119.96968700
_symmetry_Int_Tables_number   1
_chemical_formula_structural   Y6Tm11Lu3(Cd3Ru)2
_chemical_formula_sum   'Y6 Tm11 Lu3 Cd6 Ru2'
_cell_volume   762.88096575
_cell_formula_units_Z   1
loop_
 _symmetry_equiv_pos_site_id
 _symmetry_equiv_pos_as_xyz
  1  'x, y, z'
loop_
 _atom_site_type_symbol
 _atom_site_label
 _atom_site_symmetry_multiplicity
 _atom_site_fract_x
 _atom_site_fract_y
 _atom_site_fract_z
 _atom_site_occupancy
  Y  Y0  1  0.540576  0.460534  0.249773  1
  Y  Y1  1  0.540576  0.080041  0.249773  1
  Y  Y2  1  0.919375  0.459688  0.249656  1
  Y  Y3  1  0.459369  0.540112  0.750153  1
  Y  Y4  1  0.459369  0.919257  0.750153  1
  Y  Y5  1  0.079410  0.539705  0.750216  1
  Tm  Tm6  1  0.210095  0.790208  0.440484  1
  Tm  Tm7  1  0.210095  0.419888  0.440484  1
  Tm  Tm8  1  0.580461  0.790231  0.440280  1
  Tm  Tm9  1  0.789762  0.209605  0.559350  1
  Tm  Tm10  1  0.789762  0.580156  0.559350  1
  Tm  Tm11  1  0.419742  0.209871  0.559291  1
  Tm  Tm12  1  0.789654  0.209325  0.940713  1
  Tm  Tm13  1  0.789654  0.580328  0.940713  1
  Tm  Tm14  1  0.419592  0.209796  0.940608  1
  Tm  Tm15  1  0.210623  0.790246  0.059409  1
  Tm  Tm16  1  0.210623  0.420378  0.059409  1
  Lu  Lu17  1  0.000254  0.000127  0.500264  1
  Lu  Lu18  1  0.999259  0.999629  0.000220  1
  Lu  Lu19  1  0.580065  0.790033  0.059089  1
  Cd  Cd20  1  0.886900  0.113244  0.249999  1
  Cd  Cd21  1  0.886900  0.773657  0.249999  1
  Cd  Cd22  1  0.227209  0.113605  0.250158  1
  Cd  Cd23  1  0.113408  0.886924  0.750386  1
  Cd  Cd24  1  0.113408  0.226485  0.750386  1
  Cd  Cd25  1  0.772829  0.886414  0.749865  1
  Ru  Ru26  1  0.334290  0.667145  0.249794  1
  Ru  Ru27  1  0.666738  0.333369  0.750024  1
