# generated using pymatgen
data_U(S4F3)2
_symmetry_space_group_name_H-M   'P 1'
_cell_length_a   7.99264128
_cell_length_b   8.01273646
_cell_length_c   12.26583065
_cell_angle_alpha   98.57373696
_cell_angle_beta   100.86697151
_cell_angle_gamma   90.45094704
_symmetry_Int_Tables_number   1
_chemical_formula_structural   U(S4F3)2
_chemical_formula_sum   'U2 S16 F12'
_cell_volume   762.30825095
_cell_formula_units_Z   2
loop_
 _symmetry_equiv_pos_site_id
 _symmetry_equiv_pos_as_xyz
  1  'x, y, z'
loop_
 _atom_site_type_symbol
 _atom_site_label
 _atom_site_symmetry_multiplicity
 _atom_site_fract_x
 _atom_site_fract_y
 _atom_site_fract_z
 _atom_site_occupancy
  U  U0  1  0.712023  0.220880  0.900686  1
  U  U1  1  0.287977  0.779120  0.099314  1
  S  S2  1  0.450805  0.755207  0.661300  1
  S  S3  1  0.549195  0.244793  0.338700  1
  S  S4  1  0.278834  0.905967  0.579580  1
  S  S5  1  0.721166  0.094033  0.420420  1
  S  S6  1  0.098535  0.979407  0.675183  1
  S  S7  1  0.901465  0.020593  0.324817  1
  S  S8  1  0.883833  0.823578  0.623149  1
  S  S9  1  0.116167  0.176422  0.376851  1
  S  S10  1  0.890243  0.635165  0.720832  1
  S  S11  1  0.109757  0.364835  0.279168  1
  S  S12  1  0.985860  0.420647  0.644983  1
  S  S13  1  0.014140  0.579353  0.355017  1
  S  S14  1  0.242404  0.412398  0.709163  1
  S  S15  1  0.757596  0.587602  0.290837  1
  S  S16  1  0.617504  0.495884  0.394541  1
  S  S17  1  0.382496  0.504116  0.605459  1
  F  F18  1  0.756107  0.255021  0.071732  1
  F  F19  1  0.243893  0.744979  0.928268  1
  F  F20  1  0.665732  0.187220  0.728412  1
  F  F21  1  0.334268  0.812780  0.271588  1
  F  F22  1  0.466224  0.142010  0.893185  1
  F  F23  1  0.533776  0.857990  0.106815  1
  F  F24  1  0.636756  0.463692  0.899811  1
  F  F25  1  0.363244  0.536308  0.100189  1
  F  F26  1  0.956508  0.299395  0.903046  1
  F  F27  1  0.043492  0.700605  0.096954  1
  F  F28  1  0.787983  0.977610  0.895441  1
  F  F29  1  0.212017  0.022390  0.104559  1
