# generated using pymatgen
data_Tb2Al7Ga2Ir3
_symmetry_space_group_name_H-M   'P 1'
_cell_length_a   7.54039931
_cell_length_b   7.53912758
_cell_length_c   9.55445900
_cell_angle_alpha   90.00000000
_cell_angle_beta   90.00000000
_cell_angle_gamma   119.54380592
_symmetry_Int_Tables_number   1
_chemical_formula_structural   Tb2Al7Ga2Ir3
_chemical_formula_sum   'Tb4 Al14 Ga4 Ir6'
_cell_volume   472.53097868
_cell_formula_units_Z   2
loop_
 _symmetry_equiv_pos_site_id
 _symmetry_equiv_pos_as_xyz
  1  'x, y, z'
loop_
 _atom_site_type_symbol
 _atom_site_label
 _atom_site_symmetry_multiplicity
 _atom_site_fract_x
 _atom_site_fract_y
 _atom_site_fract_z
 _atom_site_occupancy
  Tb  Tb0  1  0.996708  0.671634  0.250000  1
  Tb  Tb1  1  0.003292  0.328366  0.750000  1
  Tb  Tb2  1  0.669274  0.993816  0.250000  1
  Tb  Tb3  1  0.330726  0.006184  0.750000  1
  Al  Al4  1  0.001439  0.334643  0.072884  1
  Al  Al5  1  0.998561  0.665357  0.927116  1
  Al  Al6  1  0.998561  0.665357  0.572884  1
  Al  Al7  1  0.335049  0.001991  0.426955  1
  Al  Al8  1  0.001439  0.334643  0.427116  1
  Al  Al9  1  0.664951  0.998009  0.573045  1
  Al  Al10  1  0.664951  0.998009  0.926955  1
  Al  Al11  1  0.335049  0.001991  0.073045  1
  Al  Al12  1  0.333930  0.334215  0.553584  1
  Al  Al13  1  0.666070  0.665785  0.446416  1
  Al  Al14  1  0.666070  0.665785  0.053584  1
  Al  Al15  1  0.333930  0.334215  0.946416  1
  Al  Al16  1  0.547465  0.338521  0.250000  1
  Al  Al17  1  0.452535  0.661479  0.750000  1
  Ga  Ga18  1  0.129081  0.129509  0.250000  1
  Ga  Ga19  1  0.870919  0.870491  0.750000  1
  Ga  Ga20  1  0.338197  0.545512  0.250000  1
  Ga  Ga21  1  0.661803  0.454488  0.750000  1
  Ir  Ir22  1  0.671047  0.327967  0.002347  1
  Ir  Ir23  1  0.328953  0.672033  0.997653  1
  Ir  Ir24  1  0.328953  0.672033  0.502347  1
  Ir  Ir25  1  0.671047  0.327967  0.497653  1
  Ir  Ir26  1  0.000000  0.000000  0.000000  1
  Ir  Ir27  1  0.000000  0.000000  0.500000  1
