# generated using pymatgen
data_Tb3EuEr3NiI12
_symmetry_space_group_name_H-M   'P 1'
_cell_length_a   9.77324135
_cell_length_b   9.77324115
_cell_length_c   9.77324158
_cell_angle_alpha   106.37806876
_cell_angle_beta   106.37805988
_cell_angle_gamma   106.37807298
_symmetry_Int_Tables_number   1
_chemical_formula_structural   Tb3EuEr3NiI12
_chemical_formula_sum   'Tb3 Eu1 Er3 Ni1 I12'
_cell_volume   790.24925078
_cell_formula_units_Z   1
loop_
 _symmetry_equiv_pos_site_id
 _symmetry_equiv_pos_as_xyz
  1  'x, y, z'
loop_
 _atom_site_type_symbol
 _atom_site_label
 _atom_site_symmetry_multiplicity
 _atom_site_fract_x
 _atom_site_fract_y
 _atom_site_fract_z
 _atom_site_occupancy
  Tb  Tb0  1  0.092572  0.020873  0.291893  1
  Tb  Tb1  1  0.291893  0.092572  0.020873  1
  Tb  Tb2  1  0.020873  0.291893  0.092572  1
  Eu  Eu3  1  0.499773  0.499773  0.499773  1
  Er  Er4  1  0.907511  0.979328  0.713577  1
  Er  Er5  1  0.713577  0.907511  0.979328  1
  Er  Er6  1  0.979328  0.713577  0.907511  1
  Ni  Ni7  1  0.000649  0.000649  0.000649  1
  I  I8  1  0.925133  0.321649  0.774874  1
  I  I9  1  0.774874  0.925133  0.321649  1
  I  I10  1  0.321649  0.774874  0.925133  1
  I  I11  1  0.072223  0.675087  0.218358  1
  I  I12  1  0.218358  0.072223  0.675087  1
  I  I13  1  0.675087  0.218358  0.072223  1
  I  I14  1  0.551487  0.861662  0.631310  1
  I  I15  1  0.631310  0.551487  0.861662  1
  I  I16  1  0.861662  0.631310  0.551487  1
  I  I17  1  0.450970  0.139082  0.371989  1
  I  I18  1  0.371989  0.450970  0.139082  1
  I  I19  1  0.139082  0.371989  0.450970  1
