# generated using pymatgen
data_DyY5Ho10(In3Co)2
_symmetry_space_group_name_H-M   'P 1'
_cell_length_a   10.35593500
_cell_length_b   10.34523959
_cell_length_c   7.02928408
_cell_angle_alpha   89.90689953
_cell_angle_beta   90.00000000
_cell_angle_gamma   120.03420212
_symmetry_Int_Tables_number   1
_chemical_formula_structural   DyY5Ho10(In3Co)2
_chemical_formula_sum   'Dy1 Y5 Ho10 In6 Co2'
_cell_volume   651.96015064
_cell_formula_units_Z   1
loop_
 _symmetry_equiv_pos_site_id
 _symmetry_equiv_pos_as_xyz
  1  'x, y, z'
loop_
 _atom_site_type_symbol
 _atom_site_label
 _atom_site_symmetry_multiplicity
 _atom_site_fract_x
 _atom_site_fract_y
 _atom_site_fract_z
 _atom_site_occupancy
  Dy  Dy0  1  0.535729  0.071460  0.504905  1
  Y  Y1  1  0.929974  0.464989  0.505322  1
  Y  Y2  1  0.535015  0.464989  0.505322  1
  Y  Y3  1  0.465089  0.930177  0.005107  1
  Y  Y4  1  0.070128  0.534965  0.005112  1
  Y  Y5  1  0.464837  0.534965  0.005112  1
  Ho  Ho6  1  0.177876  0.355751  0.711726  1
  Ho  Ho7  1  0.644091  0.822367  0.711361  1
  Ho  Ho8  1  0.178277  0.822367  0.711361  1
  Ho  Ho9  1  0.821832  0.643664  0.211460  1
  Ho  Ho10  1  0.355644  0.177581  0.212317  1
  Ho  Ho11  1  0.821935  0.177581  0.212317  1
  Ho  Ho12  1  0.666562  0.333123  0.896636  1
  Ho  Ho13  1  0.333604  0.667208  0.396787  1
  Ho  Ho14  1  0.999934  0.999868  0.493215  1
  Ho  Ho15  1  0.000031  0.000063  0.993258  1
  In  In16  1  0.837133  0.674266  0.753194  1
  In  In17  1  0.325987  0.163121  0.754205  1
  In  In18  1  0.837134  0.163121  0.754205  1
  In  In19  1  0.162988  0.325977  0.253758  1
  In  In20  1  0.674147  0.836722  0.253259  1
  In  In21  1  0.162574  0.836722  0.253259  1
  Co  Co22  1  0.666164  0.332328  0.277847  1
  Co  Co23  1  0.333312  0.666625  0.777000  1
