# generated using pymatgen
data_Tm2Lu6In3Rh
_symmetry_space_group_name_H-M   'P 1'
_cell_length_a   10.23365500
_cell_length_b   10.23858874
_cell_length_c   6.89733602
_cell_angle_alpha   89.99209183
_cell_angle_beta   90.00000000
_cell_angle_gamma   119.98405768
_symmetry_Int_Tables_number   1
_chemical_formula_structural   Tm2Lu6In3Rh
_chemical_formula_sum   'Tm4 Lu12 In6 Rh2'
_cell_volume   625.96871174
_cell_formula_units_Z   2
loop_
 _symmetry_equiv_pos_site_id
 _symmetry_equiv_pos_as_xyz
  1  'x, y, z'
loop_
 _atom_site_type_symbol
 _atom_site_label
 _atom_site_symmetry_multiplicity
 _atom_site_fract_x
 _atom_site_fract_y
 _atom_site_fract_z
 _atom_site_occupancy
  Tm  Tm0  1  0.531371  0.062742  0.523264  1
  Tm  Tm1  1  0.937686  0.468854  0.523578  1
  Tm  Tm2  1  0.531168  0.468854  0.523578  1
  Tm  Tm3  1  0.468505  0.937010  0.023565  1
  Lu  Lu4  1  0.063325  0.531688  0.023648  1
  Lu  Lu5  1  0.468363  0.531688  0.023648  1
  Lu  Lu6  1  0.176479  0.352957  0.731113  1
  Lu  Lu7  1  0.646374  0.822896  0.730411  1
  Lu  Lu8  1  0.176523  0.822896  0.730411  1
  Lu  Lu9  1  0.823245  0.646492  0.229063  1
  Lu  Lu10  1  0.353414  0.177070  0.229326  1
  Lu  Lu11  1  0.823655  0.177070  0.229326  1
  Lu  Lu12  1  0.666902  0.333802  0.902867  1
  Lu  Lu13  1  0.333028  0.666057  0.402468  1
  Lu  Lu14  1  0.000024  0.000047  0.509008  1
  Lu  Lu15  1  0.999992  0.999985  0.009310  1
  In  In16  1  0.837530  0.675060  0.769836  1
  In  In17  1  0.325274  0.162265  0.769672  1
  In  In18  1  0.836990  0.162265  0.769672  1
  In  In19  1  0.162974  0.325949  0.269654  1
  In  In20  1  0.674550  0.837408  0.270197  1
  In  In21  1  0.162858  0.837408  0.270197  1
  Rh  Rh22  1  0.666955  0.333910  0.295971  1
  Rh  Rh23  1  0.332814  0.665630  0.795898  1
