# generated using pymatgen
data_TaTi3Ga4Mo
_symmetry_space_group_name_H-M   'P 1'
_cell_length_a   7.86639600
_cell_length_b   7.86639620
_cell_length_c   5.37622400
_cell_angle_alpha   90.00000000
_cell_angle_beta   90.00000000
_cell_angle_gamma   119.99999917
_symmetry_Int_Tables_number   1
_chemical_formula_structural   TaTi3Ga4Mo
_chemical_formula_sum   'Ta2 Ti6 Ga8 Mo2'
_cell_volume   288.11084893
_cell_formula_units_Z   2
loop_
 _symmetry_equiv_pos_site_id
 _symmetry_equiv_pos_as_xyz
  1  'x, y, z'
loop_
 _atom_site_type_symbol
 _atom_site_label
 _atom_site_symmetry_multiplicity
 _atom_site_fract_x
 _atom_site_fract_y
 _atom_site_fract_z
 _atom_site_occupancy
  Ta  Ta0  1  0.333333  0.666667  0.000000  1
  Ta  Ta1  1  0.666667  0.333333  0.500000  1
  Ti  Ti2  1  0.286975  0.000000  0.250000  1
  Ti  Ti3  1  0.286975  0.286975  0.750000  1
  Ti  Ti4  1  0.000000  0.713025  0.750000  1
  Ti  Ti5  1  0.000000  0.286975  0.250000  1
  Ti  Ti6  1  0.713025  0.713025  0.250000  1
  Ti  Ti7  1  0.713025  0.000000  0.750000  1
  Ga  Ga8  1  0.000000  0.000000  0.000000  1
  Ga  Ga9  1  0.000000  0.000000  0.500000  1
  Ga  Ga10  1  0.622567  0.000000  0.250000  1
  Ga  Ga11  1  0.622567  0.622567  0.750000  1
  Ga  Ga12  1  0.000000  0.377433  0.750000  1
  Ga  Ga13  1  0.000000  0.622567  0.250000  1
  Ga  Ga14  1  0.377433  0.377433  0.250000  1
  Ga  Ga15  1  0.377433  0.000000  0.750000  1
  Mo  Mo16  1  0.666667  0.333333  0.000000  1
  Mo  Mo17  1  0.333333  0.666667  0.500000  1
