# generated using pymatgen
data_YEr5(CdHg2)6
_symmetry_space_group_name_H-M   'P 1'
_cell_length_a   5.09758014
_cell_length_b   7.05976500
_cell_length_c   15.54624843
_cell_angle_alpha   90.00000000
_cell_angle_beta   89.97286667
_cell_angle_gamma   90.00000000
_symmetry_Int_Tables_number   1
_chemical_formula_structural   YEr5(CdHg2)6
_chemical_formula_sum   'Y1 Er5 Cd6 Hg12'
_cell_volume   559.47394003
_cell_formula_units_Z   1
loop_
 _symmetry_equiv_pos_site_id
 _symmetry_equiv_pos_as_xyz
  1  'x, y, z'
loop_
 _atom_site_type_symbol
 _atom_site_label
 _atom_site_symmetry_multiplicity
 _atom_site_fract_x
 _atom_site_fract_y
 _atom_site_fract_z
 _atom_site_occupancy
  Y  Y0  1  0.500103  0.500000  0.833408  1
  Er  Er1  1  0.999988  0.000000  0.000355  1
  Er  Er2  1  0.499944  0.500000  0.165950  1
  Er  Er3  1  0.999946  0.000000  0.333261  1
  Er  Er4  1  0.499951  0.500000  0.500433  1
  Er  Er5  1  0.000014  0.000000  0.666383  1
  Cd  Cd6  1  0.000004  0.500000  0.000036  1
  Cd  Cd7  1  0.499889  0.000000  0.166557  1
  Cd  Cd8  1  0.999947  0.500000  0.333612  1
  Cd  Cd9  1  0.500009  0.000000  0.500287  1
  Cd  Cd10  1  0.000081  0.500000  0.666407  1
  Cd  Cd11  1  0.500092  0.000000  0.833197  1
  Hg  Hg12  1  0.499960  0.250861  0.000857  1
  Hg  Hg13  1  0.499960  0.749138  0.000857  1
  Hg  Hg14  1  0.999844  0.247718  0.166814  1
  Hg  Hg15  1  0.999844  0.752283  0.166814  1
  Hg  Hg16  1  0.499874  0.252486  0.333609  1
  Hg  Hg17  1  0.499874  0.747515  0.333609  1
  Hg  Hg18  1  0.000063  0.247702  0.499987  1
  Hg  Hg19  1  0.000063  0.752299  0.499987  1
  Hg  Hg20  1  0.500138  0.251143  0.665545  1
  Hg  Hg21  1  0.500138  0.748858  0.665545  1
  Hg  Hg22  1  0.000137  0.245148  0.833245  1
  Hg  Hg23  1  0.000137  0.754853  0.833245  1
