# generated using pymatgen
data_Gd3Ho5(TcB6)4
_symmetry_space_group_name_H-M   'P 1'
_cell_length_a   3.69067600
_cell_length_b   9.16608606
_cell_length_c   11.55777707
_cell_angle_alpha   89.98696772
_cell_angle_beta   90.00000000
_cell_angle_gamma   90.00000000
_symmetry_Int_Tables_number   1
_chemical_formula_structural   Gd3Ho5(TcB6)4
_chemical_formula_sum   'Gd3 Ho5 Tc4 B24'
_cell_volume   390.98865274
_cell_formula_units_Z   1
loop_
 _symmetry_equiv_pos_site_id
 _symmetry_equiv_pos_as_xyz
  1  'x, y, z'
loop_
 _atom_site_type_symbol
 _atom_site_label
 _atom_site_symmetry_multiplicity
 _atom_site_fract_x
 _atom_site_fract_y
 _atom_site_fract_z
 _atom_site_occupancy
  Gd  Gd0  1  0.000000  0.323496  0.414353  1
  Gd  Gd1  1  0.000000  0.676585  0.585733  1
  Gd  Gd2  1  0.000000  0.823557  0.085503  1
  Ho  Ho3  1  0.000000  0.175975  0.914272  1
  Ho  Ho4  1  0.000000  0.942704  0.368687  1
  Ho  Ho5  1  0.000000  0.057474  0.631337  1
  Ho  Ho6  1  0.000000  0.442421  0.130788  1
  Ho  Ho7  1  0.000000  0.557306  0.869073  1
  Tc  Tc8  1  0.000000  0.639278  0.319782  1
  Tc  Tc9  1  0.000000  0.360390  0.680629  1
  Tc  Tc10  1  0.000000  0.139298  0.179301  1
  Tc  Tc11  1  0.000000  0.861353  0.820529  1
  B  B12  1  0.500000  0.553803  0.432399  1
  B  B13  1  0.500000  0.446051  0.567903  1
  B  B14  1  0.500000  0.053903  0.067002  1
  B  B15  1  0.500000  0.946891  0.932475  1
  B  B16  1  0.500000  0.749289  0.417957  1
  B  B17  1  0.500000  0.250666  0.582347  1
  B  B18  1  0.500000  0.249311  0.081153  1
  B  B19  1  0.500000  0.750923  0.917890  1
  B  B20  1  0.500000  0.791695  0.265212  1
  B  B21  1  0.500000  0.207902  0.735449  1
  B  B22  1  0.500000  0.291716  0.234559  1
  B  B23  1  0.500000  0.708476  0.765179  1
  B  B24  1  0.500000  0.630381  0.185479  1
  B  B25  1  0.500000  0.369062  0.815092  1
  B  B26  1  0.500000  0.130583  0.314155  1
  B  B27  1  0.500000  0.869826  0.685799  1
  B  B28  1  0.500000  0.982981  0.211609  1
  B  B29  1  0.500000  0.017918  0.788401  1
  B  B30  1  0.500000  0.482560  0.288053  1
  B  B31  1  0.500000  0.517147  0.712115  1
  B  B32  1  0.500000  0.598585  0.027433  1
  B  B33  1  0.500000  0.400293  0.972244  1
  B  B34  1  0.500000  0.098680  0.472579  1
  B  B35  1  0.500000  0.901521  0.527532  1
