# generated using pymatgen
data_CaY6BBr12
_symmetry_space_group_name_H-M   'P 1'
_cell_length_a   9.14816276
_cell_length_b   9.13863261
_cell_length_c   9.13314300
_cell_angle_alpha   106.83611276
_cell_angle_beta   106.88834899
_cell_angle_gamma   106.83061746
_symmetry_Int_Tables_number   1
_chemical_formula_structural   CaY6BBr12
_chemical_formula_sum   'Ca1 Y6 B1 Br12'
_cell_volume   638.44359787
_cell_formula_units_Z   1
loop_
 _symmetry_equiv_pos_site_id
 _symmetry_equiv_pos_as_xyz
  1  'x, y, z'
loop_
 _atom_site_type_symbol
 _atom_site_label
 _atom_site_symmetry_multiplicity
 _atom_site_fract_x
 _atom_site_fract_y
 _atom_site_fract_z
 _atom_site_occupancy
  Ca  Ca0  1  0.500000  0.500000  0.500000  1
  Y  Y1  1  0.300410  0.097334  0.023951  1
  Y  Y2  1  0.023904  0.300700  0.097485  1
  Y  Y3  1  0.097610  0.024024  0.300978  1
  Y  Y4  1  0.902390  0.975976  0.699023  1
  Y  Y5  1  0.976096  0.699301  0.902516  1
  Y  Y6  1  0.699591  0.902666  0.976050  1
  B  B7  1  0.000000  0.000000  0.000000  1
  Br  Br8  1  0.682332  0.223967  0.071476  1
  Br  Br9  1  0.372637  0.452365  0.150515  1
  Br  Br10  1  0.071515  0.682178  0.224195  1
  Br  Br11  1  0.776266  0.928644  0.317860  1
  Br  Br12  1  0.452372  0.150689  0.373127  1
  Br  Br13  1  0.151053  0.373101  0.452780  1
  Br  Br14  1  0.848947  0.626900  0.547220  1
  Br  Br15  1  0.547628  0.849312  0.626873  1
  Br  Br16  1  0.223735  0.071357  0.682140  1
  Br  Br17  1  0.928485  0.317822  0.775806  1
  Br  Br18  1  0.627364  0.547635  0.849485  1
  Br  Br19  1  0.317669  0.776033  0.928524  1
