# generated using pymatgen
data_Ho8Tl3Rh
_symmetry_space_group_name_H-M   'P 1'
_cell_length_a   10.37960500
_cell_length_b   10.37960509
_cell_length_c   7.06430100
_cell_angle_alpha   90.00000000
_cell_angle_beta   90.00000000
_cell_angle_gamma   119.99999654
_symmetry_Int_Tables_number   1
_chemical_formula_structural   Ho8Tl3Rh
_chemical_formula_sum   'Ho16 Tl6 Rh2'
_cell_volume   659.11546129
_cell_formula_units_Z   2
loop_
 _symmetry_equiv_pos_site_id
 _symmetry_equiv_pos_as_xyz
  1  'x, y, z'
loop_
 _atom_site_type_symbol
 _atom_site_label
 _atom_site_symmetry_multiplicity
 _atom_site_fract_x
 _atom_site_fract_y
 _atom_site_fract_z
 _atom_site_occupancy
  Ho  Ho0  1  0.533989  0.067978  0.508176  1
  Ho  Ho1  1  0.932022  0.466011  0.508176  1
  Ho  Ho2  1  0.533989  0.466011  0.508176  1
  Ho  Ho3  1  0.466011  0.932022  0.008176  1
  Ho  Ho4  1  0.067978  0.533989  0.008176  1
  Ho  Ho5  1  0.466011  0.533989  0.008176  1
  Ho  Ho6  1  0.176273  0.352547  0.711216  1
  Ho  Ho7  1  0.647453  0.823727  0.711216  1
  Ho  Ho8  1  0.176273  0.823727  0.711216  1
  Ho  Ho9  1  0.823727  0.647453  0.211216  1
  Ho  Ho10  1  0.352547  0.176273  0.211216  1
  Ho  Ho11  1  0.823727  0.176273  0.211216  1
  Ho  Ho12  1  0.666667  0.333333  0.888298  1
  Ho  Ho13  1  0.333333  0.666667  0.388298  1
  Ho  Ho14  1  0.000000  0.000000  0.491799  1
  Ho  Ho15  1  0.000000  0.000000  0.991799  1
  Tl  Tl16  1  0.836924  0.673847  0.753958  1
  Tl  Tl17  1  0.326153  0.163076  0.753958  1
  Tl  Tl18  1  0.836924  0.163076  0.753958  1
  Tl  Tl19  1  0.163076  0.326153  0.253958  1
  Tl  Tl20  1  0.673847  0.836924  0.253958  1
  Tl  Tl21  1  0.163076  0.836924  0.253958  1
  Rh  Rh22  1  0.666667  0.333333  0.278876  1
  Rh  Rh23  1  0.333333  0.666667  0.778876  1
