# generated using pymatgen
data_Ho3Er3MnSb2
_symmetry_space_group_name_H-M   'P 1'
_cell_length_a   8.13913600
_cell_length_b   8.13913640
_cell_length_c   4.22049300
_cell_angle_alpha   90.00000000
_cell_angle_beta   90.00000000
_cell_angle_gamma   119.99999838
_symmetry_Int_Tables_number   1
_chemical_formula_structural   Ho3Er3MnSb2
_chemical_formula_sum   'Ho3 Er3 Mn1 Sb2'
_cell_volume   242.13103306
_cell_formula_units_Z   1
loop_
 _symmetry_equiv_pos_site_id
 _symmetry_equiv_pos_as_xyz
  1  'x, y, z'
loop_
 _atom_site_type_symbol
 _atom_site_label
 _atom_site_symmetry_multiplicity
 _atom_site_fract_x
 _atom_site_fract_y
 _atom_site_fract_z
 _atom_site_occupancy
  Ho  Ho0  1  0.601747  0.000000  0.000000  1
  Ho  Ho1  1  0.000000  0.601747  0.000000  1
  Ho  Ho2  1  0.398253  0.398253  0.000000  1
  Er  Er3  1  0.235680  0.000000  0.500000  1
  Er  Er4  1  0.000000  0.235680  0.500000  1
  Er  Er5  1  0.764320  0.764320  0.500000  1
  Mn  Mn6  1  0.000000  0.000000  0.000000  1
  Sb  Sb7  1  0.333333  0.666667  0.500000  1
  Sb  Sb8  1  0.666667  0.333333  0.500000  1
