# generated using pymatgen
data_Er9Tm3InCo4Pt
_symmetry_space_group_name_H-M   'P 1'
_cell_length_a   8.22242195
_cell_length_b   8.22147466
_cell_length_c   8.22242317
_cell_angle_alpha   111.16144452
_cell_angle_beta   110.61050193
_cell_angle_gamma   106.68229819
_symmetry_Int_Tables_number   1
_chemical_formula_structural   Er9Tm3InCo4Pt
_chemical_formula_sum   'Er9 Tm3 In1 Co4 Pt1'
_cell_volume   427.09440645
_cell_formula_units_Z   1
loop_
 _symmetry_equiv_pos_site_id
 _symmetry_equiv_pos_as_xyz
  1  'x, y, z'
loop_
 _atom_site_type_symbol
 _atom_site_label
 _atom_site_symmetry_multiplicity
 _atom_site_fract_x
 _atom_site_fract_y
 _atom_site_fract_z
 _atom_site_occupancy
  Er  Er0  1  0.416098  0.217315  0.198435  1
  Er  Er1  1  0.584065  0.782526  0.801746  1
  Er  Er2  1  0.018880  0.217315  0.801217  1
  Er  Er3  1  0.980780  0.782526  0.198462  1
  Er  Er4  1  0.185637  0.288883  0.474818  1
  Er  Er5  1  0.814876  0.710984  0.525197  1
  Er  Er6  1  0.185788  0.710984  0.896110  1
  Er  Er7  1  0.814065  0.288883  0.103245  1
  Er  Er8  1  0.315372  0.620408  0.305036  1
  Tm  Tm9  1  0.684456  0.379272  0.694816  1
  Tm  Tm10  1  0.316102  0.011142  0.695041  1
  Tm  Tm11  1  0.684474  0.989941  0.305466  1
  In  In12  1  0.499957  0.500770  0.000814  1
  Co  Co13  1  0.378728  0.000928  0.379047  1
  Co  Co14  1  0.621881  0.000928  0.622200  1
  Co  Co15  1  0.111610  0.611591  0.499981  1
  Co  Co16  1  0.887039  0.386692  0.499653  1
  Pt  Pt17  1  0.000192  0.998910  0.998718  1
