# generated using pymatgen
data_Nd2Mn5(PIr)7
_symmetry_space_group_name_H-M   'P 1'
_cell_length_a   9.43431200
_cell_length_b   9.41233013
_cell_length_c   3.93380900
_cell_angle_alpha   90.00000000
_cell_angle_beta   90.00000000
_cell_angle_gamma   120.26895240
_symmetry_Int_Tables_number   1
_chemical_formula_structural   Nd2Mn5(PIr)7
_chemical_formula_sum   'Nd2 Mn5 P7 Ir7'
_cell_volume   301.69484950
_cell_formula_units_Z   1
loop_
 _symmetry_equiv_pos_site_id
 _symmetry_equiv_pos_as_xyz
  1  'x, y, z'
loop_
 _atom_site_type_symbol
 _atom_site_label
 _atom_site_symmetry_multiplicity
 _atom_site_fract_x
 _atom_site_fract_y
 _atom_site_fract_z
 _atom_site_occupancy
  Nd  Nd0  1  0.332465  0.667550  0.000000  1
  Nd  Nd1  1  0.668497  0.333725  0.500000  1
  Mn  Mn2  1  0.159853  0.896542  0.000000  1
  Mn  Mn3  1  0.109453  0.267523  0.000000  1
  Mn  Mn4  1  0.729435  0.837255  0.000000  1
  Mn  Mn5  1  0.878308  0.092454  0.500000  1
  Mn  Mn6  1  0.907879  0.783268  0.500000  1
  P  P7  1  0.413573  0.107466  0.000000  1
  P  P8  1  0.892439  0.299193  0.000000  1
  P  P9  1  0.702039  0.590402  0.000000  1
  P  P10  1  0.112076  0.721016  0.500000  1
  P  P11  1  0.277995  0.399168  0.500000  1
  P  P12  1  0.607592  0.885271  0.500000  1
  P  P13  1  0.996256  0.999050  0.000000  1
  Ir  Ir14  1  0.423954  0.359760  0.000000  1
  Ir  Ir15  1  0.639074  0.059883  0.000000  1
  Ir  Ir16  1  0.941679  0.578666  0.000000  1
  Ir  Ir17  1  0.385461  0.947379  0.500000  1
  Ir  Ir18  1  0.051100  0.436581  0.500000  1
  Ir  Ir19  1  0.559868  0.611625  0.500000  1
  Ir  Ir20  1  0.211006  0.126225  0.500000  1
