# generated using pymatgen
data_Y12Er4CdIn3Ir4
_symmetry_space_group_name_H-M   'P 1'
_cell_length_a   9.64954801
_cell_length_b   9.66735870
_cell_length_c   9.66735900
_cell_angle_alpha   60.00000241
_cell_angle_beta   59.93892656
_cell_angle_gamma   59.93892564
_symmetry_Int_Tables_number   1
_chemical_formula_structural   Y12Er4CdIn3Ir4
_chemical_formula_sum   'Y12 Er4 Cd1 In3 Ir4'
_cell_volume   637.09784020
_cell_formula_units_Z   1
loop_
 _symmetry_equiv_pos_site_id
 _symmetry_equiv_pos_as_xyz
  1  'x, y, z'
loop_
 _atom_site_type_symbol
 _atom_site_label
 _atom_site_symmetry_multiplicity
 _atom_site_fract_x
 _atom_site_fract_y
 _atom_site_fract_z
 _atom_site_occupancy
  Y  Y0  1  0.808735  0.191068  0.191068  1
  Y  Y1  1  0.190270  0.809856  0.809856  1
  Y  Y2  1  0.190270  0.809856  0.190017  1
  Y  Y3  1  0.808735  0.191068  0.809130  1
  Y  Y4  1  0.190270  0.190017  0.809856  1
  Y  Y5  1  0.808735  0.809130  0.191068  1
  Y  Y6  1  0.939762  0.561501  0.561501  1
  Y  Y7  1  0.561557  0.939031  0.939031  1
  Y  Y8  1  0.561557  0.939031  0.560382  1
  Y  Y9  1  0.939762  0.561501  0.937237  1
  Y  Y10  1  0.561557  0.560382  0.939031  1
  Y  Y11  1  0.939762  0.937237  0.561501  1
  Er  Er12  1  0.349117  0.349135  0.349135  1
  Er  Er13  1  0.349117  0.349135  0.952614  1
  Er  Er14  1  0.349117  0.952614  0.349135  1
  Er  Er15  1  0.952503  0.349166  0.349166  1
  Cd  Cd16  1  0.253323  0.582226  0.582226  1
  In  In17  1  0.582297  0.583513  0.583513  1
  In  In18  1  0.582297  0.583513  0.250679  1
  In  In19  1  0.582297  0.250679  0.583513  1
  Ir  Ir20  1  0.142585  0.142362  0.142362  1
  Ir  Ir21  1  0.142585  0.142362  0.572692  1
  Ir  Ir22  1  0.142585  0.572692  0.142362  1
  Ir  Ir23  1  0.571209  0.142931  0.142931  1
