# generated using pymatgen
data_Hf9Ir10Rh
_symmetry_space_group_name_H-M   'P 1'
_cell_length_a   7.19397261
_cell_length_b   7.81027110
_cell_length_c   7.81027108
_cell_angle_alpha   77.75442560
_cell_angle_beta   62.57769143
_cell_angle_gamma   62.57767774
_symmetry_Int_Tables_number   1
_chemical_formula_structural   Hf9Ir10Rh
_chemical_formula_sum   'Hf9 Ir10 Rh1'
_cell_volume   345.75692763
_cell_formula_units_Z   1
loop_
 _symmetry_equiv_pos_site_id
 _symmetry_equiv_pos_as_xyz
  1  'x, y, z'
loop_
 _atom_site_type_symbol
 _atom_site_label
 _atom_site_symmetry_multiplicity
 _atom_site_fract_x
 _atom_site_fract_y
 _atom_site_fract_z
 _atom_site_occupancy
  Hf  Hf0  1  0.000000  0.000000  0.000000  1
  Hf  Hf1  1  0.687689  0.407903  0.216720  1
  Hf  Hf2  1  0.312311  0.592097  0.783280  1
  Hf  Hf3  1  0.095591  0.216720  0.592097  1
  Hf  Hf4  1  0.904409  0.783280  0.407903  1
  Hf  Hf5  1  0.759037  0.650897  0.831030  1
  Hf  Hf6  1  0.240963  0.349103  0.168970  1
  Hf  Hf7  1  0.409934  0.831030  0.349103  1
  Hf  Hf8  1  0.590066  0.168970  0.650897  1
  Ir  Ir9  1  0.250000  0.500000  0.500000  1
  Ir  Ir10  1  0.750000  0.500000  0.500000  1
  Ir  Ir11  1  0.675348  0.312308  0.897107  1
  Ir  Ir12  1  0.884765  0.687692  0.102893  1
  Ir  Ir13  1  0.987658  0.897107  0.687692  1
  Ir  Ir14  1  0.572456  0.102893  0.312308  1
  Ir  Ir15  1  0.324652  0.687692  0.102893  1
  Ir  Ir16  1  0.115235  0.312308  0.897107  1
  Ir  Ir17  1  0.012342  0.102893  0.312308  1
  Ir  Ir18  1  0.427544  0.897107  0.687692  1
  Rh  Rh19  1  0.500000  0.000000  0.000000  1
