# generated using pymatgen
data_Ce2VSi3Ir3Rh
_symmetry_space_group_name_H-M   'P 1'
_cell_length_a   4.14772400
_cell_length_b   4.14772400
_cell_length_c   10.07220700
_cell_angle_alpha   90.00000000
_cell_angle_beta   90.00000000
_cell_angle_gamma   90.00000000
_symmetry_Int_Tables_number   1
_chemical_formula_structural   Ce2VSi3Ir3Rh
_chemical_formula_sum   'Ce2 V1 Si3 Ir3 Rh1'
_cell_volume   173.27836519
_cell_formula_units_Z   1
loop_
 _symmetry_equiv_pos_site_id
 _symmetry_equiv_pos_as_xyz
  1  'x, y, z'
loop_
 _atom_site_type_symbol
 _atom_site_label
 _atom_site_symmetry_multiplicity
 _atom_site_fract_x
 _atom_site_fract_y
 _atom_site_fract_z
 _atom_site_occupancy
  Ce  Ce0  1  0.000000  0.500000  0.754890  1
  Ce  Ce1  1  0.500000  0.000000  0.245110  1
  V  V2  1  0.000000  0.000000  0.000000  1
  Si  Si3  1  0.000000  0.500000  0.372648  1
  Si  Si4  1  0.500000  0.000000  0.627352  1
  Si  Si5  1  0.500000  0.500000  0.000000  1
  Ir  Ir6  1  0.500000  0.000000  0.866334  1
  Ir  Ir7  1  0.000000  0.000000  0.500000  1
  Ir  Ir8  1  0.000000  0.500000  0.133666  1
  Rh  Rh9  1  0.500000  0.500000  0.500000  1
