# generated using pymatgen
data_HoCu4HgO8
_symmetry_space_group_name_H-M   'P 1'
_cell_length_a   6.27088346
_cell_length_b   6.27088391
_cell_length_c   6.27088393
_cell_angle_alpha   125.48937858
_cell_angle_beta   125.48938475
_cell_angle_gamma   80.72900780
_symmetry_Int_Tables_number   1
_chemical_formula_structural   HoCu4HgO8
_chemical_formula_sum   'Ho1 Cu4 Hg1 O8'
_cell_volume   157.62129795
_cell_formula_units_Z   1
loop_
 _symmetry_equiv_pos_site_id
 _symmetry_equiv_pos_as_xyz
  1  'x, y, z'
loop_
 _atom_site_type_symbol
 _atom_site_label
 _atom_site_symmetry_multiplicity
 _atom_site_fract_x
 _atom_site_fract_y
 _atom_site_fract_z
 _atom_site_occupancy
  Ho  Ho0  1  0.750000  0.250000  0.500000  1
  Cu  Cu1  1  0.367346  0.623103  0.239439  1
  Cu  Cu2  1  0.383665  0.127907  0.760561  1
  Cu  Cu3  1  0.376897  0.616335  0.744243  1
  Cu  Cu4  1  0.872093  0.632654  0.255757  1
  Hg  Hg5  1  0.000000  0.000000  0.000000  1
  O  O6  1  0.733172  0.317367  0.155799  1
  O  O7  1  0.161569  0.577373  0.844201  1
  O  O8  1  0.021132  0.956627  0.380123  1
  O  O9  1  0.576503  0.641009  0.619877  1
  O  O10  1  0.043373  0.423497  0.064506  1
  O  O11  1  0.358991  0.978868  0.935494  1
  O  O12  1  0.422627  0.266828  0.584196  1
  O  O13  1  0.682633  0.838431  0.415804  1
