# generated using pymatgen
data_Ho8Sc3Si16Mo9
_symmetry_space_group_name_H-M   'P 1'
_cell_length_a   6.98205573
_cell_length_b   6.98205615
_cell_length_c   12.88648519
_cell_angle_alpha   89.99508844
_cell_angle_beta   90.00491029
_cell_angle_gamma   89.87041893
_symmetry_Int_Tables_number   1
_chemical_formula_structural   Ho8Sc3Si16Mo9
_chemical_formula_sum   'Ho8 Sc3 Si16 Mo9'
_cell_volume   628.20301024
_cell_formula_units_Z   1
loop_
 _symmetry_equiv_pos_site_id
 _symmetry_equiv_pos_as_xyz
  1  'x, y, z'
loop_
 _atom_site_type_symbol
 _atom_site_label
 _atom_site_symmetry_multiplicity
 _atom_site_fract_x
 _atom_site_fract_y
 _atom_site_fract_z
 _atom_site_occupancy
  Ho  Ho0  1  0.338860  0.005144  0.468545  1
  Ho  Ho1  1  0.494540  0.839628  0.719603  1
  Ho  Ho2  1  0.501218  0.161783  0.215954  1
  Ho  Ho3  1  0.839628  0.494540  0.280397  1
  Ho  Ho4  1  0.161783  0.501218  0.784046  1
  Ho  Ho5  1  0.657328  0.999073  0.969020  1
  Ho  Ho6  1  0.005144  0.338860  0.531455  1
  Ho  Ho7  1  0.999073  0.657328  0.030980  1
  Sc  Sc8  1  0.170765  0.829931  0.248072  1
  Sc  Sc9  1  0.829931  0.170765  0.751928  1
  Sc  Sc10  1  0.669336  0.669336  0.500000  1
  Si  Si11  1  0.204053  0.128966  0.683428  1
  Si  Si12  1  0.374040  0.697055  0.934452  1
  Si  Si13  1  0.628459  0.294955  0.432326  1
  Si  Si14  1  0.697055  0.374040  0.065548  1
  Si  Si15  1  0.294955  0.628459  0.567674  1
  Si  Si16  1  0.795179  0.871938  0.183065  1
  Si  Si17  1  0.128966  0.204053  0.316572  1
  Si  Si18  1  0.871938  0.795179  0.816935  1
  Si  Si19  1  0.287241  0.965503  0.059093  1
  Si  Si20  1  0.543303  0.789855  0.310948  1
  Si  Si21  1  0.453236  0.213253  0.816476  1
  Si  Si22  1  0.789855  0.543303  0.689052  1
  Si  Si23  1  0.213253  0.453236  0.183524  1
  Si  Si24  1  0.710012  0.044374  0.561555  1
  Si  Si25  1  0.965503  0.287241  0.940907  1
  Si  Si26  1  0.044374  0.710012  0.438445  1
  Mo  Mo27  1  0.331696  0.331696  0.000000  1
  Mo  Mo28  1  0.157998  0.000600  0.873152  1
  Mo  Mo29  1  0.496039  0.664447  0.122855  1
  Mo  Mo30  1  0.501937  0.340889  0.624650  1
  Mo  Mo31  1  0.664447  0.496039  0.877145  1
  Mo  Mo32  1  0.340889  0.501937  0.375350  1
  Mo  Mo33  1  0.841849  0.995516  0.374205  1
  Mo  Mo34  1  0.000600  0.157998  0.126848  1
  Mo  Mo35  1  0.995516  0.841849  0.625795  1
