# generated using pymatgen
data_CeNd3Mg2Ir3
_symmetry_space_group_name_H-M   'P 1'
_cell_length_a   7.55415600
_cell_length_b   7.64517193
_cell_length_c   4.15998000
_cell_angle_alpha   90.00000000
_cell_angle_beta   90.00000000
_cell_angle_gamma   119.60695172
_symmetry_Int_Tables_number   1
_chemical_formula_structural   CeNd3Mg2Ir3
_chemical_formula_sum   'Ce1 Nd3 Mg2 Ir3'
_cell_volume   208.88226296
_cell_formula_units_Z   1
loop_
 _symmetry_equiv_pos_site_id
 _symmetry_equiv_pos_as_xyz
  1  'x, y, z'
loop_
 _atom_site_type_symbol
 _atom_site_label
 _atom_site_symmetry_multiplicity
 _atom_site_fract_x
 _atom_site_fract_y
 _atom_site_fract_z
 _atom_site_occupancy
  Ce  Ce0  1  0.745405  0.000000  0.000000  1
  Nd  Nd1  1  0.383955  0.000000  0.500000  1
  Nd  Nd2  1  0.028477  0.442618  0.500000  1
  Nd  Nd3  1  0.585860  0.557382  0.500000  1
  Mg  Mg4  1  0.243628  0.246816  0.000000  1
  Mg  Mg5  1  0.996811  0.753184  0.000000  1
  Ir  Ir6  1  0.673843  0.323893  0.000000  1
  Ir  Ir7  1  0.349951  0.676107  0.000000  1
  Ir  Ir8  1  0.992069  0.000000  0.500000  1
