# generated using pymatgen
data_Tm5Lu5(RuRh)2
_symmetry_space_group_name_H-M   'P 1'
_cell_length_a   6.27006081
_cell_length_b   7.19885199
_cell_length_c   8.33466117
_cell_angle_alpha   96.78896671
_cell_angle_beta   112.43537383
_cell_angle_gamma   90.01858207
_symmetry_Int_Tables_number   1
_chemical_formula_structural   Tm5Lu5(RuRh)2
_chemical_formula_sum   'Tm5 Lu5 Ru2 Rh2'
_cell_volume   344.86738874
_cell_formula_units_Z   1
loop_
 _symmetry_equiv_pos_site_id
 _symmetry_equiv_pos_as_xyz
  1  'x, y, z'
loop_
 _atom_site_type_symbol
 _atom_site_label
 _atom_site_symmetry_multiplicity
 _atom_site_fract_x
 _atom_site_fract_y
 _atom_site_fract_z
 _atom_site_occupancy
  Tm  Tm0  1  0.524086  0.081644  0.815724  1
  Tm  Tm1  1  0.476129  0.918188  0.184344  1
  Tm  Tm2  1  0.710591  0.415902  0.187838  1
  Tm  Tm3  1  0.289220  0.584300  0.812165  1
  Tm  Tm4  1  0.290731  0.312528  0.435613  1
  Lu  Lu5  1  0.709433  0.687522  0.564663  1
  Lu  Lu6  1  0.858651  0.182424  0.562671  1
  Lu  Lu7  1  0.141324  0.817459  0.437435  1
  Lu  Lu8  1  0.079161  0.247643  0.999076  1
  Lu  Lu9  1  0.920610  0.752224  0.000545  1
  Ru  Ru10  1  0.105093  0.923229  0.782225  1
  Ru  Ru11  1  0.894620  0.076568  0.217594  1
  Rh  Rh12  1  0.323927  0.575633  0.222674  1
  Rh  Rh13  1  0.676423  0.424736  0.777432  1
