# generated using pymatgen
data_HfZr2B2IrRu4
_symmetry_space_group_name_H-M   'P 1'
_cell_length_a   9.57945902
_cell_length_b   9.60204702
_cell_length_c   3.13099800
_cell_angle_alpha   90.00000000
_cell_angle_beta   90.00000000
_cell_angle_gamma   89.99272960
_symmetry_Int_Tables_number   1
_chemical_formula_structural   HfZr2B2IrRu4
_chemical_formula_sum   'Hf2 Zr4 B4 Ir2 Ru8'
_cell_volume   287.99675797
_cell_formula_units_Z   2
loop_
 _symmetry_equiv_pos_site_id
 _symmetry_equiv_pos_as_xyz
  1  'x, y, z'
loop_
 _atom_site_type_symbol
 _atom_site_label
 _atom_site_symmetry_multiplicity
 _atom_site_fract_x
 _atom_site_fract_y
 _atom_site_fract_z
 _atom_site_occupancy
  Hf  Hf0  1  0.000000  0.000000  0.000000  1
  Hf  Hf1  1  0.500000  0.500000  0.000000  1
  Zr  Zr2  1  0.675684  0.180510  0.000000  1
  Zr  Zr3  1  0.324316  0.819490  0.000000  1
  Zr  Zr4  1  0.175213  0.328529  0.000000  1
  Zr  Zr5  1  0.824787  0.671471  0.000000  1
  B  B6  1  0.121352  0.621699  0.000000  1
  B  B7  1  0.878648  0.378301  0.000000  1
  B  B8  1  0.614987  0.874882  0.000000  1
  B  B9  1  0.385013  0.125118  0.000000  1
  Ir  Ir10  1  0.222603  0.070854  0.500000  1
  Ir  Ir11  1  0.777397  0.929146  0.500000  1
  Ru  Ru12  1  0.069674  0.779286  0.500000  1
  Ru  Ru13  1  0.721581  0.428364  0.500000  1
  Ru  Ru14  1  0.930326  0.220714  0.500000  1
  Ru  Ru15  1  0.278419  0.571636  0.500000  1
  Ru  Ru16  1  0.572081  0.721383  0.500000  1
  Ru  Ru17  1  0.427919  0.278617  0.500000  1
  Ru  Ru18  1  0.500000  0.000000  0.500000  1
  Ru  Ru19  1  0.000000  0.500000  0.500000  1
