# generated using pymatgen
data_CaTm3(Si5Os3)2
_symmetry_space_group_name_H-M   'P 1'
_cell_length_a   8.12182962
_cell_length_b   8.15594871
_cell_length_c   5.76157519
_cell_angle_alpha   70.55171950
_cell_angle_beta   70.53399797
_cell_angle_gamma   94.20780912
_symmetry_Int_Tables_number   1
_chemical_formula_structural   CaTm3(Si5Os3)2
_chemical_formula_sum   'Ca1 Tm3 Si10 Os6'
_cell_volume   331.93352773
_cell_formula_units_Z   1
loop_
 _symmetry_equiv_pos_site_id
 _symmetry_equiv_pos_as_xyz
  1  'x, y, z'
loop_
 _atom_site_type_symbol
 _atom_site_label
 _atom_site_symmetry_multiplicity
 _atom_site_fract_x
 _atom_site_fract_y
 _atom_site_fract_z
 _atom_site_occupancy
  Ca  Ca0  1  0.601012  0.868940  0.255965  1
  Tm  Tm1  1  0.867431  0.602523  0.752524  1
  Tm  Tm2  1  0.400494  0.130992  0.745878  1
  Tm  Tm3  1  0.131262  0.397158  0.247762  1
  Si  Si4  1  0.068238  0.260479  0.834262  1
  Si  Si5  1  0.735682  0.931681  0.669653  1
  Si  Si6  1  0.931823  0.739541  0.163884  1
  Si  Si7  1  0.263915  0.069554  0.332166  1
  Si  Si8  1  0.206995  0.793911  0.747467  1
  Si  Si9  1  0.792380  0.204886  0.253984  1
  Si  Si10  1  0.512408  0.488327  0.746312  1
  Si  Si11  1  0.489136  0.512073  0.251432  1
  Si  Si12  1  0.774954  0.224002  0.749594  1
  Si  Si13  1  0.222715  0.774931  0.250096  1
  Os  Os14  1  0.252378  0.542259  0.631053  1
  Os  Os15  1  0.452946  0.740744  0.874794  1
  Os  Os16  1  0.747254  0.456651  0.368097  1
  Os  Os17  1  0.544568  0.259005  0.128315  1
  Os  Os18  1  0.003946  0.999322  0.747459  1
  Os  Os19  1  0.000466  0.003023  0.249304  1
