# generated using pymatgen
data_K2Mg(Zr2Se5)2
_symmetry_space_group_name_H-M   'P 1'
_cell_length_a   6.66355218
_cell_length_b   11.33826840
_cell_length_c   9.13141796
_cell_angle_alpha   58.88066522
_cell_angle_beta   68.48431904
_cell_angle_gamma   89.91636861
_symmetry_Int_Tables_number   1
_chemical_formula_structural   K2Mg(Zr2Se5)2
_chemical_formula_sum   'K2 Mg1 Zr4 Se10'
_cell_volume   533.92592570
_cell_formula_units_Z   1
loop_
 _symmetry_equiv_pos_site_id
 _symmetry_equiv_pos_as_xyz
  1  'x, y, z'
loop_
 _atom_site_type_symbol
 _atom_site_label
 _atom_site_symmetry_multiplicity
 _atom_site_fract_x
 _atom_site_fract_y
 _atom_site_fract_z
 _atom_site_occupancy
  K  K0  1  0.787198  0.075382  0.425292  1
  K  K1  1  0.010710  0.525568  0.976280  1
  Mg  Mg2  1  0.801154  0.599873  0.400314  1
  Zr  Zr3  1  0.397127  0.795633  0.204325  1
  Zr  Zr4  1  0.201891  0.404885  0.591827  1
  Zr  Zr5  1  0.604706  0.207397  0.795997  1
  Zr  Zr6  1  0.995079  0.992262  0.007449  1
  Se  Se7  1  0.994921  0.840751  0.348795  1
  Se  Se8  1  0.589999  0.037294  0.152328  1
  Se  Se9  1  0.190697  0.239529  0.950546  1
  Se  Se10  1  0.790172  0.433483  0.757676  1
  Se  Se11  1  0.387315  0.637558  0.549561  1
  Se  Se12  1  0.405704  0.962017  0.852135  1
  Se  Se13  1  0.008756  0.162555  0.649032  1
  Se  Se14  1  0.607356  0.355216  0.451819  1
  Se  Se15  1  0.218224  0.561758  0.245968  1
  Se  Se16  1  0.808988  0.768841  0.040654  1
