# generated using pymatgen
data_YbEr3RuPt(RhO7)2
_symmetry_space_group_name_H-M   'P 1'
_cell_length_a   7.20778211
_cell_length_b   7.20778071
_cell_length_c   7.20778200
_cell_angle_alpha   59.98785884
_cell_angle_beta   59.98786526
_cell_angle_gamma   59.98785640
_symmetry_Int_Tables_number   1
_chemical_formula_structural   YbEr3RuPt(RhO7)2
_chemical_formula_sum   'Yb1 Er3 Ru1 Pt1 Rh2 O14'
_cell_volume   264.70997004
_cell_formula_units_Z   1
loop_
 _symmetry_equiv_pos_site_id
 _symmetry_equiv_pos_as_xyz
  1  'x, y, z'
loop_
 _atom_site_type_symbol
 _atom_site_label
 _atom_site_symmetry_multiplicity
 _atom_site_fract_x
 _atom_site_fract_y
 _atom_site_fract_z
 _atom_site_occupancy
  Yb  Yb0  1  0.625000  0.625000  0.625000  1
  Er  Er1  1  0.625000  0.625000  0.125000  1
  Er  Er2  1  0.625000  0.125000  0.625000  1
  Er  Er3  1  0.125000  0.625000  0.625000  1
  Ru  Ru4  1  0.625000  0.125000  0.125000  1
  Pt  Pt5  1  0.125000  0.125000  0.125000  1
  Rh  Rh6  1  0.125000  0.625000  0.125000  1
  Rh  Rh7  1  0.125000  0.125000  0.625000  1
  O  O8  1  0.043279  0.459575  0.459575  1
  O  O9  1  0.791800  0.797853  0.200770  1
  O  O10  1  0.786768  0.211848  0.211848  1
  O  O11  1  0.750925  0.753196  0.753196  1
  O  O12  1  0.033200  0.465111  0.036164  1
  O  O13  1  0.458200  0.049230  0.452147  1
  O  O14  1  0.033200  0.036164  0.465111  1
  O  O15  1  0.499075  0.496804  0.496804  1
  O  O16  1  0.216800  0.213836  0.784889  1
  O  O17  1  0.216800  0.784889  0.213836  1
  O  O18  1  0.791800  0.200770  0.797853  1
  O  O19  1  0.463232  0.038152  0.038152  1
  O  O20  1  0.458200  0.452147  0.049230  1
  O  O21  1  0.206721  0.790425  0.790425  1
