# generated using pymatgen
data_TbY3Al4(IrPd)2
_symmetry_space_group_name_H-M   'P 1'
_cell_length_a   4.36184900
_cell_length_b   6.89642040
_cell_length_c   7.87436980
_cell_angle_alpha   90.20673235
_cell_angle_beta   90.00000000
_cell_angle_gamma   90.00000000
_symmetry_Int_Tables_number   1
_chemical_formula_structural   TbY3Al4(IrPd)2
_chemical_formula_sum   'Tb1 Y3 Al4 Ir2 Pd2'
_cell_volume   236.86851327
_cell_formula_units_Z   1
loop_
 _symmetry_equiv_pos_site_id
 _symmetry_equiv_pos_as_xyz
  1  'x, y, z'
loop_
 _atom_site_type_symbol
 _atom_site_label
 _atom_site_symmetry_multiplicity
 _atom_site_fract_x
 _atom_site_fract_y
 _atom_site_fract_z
 _atom_site_occupancy
  Tb  Tb0  1  0.750000  0.972768  0.323555  1
  Y  Y1  1  0.250000  0.535476  0.815745  1
  Y  Y2  1  0.750000  0.464675  0.184154  1
  Y  Y3  1  0.250000  0.027177  0.677496  1
  Al  Al4  1  0.250000  0.638149  0.440709  1
  Al  Al5  1  0.750000  0.361974  0.560118  1
  Al  Al6  1  0.250000  0.145052  0.063925  1
  Al  Al7  1  0.750000  0.855040  0.935093  1
  Ir  Ir8  1  0.750000  0.731728  0.619066  1
  Ir  Ir9  1  0.250000  0.267969  0.380138  1
  Pd  Pd10  1  0.750000  0.227084  0.881122  1
  Pd  Pd11  1  0.250000  0.772909  0.118881  1
