# generated using pymatgen
data_Pb(W3I7)2
_symmetry_space_group_name_H-M   'P 1'
_cell_length_a   14.85692700
_cell_length_b   14.85692700
_cell_length_c   14.85692700
_cell_angle_alpha   90.00000000
_cell_angle_beta   90.00000000
_cell_angle_gamma   90.00000000
_symmetry_Int_Tables_number   1
_chemical_formula_structural   Pb(W3I7)2
_chemical_formula_sum   'Pb4 W24 I56'
_cell_volume   3279.34394106
_cell_formula_units_Z   4
loop_
 _symmetry_equiv_pos_site_id
 _symmetry_equiv_pos_as_xyz
  1  'x, y, z'
loop_
 _atom_site_type_symbol
 _atom_site_label
 _atom_site_symmetry_multiplicity
 _atom_site_fract_x
 _atom_site_fract_y
 _atom_site_fract_z
 _atom_site_occupancy
  Pb  Pb0  1  0.000000  0.000000  0.500000  1
  Pb  Pb1  1  0.500000  0.500000  0.500000  1
  Pb  Pb2  1  0.500000  0.000000  0.000000  1
  Pb  Pb3  1  0.000000  0.500000  0.000000  1
  W  W4  1  0.031149  0.121608  0.975277  1
  W  W5  1  0.975277  0.031149  0.121608  1
  W  W6  1  0.878392  0.475277  0.531149  1
  W  W7  1  0.524723  0.468851  0.121608  1
  W  W8  1  0.024723  0.531149  0.621608  1
  W  W9  1  0.621608  0.024723  0.531149  1
  W  W10  1  0.024723  0.968851  0.878392  1
  W  W11  1  0.475277  0.968851  0.621608  1
  W  W12  1  0.531149  0.621608  0.024723  1
  W  W13  1  0.531149  0.878392  0.475277  1
  W  W14  1  0.621608  0.475277  0.968851  1
  W  W15  1  0.475277  0.531149  0.878392  1
  W  W16  1  0.121608  0.975277  0.031149  1
  W  W17  1  0.968851  0.878392  0.024723  1
  W  W18  1  0.968851  0.621608  0.475277  1
  W  W19  1  0.121608  0.524723  0.468851  1
  W  W20  1  0.378392  0.524723  0.031149  1
  W  W21  1  0.468851  0.378392  0.975277  1
  W  W22  1  0.378392  0.975277  0.468851  1
  W  W23  1  0.878392  0.024723  0.968851  1
  W  W24  1  0.524723  0.031149  0.378392  1
  W  W25  1  0.468851  0.121608  0.524723  1
  W  W26  1  0.975277  0.468851  0.378392  1
  W  W27  1  0.031149  0.378392  0.524723  1
  I  I28  1  0.379354  0.813687  0.567877  1
  I  I29  1  0.304983  0.932038  0.082791  1
  I  I30  1  0.879354  0.186313  0.067877  1
  I  I31  1  0.620646  0.186313  0.432123  1
  I  I32  1  0.686313  0.932123  0.379354  1
  I  I33  1  0.432123  0.620646  0.186313  1
  I  I34  1  0.365358  0.134642  0.365358  1
  I  I35  1  0.582791  0.695017  0.432038  1
  I  I36  1  0.567877  0.120646  0.686313  1
  I  I37  1  0.932123  0.120646  0.813687  1
  I  I38  1  0.134642  0.365358  0.365358  1
  I  I39  1  0.432038  0.582791  0.695017  1
  I  I40  1  0.120646  0.686313  0.567877  1
  I  I41  1  0.186313  0.432123  0.620646  1
  I  I42  1  0.917209  0.695017  0.067962  1
  I  I43  1  0.804983  0.067962  0.582791  1
  I  I44  1  0.567962  0.082791  0.195017  1
  I  I45  1  0.634642  0.634642  0.865358  1
  I  I46  1  0.804983  0.432038  0.917209  1
  I  I47  1  0.695017  0.432038  0.582791  1
  I  I48  1  0.365358  0.365358  0.134642  1
  I  I49  1  0.865358  0.634642  0.634642  1
  I  I50  1  0.195017  0.567962  0.082791  1
  I  I51  1  0.634642  0.865358  0.634642  1
  I  I52  1  0.120646  0.813687  0.932123  1
  I  I53  1  0.879354  0.313687  0.432123  1
  I  I54  1  0.195017  0.932038  0.417209  1
  I  I55  1  0.313687  0.067877  0.620646  1
  I  I56  1  0.432123  0.879354  0.313687  1
  I  I57  1  0.932038  0.082791  0.304983  1
  I  I58  1  0.582791  0.804983  0.067962  1
  I  I59  1  0.134642  0.134642  0.134642  1
  I  I60  1  0.067877  0.620646  0.313687  1
  I  I61  1  0.865358  0.865358  0.865358  1
  I  I62  1  0.304983  0.567962  0.417209  1
  I  I63  1  0.567877  0.379354  0.813687  1
  I  I64  1  0.186313  0.067877  0.879354  1
  I  I65  1  0.432038  0.917209  0.804983  1
  I  I66  1  0.082791  0.304983  0.932038  1
  I  I67  1  0.313687  0.432123  0.879354  1
  I  I68  1  0.695017  0.067962  0.917209  1
  I  I69  1  0.917209  0.804983  0.432038  1
  I  I70  1  0.067877  0.879354  0.186313  1
  I  I71  1  0.067962  0.917209  0.695017  1
  I  I72  1  0.813687  0.567877  0.379354  1
  I  I73  1  0.417209  0.304983  0.567962  1
  I  I74  1  0.567962  0.417209  0.304983  1
  I  I75  1  0.379354  0.686313  0.932123  1
  I  I76  1  0.067962  0.582791  0.804983  1
  I  I77  1  0.932038  0.417209  0.195017  1
  I  I78  1  0.686313  0.567877  0.120646  1
  I  I79  1  0.082791  0.195017  0.567962  1
  I  I80  1  0.813687  0.932123  0.120646  1
  I  I81  1  0.620646  0.313687  0.067877  1
  I  I82  1  0.417209  0.195017  0.932038  1
  I  I83  1  0.932123  0.379354  0.686313  1
