# generated using pymatgen
data_NdEuErGa8Ag3
_symmetry_space_group_name_H-M   'P 1'
_cell_length_a   4.39976424
_cell_length_b   8.43949830
_cell_length_c   8.43949852
_cell_angle_alpha   69.89334849
_cell_angle_beta   74.89047004
_cell_angle_gamma   74.89046711
_symmetry_Int_Tables_number   1
_chemical_formula_structural   NdEuErGa8Ag3
_chemical_formula_sum   'Nd1 Eu1 Er1 Ga8 Ag3'
_cell_volume   278.99880192
_cell_formula_units_Z   1
loop_
 _symmetry_equiv_pos_site_id
 _symmetry_equiv_pos_as_xyz
  1  'x, y, z'
loop_
 _atom_site_type_symbol
 _atom_site_label
 _atom_site_symmetry_multiplicity
 _atom_site_fract_x
 _atom_site_fract_y
 _atom_site_fract_z
 _atom_site_occupancy
  Nd  Nd0  1  0.501697  0.498303  0.498303  1
  Eu  Eu1  1  0.199791  0.800209  0.800209  1
  Er  Er2  1  0.800704  0.199296  0.199296  1
  Ga  Ga3  1  0.357048  0.358544  0.927361  1
  Ga  Ga4  1  0.643988  0.635790  0.076234  1
  Ga  Ga5  1  0.357048  0.927361  0.358544  1
  Ga  Ga6  1  0.643988  0.076234  0.635790  1
  Ga  Ga7  1  0.161049  0.469428  0.208475  1
  Ga  Ga8  1  0.839369  0.527135  0.794126  1
  Ga  Ga9  1  0.161049  0.208475  0.469428  1
  Ga  Ga10  1  0.839369  0.794126  0.527135  1
  Ag  Ag11  1  0.497453  0.002547  0.002547  1
  Ag  Ag12  1  0.998724  0.805668  0.196883  1
  Ag  Ag13  1  0.998724  0.196883  0.805668  1
