# generated using pymatgen
data_La8Tm11LuSi16
_symmetry_space_group_name_H-M   'P 1'
_cell_length_a   7.76940204
_cell_length_b   7.76940204
_cell_length_c   14.29347212
_cell_angle_alpha   90.01043984
_cell_angle_beta   89.98956016
_cell_angle_gamma   90.00442520
_symmetry_Int_Tables_number   1
_chemical_formula_structural   La8Tm11LuSi16
_chemical_formula_sum   'La8 Tm11 Lu1 Si16'
_cell_volume   862.80551712
_cell_formula_units_Z   1
loop_
 _symmetry_equiv_pos_site_id
 _symmetry_equiv_pos_as_xyz
  1  'x, y, z'
loop_
 _atom_site_type_symbol
 _atom_site_label
 _atom_site_symmetry_multiplicity
 _atom_site_fract_x
 _atom_site_fract_y
 _atom_site_fract_z
 _atom_site_occupancy
  La  La0  1  0.991409  0.643981  0.039622  1
  La  La1  1  0.008635  0.356002  0.539607  1
  La  La2  1  0.643981  0.991409  0.960378  1
  La  La3  1  0.143993  0.508508  0.789660  1
  La  La4  1  0.855999  0.491398  0.289608  1
  La  La5  1  0.508508  0.143993  0.210340  1
  La  La6  1  0.491398  0.855999  0.710392  1
  La  La7  1  0.356002  0.008635  0.460393  1
  Tm  Tm8  1  0.359631  0.493744  0.375019  1
  Tm  Tm9  1  0.859558  0.006231  0.374970  1
  Tm  Tm10  1  0.993849  0.140436  0.124975  1
  Tm  Tm11  1  0.006231  0.859558  0.625030  1
  Tm  Tm12  1  0.640349  0.506173  0.875077  1
  Tm  Tm13  1  0.493744  0.359631  0.624981  1
  Tm  Tm14  1  0.506173  0.640349  0.124923  1
  Tm  Tm15  1  0.140436  0.993849  0.875025  1
  Tm  Tm16  1  0.681807  0.681807  0.500000  1
  Tm  Tm17  1  0.818259  0.181824  0.750004  1
  Tm  Tm18  1  0.181824  0.818259  0.249996  1
  Lu  Lu19  1  0.318203  0.318203  0.000000  1
  Si  Si20  1  0.063449  0.712331  0.437050  1
  Si  Si21  1  0.936737  0.287710  0.937044  1
  Si  Si22  1  0.712331  0.063449  0.562950  1
  Si  Si23  1  0.212437  0.436422  0.186809  1
  Si  Si24  1  0.787652  0.563443  0.687066  1
  Si  Si25  1  0.436422  0.212437  0.813191  1
  Si  Si26  1  0.563443  0.787652  0.312934  1
  Si  Si27  1  0.287710  0.936737  0.062956  1
  Si  Si28  1  0.850120  0.796103  0.810506  1
  Si  Si29  1  0.149944  0.203833  0.310463  1
  Si  Si30  1  0.796103  0.850120  0.189494  1
  Si  Si31  1  0.296065  0.649886  0.560500  1
  Si  Si32  1  0.703772  0.350106  0.060482  1
  Si  Si33  1  0.649886  0.296065  0.439500  1
  Si  Si34  1  0.350106  0.703772  0.939518  1
  Si  Si35  1  0.203833  0.149944  0.689537  1
