# generated using pymatgen
data_TbCo2ReP3Rh2
_symmetry_space_group_name_H-M   'P 1'
_cell_length_a   3.82656000
_cell_length_b   10.62237900
_cell_length_c   12.16466200
_cell_angle_alpha   90.00000000
_cell_angle_beta   90.00000000
_cell_angle_gamma   90.00000000
_symmetry_Int_Tables_number   1
_chemical_formula_structural   TbCo2ReP3Rh2
_chemical_formula_sum   'Tb4 Co8 Re4 P12 Rh8'
_cell_volume   494.45909144
_cell_formula_units_Z   4
loop_
 _symmetry_equiv_pos_site_id
 _symmetry_equiv_pos_as_xyz
  1  'x, y, z'
loop_
 _atom_site_type_symbol
 _atom_site_label
 _atom_site_symmetry_multiplicity
 _atom_site_fract_x
 _atom_site_fract_y
 _atom_site_fract_z
 _atom_site_occupancy
  Tb  Tb0  1  0.250000  0.583271  0.708284  1
  Tb  Tb1  1  0.250000  0.916729  0.208284  1
  Tb  Tb2  1  0.750000  0.416729  0.291716  1
  Tb  Tb3  1  0.750000  0.083271  0.791716  1
  Co  Co4  1  0.250000  0.885495  0.697298  1
  Co  Co5  1  0.250000  0.614505  0.197298  1
  Co  Co6  1  0.750000  0.114505  0.302702  1
  Co  Co7  1  0.750000  0.385495  0.802702  1
  Co  Co8  1  0.250000  0.463578  0.934880  1
  Co  Co9  1  0.250000  0.036422  0.434880  1
  Co  Co10  1  0.750000  0.536422  0.065120  1
  Co  Co11  1  0.750000  0.963578  0.565120  1
  Re  Re12  1  0.250000  0.707600  0.988376  1
  Re  Re13  1  0.250000  0.792400  0.488376  1
  Re  Re14  1  0.750000  0.292400  0.011624  1
  Re  Re15  1  0.750000  0.207600  0.511624  1
  P  P16  1  0.250000  0.429417  0.111407  1
  P  P17  1  0.250000  0.070583  0.611407  1
  P  P18  1  0.750000  0.570583  0.888593  1
  P  P19  1  0.750000  0.929417  0.388593  1
  P  P20  1  0.250000  0.273866  0.871181  1
  P  P21  1  0.250000  0.226134  0.371181  1
  P  P22  1  0.750000  0.726134  0.128819  1
  P  P23  1  0.750000  0.773866  0.628819  1
  P  P24  1  0.250000  0.601606  0.384127  1
  P  P25  1  0.250000  0.898394  0.884127  1
  P  P26  1  0.750000  0.398394  0.615873  1
  P  P27  1  0.750000  0.101606  0.115873  1
  Rh  Rh28  1  0.250000  0.405625  0.483687  1
  Rh  Rh29  1  0.250000  0.094375  0.983687  1
  Rh  Rh30  1  0.750000  0.594375  0.516313  1
  Rh  Rh31  1  0.750000  0.905625  0.016313  1
  Rh  Rh32  1  0.250000  0.227131  0.180343  1
  Rh  Rh33  1  0.250000  0.272869  0.680343  1
  Rh  Rh34  1  0.750000  0.772869  0.819657  1
  Rh  Rh35  1  0.750000  0.727131  0.319657  1
