# generated using pymatgen
data_Yb20MgCd3Ag8
_symmetry_space_group_name_H-M   'P 1'
_cell_length_a   8.09774900
_cell_length_b   8.09774900
_cell_length_c   14.62671000
_cell_angle_alpha   90.00000000
_cell_angle_beta   90.00000000
_cell_angle_gamma   90.00000000
_symmetry_Int_Tables_number   1
_chemical_formula_structural   Yb20MgCd3Ag8
_chemical_formula_sum   'Yb20 Mg1 Cd3 Ag8'
_cell_volume   959.12513668
_cell_formula_units_Z   1
loop_
 _symmetry_equiv_pos_site_id
 _symmetry_equiv_pos_as_xyz
  1  'x, y, z'
loop_
 _atom_site_type_symbol
 _atom_site_label
 _atom_site_symmetry_multiplicity
 _atom_site_fract_x
 _atom_site_fract_y
 _atom_site_fract_z
 _atom_site_occupancy
  Yb  Yb0  1  0.000000  0.000000  0.750695  1
  Yb  Yb1  1  0.500000  0.500000  0.251334  1
  Yb  Yb2  1  0.000000  0.000000  0.249305  1
  Yb  Yb3  1  0.500000  0.500000  0.748666  1
  Yb  Yb4  1  0.161830  0.668404  0.109351  1
  Yb  Yb5  1  0.667183  0.164881  0.609096  1
  Yb  Yb6  1  0.838170  0.331596  0.109351  1
  Yb  Yb7  1  0.332817  0.835119  0.609096  1
  Yb  Yb8  1  0.331596  0.161830  0.109351  1
  Yb  Yb9  1  0.835119  0.667183  0.609096  1
  Yb  Yb10  1  0.668404  0.838170  0.109351  1
  Yb  Yb11  1  0.164881  0.332817  0.609096  1
  Yb  Yb12  1  0.331596  0.838170  0.890649  1
  Yb  Yb13  1  0.835119  0.332817  0.390904  1
  Yb  Yb14  1  0.668404  0.161830  0.890649  1
  Yb  Yb15  1  0.164881  0.667183  0.390904  1
  Yb  Yb16  1  0.161830  0.331596  0.890649  1
  Yb  Yb17  1  0.667183  0.835119  0.390904  1
  Yb  Yb18  1  0.838170  0.668404  0.890649  1
  Yb  Yb19  1  0.332817  0.164881  0.390904  1
  Mg  Mg20  1  0.500000  0.500000  0.000000  1
  Cd  Cd21  1  0.000000  0.000000  0.500000  1
  Cd  Cd22  1  0.000000  0.000000  0.000000  1
  Cd  Cd23  1  0.500000  0.500000  0.500000  1
  Ag  Ag24  1  0.627891  0.128957  0.250006  1
  Ag  Ag25  1  0.128957  0.627891  0.749994  1
  Ag  Ag26  1  0.871043  0.372109  0.749994  1
  Ag  Ag27  1  0.372109  0.871043  0.250006  1
  Ag  Ag28  1  0.372109  0.128957  0.749994  1
  Ag  Ag29  1  0.871043  0.627891  0.250006  1
  Ag  Ag30  1  0.128957  0.372109  0.250006  1
  Ag  Ag31  1  0.627891  0.871043  0.749994  1
