# generated using pymatgen
data_Tm12Os3Pb2
_symmetry_space_group_name_H-M   'P 1'
_cell_length_a   8.40954609
_cell_length_b   8.40954629
_cell_length_c   8.40954636
_cell_angle_alpha   109.67365246
_cell_angle_beta   109.67365819
_cell_angle_gamma   109.06710735
_symmetry_Int_Tables_number   1
_chemical_formula_structural   Tm12Os3Pb2
_chemical_formula_sum   'Tm12 Os3 Pb2'
_cell_volume   457.80401670
_cell_formula_units_Z   1
loop_
 _symmetry_equiv_pos_site_id
 _symmetry_equiv_pos_as_xyz
  1  'x, y, z'
loop_
 _atom_site_type_symbol
 _atom_site_label
 _atom_site_symmetry_multiplicity
 _atom_site_fract_x
 _atom_site_fract_y
 _atom_site_fract_z
 _atom_site_occupancy
  Tm  Tm0  1  0.183679  0.423115  0.239435  1
  Tm  Tm1  1  0.816321  0.576885  0.760565  1
  Tm  Tm2  1  0.183679  0.944246  0.760565  1
  Tm  Tm3  1  0.944246  0.183679  0.760565  1
  Tm  Tm4  1  0.816321  0.055754  0.239435  1
  Tm  Tm5  1  0.055754  0.816321  0.239435  1
  Tm  Tm6  1  0.423115  0.183679  0.239435  1
  Tm  Tm7  1  0.576885  0.816321  0.760565  1
  Tm  Tm8  1  0.321185  0.321185  0.642369  1
  Tm  Tm9  1  0.678815  0.678815  0.357631  1
  Tm  Tm10  1  0.678815  0.321185  0.000000  1
  Tm  Tm11  1  0.321185  0.678815  0.000000  1
  Os  Os12  1  0.343393  0.343393  0.000000  1
  Os  Os13  1  0.656607  0.656607  0.000000  1
  Os  Os14  1  0.000000  0.000000  0.000000  1
  Pb  Pb15  1  0.000000  0.500000  0.500000  1
  Pb  Pb16  1  0.500000  0.000000  0.500000  1
