# generated using pymatgen
data_Er16Cd4Ir3Ru
_symmetry_space_group_name_H-M   'P 1'
_cell_length_a   9.57147429
_cell_length_b   9.57147367
_cell_length_c   9.57147427
_cell_angle_alpha   59.64388019
_cell_angle_beta   59.64388403
_cell_angle_gamma   59.64387779
_symmetry_Int_Tables_number   1
_chemical_formula_structural   Er16Cd4Ir3Ru
_chemical_formula_sum   'Er16 Cd4 Ir3 Ru1'
_cell_volume   615.02515040
_cell_formula_units_Z   1
loop_
 _symmetry_equiv_pos_site_id
 _symmetry_equiv_pos_as_xyz
  1  'x, y, z'
loop_
 _atom_site_type_symbol
 _atom_site_label
 _atom_site_symmetry_multiplicity
 _atom_site_fract_x
 _atom_site_fract_y
 _atom_site_fract_z
 _atom_site_occupancy
  Er  Er0  1  0.599185  0.599185  0.599185  1
  Er  Er1  1  0.598587  0.598587  0.205860  1
  Er  Er2  1  0.598587  0.205860  0.598587  1
  Er  Er3  1  0.205860  0.598587  0.598587  1
  Er  Er4  1  0.061498  0.438982  0.438982  1
  Er  Er5  1  0.438043  0.059642  0.059642  1
  Er  Er6  1  0.438982  0.061498  0.438982  1
  Er  Er7  1  0.059642  0.438043  0.059642  1
  Er  Er8  1  0.438982  0.438982  0.061498  1
  Er  Er9  1  0.059642  0.059642  0.438043  1
  Er  Er10  1  0.189359  0.811466  0.811466  1
  Er  Er11  1  0.809592  0.188121  0.188121  1
  Er  Er12  1  0.811466  0.189359  0.811466  1
  Er  Er13  1  0.188121  0.809592  0.188121  1
  Er  Er14  1  0.811466  0.811466  0.189359  1
  Er  Er15  1  0.188121  0.188121  0.809592  1
  Cd  Cd16  1  0.830241  0.830241  0.830241  1
  Cd  Cd17  1  0.831188  0.831188  0.505935  1
  Cd  Cd18  1  0.831188  0.505935  0.831188  1
  Cd  Cd19  1  0.505935  0.831188  0.831188  1
  Ir  Ir20  1  0.393423  0.393423  0.826352  1
  Ir  Ir21  1  0.393423  0.826352  0.393423  1
  Ir  Ir22  1  0.826352  0.393423  0.393423  1
  Ru  Ru23  1  0.391115  0.391115  0.391115  1
