# generated using pymatgen
data_Tb5Y3Cd2IrRu
_symmetry_space_group_name_H-M   'P 1'
_cell_length_a   9.68098347
_cell_length_b   9.68098329
_cell_length_c   9.71726800
_cell_angle_alpha   59.87593821
_cell_angle_beta   59.87593883
_cell_angle_gamma   59.75914939
_symmetry_Int_Tables_number   1
_chemical_formula_structural   Tb5Y3Cd2IrRu
_chemical_formula_sum   'Tb10 Y6 Cd4 Ir2 Ru2'
_cell_volume   641.58973667
_cell_formula_units_Z   2
loop_
 _symmetry_equiv_pos_site_id
 _symmetry_equiv_pos_as_xyz
  1  'x, y, z'
loop_
 _atom_site_type_symbol
 _atom_site_label
 _atom_site_symmetry_multiplicity
 _atom_site_fract_x
 _atom_site_fract_y
 _atom_site_fract_z
 _atom_site_occupancy
  Tb  Tb0  1  0.347486  0.347486  0.347377  1
  Tb  Tb1  1  0.347486  0.347486  0.957651  1
  Tb  Tb2  1  0.346489  0.959235  0.347138  1
  Tb  Tb3  1  0.959235  0.346489  0.347138  1
  Tb  Tb4  1  0.811297  0.188663  0.190212  1
  Tb  Tb5  1  0.188663  0.811297  0.809828  1
  Tb  Tb6  1  0.188663  0.811297  0.190212  1
  Tb  Tb7  1  0.811297  0.188663  0.809828  1
  Tb  Tb8  1  0.188538  0.188538  0.811462  1
  Tb  Tb9  1  0.809324  0.809324  0.190676  1
  Y  Y10  1  0.938650  0.560507  0.562361  1
  Y  Y11  1  0.560507  0.938650  0.938481  1
  Y  Y12  1  0.560507  0.938650  0.562361  1
  Y  Y13  1  0.938650  0.560507  0.938481  1
  Y  Y14  1  0.561771  0.561771  0.938229  1
  Y  Y15  1  0.938956  0.938956  0.561044  1
  Cd  Cd16  1  0.580410  0.580410  0.580732  1
  Cd  Cd17  1  0.580410  0.580410  0.258449  1
  Cd  Cd18  1  0.580485  0.257661  0.580927  1
  Cd  Cd19  1  0.257661  0.580485  0.580927  1
  Ir  Ir20  1  0.143237  0.577972  0.139395  1
  Ir  Ir21  1  0.577972  0.143237  0.139395  1
  Ru  Ru22  1  0.141153  0.141153  0.137248  1
  Ru  Ru23  1  0.141153  0.141153  0.580446  1
