# generated using pymatgen
data_Ho8AlSi5Ir8
_symmetry_space_group_name_H-M   'P 1'
_cell_length_a   10.64268200
_cell_length_b   10.64268288
_cell_length_c   7.72653500
_cell_angle_alpha   71.49727978
_cell_angle_beta   71.49728388
_cell_angle_gamma   30.53088297
_symmetry_Int_Tables_number   1
_chemical_formula_structural   Ho8AlSi5Ir8
_chemical_formula_sum   'Ho8 Al1 Si5 Ir8'
_cell_volume   419.83994021
_cell_formula_units_Z   1
loop_
 _symmetry_equiv_pos_site_id
 _symmetry_equiv_pos_as_xyz
  1  'x, y, z'
loop_
 _atom_site_type_symbol
 _atom_site_label
 _atom_site_symmetry_multiplicity
 _atom_site_fract_x
 _atom_site_fract_y
 _atom_site_fract_z
 _atom_site_occupancy
  Ho  Ho0  1  0.212176  0.444996  0.401342  1
  Ho  Ho1  1  0.555004  0.787824  0.098658  1
  Ho  Ho2  1  0.445237  0.212987  0.900880  1
  Ho  Ho3  1  0.925545  0.212830  0.330956  1
  Ho  Ho4  1  0.787170  0.074455  0.169044  1
  Ho  Ho5  1  0.075451  0.786033  0.667892  1
  Ho  Ho6  1  0.213967  0.924549  0.832108  1
  Ho  Ho7  1  0.787013  0.554763  0.599120  1
  Al  Al8  1  0.615763  0.384237  0.750000  1
  Si  Si9  1  0.394913  0.605087  0.250000  1
  Si  Si10  1  0.299751  0.045331  0.441048  1
  Si  Si11  1  0.954669  0.700249  0.058952  1
  Si  Si12  1  0.699779  0.953795  0.559033  1
  Si  Si13  1  0.046205  0.300221  0.940967  1
  Ir  Ir14  1  0.280743  0.593678  0.031699  1
  Ir  Ir15  1  0.587642  0.284780  0.520224  1
  Ir  Ir16  1  0.715220  0.412358  0.979776  1
  Ir  Ir17  1  0.070312  0.368499  0.192054  1
  Ir  Ir18  1  0.631501  0.929688  0.307946  1
  Ir  Ir19  1  0.406322  0.719257  0.468301  1
  Ir  Ir20  1  0.928842  0.633224  0.808819  1
  Ir  Ir21  1  0.366776  0.071158  0.691181  1
