# generated using pymatgen
data_Zr10Si2Sn3BiPb2
_symmetry_space_group_name_H-M   'P 1'
_cell_length_a   8.76790197
_cell_length_b   8.75679687
_cell_length_c   5.93247700
_cell_angle_alpha   90.00000000
_cell_angle_beta   90.00000000
_cell_angle_gamma   119.85489935
_symmetry_Int_Tables_number   1
_chemical_formula_structural   Zr10Si2Sn3BiPb2
_chemical_formula_sum   'Zr10 Si2 Sn3 Bi1 Pb2'
_cell_volume   395.03974812
_cell_formula_units_Z   1
loop_
 _symmetry_equiv_pos_site_id
 _symmetry_equiv_pos_as_xyz
  1  'x, y, z'
loop_
 _atom_site_type_symbol
 _atom_site_label
 _atom_site_symmetry_multiplicity
 _atom_site_fract_x
 _atom_site_fract_y
 _atom_site_fract_z
 _atom_site_occupancy
  Zr  Zr0  1  0.669844  0.333272  0.001875  1
  Zr  Zr1  1  0.328395  0.666658  0.001722  1
  Zr  Zr2  1  0.328395  0.666658  0.498278  1
  Zr  Zr3  1  0.669844  0.333272  0.498125  1
  Zr  Zr4  1  0.749428  0.745022  0.750000  1
  Zr  Zr5  1  0.251648  0.994476  0.750000  1
  Zr  Zr6  1  0.998784  0.257139  0.750000  1
  Zr  Zr7  1  0.253819  0.254420  0.250000  1
  Zr  Zr8  1  0.745280  0.004437  0.250000  1
  Zr  Zr9  1  0.003890  0.743222  0.250000  1
  Si  Si10  1  0.999348  0.999812  0.001287  1
  Si  Si11  1  0.999348  0.999812  0.498713  1
  Sn  Sn12  1  0.998623  0.602888  0.750000  1
  Sn  Sn13  1  0.395078  0.001185  0.250000  1
  Sn  Sn14  1  0.999980  0.395143  0.250000  1
  Bi  Bi15  1  0.395790  0.395474  0.750000  1
  Pb  Pb16  1  0.604583  0.998113  0.750000  1
  Pb  Pb17  1  0.607921  0.608996  0.250000  1
