# generated using pymatgen
data_CeHo11(Si3Ir)4
_symmetry_space_group_name_H-M   'P 1'
_cell_length_a   4.24526100
_cell_length_b   10.58874522
_cell_length_c   12.30236286
_cell_angle_alpha   90.12459778
_cell_angle_beta   90.00000000
_cell_angle_gamma   90.00000000
_symmetry_Int_Tables_number   1
_chemical_formula_structural   CeHo11(Si3Ir)4
_chemical_formula_sum   'Ce1 Ho11 Si12 Ir4'
_cell_volume   553.01434936
_cell_formula_units_Z   1
loop_
 _symmetry_equiv_pos_site_id
 _symmetry_equiv_pos_as_xyz
  1  'x, y, z'
loop_
 _atom_site_type_symbol
 _atom_site_label
 _atom_site_symmetry_multiplicity
 _atom_site_fract_x
 _atom_site_fract_y
 _atom_site_fract_z
 _atom_site_occupancy
  Ce  Ce0  1  0.750000  0.159392  0.697420  1
  Ho  Ho1  1  0.250000  0.879981  0.022014  1
  Ho  Ho2  1  0.250000  0.619904  0.522166  1
  Ho  Ho3  1  0.750000  0.119848  0.979934  1
  Ho  Ho4  1  0.750000  0.381883  0.477590  1
  Ho  Ho5  1  0.250000  0.918753  0.602853  1
  Ho  Ho6  1  0.250000  0.581128  0.103250  1
  Ho  Ho7  1  0.750000  0.082072  0.395528  1
  Ho  Ho8  1  0.750000  0.419347  0.897863  1
  Ho  Ho9  1  0.250000  0.660591  0.801488  1
  Ho  Ho10  1  0.250000  0.839197  0.301177  1
  Ho  Ho11  1  0.750000  0.342921  0.198984  1
  Si  Si12  1  0.250000  0.007565  0.820268  1
  Si  Si13  1  0.250000  0.491054  0.321166  1
  Si  Si14  1  0.750000  0.989778  0.178343  1
  Si  Si15  1  0.750000  0.508703  0.679713  1
  Si  Si16  1  0.250000  0.245817  0.843112  1
  Si  Si17  1  0.250000  0.254364  0.338259  1
  Si  Si18  1  0.750000  0.753421  0.159347  1
  Si  Si19  1  0.750000  0.747052  0.659491  1
  Si  Si20  1  0.250000  0.202652  0.538890  1
  Si  Si21  1  0.250000  0.299157  0.045271  1
  Si  Si22  1  0.750000  0.799458  0.456064  1
  Si  Si23  1  0.750000  0.699645  0.957293  1
  Ir  Ir24  1  0.250000  0.387772  0.681810  1
  Ir  Ir25  1  0.250000  0.110484  0.179856  1
  Ir  Ir26  1  0.750000  0.610296  0.319001  1
  Ir  Ir27  1  0.750000  0.887762  0.821851  1
