# generated using pymatgen
data_Y10Co3Ru
_symmetry_space_group_name_H-M   'P 1'
_cell_length_a   6.37256966
_cell_length_b   7.06357419
_cell_length_c   8.59934421
_cell_angle_alpha   96.29780485
_cell_angle_beta   111.93811160
_cell_angle_gamma   89.93195087
_symmetry_Int_Tables_number   1
_chemical_formula_structural   Y10Co3Ru
_chemical_formula_sum   'Y10 Co3 Ru1'
_cell_volume   356.55437694
_cell_formula_units_Z   1
loop_
 _symmetry_equiv_pos_site_id
 _symmetry_equiv_pos_as_xyz
  1  'x, y, z'
loop_
 _atom_site_type_symbol
 _atom_site_label
 _atom_site_symmetry_multiplicity
 _atom_site_fract_x
 _atom_site_fract_y
 _atom_site_fract_z
 _atom_site_occupancy
  Y  Y0  1  0.978289  0.909783  0.189524  1
  Y  Y1  1  0.798863  0.589919  0.811206  1
  Y  Y2  1  0.015490  0.090410  0.814850  1
  Y  Y3  1  0.199728  0.417004  0.188881  1
  Y  Y4  1  0.650830  0.813221  0.434343  1
  Y  Y5  1  0.217445  0.682198  0.570009  1
  Y  Y6  1  0.353231  0.182401  0.566779  1
  Y  Y7  1  0.786480  0.319175  0.432373  1
  Y  Y8  1  0.427929  0.745850  0.997843  1
  Y  Y9  1  0.572188  0.252972  0.998086  1
  Co  Co10  1  0.825527  0.573936  0.223750  1
  Co  Co11  1  0.604683  0.926176  0.778842  1
  Co  Co12  1  0.173861  0.426274  0.775151  1
  Ru  Ru13  1  0.395455  0.070683  0.218362  1
