# generated using pymatgen
data_Rb4HgSb3Pt4
_symmetry_space_group_name_H-M   'P 1'
_cell_length_a   7.31750715
_cell_length_b   7.31750703
_cell_length_c   7.31750700
_cell_angle_alpha   90.75132958
_cell_angle_beta   89.24866260
_cell_angle_gamma   90.75133023
_symmetry_Int_Tables_number   1
_chemical_formula_structural   Rb4HgSb3Pt4
_chemical_formula_sum   'Rb4 Hg1 Sb3 Pt4'
_cell_volume   391.72238302
_cell_formula_units_Z   1
loop_
 _symmetry_equiv_pos_site_id
 _symmetry_equiv_pos_as_xyz
  1  'x, y, z'
loop_
 _atom_site_type_symbol
 _atom_site_label
 _atom_site_symmetry_multiplicity
 _atom_site_fract_x
 _atom_site_fract_y
 _atom_site_fract_z
 _atom_site_occupancy
  Rb  Rb0  1  0.644123  0.362102  0.860524  1
  Rb  Rb1  1  0.360524  0.855877  0.637898  1
  Rb  Rb2  1  0.137898  0.139476  0.144123  1
  Rb  Rb3  1  0.859675  0.640325  0.359675  1
  Hg  Hg4  1  0.148739  0.351261  0.648739  1
  Sb  Sb5  1  0.654680  0.150858  0.345918  1
  Sb  Sb6  1  0.349142  0.654082  0.154680  1
  Sb  Sb7  1  0.845918  0.845320  0.849142  1
  Pt  Pt8  1  0.599258  0.900742  0.099258  1
  Pt  Pt9  1  0.096134  0.614733  0.918643  1
  Pt  Pt10  1  0.418643  0.403866  0.385267  1
  Pt  Pt11  1  0.885267  0.081357  0.596134  1
