# generated using pymatgen
data_Er3Tm17(Cd3Co)2
_symmetry_space_group_name_H-M   'P 1'
_cell_length_a   9.46197500
_cell_length_b   9.46197499
_cell_length_c   9.59956400
_cell_angle_alpha   90.00000000
_cell_angle_beta   90.00000000
_cell_angle_gamma   119.99999653
_symmetry_Int_Tables_number   1
_chemical_formula_structural   Er3Tm17(Cd3Co)2
_chemical_formula_sum   'Er3 Tm17 Cd6 Co2'
_cell_volume   744.29610693
_cell_formula_units_Z   1
loop_
 _symmetry_equiv_pos_site_id
 _symmetry_equiv_pos_as_xyz
  1  'x, y, z'
loop_
 _atom_site_type_symbol
 _atom_site_label
 _atom_site_symmetry_multiplicity
 _atom_site_fract_x
 _atom_site_fract_y
 _atom_site_fract_z
 _atom_site_occupancy
  Er  Er0  1  0.458075  0.541925  0.750000  1
  Er  Er1  1  0.458075  0.916150  0.750000  1
  Er  Er2  1  0.083850  0.541925  0.750000  1
  Tm  Tm3  1  0.000000  0.000000  0.499685  1
  Tm  Tm4  1  0.000000  0.000000  0.000315  1
  Tm  Tm5  1  0.542473  0.457527  0.250000  1
  Tm  Tm6  1  0.542473  0.084947  0.250000  1
  Tm  Tm7  1  0.915053  0.457527  0.250000  1
  Tm  Tm8  1  0.211757  0.788243  0.436026  1
  Tm  Tm9  1  0.211757  0.423515  0.436026  1
  Tm  Tm10  1  0.576485  0.788243  0.436026  1
  Tm  Tm11  1  0.787929  0.212071  0.562533  1
  Tm  Tm12  1  0.787929  0.575857  0.562533  1
  Tm  Tm13  1  0.424143  0.212071  0.562533  1
  Tm  Tm14  1  0.787929  0.212071  0.937467  1
  Tm  Tm15  1  0.787929  0.575857  0.937467  1
  Tm  Tm16  1  0.424143  0.212071  0.937467  1
  Tm  Tm17  1  0.211757  0.788243  0.063974  1
  Tm  Tm18  1  0.211757  0.423515  0.063974  1
  Tm  Tm19  1  0.576485  0.788243  0.063974  1
  Cd  Cd20  1  0.884846  0.115154  0.250000  1
  Cd  Cd21  1  0.884846  0.769691  0.250000  1
  Cd  Cd22  1  0.230309  0.115154  0.250000  1
  Cd  Cd23  1  0.114358  0.885642  0.750000  1
  Cd  Cd24  1  0.114358  0.228716  0.750000  1
  Cd  Cd25  1  0.771284  0.885642  0.750000  1
  Co  Co26  1  0.333333  0.666667  0.250000  1
  Co  Co27  1  0.666667  0.333333  0.750000  1
