# generated using pymatgen
data_Ta12Al8CuRh3C4
_symmetry_space_group_name_H-M   'P 1'
_cell_length_a   8.30323249
_cell_length_b   8.30330724
_cell_length_c   8.30385765
_cell_angle_alpha   60.10459286
_cell_angle_beta   60.11039056
_cell_angle_gamma   60.10775410
_symmetry_Int_Tables_number   1
_chemical_formula_structural   Ta12Al8CuRh3C4
_chemical_formula_sum   'Ta12 Al8 Cu1 Rh3 C4'
_cell_volume   405.80788028
_cell_formula_units_Z   1
loop_
 _symmetry_equiv_pos_site_id
 _symmetry_equiv_pos_as_xyz
  1  'x, y, z'
loop_
 _atom_site_type_symbol
 _atom_site_label
 _atom_site_symmetry_multiplicity
 _atom_site_fract_x
 _atom_site_fract_y
 _atom_site_fract_z
 _atom_site_occupancy
  Ta  Ta0  1  0.565173  0.934129  0.565188  1
  Ta  Ta1  1  0.315895  0.684864  0.684828  1
  Ta  Ta2  1  0.680461  0.316785  0.316756  1
  Ta  Ta3  1  0.316733  0.680512  0.316756  1
  Ta  Ta4  1  0.684801  0.684865  0.315918  1
  Ta  Ta5  1  0.316732  0.316783  0.680485  1
  Ta  Ta6  1  0.565178  0.565219  0.934097  1
  Ta  Ta7  1  0.934071  0.565226  0.565197  1
  Ta  Ta8  1  0.569516  0.933301  0.933263  1
  Ta  Ta9  1  0.933241  0.933305  0.569535  1
  Ta  Ta10  1  0.684802  0.315950  0.684831  1
  Ta  Ta11  1  0.933243  0.569563  0.933270  1
  Al  Al12  1  0.917754  0.917810  0.917768  1
  Al  Al13  1  0.999539  0.332729  0.332688  1
  Al  Al14  1  0.332740  0.999566  0.332778  1
  Al  Al15  1  0.332689  0.332758  0.999553  1
  Al  Al16  1  0.917232  0.250535  0.917256  1
  Al  Al17  1  0.917171  0.917240  0.250525  1
  Al  Al18  1  0.250512  0.917213  0.917164  1
  Al  Al19  1  0.332223  0.332277  0.332240  1
  Cu  Cu20  1  0.125424  0.123958  0.124870  1
  Rh  Rh21  1  0.624973  0.125084  0.124986  1
  Rh  Rh22  1  0.124995  0.624986  0.125045  1
  Rh  Rh23  1  0.124974  0.125151  0.624964  1
  C  C24  1  0.624984  0.625047  0.625011  1
  C  C25  1  0.124989  0.625047  0.624999  1
  C  C26  1  0.624981  0.125047  0.625014  1
  C  C27  1  0.624974  0.625051  0.125014  1
