# generated using pymatgen
data_Hf2SiAsRh2
_symmetry_space_group_name_H-M   'P 1'
_cell_length_a   3.93209000
_cell_length_b   6.55458922
_cell_length_c   7.59079878
_cell_angle_alpha   89.10913690
_cell_angle_beta   90.00000000
_cell_angle_gamma   90.00000000
_symmetry_Int_Tables_number   1
_chemical_formula_structural   Hf2SiAsRh2
_chemical_formula_sum   'Hf4 Si2 As2 Rh4'
_cell_volume   195.61579060
_cell_formula_units_Z   2
loop_
 _symmetry_equiv_pos_site_id
 _symmetry_equiv_pos_as_xyz
  1  'x, y, z'
loop_
 _atom_site_type_symbol
 _atom_site_label
 _atom_site_symmetry_multiplicity
 _atom_site_fract_x
 _atom_site_fract_y
 _atom_site_fract_z
 _atom_site_occupancy
  Hf  Hf0  1  0.250000  0.529073  0.186217  1
  Hf  Hf1  1  0.750000  0.470927  0.813783  1
  Hf  Hf2  1  0.250000  0.023770  0.319178  1
  Hf  Hf3  1  0.750000  0.976230  0.680822  1
  Si  Si4  1  0.250000  0.268726  0.615308  1
  Si  Si5  1  0.750000  0.731274  0.384692  1
  As  As6  1  0.250000  0.760005  0.874121  1
  As  As7  1  0.750000  0.239995  0.125879  1
  Rh  Rh8  1  0.750000  0.846624  0.075570  1
  Rh  Rh9  1  0.250000  0.153376  0.924430  1
  Rh  Rh10  1  0.750000  0.352790  0.445765  1
  Rh  Rh11  1  0.250000  0.647210  0.554235  1
