# generated using pymatgen
data_Gd4Sc4Re(TcB8)3
_symmetry_space_group_name_H-M   'P 1'
_cell_length_a   3.59906000
_cell_length_b   9.02414771
_cell_length_c   11.41521438
_cell_angle_alpha   90.02049560
_cell_angle_beta   90.00000000
_cell_angle_gamma   90.00000000
_symmetry_Int_Tables_number   1
_chemical_formula_structural   Gd4Sc4Re(TcB8)3
_chemical_formula_sum   'Gd4 Sc4 Re1 Tc3 B24'
_cell_volume   370.74843504
_cell_formula_units_Z   1
loop_
 _symmetry_equiv_pos_site_id
 _symmetry_equiv_pos_as_xyz
  1  'x, y, z'
loop_
 _atom_site_type_symbol
 _atom_site_label
 _atom_site_symmetry_multiplicity
 _atom_site_fract_x
 _atom_site_fract_y
 _atom_site_fract_z
 _atom_site_occupancy
  Gd  Gd0  1  0.000000  0.322282  0.414494  1
  Gd  Gd1  1  0.000000  0.677652  0.585100  1
  Gd  Gd2  1  0.000000  0.822272  0.085669  1
  Gd  Gd3  1  0.000000  0.178259  0.914798  1
  Sc  Sc4  1  0.000000  0.943756  0.369352  1
  Sc  Sc5  1  0.000000  0.056513  0.630017  1
  Sc  Sc6  1  0.000000  0.443823  0.130672  1
  Sc  Sc7  1  0.000000  0.555560  0.869749  1
  Re  Re8  1  0.000000  0.858487  0.817660  1
  Tc  Tc9  1  0.000000  0.641692  0.317493  1
  Tc  Tc10  1  0.000000  0.358302  0.682437  1
  Tc  Tc11  1  0.000000  0.141699  0.182449  1
  B  B12  1  0.500000  0.554911  0.431712  1
  B  B13  1  0.500000  0.445097  0.568227  1
  B  B14  1  0.500000  0.054983  0.068387  1
  B  B15  1  0.500000  0.945328  0.932059  1
  B  B16  1  0.500000  0.754256  0.417354  1
  B  B17  1  0.500000  0.245831  0.582536  1
  B  B18  1  0.500000  0.254252  0.082701  1
  B  B19  1  0.500000  0.745422  0.917691  1
  B  B20  1  0.500000  0.795072  0.264666  1
  B  B21  1  0.500000  0.205055  0.735221  1
  B  B22  1  0.500000  0.295051  0.235425  1
  B  B23  1  0.500000  0.704530  0.764557  1
  B  B24  1  0.500000  0.628946  0.182866  1
  B  B25  1  0.500000  0.370944  0.817134  1
  B  B26  1  0.500000  0.129045  0.317211  1
  B  B27  1  0.500000  0.871020  0.682550  1
  B  B28  1  0.500000  0.982051  0.213919  1
  B  B29  1  0.500000  0.018437  0.785997  1
  B  B30  1  0.500000  0.482014  0.286136  1
  B  B31  1  0.500000  0.517781  0.713876  1
  B  B32  1  0.500000  0.594793  0.025837  1
  B  B33  1  0.500000  0.404815  0.974422  1
  B  B34  1  0.500000  0.095057  0.474120  1
  B  B35  1  0.500000  0.905013  0.525505  1
