# generated using pymatgen
data_MnAl11Cr2Tc
_symmetry_space_group_name_H-M   'P 1'
_cell_length_a   5.09742319
_cell_length_b   5.14879764
_cell_length_c   8.95932935
_cell_angle_alpha   105.68948119
_cell_angle_beta   90.04458170
_cell_angle_gamma   100.55046846
_symmetry_Int_Tables_number   1
_chemical_formula_structural   MnAl11Cr2Tc
_chemical_formula_sum   'Mn1 Al11 Cr2 Tc1'
_cell_volume   222.24024407
_cell_formula_units_Z   1
loop_
 _symmetry_equiv_pos_site_id
 _symmetry_equiv_pos_as_xyz
  1  'x, y, z'
loop_
 _atom_site_type_symbol
 _atom_site_label
 _atom_site_symmetry_multiplicity
 _atom_site_fract_x
 _atom_site_fract_y
 _atom_site_fract_z
 _atom_site_occupancy
  Mn  Mn0  1  0.337008  0.390814  0.134734  1
  Al  Al1  1  0.004257  0.004812  0.004866  1
  Al  Al2  1  0.945402  0.822900  0.677436  1
  Al  Al3  1  0.059363  0.184182  0.321995  1
  Al  Al4  1  0.811617  0.269874  0.630627  1
  Al  Al5  1  0.843127  0.529037  0.128379  1
  Al  Al6  1  0.147253  0.461636  0.877179  1
  Al  Al7  1  0.490836  0.895592  0.127840  1
  Al  Al8  1  0.502374  0.098762  0.877423  1
  Al  Al9  1  0.576679  0.332620  0.372165  1
  Al  Al10  1  0.424032  0.671415  0.621690  1
  Al  Al11  1  0.195151  0.730250  0.362383  1
  Cr  Cr12  1  0.292153  0.144884  0.595334  1
  Cr  Cr13  1  0.712194  0.857133  0.401166  1
  Tc  Tc14  1  0.658554  0.606088  0.866784  1
