# generated using pymatgen
data_NaYb(PO3)3
_symmetry_space_group_name_H-M   'P 1'
_cell_length_a   6.66273618
_cell_length_b   10.18833700
_cell_length_c   6.66278500
_cell_angle_alpha   89.99952360
_cell_angle_beta   60.00012406
_cell_angle_gamma   89.99992993
_symmetry_Int_Tables_number   1
_chemical_formula_structural   NaYb(PO3)3
_chemical_formula_sum   'Na2 Yb2 P6 O18'
_cell_volume   391.69036851
_cell_formula_units_Z   2
loop_
 _symmetry_equiv_pos_site_id
 _symmetry_equiv_pos_as_xyz
  1  'x, y, z'
loop_
 _atom_site_type_symbol
 _atom_site_label
 _atom_site_symmetry_multiplicity
 _atom_site_fract_x
 _atom_site_fract_y
 _atom_site_fract_z
 _atom_site_occupancy
  Na  Na0  1  0.666721  0.499999  0.666704  1
  Na  Na1  1  0.666575  0.000001  0.666705  1
  Yb  Yb2  1  0.333338  0.500003  0.333333  1
  Yb  Yb3  1  0.333327  0.999999  0.333336  1
  P  P4  1  0.733002  0.750005  0.016348  1
  P  P5  1  0.733012  0.249993  0.250634  1
  P  P6  1  0.250644  0.249999  0.016355  1
  P  P7  1  0.016348  0.749998  0.250634  1
  P  P8  1  0.250632  0.750005  0.733009  1
  P  P9  1  0.016366  0.250001  0.733005  1
  O  O10  1  0.985476  0.249995  0.225383  1
  O  O11  1  0.789140  0.750025  0.225380  1
  O  O12  1  0.985464  0.750026  0.789140  1
  O  O13  1  0.789158  0.249963  0.985463  1
  O  O14  1  0.225398  0.249995  0.789146  1
  O  O15  1  0.225377  0.749988  0.985465  1
  O  O16  1  0.614005  0.876727  0.024090  1
  O  O17  1  0.614003  0.623238  0.024069  1
  O  O18  1  0.613991  0.376754  0.361912  1
  O  O19  1  0.614037  0.123262  0.361883  1
  O  O20  1  0.361875  0.123266  0.024093  1
  O  O21  1  0.361950  0.376756  0.024081  1
  O  O22  1  0.024109  0.876724  0.361863  1
  O  O23  1  0.024055  0.623232  0.361939  1
  O  O24  1  0.361933  0.623251  0.613963  1
  O  O25  1  0.361869  0.876743  0.614052  1
  O  O26  1  0.024072  0.376773  0.614015  1
  O  O27  1  0.024126  0.123283  0.613995  1
