# generated using pymatgen
data_Ac3NdSe8
_symmetry_space_group_name_H-M   'P 1'
_cell_length_a   4.35858674
_cell_length_b   8.69889656
_cell_length_c   8.84552909
_cell_angle_alpha   89.85781489
_cell_angle_beta   90.28472325
_cell_angle_gamma   89.78790495
_symmetry_Int_Tables_number   1
_chemical_formula_structural   Ac3NdSe8
_chemical_formula_sum   'Ac3 Nd1 Se8'
_cell_volume   335.36982181
_cell_formula_units_Z   1
loop_
 _symmetry_equiv_pos_site_id
 _symmetry_equiv_pos_as_xyz
  1  'x, y, z'
loop_
 _atom_site_type_symbol
 _atom_site_label
 _atom_site_symmetry_multiplicity
 _atom_site_fract_x
 _atom_site_fract_y
 _atom_site_fract_z
 _atom_site_occupancy
  Ac  Ac0  1  0.275178  0.628582  0.722816  1
  Ac  Ac1  1  0.718489  0.372746  0.276009  1
  Ac  Ac2  1  0.225489  0.125331  0.723264  1
  Nd  Nd3  1  0.780116  0.873181  0.275606  1
  Se  Se4  1  0.174218  0.385632  0.002523  1
  Se  Se5  1  0.755127  0.875208  0.626878  1
  Se  Se6  1  0.240260  0.116259  0.362557  1
  Se  Se7  1  0.255395  0.635211  0.362427  1
  Se  Se8  1  0.678604  0.111261  0.003000  1
  Se  Se9  1  0.742637  0.374544  0.633664  1
  Se  Se10  1  0.824084  0.619751  0.001214  1
  Se  Se11  1  0.330404  0.882293  0.010041  1
