# generated using pymatgen
data_DyHo7Sc12Si15Os
_symmetry_space_group_name_H-M   'P 1'
_cell_length_a   7.08129805
_cell_length_b   7.43643863
_cell_length_c   13.95442712
_cell_angle_alpha   90.01462665
_cell_angle_beta   90.00319196
_cell_angle_gamma   90.20708028
_symmetry_Int_Tables_number   1
_chemical_formula_structural   DyHo7Sc12Si15Os
_chemical_formula_sum   'Dy1 Ho7 Sc12 Si15 Os1'
_cell_volume   734.83026054
_cell_formula_units_Z   1
loop_
 _symmetry_equiv_pos_site_id
 _symmetry_equiv_pos_as_xyz
  1  'x, y, z'
loop_
 _atom_site_type_symbol
 _atom_site_label
 _atom_site_symmetry_multiplicity
 _atom_site_fract_x
 _atom_site_fract_y
 _atom_site_fract_z
 _atom_site_occupancy
  Dy  Dy0  1  0.011249  0.178851  0.096022  1
  Ho  Ho1  1  0.990945  0.827797  0.903690  1
  Ho  Ho2  1  0.488517  0.676859  0.904260  1
  Ho  Ho3  1  0.990937  0.827805  0.596261  1
  Ho  Ho4  1  0.510864  0.322890  0.096214  1
  Ho  Ho5  1  0.011336  0.178967  0.403770  1
  Ho  Ho6  1  0.510888  0.322868  0.403784  1
  Ho  Ho7  1  0.488530  0.676839  0.595752  1
  Sc  Sc8  1  0.155992  0.497292  0.750028  1
  Sc  Sc9  1  0.838124  0.495348  0.250028  1
  Sc  Sc10  1  0.339339  0.005659  0.250022  1
  Sc  Sc11  1  0.668990  0.997806  0.750033  1
  Sc  Sc12  1  0.317856  0.172065  0.627339  1
  Sc  Sc13  1  0.671801  0.825424  0.373870  1
  Sc  Sc14  1  0.171161  0.678078  0.374085  1
  Sc  Sc15  1  0.671769  0.825367  0.126117  1
  Sc  Sc16  1  0.837569  0.318748  0.627531  1
  Sc  Sc17  1  0.317942  0.172037  0.872655  1
  Sc  Sc18  1  0.837496  0.318826  0.872466  1
  Sc  Sc19  1  0.171164  0.678070  0.125918  1
  Si  Si20  1  0.968768  0.885634  0.250068  1
  Si  Si21  1  0.469043  0.613657  0.250014  1
  Si  Si22  1  0.529382  0.389650  0.749999  1
  Si  Si23  1  0.286422  0.866219  0.749999  1
  Si  Si24  1  0.713113  0.130680  0.250125  1
  Si  Si25  1  0.213942  0.370460  0.250136  1
  Si  Si26  1  0.778816  0.627321  0.749999  1
  Si  Si27  1  0.160207  0.468996  0.536923  1
  Si  Si28  1  0.843935  0.535829  0.461489  1
  Si  Si29  1  0.344550  0.965990  0.459947  1
  Si  Si30  1  0.843843  0.536068  0.038455  1
  Si  Si31  1  0.655723  0.034029  0.538209  1
  Si  Si32  1  0.160268  0.469211  0.963005  1
  Si  Si33  1  0.655613  0.033983  0.961770  1
  Si  Si34  1  0.344874  0.965839  0.039996  1
  Os  Os35  1  0.029028  0.108839  0.750019  1
