# generated using pymatgen
data_La3Tb3(BiO7)2
_symmetry_space_group_name_H-M   'P 1'
_cell_length_a   6.69672508
_cell_length_b   6.73272643
_cell_length_c   7.88933765
_cell_angle_alpha   106.96941351
_cell_angle_beta   89.89295390
_cell_angle_gamma   98.90496530
_symmetry_Int_Tables_number   1
_chemical_formula_structural   La3Tb3(BiO7)2
_chemical_formula_sum   'La3 Tb3 Bi2 O14'
_cell_volume   335.76687772
_cell_formula_units_Z   1
loop_
 _symmetry_equiv_pos_site_id
 _symmetry_equiv_pos_as_xyz
  1  'x, y, z'
loop_
 _atom_site_type_symbol
 _atom_site_label
 _atom_site_symmetry_multiplicity
 _atom_site_fract_x
 _atom_site_fract_y
 _atom_site_fract_z
 _atom_site_occupancy
  La  La0  1  0.730478  0.465507  0.115059  1
  La  La1  1  0.739572  0.484393  0.622077  1
  La  La2  1  0.257201  0.516294  0.381505  1
  Tb  Tb3  1  0.462598  0.003842  0.252307  1
  Tb  Tb4  1  0.534160  0.994312  0.747183  1
  Tb  Tb5  1  0.270663  0.538688  0.883558  1
  Bi  Bi6  1  0.001602  0.003479  0.502796  1
  Bi  Bi7  1  0.003889  0.000343  0.997925  1
  O  O8  1  0.438877  0.653547  0.160650  1
  O  O9  1  0.541440  0.345186  0.832715  1
  O  O10  1  0.302456  0.927605  0.953782  1
  O  O11  1  0.701857  0.062546  0.047381  1
  O  O12  1  0.299567  0.934992  0.514389  1
  O  O13  1  0.702511  0.064716  0.484244  1
  O  O14  1  0.541980  0.356611  0.342820  1
  O  O15  1  0.451938  0.643483  0.664146  1
  O  O16  1  0.935636  0.667139  0.945541  1
  O  O17  1  0.082650  0.328766  0.039791  1
  O  O18  1  0.077078  0.339851  0.623581  1
  O  O19  1  0.927195  0.664259  0.387460  1
  O  O20  1  0.876461  0.921307  0.729715  1
  O  O21  1  0.120192  0.083135  0.271375  1
