# generated using pymatgen
data_CeThBeB10
_symmetry_space_group_name_H-M   'P 1'
_cell_length_a   4.15610800
_cell_length_b   5.59735637
_cell_length_c   11.03814124
_cell_angle_alpha   90.09823748
_cell_angle_beta   90.00000000
_cell_angle_gamma   90.00000000
_symmetry_Int_Tables_number   1
_chemical_formula_structural   CeThBeB10
_chemical_formula_sum   'Ce2 Th2 Be2 B20'
_cell_volume   256.78230405
_cell_formula_units_Z   2
loop_
 _symmetry_equiv_pos_site_id
 _symmetry_equiv_pos_as_xyz
  1  'x, y, z'
loop_
 _atom_site_type_symbol
 _atom_site_label
 _atom_site_symmetry_multiplicity
 _atom_site_fract_x
 _atom_site_fract_y
 _atom_site_fract_z
 _atom_site_occupancy
  Ce  Ce0  1  0.500000  0.303404  0.866503  1
  Ce  Ce1  1  0.500000  0.696596  0.133497  1
  Th  Th2  1  0.500000  0.803447  0.636266  1
  Th  Th3  1  0.500000  0.196553  0.363734  1
  Be  Be4  1  0.000000  0.500000  0.500000  1
  Be  Be5  1  0.000000  0.000000  0.000000  1
  B  B6  1  0.000000  0.129007  0.538892  1
  B  B7  1  0.000000  0.870993  0.461108  1
  B  B8  1  0.000000  0.628175  0.961296  1
  B  B9  1  0.000000  0.371825  0.038704  1
  B  B10  1  0.000000  0.160233  0.697751  1
  B  B11  1  0.000000  0.839767  0.302249  1
  B  B12  1  0.299964  0.198361  0.110715  1
  B  B13  1  0.299964  0.801639  0.889285  1
  B  B14  1  0.700213  0.697661  0.388094  1
  B  B15  1  0.700213  0.302339  0.611906  1
  B  B16  1  0.700036  0.801639  0.889285  1
  B  B17  1  0.700036  0.198361  0.110715  1
  B  B18  1  0.299787  0.302339  0.611906  1
  B  B19  1  0.299787  0.697661  0.388094  1
  B  B20  1  0.000000  0.028723  0.185755  1
  B  B21  1  0.000000  0.971277  0.814245  1
  B  B22  1  0.000000  0.529026  0.313660  1
  B  B23  1  0.000000  0.470974  0.686340  1
  B  B24  1  0.000000  0.340151  0.196651  1
  B  B25  1  0.000000  0.659849  0.803349  1
