# generated using pymatgen
data_NaY3P6N13
_symmetry_space_group_name_H-M   'P 1'
_cell_length_a   7.22457408
_cell_length_b   7.22457442
_cell_length_c   7.35314000
_cell_angle_alpha   109.83211507
_cell_angle_beta   109.83211603
_cell_angle_gamma   109.10792571
_symmetry_Int_Tables_number   1
_chemical_formula_structural   NaY3P6N13
_chemical_formula_sum   'Na1 Y3 P6 N13'
_cell_volume   294.11809211
_cell_formula_units_Z   1
loop_
 _symmetry_equiv_pos_site_id
 _symmetry_equiv_pos_as_xyz
  1  'x, y, z'
loop_
 _atom_site_type_symbol
 _atom_site_label
 _atom_site_symmetry_multiplicity
 _atom_site_fract_x
 _atom_site_fract_y
 _atom_site_fract_z
 _atom_site_occupancy
  Na  Na0  1  0.000000  0.000000  0.698778  1
  Y  Y1  1  0.310907  0.310907  0.299705  1
  Y  Y2  1  0.000000  0.689093  0.988798  1
  Y  Y3  1  0.689093  0.000000  0.988798  1
  P  P4  1  0.505833  0.257237  0.754832  1
  P  P5  1  0.494167  0.751404  0.249000  1
  P  P6  1  0.742763  0.248596  0.497595  1
  P  P7  1  0.257237  0.505833  0.754832  1
  P  P8  1  0.751404  0.494167  0.249000  1
  P  P9  1  0.248596  0.742763  0.497595  1
  N  N10  1  0.000000  0.000000  0.018176  1
  N  N11  1  0.000000  0.706778  0.435552  1
  N  N12  1  0.265440  0.671077  0.270761  1
  N  N13  1  0.328923  0.594361  0.599683  1
  N  N14  1  0.563781  0.563781  0.259682  1
  N  N15  1  0.594361  0.328923  0.599683  1
  N  N16  1  0.706778  0.000000  0.435552  1
  N  N17  1  0.436219  0.000000  0.695900  1
  N  N18  1  0.734560  0.405639  0.005323  1
  N  N19  1  0.293222  0.293222  0.728774  1
  N  N20  1  0.671077  0.265440  0.270761  1
  N  N21  1  0.000000  0.436219  0.695900  1
  N  N22  1  0.405639  0.734560  0.005323  1
