# generated using pymatgen
data_Tb4Ho8Tc3Ni
_symmetry_space_group_name_H-M   'P 1'
_cell_length_a   6.28632359
_cell_length_b   7.32736641
_cell_length_c   9.20974400
_cell_angle_alpha   90.00000000
_cell_angle_beta   90.00000000
_cell_angle_gamma   90.14016525
_symmetry_Int_Tables_number   1
_chemical_formula_structural   Tb4Ho8Tc3Ni
_chemical_formula_sum   'Tb4 Ho8 Tc3 Ni1'
_cell_volume   424.21976732
_cell_formula_units_Z   1
loop_
 _symmetry_equiv_pos_site_id
 _symmetry_equiv_pos_as_xyz
  1  'x, y, z'
loop_
 _atom_site_type_symbol
 _atom_site_label
 _atom_site_symmetry_multiplicity
 _atom_site_fract_x
 _atom_site_fract_y
 _atom_site_fract_z
 _atom_site_occupancy
  Tb  Tb0  1  0.871427  0.541699  0.250000  1
  Tb  Tb1  1  0.624550  0.040845  0.250000  1
  Tb  Tb2  1  0.140062  0.456713  0.750000  1
  Tb  Tb3  1  0.372155  0.956900  0.750000  1
  Ho  Ho4  1  0.328113  0.677817  0.067380  1
  Ho  Ho5  1  0.163974  0.177323  0.437091  1
  Ho  Ho6  1  0.667044  0.323313  0.562763  1
  Ho  Ho7  1  0.834039  0.823787  0.937886  1
  Ho  Ho8  1  0.667044  0.323313  0.937237  1
  Ho  Ho9  1  0.834039  0.823787  0.562114  1
  Ho  Ho10  1  0.328113  0.677817  0.432620  1
  Ho  Ho11  1  0.163974  0.177323  0.062909  1
  Tc  Tc12  1  0.037809  0.886739  0.250000  1
  Tc  Tc13  1  0.459728  0.388585  0.250000  1
  Tc  Tc14  1  0.959115  0.112119  0.750000  1
  Ni  Ni15  1  0.548812  0.611921  0.750000  1
