# generated using pymatgen
data_Hf5Mg2Zr(Al2Pt)7
_symmetry_space_group_name_H-M   'P 1'
_cell_length_a   8.81461493
_cell_length_b   8.80615067
_cell_length_c   8.80614928
_cell_angle_alpha   60.02885681
_cell_angle_beta   59.96819730
_cell_angle_gamma   59.96819396
_symmetry_Int_Tables_number   1
_chemical_formula_structural   Hf5Mg2Zr(Al2Pt)7
_chemical_formula_sum   'Hf5 Mg2 Zr1 Al14 Pt7'
_cell_volume   483.22132491
_cell_formula_units_Z   1
loop_
 _symmetry_equiv_pos_site_id
 _symmetry_equiv_pos_as_xyz
  1  'x, y, z'
loop_
 _atom_site_type_symbol
 _atom_site_label
 _atom_site_symmetry_multiplicity
 _atom_site_fract_x
 _atom_site_fract_y
 _atom_site_fract_z
 _atom_site_occupancy
  Hf  Hf0  1  0.680471  0.679563  0.319113  1
  Hf  Hf1  1  0.320853  0.679563  0.319113  1
  Hf  Hf2  1  0.675786  0.324214  0.324214  1
  Hf  Hf3  1  0.320853  0.319113  0.679563  1
  Hf  Hf4  1  0.680471  0.319113  0.679563  1
  Mg  Mg5  1  0.880776  0.883085  0.355362  1
  Mg  Mg6  1  0.880776  0.355362  0.883085  1
  Zr  Zr7  1  0.316174  0.683826  0.683826  1
  Al  Al8  1  0.361086  0.879927  0.879927  1
  Al  Al9  1  0.879060  0.879927  0.879927  1
  Al  Al10  1  0.119634  0.122543  0.638189  1
  Al  Al11  1  0.119634  0.638189  0.122543  1
  Al  Al12  1  0.641257  0.119890  0.119890  1
  Al  Al13  1  0.118964  0.119890  0.119890  1
  Al  Al14  1  0.664224  0.662504  0.009048  1
  Al  Al15  1  0.664224  0.009048  0.662504  1
  Al  Al16  1  0.007539  0.663373  0.663373  1
  Al  Al17  1  0.665716  0.663373  0.663373  1
  Al  Al18  1  0.336550  0.335146  0.991754  1
  Al  Al19  1  0.336550  0.991754  0.335146  1
  Al  Al20  1  0.990268  0.335925  0.335925  1
  Al  Al21  1  0.337880  0.335925  0.335925  1
  Pt  Pt22  1  0.009128  0.990872  0.990872  1
  Pt  Pt23  1  0.000823  0.000715  0.505333  1
  Pt  Pt24  1  0.493128  0.000715  0.505333  1
  Pt  Pt25  1  0.003126  0.496874  0.496874  1
  Pt  Pt26  1  0.493128  0.505333  0.000715  1
  Pt  Pt27  1  0.000823  0.505333  0.000715  1
  Pt  Pt28  1  0.501095  0.998905  0.998905  1
