# generated using pymatgen
data_HoEr7Re3RuC8
_symmetry_space_group_name_H-M   'P 1'
_cell_length_a   5.05790300
_cell_length_b   6.52422155
_cell_length_c   9.77121949
_cell_angle_alpha   89.85274429
_cell_angle_beta   90.00000000
_cell_angle_gamma   90.00000000
_symmetry_Int_Tables_number   1
_chemical_formula_structural   HoEr7Re3RuC8
_chemical_formula_sum   'Ho1 Er7 Re3 Ru1 C8'
_cell_volume   322.43823202
_cell_formula_units_Z   1
loop_
 _symmetry_equiv_pos_site_id
 _symmetry_equiv_pos_as_xyz
  1  'x, y, z'
loop_
 _atom_site_type_symbol
 _atom_site_label
 _atom_site_symmetry_multiplicity
 _atom_site_fract_x
 _atom_site_fract_y
 _atom_site_fract_z
 _atom_site_occupancy
  Ho  Ho0  1  0.750000  0.532077  0.785191  1
  Er  Er1  1  0.250000  0.966946  0.282232  1
  Er  Er2  1  0.750000  0.677323  0.442847  1
  Er  Er3  1  0.250000  0.827026  0.944247  1
  Er  Er4  1  0.750000  0.177961  0.057501  1
  Er  Er5  1  0.250000  0.321899  0.557527  1
  Er  Er6  1  0.250000  0.466244  0.216300  1
  Er  Er7  1  0.750000  0.033999  0.716320  1
  Re  Re8  1  0.250000  0.782284  0.632958  1
  Re  Re9  1  0.750000  0.218154  0.368630  1
  Re  Re10  1  0.750000  0.718883  0.132002  1
  Ru  Ru11  1  0.250000  0.281428  0.866959  1
  C  C12  1  0.250000  0.674647  0.447867  1
  C  C13  1  0.250000  0.549470  0.756905  1
  C  C14  1  0.750000  0.451559  0.240955  1
  C  C15  1  0.750000  0.824781  0.946411  1
  C  C16  1  0.250000  0.047443  0.740129  1
  C  C17  1  0.250000  0.172283  0.051440  1
  C  C18  1  0.750000  0.324232  0.553838  1
  C  C19  1  0.750000  0.951358  0.259738  1
