# generated using pymatgen
data_Zr3SiTc3Ge2
_symmetry_space_group_name_H-M   'P 1'
_cell_length_a   7.07602000
_cell_length_b   7.07602043
_cell_length_c   3.44628000
_cell_angle_alpha   90.00000000
_cell_angle_beta   90.00000000
_cell_angle_gamma   120.00000733
_symmetry_Int_Tables_number   1
_chemical_formula_structural   Zr3SiTc3Ge2
_chemical_formula_sum   'Zr3 Si1 Tc3 Ge2'
_cell_volume   149.43739537
_cell_formula_units_Z   1
loop_
 _symmetry_equiv_pos_site_id
 _symmetry_equiv_pos_as_xyz
  1  'x, y, z'
loop_
 _atom_site_type_symbol
 _atom_site_label
 _atom_site_symmetry_multiplicity
 _atom_site_fract_x
 _atom_site_fract_y
 _atom_site_fract_z
 _atom_site_occupancy
  Zr  Zr0  1  0.400098  0.000000  0.500000  1
  Zr  Zr1  1  0.000000  0.400098  0.500000  1
  Zr  Zr2  1  0.599902  0.599902  0.500000  1
  Si  Si3  1  0.000000  0.000000  0.500000  1
  Tc  Tc4  1  0.749994  0.000000  0.000000  1
  Tc  Tc5  1  0.000000  0.749994  0.000000  1
  Tc  Tc6  1  0.250006  0.250006  0.000000  1
  Ge  Ge7  1  0.333333  0.666667  0.000000  1
  Ge  Ge8  1  0.666667  0.333333  0.000000  1
