# generated using pymatgen
data_AcIn4Pt
_symmetry_space_group_name_H-M   'P 1'
_cell_length_a   8.98387999
_cell_length_b   8.98388148
_cell_length_c   7.60376300
_cell_angle_alpha   90.00000000
_cell_angle_beta   90.00000000
_cell_angle_gamma   149.71233045
_symmetry_Int_Tables_number   1
_chemical_formula_structural   AcIn4Pt
_chemical_formula_sum   'Ac2 In8 Pt2'
_cell_volume   309.51485316
_cell_formula_units_Z   2
loop_
 _symmetry_equiv_pos_site_id
 _symmetry_equiv_pos_as_xyz
  1  'x, y, z'
loop_
 _atom_site_type_symbol
 _atom_site_label
 _atom_site_symmetry_multiplicity
 _atom_site_fract_x
 _atom_site_fract_y
 _atom_site_fract_z
 _atom_site_occupancy
  Ac  Ac0  1  0.123405  0.876595  0.750000  1
  Ac  Ac1  1  0.876595  0.123405  0.250000  1
  In  In2  1  0.500000  0.500000  0.500000  1
  In  In3  1  0.500000  0.500000  0.000000  1
  In  In4  1  0.069805  0.930195  0.250000  1
  In  In5  1  0.930195  0.069805  0.750000  1
  In  In6  1  0.315797  0.684203  0.948528  1
  In  In7  1  0.684203  0.315797  0.051472  1
  In  In8  1  0.684203  0.315797  0.448528  1
  In  In9  1  0.315797  0.684203  0.551472  1
  Pt  Pt10  1  0.773911  0.226089  0.750000  1
  Pt  Pt11  1  0.226089  0.773911  0.250000  1
