# generated using pymatgen
data_Zr7Pa3(CoBi3)2
_symmetry_space_group_name_H-M   'P 1'
_cell_length_a   6.05267800
_cell_length_b   9.09381439
_cell_length_c   9.02680907
_cell_angle_alpha   121.78761402
_cell_angle_beta   90.00000000
_cell_angle_gamma   90.00000000
_symmetry_Int_Tables_number   1
_chemical_formula_structural   Zr7Pa3(CoBi3)2
_chemical_formula_sum   'Zr7 Pa3 Co2 Bi6'
_cell_volume   422.32831964
_cell_formula_units_Z   1
loop_
 _symmetry_equiv_pos_site_id
 _symmetry_equiv_pos_as_xyz
  1  'x, y, z'
loop_
 _atom_site_type_symbol
 _atom_site_label
 _atom_site_symmetry_multiplicity
 _atom_site_fract_x
 _atom_site_fract_y
 _atom_site_fract_z
 _atom_site_occupancy
  Zr  Zr0  1  0.250000  0.008494  0.742915  1
  Zr  Zr1  1  0.750000  0.242572  0.004079  1
  Zr  Zr2  1  0.250000  0.736957  0.005868  1
  Zr  Zr3  1  0.001194  0.669662  0.338793  1
  Zr  Zr4  1  0.000649  0.335536  0.660192  1
  Zr  Zr5  1  0.499351  0.335536  0.660192  1
  Zr  Zr6  1  0.498806  0.669662  0.338793  1
  Pa  Pa7  1  0.750000  0.786402  0.785247  1
  Pa  Pa8  1  0.250000  0.223737  0.223624  1
  Pa  Pa9  1  0.750000  0.004141  0.240537  1
  Co  Co10  1  0.030374  0.989730  0.995018  1
  Co  Co11  1  0.469626  0.989730  0.995018  1
  Bi  Bi12  1  0.750000  0.405291  0.398161  1
  Bi  Bi13  1  0.250000  0.612698  0.612093  1
  Bi  Bi14  1  0.750000  0.008829  0.608573  1
  Bi  Bi15  1  0.250000  0.994177  0.394781  1
  Bi  Bi16  1  0.750000  0.593671  0.001073  1
  Bi  Bi17  1  0.250000  0.393174  0.995044  1
