# generated using pymatgen
data_Hf2Ta(AlCo2)3
_symmetry_space_group_name_H-M   'P 1'
_cell_length_a   4.23920000
_cell_length_b   5.98336300
_cell_length_c   12.78797500
_cell_angle_alpha   90.00000000
_cell_angle_beta   89.99992324
_cell_angle_gamma   90.00000000
_symmetry_Int_Tables_number   1
_chemical_formula_structural   Hf2Ta(AlCo2)3
_chemical_formula_sum   'Hf4 Ta2 Al6 Co12'
_cell_volume   324.36279691
_cell_formula_units_Z   2
loop_
 _symmetry_equiv_pos_site_id
 _symmetry_equiv_pos_as_xyz
  1  'x, y, z'
loop_
 _atom_site_type_symbol
 _atom_site_label
 _atom_site_symmetry_multiplicity
 _atom_site_fract_x
 _atom_site_fract_y
 _atom_site_fract_z
 _atom_site_occupancy
  Hf  Hf0  1  0.999991  0.000000  0.999083  1
  Hf  Hf1  1  0.500144  0.500000  0.166105  1
  Hf  Hf2  1  0.000144  0.000000  0.333890  1
  Hf  Hf3  1  0.499988  0.500000  0.500908  1
  Ta  Ta4  1  0.999871  0.000000  0.667190  1
  Ta  Ta5  1  0.499871  0.500000  0.832815  1
  Al  Al6  1  0.000002  0.500000  0.997727  1
  Al  Al7  1  0.500139  0.000000  0.165849  1
  Al  Al8  1  0.000133  0.500000  0.334131  1
  Al  Al9  1  0.500001  0.000000  0.502291  1
  Al  Al10  1  0.999866  0.500000  0.667590  1
  Al  Al11  1  0.499864  0.000000  0.832404  1
  Co  Co12  1  0.499985  0.255372  0.995473  1
  Co  Co13  1  0.499985  0.744626  0.995473  1
  Co  Co14  1  0.000161  0.248607  0.166180  1
  Co  Co15  1  0.000161  0.751393  0.166180  1
  Co  Co16  1  0.500160  0.251382  0.333813  1
  Co  Co17  1  0.500160  0.748618  0.333813  1
  Co  Co18  1  0.999988  0.244523  0.504510  1
  Co  Co19  1  0.999988  0.755477  0.504510  1
  Co  Co20  1  0.499850  0.244717  0.670305  1
  Co  Co21  1  0.499850  0.755283  0.670305  1
  Co  Co22  1  0.999848  0.255272  0.829726  1
  Co  Co23  1  0.999848  0.744728  0.829726  1
