# generated using pymatgen
data_La3Nd(Ga5Pt3)2
_symmetry_space_group_name_H-M   'P 1'
_cell_length_a   8.65500981
_cell_length_b   8.64023920
_cell_length_c   8.64024000
_cell_angle_alpha   138.96269317
_cell_angle_beta   106.70391801
_cell_angle_gamma   87.58554852
_symmetry_Int_Tables_number   1
_chemical_formula_structural   La3Nd(Ga5Pt3)2
_chemical_formula_sum   'La3 Nd1 Ga10 Pt6'
_cell_volume   390.32623545
_cell_formula_units_Z   1
loop_
 _symmetry_equiv_pos_site_id
 _symmetry_equiv_pos_as_xyz
  1  'x, y, z'
loop_
 _atom_site_type_symbol
 _atom_site_label
 _atom_site_symmetry_multiplicity
 _atom_site_fract_x
 _atom_site_fract_y
 _atom_site_fract_z
 _atom_site_occupancy
  La  La0  1  0.637530  0.367057  0.270473  1
  La  La1  1  0.362303  0.632873  0.729430  1
  La  La2  1  0.096209  0.866804  0.229406  1
  Nd  Nd3  1  0.904408  0.133453  0.770955  1
  Ga  Ga4  1  0.279406  0.529922  0.249823  1
  Ga  Ga5  1  0.719930  0.468332  0.749548  1
  Ga  Ga6  1  0.719930  0.970382  0.251598  1
  Ga  Ga7  1  0.279406  0.029583  0.749484  1
  Ga  Ga8  1  0.447874  0.102856  0.345018  1
  Ga  Ga9  1  0.553655  0.898329  0.655326  1
  Ga  Ga10  1  0.758223  0.602761  0.155463  1
  Ga  Ga11  1  0.242340  0.396776  0.845563  1
  Ga  Ga12  1  0.999332  0.250033  0.248650  1
  Ga  Ga13  1  0.999332  0.750681  0.749299  1
  Pt  Pt14  1  0.248432  0.140486  0.107948  1
  Pt  Pt15  1  0.750970  0.859048  0.891920  1
  Pt  Pt16  1  0.032290  0.641053  0.391237  1
  Pt  Pt17  1  0.967837  0.359311  0.608526  1
  Pt  Pt18  1  0.500298  0.250177  0.750215  1
  Pt  Pt19  1  0.500298  0.750083  0.250121  1
