# generated using pymatgen
data_Sc4Al2B4Ir9Rh
_symmetry_space_group_name_H-M   'P 1'
_cell_length_a   9.42372315
_cell_length_b   3.04448000
_cell_length_c   9.43356615
_cell_angle_alpha   90.00000000
_cell_angle_beta   90.02043619
_cell_angle_gamma   90.00000000
_symmetry_Int_Tables_number   1
_chemical_formula_structural   Sc4Al2B4Ir9Rh
_chemical_formula_sum   'Sc4 Al2 B4 Ir9 Rh1'
_cell_volume   270.65217149
_cell_formula_units_Z   1
loop_
 _symmetry_equiv_pos_site_id
 _symmetry_equiv_pos_as_xyz
  1  'x, y, z'
loop_
 _atom_site_type_symbol
 _atom_site_label
 _atom_site_symmetry_multiplicity
 _atom_site_fract_x
 _atom_site_fract_y
 _atom_site_fract_z
 _atom_site_occupancy
  Sc  Sc0  1  0.675914  0.000000  0.176914  1
  Sc  Sc1  1  0.176143  0.000000  0.323698  1
  Sc  Sc2  1  0.823467  0.000000  0.676719  1
  Sc  Sc3  1  0.323745  0.000000  0.823756  1
  Al  Al4  1  0.998467  0.000000  0.999367  1
  Al  Al5  1  0.500208  0.000000  0.500017  1
  B  B6  1  0.375219  0.000000  0.124283  1
  B  B7  1  0.875880  0.000000  0.375467  1
  B  B8  1  0.124932  0.000000  0.624801  1
  B  B9  1  0.623954  0.000000  0.875036  1
  Ir  Ir10  1  0.500793  0.500000  0.999779  1
  Ir  Ir11  1  0.215621  0.500000  0.069616  1
  Ir  Ir12  1  0.930035  0.500000  0.215824  1
  Ir  Ir13  1  0.430230  0.500000  0.284012  1
  Ir  Ir14  1  0.715819  0.500000  0.430229  1
  Ir  Ir15  1  0.999968  0.500000  0.500589  1
  Ir  Ir16  1  0.284592  0.500000  0.569451  1
  Ir  Ir17  1  0.570558  0.500000  0.716188  1
  Ir  Ir18  1  0.070172  0.500000  0.784325  1
  Rh  Rh19  1  0.784277  0.500000  0.929925  1
