# generated using pymatgen
data_Sc2VRu3
_symmetry_space_group_name_H-M   'P 1'
_cell_length_a   13.28892800
_cell_length_b   3.10438400
_cell_length_c   4.43770000
_cell_angle_alpha   90.00000000
_cell_angle_beta   90.00000000
_cell_angle_gamma   90.00000000
_symmetry_Int_Tables_number   1
_chemical_formula_structural   Sc2VRu3
_chemical_formula_sum   'Sc4 V2 Ru6'
_cell_volume   183.07258939
_cell_formula_units_Z   2
loop_
 _symmetry_equiv_pos_site_id
 _symmetry_equiv_pos_as_xyz
  1  'x, y, z'
loop_
 _atom_site_type_symbol
 _atom_site_label
 _atom_site_symmetry_multiplicity
 _atom_site_fract_x
 _atom_site_fract_y
 _atom_site_fract_z
 _atom_site_occupancy
  Sc  Sc0  1  0.084191  0.000000  0.250719  1
  Sc  Sc1  1  0.415810  0.000000  0.250719  1
  Sc  Sc2  1  0.584191  0.000000  0.749280  1
  Sc  Sc3  1  0.915809  0.000000  0.749280  1
  V  V4  1  0.750000  0.000000  0.248888  1
  V  V5  1  0.250000  0.000000  0.751111  1
  Ru  Ru6  1  0.250000  0.500000  0.251662  1
  Ru  Ru7  1  0.594841  0.500000  0.249051  1
  Ru  Ru8  1  0.905159  0.500000  0.249051  1
  Ru  Ru9  1  0.094841  0.500000  0.750948  1
  Ru  Ru10  1  0.405159  0.500000  0.750948  1
  Ru  Ru11  1  0.750000  0.500000  0.748338  1
