# generated using pymatgen
data_La2Nd6Cd2IrPt
_symmetry_space_group_name_H-M   'P 1'
_cell_length_a   10.03845089
_cell_length_b   10.03835118
_cell_length_c   10.01969304
_cell_angle_alpha   60.09215129
_cell_angle_beta   60.09500891
_cell_angle_gamma   60.21180258
_symmetry_Int_Tables_number   1
_chemical_formula_structural   La2Nd6Cd2IrPt
_chemical_formula_sum   'La4 Nd12 Cd4 Ir2 Pt2'
_cell_volume   716.09999763
_cell_formula_units_Z   2
loop_
 _symmetry_equiv_pos_site_id
 _symmetry_equiv_pos_as_xyz
  1  'x, y, z'
loop_
 _atom_site_type_symbol
 _atom_site_label
 _atom_site_symmetry_multiplicity
 _atom_site_fract_x
 _atom_site_fract_y
 _atom_site_fract_z
 _atom_site_occupancy
  La  La0  1  0.349395  0.349365  0.345395  1
  La  La1  1  0.350970  0.350958  0.952674  1
  La  La2  1  0.355013  0.947975  0.349290  1
  La  La3  1  0.947975  0.355063  0.349268  1
  Nd  Nd4  1  0.807240  0.189757  0.189554  1
  Nd  Nd5  1  0.188956  0.806306  0.813340  1
  Nd  Nd6  1  0.189732  0.807255  0.189564  1
  Nd  Nd7  1  0.806324  0.188951  0.813353  1
  Nd  Nd8  1  0.190412  0.190425  0.810034  1
  Nd  Nd9  1  0.810954  0.810947  0.187472  1
  Nd  Nd10  1  0.938979  0.565025  0.561566  1
  Nd  Nd11  1  0.563411  0.937912  0.936598  1
  Nd  Nd12  1  0.565047  0.938983  0.561564  1
  Nd  Nd13  1  0.937910  0.563391  0.936575  1
  Nd  Nd14  1  0.563503  0.563510  0.938227  1
  Nd  Nd15  1  0.937714  0.937724  0.561402  1
  Cd  Cd16  1  0.580506  0.580512  0.580277  1
  Cd  Cd17  1  0.580443  0.580438  0.258068  1
  Cd  Cd18  1  0.580015  0.258757  0.580478  1
  Cd  Cd19  1  0.258751  0.580019  0.580481  1
  Ir  Ir20  1  0.141276  0.572372  0.143436  1
  Ir  Ir21  1  0.572375  0.141266  0.143444  1
  Pt  Pt22  1  0.141904  0.141893  0.144586  1
  Pt  Pt23  1  0.141194  0.141194  0.573355  1
