# generated using pymatgen
data_Tb5(AlTe)2
_symmetry_space_group_name_H-M   'P 1'
_cell_length_a   8.75603368
_cell_length_b   8.75603273
_cell_length_c   8.00778000
_cell_angle_alpha   90.00000000
_cell_angle_beta   90.00000000
_cell_angle_gamma   125.79909545
_symmetry_Int_Tables_number   1
_chemical_formula_structural   Tb5(AlTe)2
_chemical_formula_sum   'Tb10 Al4 Te4'
_cell_volume   497.95134066
_cell_formula_units_Z   2
loop_
 _symmetry_equiv_pos_site_id
 _symmetry_equiv_pos_as_xyz
  1  'x, y, z'
loop_
 _atom_site_type_symbol
 _atom_site_label
 _atom_site_symmetry_multiplicity
 _atom_site_fract_x
 _atom_site_fract_y
 _atom_site_fract_z
 _atom_site_occupancy
  Tb  Tb0  1  0.000000  0.000000  0.000000  1
  Tb  Tb1  1  0.500000  0.500000  0.500000  1
  Tb  Tb2  1  0.799194  0.538114  0.168243  1
  Tb  Tb3  1  0.461886  0.200806  0.831757  1
  Tb  Tb4  1  0.961886  0.700806  0.668243  1
  Tb  Tb5  1  0.299194  0.038114  0.331757  1
  Tb  Tb6  1  0.200806  0.461886  0.831757  1
  Tb  Tb7  1  0.538114  0.799194  0.168243  1
  Tb  Tb8  1  0.038114  0.299194  0.331757  1
  Tb  Tb9  1  0.700806  0.961886  0.668243  1
  Al  Al10  1  0.877093  0.877093  0.378460  1
  Al  Al11  1  0.122907  0.122907  0.621540  1
  Al  Al12  1  0.622907  0.622907  0.878460  1
  Al  Al13  1  0.377093  0.377093  0.121540  1
  Te  Te14  1  0.204169  0.795831  0.000000  1
  Te  Te15  1  0.704169  0.295831  0.500000  1
  Te  Te16  1  0.795831  0.204169  0.000000  1
  Te  Te17  1  0.295831  0.704169  0.500000  1
