# generated using pymatgen
data_Er3Ga4Se
_symmetry_space_group_name_H-M   'P 1'
_cell_length_a   7.77687368
_cell_length_b   7.77687304
_cell_length_c   7.77687349
_cell_angle_alpha   119.24577706
_cell_angle_beta   119.24577007
_cell_angle_gamma   91.31139797
_symmetry_Int_Tables_number   1
_chemical_formula_structural   Er3Ga4Se
_chemical_formula_sum   'Er6 Ga8 Se2'
_cell_volume   336.27919280
_cell_formula_units_Z   2
loop_
 _symmetry_equiv_pos_site_id
 _symmetry_equiv_pos_as_xyz
  1  'x, y, z'
loop_
 _atom_site_type_symbol
 _atom_site_label
 _atom_site_symmetry_multiplicity
 _atom_site_fract_x
 _atom_site_fract_y
 _atom_site_fract_z
 _atom_site_occupancy
  Er  Er0  1  0.837170  0.662830  0.500000  1
  Er  Er1  1  0.662830  0.162830  0.825660  1
  Er  Er2  1  0.337170  0.837170  0.174340  1
  Er  Er3  1  0.162830  0.337170  0.500000  1
  Er  Er4  1  0.250000  0.250000  0.000000  1
  Er  Er5  1  0.750000  0.750000  0.000000  1
  Ga  Ga6  1  0.162004  0.950064  0.500000  1
  Ga  Ga7  1  0.450064  0.662004  0.500000  1
  Ga  Ga8  1  0.549936  0.337996  0.500000  1
  Ga  Ga9  1  0.662004  0.162004  0.211940  1
  Ga  Ga10  1  0.837996  0.049936  0.500000  1
  Ga  Ga11  1  0.049936  0.549936  0.211940  1
  Ga  Ga12  1  0.337996  0.837996  0.788060  1
  Ga  Ga13  1  0.950064  0.450064  0.788060  1
  Se  Se14  1  0.000000  0.000000  0.000000  1
  Se  Se15  1  0.500000  0.500000  0.000000  1
