# generated using pymatgen
data_TmPa3TcPt3
_symmetry_space_group_name_H-M   'P 1'
_cell_length_a   4.37177800
_cell_length_b   5.63603012
_cell_length_c   7.11328542
_cell_angle_alpha   90.19978143
_cell_angle_beta   90.00000000
_cell_angle_gamma   90.00000000
_symmetry_Int_Tables_number   1
_chemical_formula_structural   TmPa3TcPt3
_chemical_formula_sum   'Tm1 Pa3 Tc1 Pt3'
_cell_volume   175.26653516
_cell_formula_units_Z   1
loop_
 _symmetry_equiv_pos_site_id
 _symmetry_equiv_pos_as_xyz
  1  'x, y, z'
loop_
 _atom_site_type_symbol
 _atom_site_label
 _atom_site_symmetry_multiplicity
 _atom_site_fract_x
 _atom_site_fract_y
 _atom_site_fract_z
 _atom_site_occupancy
  Tm  Tm0  1  0.250000  0.848478  0.677589  1
  Pa  Pa1  1  0.250000  0.648297  0.173835  1
  Pa  Pa2  1  0.750000  0.342686  0.823330  1
  Pa  Pa3  1  0.750000  0.145378  0.314104  1
  Tc  Tc4  1  0.250000  0.191935  0.061761  1
  Pt  Pt5  1  0.750000  0.836347  0.946940  1
  Pt  Pt6  1  0.750000  0.656887  0.453248  1
  Pt  Pt7  1  0.250000  0.329992  0.549194  1
