# generated using pymatgen
data_Zr2Ni3BIr2Ru
_symmetry_space_group_name_H-M   'P 1'
_cell_length_a   5.66336559
_cell_length_b   5.66336495
_cell_length_c   5.49445468
_cell_angle_alpha   59.35109484
_cell_angle_beta   59.35109726
_cell_angle_gamma   59.63252625
_symmetry_Int_Tables_number   1
_chemical_formula_structural   Zr2Ni3BIr2Ru
_chemical_formula_sum   'Zr2 Ni3 B1 Ir2 Ru1'
_cell_volume   123.03599837
_cell_formula_units_Z   1
loop_
 _symmetry_equiv_pos_site_id
 _symmetry_equiv_pos_as_xyz
  1  'x, y, z'
loop_
 _atom_site_type_symbol
 _atom_site_label
 _atom_site_symmetry_multiplicity
 _atom_site_fract_x
 _atom_site_fract_y
 _atom_site_fract_z
 _atom_site_occupancy
  Zr  Zr0  1  0.755373  0.755373  0.732814  1
  Zr  Zr1  1  0.248473  0.248473  0.253551  1
  Ni  Ni2  1  0.738607  0.738607  0.248698  1
  Ni  Ni3  1  0.274454  0.737742  0.249620  1
  Ni  Ni4  1  0.737742  0.274454  0.249620  1
  B  B5  1  0.989865  0.989865  0.035293  1
  Ir  Ir6  1  0.743080  0.256643  0.743089  1
  Ir  Ir7  1  0.256643  0.743080  0.743089  1
  Ru  Ru8  1  0.255764  0.255764  0.744226  1
