# generated using pymatgen
data_Dy5Ho11MgCo4Ag3
_symmetry_space_group_name_H-M   'P 1'
_cell_length_a   9.38363860
_cell_length_b   9.41487248
_cell_length_c   9.41487264
_cell_angle_alpha   59.93546853
_cell_angle_beta   60.00197931
_cell_angle_gamma   60.00197472
_symmetry_Int_Tables_number   1
_chemical_formula_structural   Dy5Ho11MgCo4Ag3
_chemical_formula_sum   'Dy5 Ho11 Mg1 Co4 Ag3'
_cell_volume   587.87620186
_cell_formula_units_Z   1
loop_
 _symmetry_equiv_pos_site_id
 _symmetry_equiv_pos_as_xyz
  1  'x, y, z'
loop_
 _atom_site_type_symbol
 _atom_site_label
 _atom_site_symmetry_multiplicity
 _atom_site_fract_x
 _atom_site_fract_y
 _atom_site_fract_z
 _atom_site_occupancy
  Dy  Dy0  1  0.346376  0.346457  0.346457  1
  Dy  Dy1  1  0.346721  0.346368  0.960691  1
  Dy  Dy2  1  0.346721  0.960691  0.346368  1
  Dy  Dy3  1  0.949733  0.349988  0.349988  1
  Dy  Dy4  1  0.810234  0.189152  0.189152  1
  Ho  Ho5  1  0.185665  0.813987  0.813987  1
  Ho  Ho6  1  0.185959  0.813704  0.186492  1
  Ho  Ho7  1  0.809787  0.189258  0.811703  1
  Ho  Ho8  1  0.185959  0.186492  0.813704  1
  Ho  Ho9  1  0.809787  0.811703  0.189258  1
  Ho  Ho10  1  0.935360  0.562432  0.562432  1
  Ho  Ho11  1  0.562788  0.936934  0.936934  1
  Ho  Ho12  1  0.563290  0.936500  0.563584  1
  Ho  Ho13  1  0.935477  0.563362  0.938469  1
  Ho  Ho14  1  0.563290  0.563584  0.936500  1
  Ho  Ho15  1  0.935477  0.938469  0.563362  1
  Mg  Mg16  1  0.287120  0.571013  0.571013  1
  Co  Co17  1  0.138206  0.142535  0.142535  1
  Co  Co18  1  0.138221  0.142425  0.576966  1
  Co  Co19  1  0.138221  0.576966  0.142425  1
  Co  Co20  1  0.576090  0.141205  0.141205  1
  Ag  Ag21  1  0.583375  0.582670  0.582670  1
  Ag  Ag22  1  0.583071  0.583094  0.251013  1
  Ag  Ag23  1  0.583071  0.251013  0.583094  1
