# generated using pymatgen
data_Nb4Si3AsRh4
_symmetry_space_group_name_H-M   'P 1'
_cell_length_a   3.79684700
_cell_length_b   6.47559391
_cell_length_c   7.40383374
_cell_angle_alpha   90.32446544
_cell_angle_beta   90.00000000
_cell_angle_gamma   90.00000000
_symmetry_Int_Tables_number   1
_chemical_formula_structural   Nb4Si3AsRh4
_chemical_formula_sum   'Nb4 Si3 As1 Rh4'
_cell_volume   182.03395142
_cell_formula_units_Z   1
loop_
 _symmetry_equiv_pos_site_id
 _symmetry_equiv_pos_as_xyz
  1  'x, y, z'
loop_
 _atom_site_type_symbol
 _atom_site_label
 _atom_site_symmetry_multiplicity
 _atom_site_fract_x
 _atom_site_fract_y
 _atom_site_fract_z
 _atom_site_occupancy
  Nb  Nb0  1  0.750000  0.475820  0.329750  1
  Nb  Nb1  1  0.250000  0.025176  0.826324  1
  Nb  Nb2  1  0.750000  0.968390  0.174656  1
  Nb  Nb3  1  0.250000  0.527599  0.670401  1
  Si  Si4  1  0.250000  0.768508  0.375740  1
  Si  Si5  1  0.750000  0.733021  0.873474  1
  Si  Si6  1  0.750000  0.231783  0.623675  1
  As  As7  1  0.250000  0.264645  0.128031  1
  Rh  Rh8  1  0.250000  0.651426  0.060032  1
  Rh  Rh9  1  0.250000  0.142823  0.445050  1
  Rh  Rh10  1  0.750000  0.853316  0.562723  1
  Rh  Rh11  1  0.750000  0.357493  0.930143  1
