# generated using pymatgen
data_Dy9Lu(ThCo2)2
_symmetry_space_group_name_H-M   'P 1'
_cell_length_a   6.25224971
_cell_length_b   6.87099425
_cell_length_c   9.54631600
_cell_angle_alpha   90.00000000
_cell_angle_beta   90.00000000
_cell_angle_gamma   89.93205688
_symmetry_Int_Tables_number   1
_chemical_formula_structural   Dy9Lu(ThCo2)2
_chemical_formula_sum   'Dy9 Lu1 Th2 Co4'
_cell_volume   410.10154078
_cell_formula_units_Z   1
loop_
 _symmetry_equiv_pos_site_id
 _symmetry_equiv_pos_as_xyz
  1  'x, y, z'
loop_
 _atom_site_type_symbol
 _atom_site_label
 _atom_site_symmetry_multiplicity
 _atom_site_fract_x
 _atom_site_fract_y
 _atom_site_fract_z
 _atom_site_occupancy
  Dy  Dy0  1  0.676851  0.326577  0.929579  1
  Dy  Dy1  1  0.644332  0.043738  0.250000  1
  Dy  Dy2  1  0.173703  0.174982  0.431283  1
  Dy  Dy3  1  0.825651  0.828057  0.568705  1
  Dy  Dy4  1  0.173703  0.174982  0.068717  1
  Dy  Dy5  1  0.825651  0.828057  0.931295  1
  Dy  Dy6  1  0.676851  0.326577  0.570421  1
  Dy  Dy7  1  0.324746  0.670776  0.067111  1
  Dy  Dy8  1  0.324746  0.670776  0.432889  1
  Lu  Lu9  1  0.148427  0.454995  0.750000  1
  Th  Th10  1  0.343059  0.947562  0.750000  1
  Th  Th11  1  0.844174  0.553432  0.250000  1
  Co  Co12  1  0.539016  0.629763  0.750000  1
  Co  Co13  1  0.970128  0.110048  0.750000  1
  Co  Co14  1  0.040880  0.869416  0.250000  1
  Co  Co15  1  0.468085  0.390261  0.250000  1
