# generated using pymatgen
data_Hf2Zr4Bi2Pt
_symmetry_space_group_name_H-M   'P 1'
_cell_length_a   7.97805700
_cell_length_b   7.96126483
_cell_length_c   3.73577100
_cell_angle_alpha   90.00000000
_cell_angle_beta   90.00000000
_cell_angle_gamma   120.06980160
_symmetry_Int_Tables_number   1
_chemical_formula_structural   Hf2Zr4Bi2Pt
_chemical_formula_sum   'Hf2 Zr4 Bi2 Pt1'
_cell_volume   205.34502507
_cell_formula_units_Z   1
loop_
 _symmetry_equiv_pos_site_id
 _symmetry_equiv_pos_as_xyz
  1  'x, y, z'
loop_
 _atom_site_type_symbol
 _atom_site_label
 _atom_site_symmetry_multiplicity
 _atom_site_fract_x
 _atom_site_fract_y
 _atom_site_fract_z
 _atom_site_occupancy
  Hf  Hf0  1  0.245457  0.244100  0.000000  1
  Hf  Hf1  1  0.001358  0.755899  0.000000  1
  Zr  Zr2  1  0.751414  0.000000  0.000000  1
  Zr  Zr3  1  0.398501  0.000000  0.500000  1
  Zr  Zr4  1  0.999333  0.397452  0.500000  1
  Zr  Zr5  1  0.601881  0.602547  0.500000  1
  Bi  Bi6  1  0.666960  0.334859  0.000000  1
  Bi  Bi7  1  0.332101  0.665140  0.000000  1
  Pt  Pt8  1  0.002994  0.000000  0.500000  1
