# generated using pymatgen
data_Pr4Y2NiCl10
_symmetry_space_group_name_H-M   'P 1'
_cell_length_a   7.31650701
_cell_length_b   9.09417693
_cell_length_c   9.15595900
_cell_angle_alpha   109.00834667
_cell_angle_beta   107.40395517
_cell_angle_gamma   95.88819441
_symmetry_Int_Tables_number   1
_chemical_formula_structural   Pr4Y2NiCl10
_chemical_formula_sum   'Pr4 Y2 Ni1 Cl10'
_cell_volume   535.94992069
_cell_formula_units_Z   1
loop_
 _symmetry_equiv_pos_site_id
 _symmetry_equiv_pos_as_xyz
  1  'x, y, z'
loop_
 _atom_site_type_symbol
 _atom_site_label
 _atom_site_symmetry_multiplicity
 _atom_site_fract_x
 _atom_site_fract_y
 _atom_site_fract_z
 _atom_site_occupancy
  Pr  Pr0  1  0.143376  0.751895  0.058722  1
  Pr  Pr1  1  0.628339  0.807358  0.848707  1
  Pr  Pr2  1  0.860610  0.248349  0.946513  1
  Pr  Pr3  1  0.979342  0.107887  0.312529  1
  Y  Y4  1  0.362686  0.182286  0.136894  1
  Y  Y5  1  0.029000  0.900722  0.699968  1
  Ni  Ni6  1  0.999350  0.998726  0.001557  1
  Cl  Cl7  1  0.436435  0.077871  0.829532  1
  Cl  Cl8  1  0.756757  0.551782  0.925889  1
  Cl  Cl9  1  0.251130  0.441760  0.080162  1
  Cl  Cl10  1  0.918442  0.160436  0.637114  1
  Cl  Cl11  1  0.661240  0.732943  0.539330  1
  Cl  Cl12  1  0.550835  0.928445  0.169701  1
  Cl  Cl13  1  0.089661  0.836297  0.380458  1
  Cl  Cl14  1  0.767461  0.341892  0.246285  1
  Cl  Cl15  1  0.194555  0.653639  0.740729  1
  Cl  Cl16  1  0.370778  0.277711  0.445910  1
