# generated using pymatgen
data_DyEr3Co2(Si2Ru)2
_symmetry_space_group_name_H-M   'P 1'
_cell_length_a   4.24616700
_cell_length_b   7.00400663
_cell_length_c   6.88759999
_cell_angle_alpha   90.04504802
_cell_angle_beta   90.00000000
_cell_angle_gamma   90.00000000
_symmetry_Int_Tables_number   1
_chemical_formula_structural   DyEr3Co2(Si2Ru)2
_chemical_formula_sum   'Dy1 Er3 Co2 Si4 Ru2'
_cell_volume   204.83841282
_cell_formula_units_Z   1
loop_
 _symmetry_equiv_pos_site_id
 _symmetry_equiv_pos_as_xyz
  1  'x, y, z'
loop_
 _atom_site_type_symbol
 _atom_site_label
 _atom_site_symmetry_multiplicity
 _atom_site_fract_x
 _atom_site_fract_y
 _atom_site_fract_z
 _atom_site_occupancy
  Dy  Dy0  1  0.250000  0.679655  0.985183  1
  Er  Er1  1  0.750000  0.195030  0.513543  1
  Er  Er2  1  0.250000  0.805399  0.486937  1
  Er  Er3  1  0.750000  0.317386  0.015626  1
  Co  Co4  1  0.250000  0.434747  0.649283  1
  Co  Co5  1  0.750000  0.564550  0.349839  1
  Si  Si6  1  0.750000  0.892451  0.200984  1
  Si  Si7  1  0.250000  0.109524  0.799038  1
  Si  Si8  1  0.750000  0.603562  0.691434  1
  Si  Si9  1  0.250000  0.395722  0.308742  1
  Ru  Ru10  1  0.250000  0.069329  0.154362  1
  Ru  Ru11  1  0.750000  0.932643  0.845029  1
