# generated using pymatgen
data_Zr6Mn5VCo16Os
_symmetry_space_group_name_H-M   'P 1'
_cell_length_a   8.21089362
_cell_length_b   8.16687129
_cell_length_c   8.21089342
_cell_angle_alpha   60.17719897
_cell_angle_beta   59.46948129
_cell_angle_gamma   60.17719993
_symmetry_Int_Tables_number   1
_chemical_formula_structural   Zr6Mn5VCo16Os
_chemical_formula_sum   'Zr6 Mn5 V1 Co16 Os1'
_cell_volume   388.77546750
_cell_formula_units_Z   1
loop_
 _symmetry_equiv_pos_site_id
 _symmetry_equiv_pos_as_xyz
  1  'x, y, z'
loop_
 _atom_site_type_symbol
 _atom_site_label
 _atom_site_symmetry_multiplicity
 _atom_site_fract_x
 _atom_site_fract_y
 _atom_site_fract_z
 _atom_site_occupancy
  Zr  Zr0  1  0.710217  0.289504  0.289783  1
  Zr  Zr1  1  0.289783  0.289504  0.710217  1
  Zr  Zr2  1  0.289783  0.710496  0.710217  1
  Zr  Zr3  1  0.710217  0.710496  0.289783  1
  Zr  Zr4  1  0.291965  0.708035  0.291965  1
  Zr  Zr5  1  0.708035  0.291965  0.708035  1
  Mn  Mn6  1  0.000000  0.000000  0.500000  1
  Mn  Mn7  1  0.500000  0.500000  0.000000  1
  Mn  Mn8  1  0.500000  0.000000  0.500000  1
  Mn  Mn9  1  0.500000  0.000000  0.000000  1
  Mn  Mn10  1  0.000000  0.500000  0.500000  1
  V  V11  1  0.000000  0.000000  0.000000  1
  Co  Co12  1  0.119569  0.120089  0.640254  1
  Co  Co13  1  0.672820  0.978560  0.672820  1
  Co  Co14  1  0.359746  0.879911  0.880431  1
  Co  Co15  1  0.027103  0.321539  0.329821  1
  Co  Co16  1  0.972897  0.678461  0.670179  1
  Co  Co17  1  0.329821  0.321539  0.027103  1
  Co  Co18  1  0.670179  0.678461  0.972897  1
  Co  Co19  1  0.640254  0.120089  0.119569  1
  Co  Co20  1  0.672820  0.675800  0.672820  1
  Co  Co21  1  0.880431  0.879911  0.359746  1
  Co  Co22  1  0.123125  0.117384  0.123125  1
  Co  Co23  1  0.876875  0.363633  0.876875  1
  Co  Co24  1  0.876875  0.882616  0.876875  1
  Co  Co25  1  0.327180  0.324200  0.327180  1
  Co  Co26  1  0.123125  0.636367  0.123125  1
  Co  Co27  1  0.327180  0.021440  0.327180  1
  Os  Os28  1  0.000000  0.500000  0.000000  1
