# generated using pymatgen
data_ErTmCBr
_symmetry_space_group_name_H-M   'P 1'
_cell_length_a   3.63987400
_cell_length_b   3.63987233
_cell_length_c   13.94378600
_cell_angle_alpha   90.00000000
_cell_angle_beta   90.00000000
_cell_angle_gamma   119.99999700
_symmetry_Int_Tables_number   1
_chemical_formula_structural   ErTmCBr
_chemical_formula_sum   'Er2 Tm2 C2 Br2'
_cell_volume   159.98669054
_cell_formula_units_Z   2
loop_
 _symmetry_equiv_pos_site_id
 _symmetry_equiv_pos_as_xyz
  1  'x, y, z'
loop_
 _atom_site_type_symbol
 _atom_site_label
 _atom_site_symmetry_multiplicity
 _atom_site_fract_x
 _atom_site_fract_y
 _atom_site_fract_z
 _atom_site_occupancy
  Er  Er0  1  0.333333  0.666667  0.089652  1
  Er  Er1  1  0.666667  0.333333  0.589652  1
  Tm  Tm2  1  0.666667  0.333333  0.911286  1
  Tm  Tm3  1  0.333333  0.666667  0.411286  1
  C  C4  1  0.000000  0.000000  0.998920  1
  C  C5  1  0.000000  0.000000  0.498920  1
  Br  Br6  1  0.333333  0.666667  0.750141  1
  Br  Br7  1  0.666667  0.333333  0.250141  1
