# generated using pymatgen
data_Dy4Al4RuPt3
_symmetry_space_group_name_H-M   'P 1'
_cell_length_a   4.36801000
_cell_length_b   6.86584714
_cell_length_c   7.85598116
_cell_angle_alpha   89.71239975
_cell_angle_beta   90.00000000
_cell_angle_gamma   90.00000000
_symmetry_Int_Tables_number   1
_chemical_formula_structural   Dy4Al4RuPt3
_chemical_formula_sum   'Dy4 Al4 Ru1 Pt3'
_cell_volume   235.59860576
_cell_formula_units_Z   1
loop_
 _symmetry_equiv_pos_site_id
 _symmetry_equiv_pos_as_xyz
  1  'x, y, z'
loop_
 _atom_site_type_symbol
 _atom_site_label
 _atom_site_symmetry_multiplicity
 _atom_site_fract_x
 _atom_site_fract_y
 _atom_site_fract_z
 _atom_site_occupancy
  Dy  Dy0  1  0.250000  0.470117  0.181091  1
  Dy  Dy1  1  0.750000  0.532301  0.814790  1
  Dy  Dy2  1  0.750000  0.022962  0.679863  1
  Dy  Dy3  1  0.250000  0.966847  0.322121  1
  Al  Al4  1  0.250000  0.854868  0.936895  1
  Al  Al5  1  0.750000  0.142892  0.062814  1
  Al  Al6  1  0.750000  0.645115  0.438943  1
  Al  Al7  1  0.250000  0.361127  0.564031  1
  Ru  Ru8  1  0.250000  0.734910  0.617662  1
  Pt  Pt9  1  0.750000  0.271043  0.380404  1
  Pt  Pt10  1  0.750000  0.770476  0.118613  1
  Pt  Pt11  1  0.250000  0.227342  0.882773  1
