# generated using pymatgen
data_Tb3Dy9(TcRu)2
_symmetry_space_group_name_H-M   'P 1'
_cell_length_a   6.29566701
_cell_length_b   7.39395901
_cell_length_c   9.16548300
_cell_angle_alpha   90.00000000
_cell_angle_beta   90.00000000
_cell_angle_gamma   89.99502805
_symmetry_Int_Tables_number   1
_chemical_formula_structural   Tb3Dy9(TcRu)2
_chemical_formula_sum   'Tb3 Dy9 Tc2 Ru2'
_cell_volume   426.65234999
_cell_formula_units_Z   1
loop_
 _symmetry_equiv_pos_site_id
 _symmetry_equiv_pos_as_xyz
  1  'x, y, z'
loop_
 _atom_site_type_symbol
 _atom_site_label
 _atom_site_symmetry_multiplicity
 _atom_site_fract_x
 _atom_site_fract_y
 _atom_site_fract_z
 _atom_site_occupancy
  Tb  Tb0  1  0.875653  0.540722  0.250000  1
  Tb  Tb1  1  0.624321  0.040759  0.250000  1
  Tb  Tb2  1  0.132534  0.455945  0.750000  1
  Dy  Dy3  1  0.334568  0.676497  0.064091  1
  Dy  Dy4  1  0.165461  0.176477  0.435926  1
  Dy  Dy5  1  0.664231  0.324175  0.562711  1
  Dy  Dy6  1  0.835733  0.824206  0.937254  1
  Dy  Dy7  1  0.664231  0.324175  0.937289  1
  Dy  Dy8  1  0.835733  0.824206  0.562746  1
  Dy  Dy9  1  0.334568  0.676497  0.435909  1
  Dy  Dy10  1  0.165461  0.176477  0.064074  1
  Dy  Dy11  1  0.367419  0.955983  0.750000  1
  Tc  Tc12  1  0.037726  0.886590  0.250000  1
  Tc  Tc13  1  0.462287  0.386592  0.250000  1
  Ru  Ru14  1  0.960808  0.115303  0.750000  1
  Ru  Ru15  1  0.539267  0.615393  0.750000  1
