# generated using pymatgen
data_Cd3Fe(BrO3)8
_symmetry_space_group_name_H-M   'P 1'
_cell_length_a   5.86471251
_cell_length_b   11.00554579
_cell_length_c   11.09199644
_cell_angle_alpha   119.73723999
_cell_angle_beta   89.91483620
_cell_angle_gamma   90.55822235
_symmetry_Int_Tables_number   1
_chemical_formula_structural   Cd3Fe(BrO3)8
_chemical_formula_sum   'Cd3 Fe1 Br8 O24'
_cell_volume   621.61094201
_cell_formula_units_Z   1
loop_
 _symmetry_equiv_pos_site_id
 _symmetry_equiv_pos_as_xyz
  1  'x, y, z'
loop_
 _atom_site_type_symbol
 _atom_site_label
 _atom_site_symmetry_multiplicity
 _atom_site_fract_x
 _atom_site_fract_y
 _atom_site_fract_z
 _atom_site_occupancy
  Cd  Cd0  1  0.643508  0.235317  0.492589  1
  Cd  Cd1  1  0.141060  0.266467  0.008011  1
  Cd  Cd2  1  0.638688  0.732101  0.994315  1
  Fe  Fe3  1  0.147027  0.762486  0.508334  1
  Br  Br4  1  0.265304  0.423873  0.356201  1
  Br  Br5  1  0.774951  0.587629  0.649016  1
  Br  Br6  1  0.265168  0.914755  0.843689  1
  Br  Br7  1  0.762023  0.082527  0.146682  1
  Br  Br8  1  0.790444  0.074215  0.680210  1
  Br  Br9  1  0.280335  0.908340  0.312497  1
  Br  Br10  1  0.281126  0.411841  0.805621  1
  Br  Br11  1  0.789361  0.591494  0.202939  1
  O  O12  1  0.420533  0.886020  0.954560  1
  O  O13  1  0.916576  0.105589  0.031254  1
  O  O14  1  0.369583  0.804413  0.682785  1
  O  O15  1  0.868928  0.200477  0.304561  1
  O  O16  1  0.375116  0.314587  0.197254  1
  O  O17  1  0.877455  0.699885  0.810053  1
  O  O18  1  0.915909  0.215720  0.814219  1
  O  O19  1  0.418827  0.769984  0.184272  1
  O  O20  1  0.935238  0.931152  0.655595  1
  O  O21  1  0.418901  0.052262  0.330736  1
  O  O22  1  0.365278  0.073252  0.875417  1
  O  O23  1  0.859710  0.928215  0.124897  1
  O  O24  1  0.410351  0.270731  0.676539  1
  O  O25  1  0.932473  0.727517  0.334050  1
  O  O26  1  0.351696  0.407295  0.951556  1
  O  O27  1  0.859861  0.602149  0.060128  1
  O  O28  1  0.425737  0.553168  0.822265  1
  O  O29  1  0.919912  0.444661  0.178159  1
  O  O30  1  0.354985  0.584724  0.386927  1
  O  O31  1  0.871314  0.430381  0.620885  1
  O  O32  1  0.426434  0.397882  0.466670  1
  O  O33  1  0.933449  0.617067  0.538633  1
  O  O34  1  0.858725  0.091281  0.540699  1
  O  O35  1  0.343613  0.900546  0.457778  1
