# generated using pymatgen
data_Ba4Hf(IrO4)3
_symmetry_space_group_name_H-M   'P 1'
_cell_length_a   10.30263984
_cell_length_b   10.30263975
_cell_length_c   10.30264052
_cell_angle_alpha   33.12360588
_cell_angle_beta   33.12360998
_cell_angle_gamma   33.12359856
_symmetry_Int_Tables_number   1
_chemical_formula_structural   Ba4Hf(IrO4)3
_chemical_formula_sum   'Ba4 Hf1 Ir3 O12'
_cell_volume   290.65429694
_cell_formula_units_Z   1
loop_
 _symmetry_equiv_pos_site_id
 _symmetry_equiv_pos_as_xyz
  1  'x, y, z'
loop_
 _atom_site_type_symbol
 _atom_site_label
 _atom_site_symmetry_multiplicity
 _atom_site_fract_x
 _atom_site_fract_y
 _atom_site_fract_z
 _atom_site_occupancy
  Ba  Ba0  1  0.712996  0.712996  0.712996  1
  Ba  Ba1  1  0.287004  0.287004  0.287004  1
  Ba  Ba2  1  0.871983  0.871983  0.871983  1
  Ba  Ba3  1  0.128017  0.128017  0.128017  1
  Hf  Hf4  1  0.000000  0.000000  0.000000  1
  Ir  Ir5  1  0.412356  0.412356  0.412356  1
  Ir  Ir6  1  0.500000  0.500000  0.500000  1
  Ir  Ir7  1  0.587644  0.587644  0.587644  1
  O  O8  1  0.208396  0.208396  0.704355  1
  O  O9  1  0.704355  0.208396  0.208396  1
  O  O10  1  0.208396  0.704355  0.208396  1
  O  O11  1  0.791604  0.295645  0.791604  1
  O  O12  1  0.791604  0.791604  0.295645  1
  O  O13  1  0.295645  0.791604  0.791604  1
  O  O14  1  0.385451  0.385451  0.859550  1
  O  O15  1  0.859550  0.385451  0.385451  1
  O  O16  1  0.140450  0.614549  0.614549  1
  O  O17  1  0.614549  0.614549  0.140450  1
  O  O18  1  0.614549  0.140450  0.614549  1
  O  O19  1  0.385451  0.859550  0.385451  1
