# generated using pymatgen
data_Np2(Al3Pd)3
_symmetry_space_group_name_H-M   'P 1'
_cell_length_a   7.67216949
_cell_length_b   7.65042921
_cell_length_c   9.56418700
_cell_angle_alpha   90.00000000
_cell_angle_beta   90.00000000
_cell_angle_gamma   119.60171519
_symmetry_Int_Tables_number   1
_chemical_formula_structural   Np2(Al3Pd)3
_chemical_formula_sum   'Np4 Al18 Pd6'
_cell_volume   488.10326909
_cell_formula_units_Z   2
loop_
 _symmetry_equiv_pos_site_id
 _symmetry_equiv_pos_as_xyz
  1  'x, y, z'
loop_
 _atom_site_type_symbol
 _atom_site_label
 _atom_site_symmetry_multiplicity
 _atom_site_fract_x
 _atom_site_fract_y
 _atom_site_fract_z
 _atom_site_occupancy
  Np  Np0  1  0.995453  0.669350  0.250000  1
  Np  Np1  1  0.004547  0.330650  0.750000  1
  Np  Np2  1  0.670986  0.996836  0.250000  1
  Np  Np3  1  0.329014  0.003164  0.750000  1
  Al  Al4  1  0.127368  0.127121  0.250000  1
  Al  Al5  1  0.872632  0.872879  0.750000  1
  Al  Al6  1  0.000638  0.335815  0.074494  1
  Al  Al7  1  0.999362  0.664185  0.925506  1
  Al  Al8  1  0.999362  0.664185  0.574494  1
  Al  Al9  1  0.334315  0.999597  0.424295  1
  Al  Al10  1  0.000638  0.335815  0.425506  1
  Al  Al11  1  0.665685  0.000403  0.575705  1
  Al  Al12  1  0.665685  0.000403  0.924295  1
  Al  Al13  1  0.334315  0.999597  0.075705  1
  Al  Al14  1  0.331915  0.332311  0.559821  1
  Al  Al15  1  0.668085  0.667689  0.440179  1
  Al  Al16  1  0.668085  0.667689  0.059821  1
  Al  Al17  1  0.331915  0.332311  0.940179  1
  Al  Al18  1  0.337861  0.546789  0.250000  1
  Al  Al19  1  0.662139  0.453211  0.750000  1
  Al  Al20  1  0.547548  0.339005  0.250000  1
  Al  Al21  1  0.452452  0.660995  0.750000  1
  Pd  Pd22  1  0.668850  0.329183  0.999990  1
  Pd  Pd23  1  0.331150  0.670817  0.000010  1
  Pd  Pd24  1  0.331150  0.670817  0.499990  1
  Pd  Pd25  1  0.668850  0.329183  0.500010  1
  Pd  Pd26  1  0.000000  0.000000  0.000000  1
  Pd  Pd27  1  0.000000  0.000000  0.500000  1
