# generated using pymatgen
data_Zr10InSn6Au
_symmetry_space_group_name_H-M   'P 1'
_cell_length_a   8.80941100
_cell_length_b   8.80941149
_cell_length_c   5.97217600
_cell_angle_alpha   90.00000000
_cell_angle_beta   90.00000000
_cell_angle_gamma   120.00000190
_symmetry_Int_Tables_number   1
_chemical_formula_structural   Zr10InSn6Au
_chemical_formula_sum   'Zr10 In1 Sn6 Au1'
_cell_volume   401.38116602
_cell_formula_units_Z   1
loop_
 _symmetry_equiv_pos_site_id
 _symmetry_equiv_pos_as_xyz
  1  'x, y, z'
loop_
 _atom_site_type_symbol
 _atom_site_label
 _atom_site_symmetry_multiplicity
 _atom_site_fract_x
 _atom_site_fract_y
 _atom_site_fract_z
 _atom_site_occupancy
  Zr  Zr0  1  0.666667  0.333333  0.000000  1
  Zr  Zr1  1  0.333333  0.666667  0.000000  1
  Zr  Zr2  1  0.333333  0.666667  0.500000  1
  Zr  Zr3  1  0.666667  0.333333  0.500000  1
  Zr  Zr4  1  0.720800  0.720800  0.752877  1
  Zr  Zr5  1  0.279200  0.000000  0.752877  1
  Zr  Zr6  1  0.000000  0.279200  0.752877  1
  Zr  Zr7  1  0.279200  0.279200  0.247123  1
  Zr  Zr8  1  0.720800  0.000000  0.247123  1
  Zr  Zr9  1  0.000000  0.720800  0.247123  1
  In  In10  1  0.000000  0.000000  0.500000  1
  Sn  Sn11  1  0.381638  0.381638  0.748438  1
  Sn  Sn12  1  0.618362  0.000000  0.748438  1
  Sn  Sn13  1  0.000000  0.618362  0.748438  1
  Sn  Sn14  1  0.618362  0.618362  0.251562  1
  Sn  Sn15  1  0.381638  0.000000  0.251562  1
  Sn  Sn16  1  0.000000  0.381638  0.251562  1
  Au  Au17  1  0.000000  0.000000  0.000000  1
