# generated using pymatgen
data_HoEr5(Sc2Sn3)2
_symmetry_space_group_name_H-M   'P 1'
_cell_length_a   6.24450100
_cell_length_b   8.73791168
_cell_length_c   8.74056900
_cell_angle_alpha   120.00805765
_cell_angle_beta   89.99943113
_cell_angle_gamma   89.99903865
_symmetry_Int_Tables_number   1
_chemical_formula_structural   HoEr5(Sc2Sn3)2
_chemical_formula_sum   'Ho1 Er5 Sc4 Sn6'
_cell_volume   412.99087836
_cell_formula_units_Z   1
loop_
 _symmetry_equiv_pos_site_id
 _symmetry_equiv_pos_as_xyz
  1  'x, y, z'
loop_
 _atom_site_type_symbol
 _atom_site_label
 _atom_site_symmetry_multiplicity
 _atom_site_fract_x
 _atom_site_fract_y
 _atom_site_fract_z
 _atom_site_occupancy
  Ho  Ho0  1  0.250003  0.000074  0.761408  1
  Er  Er1  1  0.750019  0.238612  0.999968  1
  Er  Er2  1  0.749998  0.761314  0.761344  1
  Er  Er3  1  0.750001  0.999971  0.238678  1
  Er  Er4  1  0.249978  0.761338  0.999900  1
  Er  Er5  1  0.249995  0.238717  0.238599  1
  Sc  Sc6  1  0.500090  0.333288  0.666711  1
  Sc  Sc7  1  0.500066  0.666711  0.333329  1
  Sc  Sc8  1  0.999920  0.666777  0.333449  1
  Sc  Sc9  1  0.999945  0.333241  0.666604  1
  Sn  Sn10  1  0.750008  0.600345  0.000052  1
  Sn  Sn11  1  0.749973  0.399662  0.399604  1
  Sn  Sn12  1  0.749960  0.999918  0.600196  1
  Sn  Sn13  1  0.249964  0.399917  0.000258  1
  Sn  Sn14  1  0.250031  0.600187  0.600315  1
  Sn  Sn15  1  0.250043  0.999928  0.399586  1
