# generated using pymatgen
data_Y6Si11GePt8
_symmetry_space_group_name_H-M   'P 1'
_cell_length_a   4.27224200
_cell_length_b   8.58884074
_cell_length_c   12.95368984
_cell_angle_alpha   80.30874936
_cell_angle_beta   90.00000000
_cell_angle_gamma   90.00000000
_symmetry_Int_Tables_number   1
_chemical_formula_structural   Y6Si11GePt8
_chemical_formula_sum   'Y6 Si11 Ge1 Pt8'
_cell_volume   468.53442444
_cell_formula_units_Z   1
loop_
 _symmetry_equiv_pos_site_id
 _symmetry_equiv_pos_as_xyz
  1  'x, y, z'
loop_
 _atom_site_type_symbol
 _atom_site_label
 _atom_site_symmetry_multiplicity
 _atom_site_fract_x
 _atom_site_fract_y
 _atom_site_fract_z
 _atom_site_occupancy
  Y  Y0  1  0.250000  0.764167  0.439202  1
  Y  Y1  1  0.250000  0.585254  0.183816  1
  Y  Y2  1  0.750000  0.234122  0.562197  1
  Y  Y3  1  0.750000  0.415950  0.815044  1
  Y  Y4  1  0.750000  0.927157  0.816513  1
  Y  Y5  1  0.250000  0.074034  0.183273  1
  Si  Si6  1  0.750000  0.588132  0.572749  1
  Si  Si7  1  0.750000  0.127341  0.004075  1
  Si  Si8  1  0.750000  0.872138  0.575320  1
  Si  Si9  1  0.250000  0.698200  0.714745  1
  Si  Si10  1  0.750000  0.305407  0.284563  1
  Si  Si11  1  0.750000  0.807854  0.275296  1
  Si  Si12  1  0.250000  0.873471  0.995321  1
  Si  Si13  1  0.250000  0.194433  0.724126  1
  Si  Si14  1  0.250000  0.378651  0.001611  1
  Si  Si15  1  0.250000  0.115725  0.429828  1
  Si  Si16  1  0.750000  0.621808  0.997787  1
  Ge  Ge17  1  0.250000  0.405344  0.426375  1
  Pt  Pt18  1  0.750000  0.352497  0.097554  1
  Pt  Pt19  1  0.250000  0.971438  0.624159  1
  Pt  Pt20  1  0.750000  0.850410  0.087020  1
  Pt  Pt21  1  0.750000  0.030492  0.374536  1
  Pt  Pt22  1  0.250000  0.648066  0.902142  1
  Pt  Pt23  1  0.250000  0.150464  0.912479  1
  Pt  Pt24  1  0.750000  0.538674  0.372796  1
  Pt  Pt25  1  0.250000  0.468769  0.627473  1
