# generated using pymatgen
data_Ce5Tm(ThH12)2
_symmetry_space_group_name_H-M   'P 1'
_cell_length_a   6.83416900
_cell_length_b   6.83456900
_cell_length_c   6.84059600
_cell_angle_alpha   90.00000000
_cell_angle_beta   90.00000000
_cell_angle_gamma   90.00000000
_symmetry_Int_Tables_number   1
_chemical_formula_structural   Ce5Tm(ThH12)2
_chemical_formula_sum   'Ce5 Tm1 Th2 H24'
_cell_volume   319.51465951
_cell_formula_units_Z   1
loop_
 _symmetry_equiv_pos_site_id
 _symmetry_equiv_pos_as_xyz
  1  'x, y, z'
loop_
 _atom_site_type_symbol
 _atom_site_label
 _atom_site_symmetry_multiplicity
 _atom_site_fract_x
 _atom_site_fract_y
 _atom_site_fract_z
 _atom_site_occupancy
  Ce  Ce0  1  0.745807  0.000000  0.500000  1
  Ce  Ce1  1  0.999323  0.500000  0.253353  1
  Ce  Ce2  1  0.999323  0.500000  0.746647  1
  Ce  Ce3  1  0.500077  0.743298  0.000000  1
  Ce  Ce4  1  0.500077  0.256702  0.000000  1
  Tm  Tm5  1  0.501103  0.500000  0.500000  1
  Th  Th6  1  0.999115  0.000000  0.000000  1
  Th  Th7  1  0.254847  0.000000  0.500000  1
  H  H8  1  0.004358  0.153918  0.306354  1
  H  H9  1  0.496208  0.200119  0.652138  1
  H  H10  1  0.496208  0.799881  0.347862  1
  H  H11  1  0.797262  0.652637  0.500000  1
  H  H12  1  0.204635  0.654813  0.500000  1
  H  H13  1  0.347444  0.500000  0.797340  1
  H  H14  1  0.652242  0.500000  0.797380  1
  H  H15  1  0.303624  0.000000  0.155861  1
  H  H16  1  0.155554  0.303616  0.000000  1
  H  H17  1  0.844148  0.695641  0.000000  1
  H  H18  1  0.303624  0.000000  0.844139  1
  H  H19  1  0.844148  0.304359  0.000000  1
  H  H20  1  0.694124  0.000000  0.153086  1
  H  H21  1  0.694124  0.000000  0.846914  1
  H  H22  1  0.155554  0.696384  0.000000  1
  H  H23  1  0.004358  0.846082  0.693646  1
  H  H24  1  0.004358  0.153918  0.693646  1
  H  H25  1  0.004358  0.846082  0.306354  1
  H  H26  1  0.652242  0.500000  0.202620  1
  H  H27  1  0.347444  0.500000  0.202660  1
  H  H28  1  0.797262  0.347363  0.500000  1
  H  H29  1  0.204635  0.345187  0.500000  1
  H  H30  1  0.496208  0.799881  0.652138  1
  H  H31  1  0.496208  0.200119  0.347862  1
