# generated using pymatgen
data_Ca4InSb3Pt4
_symmetry_space_group_name_H-M   'P 1'
_cell_length_a   4.61123500
_cell_length_b   7.38812410
_cell_length_c   8.05268319
_cell_angle_alpha   91.05041296
_cell_angle_beta   90.00000000
_cell_angle_gamma   90.00000000
_symmetry_Int_Tables_number   1
_chemical_formula_structural   Ca4InSb3Pt4
_chemical_formula_sum   'Ca4 In1 Sb3 Pt4'
_cell_volume   274.29573954
_cell_formula_units_Z   1
loop_
 _symmetry_equiv_pos_site_id
 _symmetry_equiv_pos_as_xyz
  1  'x, y, z'
loop_
 _atom_site_type_symbol
 _atom_site_label
 _atom_site_symmetry_multiplicity
 _atom_site_fract_x
 _atom_site_fract_y
 _atom_site_fract_z
 _atom_site_occupancy
  Ca  Ca0  1  0.250000  0.013247  0.303246  1
  Ca  Ca1  1  0.250000  0.510314  0.194320  1
  Ca  Ca2  1  0.750000  0.985590  0.695466  1
  Ca  Ca3  1  0.750000  0.492649  0.805849  1
  In  In4  1  0.250000  0.682560  0.585263  1
  Sb  Sb5  1  0.750000  0.321844  0.417969  1
  Sb  Sb6  1  0.250000  0.184228  0.912684  1
  Sb  Sb7  1  0.750000  0.819985  0.086099  1
  Pt  Pt8  1  0.750000  0.204045  0.092695  1
  Pt  Pt9  1  0.750000  0.699147  0.401489  1
  Pt  Pt10  1  0.250000  0.800840  0.911858  1
  Pt  Pt11  1  0.250000  0.285552  0.593062  1
