# generated using pymatgen
data_Y9Ho11Si15Ir
_symmetry_space_group_name_H-M   'P 1'
_cell_length_a   7.38610164
_cell_length_b   7.71168268
_cell_length_c   14.60438400
_cell_angle_alpha   90.00168655
_cell_angle_beta   89.97607666
_cell_angle_gamma   90.08596279
_symmetry_Int_Tables_number   1
_chemical_formula_structural   Y9Ho11Si15Ir
_chemical_formula_sum   'Y9 Ho11 Si15 Ir1'
_cell_volume   831.85407358
_cell_formula_units_Z   1
loop_
 _symmetry_equiv_pos_site_id
 _symmetry_equiv_pos_as_xyz
  1  'x, y, z'
loop_
 _atom_site_type_symbol
 _atom_site_label
 _atom_site_symmetry_multiplicity
 _atom_site_fract_x
 _atom_site_fract_y
 _atom_site_fract_z
 _atom_site_occupancy
  Y  Y0  1  0.188977  0.324326  0.624764  1
  Y  Y1  1  0.524573  0.678208  0.595205  1
  Y  Y2  1  0.027043  0.817787  0.904169  1
  Y  Y3  1  0.473161  0.316491  0.097305  1
  Y  Y4  1  0.972493  0.183184  0.402182  1
  Y  Y5  1  0.473272  0.316530  0.402667  1
  Y  Y6  1  0.972757  0.182961  0.097647  1
  Y  Y7  1  0.524390  0.677761  0.904875  1
  Y  Y8  1  0.027213  0.817692  0.595913  1
  Ho  Ho9  1  0.674709  0.182205  0.624945  1
  Ho  Ho10  1  0.190320  0.324876  0.874625  1
  Ho  Ho11  1  0.318162  0.819996  0.123731  1
  Ho  Ho12  1  0.816903  0.677811  0.376034  1
  Ho  Ho13  1  0.318191  0.820098  0.376221  1
  Ho  Ho14  1  0.817076  0.677662  0.123863  1
  Ho  Ho15  1  0.674498  0.182213  0.875184  1
  Ho  Ho16  1  0.840536  0.510331  0.750099  1
  Ho  Ho17  1  0.356338  0.986379  0.750106  1
  Ho  Ho18  1  0.148755  0.486006  0.249956  1
  Ho  Ho19  1  0.648570  0.012462  0.250031  1
  Si  Si20  1  0.646741  0.971157  0.459763  1
  Si  Si21  1  0.147353  0.528459  0.039927  1
  Si  Si22  1  0.350531  0.026266  0.961069  1
  Si  Si23  1  0.853390  0.470722  0.538951  1
  Si  Si24  1  0.351441  0.025536  0.538983  1
  Si  Si25  1  0.854608  0.470496  0.960689  1
  Si  Si26  1  0.646566  0.971116  0.040279  1
  Si  Si27  1  0.146714  0.528813  0.459537  1
  Si  Si28  1  0.980755  0.101399  0.750398  1
  Si  Si29  1  0.521183  0.605831  0.250005  1
  Si  Si30  1  0.020012  0.892922  0.250042  1
  Si  Si31  1  0.741867  0.876357  0.750014  1
  Si  Si32  1  0.232052  0.632488  0.750151  1
  Si  Si33  1  0.267616  0.127467  0.250017  1
  Si  Si34  1  0.768062  0.371887  0.250000  1
  Ir  Ir35  1  0.483172  0.404107  0.750654  1
