# generated using pymatgen
data_Zr10InGa2Sn5
_symmetry_space_group_name_H-M   'P 1'
_cell_length_a   8.75482800
_cell_length_b   8.76843812
_cell_length_c   5.88528100
_cell_angle_alpha   90.00000000
_cell_angle_beta   90.00000000
_cell_angle_gamma   119.94866786
_symmetry_Int_Tables_number   1
_chemical_formula_structural   Zr10InGa2Sn5
_chemical_formula_sum   'Zr10 In1 Ga2 Sn5'
_cell_volume   391.46424771
_cell_formula_units_Z   1
loop_
 _symmetry_equiv_pos_site_id
 _symmetry_equiv_pos_as_xyz
  1  'x, y, z'
loop_
 _atom_site_type_symbol
 _atom_site_label
 _atom_site_symmetry_multiplicity
 _atom_site_fract_x
 _atom_site_fract_y
 _atom_site_fract_z
 _atom_site_occupancy
  Zr  Zr0  1  0.001331  0.267532  0.250000  1
  Zr  Zr1  1  0.734108  0.000000  0.750000  1
  Zr  Zr2  1  0.733800  0.732468  0.250000  1
  Zr  Zr3  1  0.666759  0.334186  0.500128  1
  Zr  Zr4  1  0.999910  0.733374  0.750000  1
  Zr  Zr5  1  0.266536  0.266626  0.750000  1
  Zr  Zr6  1  0.332572  0.665814  0.999872  1
  Zr  Zr7  1  0.666759  0.334186  0.999872  1
  Zr  Zr8  1  0.332572  0.665814  0.500128  1
  Zr  Zr9  1  0.265510  0.000000  0.250000  1
  In  In10  1  0.613906  0.000000  0.250000  1
  Ga  Ga11  1  0.999134  0.000000  0.000636  1
  Ga  Ga12  1  0.999134  0.000000  0.499364  1
  Sn  Sn13  1  0.388049  0.000000  0.750000  1
  Sn  Sn14  1  0.387489  0.387488  0.250000  1
  Sn  Sn15  1  0.000001  0.612512  0.250000  1
  Sn  Sn16  1  0.999810  0.387189  0.750000  1
  Sn  Sn17  1  0.612621  0.612811  0.750000  1
