# generated using pymatgen
data_La2Ho4CoI10
_symmetry_space_group_name_H-M   'P 1'
_cell_length_a   7.80917854
_cell_length_b   9.82791756
_cell_length_c   9.77517073
_cell_angle_alpha   106.71800579
_cell_angle_beta   95.68278725
_cell_angle_gamma   105.47429708
_symmetry_Int_Tables_number   1
_chemical_formula_structural   La2Ho4CoI10
_chemical_formula_sum   'La2 Ho4 Co1 I10'
_cell_volume   679.79632641
_cell_formula_units_Z   1
loop_
 _symmetry_equiv_pos_site_id
 _symmetry_equiv_pos_as_xyz
  1  'x, y, z'
loop_
 _atom_site_type_symbol
 _atom_site_label
 _atom_site_symmetry_multiplicity
 _atom_site_fract_x
 _atom_site_fract_y
 _atom_site_fract_z
 _atom_site_occupancy
  La  La0  1  0.885840  0.957391  0.229696  1
  La  La1  1  0.114160  0.042609  0.770304  1
  Ho  Ho2  1  0.028687  0.718948  0.915037  1
  Ho  Ho3  1  0.971313  0.281052  0.084963  1
  Ho  Ho4  1  0.658743  0.877214  0.839680  1
  Ho  Ho5  1  0.341257  0.122786  0.160320  1
  Co  Co6  1  0.000000  0.000000  0.000000  1
  I  I7  1  0.653366  0.554798  0.732063  1
  I  I8  1  0.346634  0.445202  0.267937  1
  I  I9  1  0.731149  0.910713  0.543279  1
  I  I10  1  0.268851  0.089287  0.456721  1
  I  I11  1  0.081969  0.379484  0.824738  1
  I  I12  1  0.918031  0.620516  0.175262  1
  I  I13  1  0.445736  0.816902  0.088659  1
  I  I14  1  0.554264  0.183098  0.911341  1
  I  I15  1  0.229317  0.738158  0.660078  1
  I  I16  1  0.770683  0.261842  0.339922  1
