# generated using pymatgen
data_LaTb2YBe8(B5O11)4
_symmetry_space_group_name_H-M   'P 1'
_cell_length_a   4.36601805
_cell_length_b   6.72378000
_cell_length_c   25.82894900
_cell_angle_alpha   90.00000000
_cell_angle_beta   90.00905495
_cell_angle_gamma   90.00000000
_symmetry_Int_Tables_number   1
_chemical_formula_structural   LaTb2YBe8(B5O11)4
_chemical_formula_sum   'La1 Tb2 Y1 Be8 B20 O44'
_cell_volume   758.23835933
_cell_formula_units_Z   1
loop_
 _symmetry_equiv_pos_site_id
 _symmetry_equiv_pos_as_xyz
  1  'x, y, z'
loop_
 _atom_site_type_symbol
 _atom_site_label
 _atom_site_symmetry_multiplicity
 _atom_site_fract_x
 _atom_site_fract_y
 _atom_site_fract_z
 _atom_site_occupancy
  La  La0  1  0.349050  0.872110  0.580748  1
  Tb  Tb1  1  0.865375  0.367738  0.920242  1
  Tb  Tb2  1  0.134860  0.867443  0.080728  1
  Y  Y3  1  0.637144  0.368173  0.418138  1
  Be  Be4  1  0.166363  0.452188  0.792132  1
  Be  Be5  1  0.832567  0.952449  0.208814  1
  Be  Be6  1  0.668242  0.952709  0.712133  1
  Be  Be7  1  0.332244  0.452460  0.289609  1
  Be  Be8  1  0.663959  0.229351  0.794719  1
  Be  Be9  1  0.335835  0.729360  0.206543  1
  Be  Be10  1  0.163029  0.728823  0.709624  1
  Be  Be11  1  0.834022  0.229943  0.291477  1
  B  B12  1  0.375175  0.039542  0.870753  1
  B  B13  1  0.625467  0.539412  0.130320  1
  B  B14  1  0.876546  0.537874  0.632403  1
  B  B15  1  0.120068  0.040022  0.366902  1
  B  B16  1  0.148068  0.709550  0.871601  1
  B  B17  1  0.852455  0.209473  0.129293  1
  B  B18  1  0.654578  0.210898  0.632225  1
  B  B19  1  0.348897  0.709320  0.368752  1
  B  B20  1  0.025955  0.938083  0.943963  1
  B  B21  1  0.973544  0.438053  0.056883  1
  B  B22  1  0.540514  0.433324  0.556897  1
  B  B23  1  0.468499  0.942604  0.439435  1
  B  B24  1  0.537823  0.957757  0.998299  1
  B  B25  1  0.461667  0.457984  0.002510  1
  B  B26  1  0.046632  0.451383  0.501755  1
  B  B27  1  0.955366  0.961946  0.492850  1
  B  B28  1  0.178812  0.087764  0.753967  1
  B  B29  1  0.821386  0.588940  0.247608  1
  B  B30  1  0.677402  0.587886  0.750083  1
  B  B31  1  0.320802  0.088921  0.250521  1
  O  O32  1  0.354170  0.846079  0.850854  1
  O  O33  1  0.647072  0.346007  0.150160  1
  O  O34  1  0.857446  0.347274  0.653280  1
  O  O35  1  0.140311  0.844645  0.348030  1
  O  O36  1  0.629755  0.925454  0.047576  1
  O  O37  1  0.370026  0.425826  0.953190  1
  O  O38  1  0.134244  0.425199  0.451946  1
  O  O39  1  0.855655  0.927015  0.541537  1
  O  O40  1  0.994417  0.744939  0.917940  1
  O  O41  1  0.005329  0.244870  0.082852  1
  O  O42  1  0.509126  0.244385  0.584909  1
  O  O43  1  0.505549  0.747936  0.414608  1
  O  O44  1  0.221488  0.926687  0.990975  1
  O  O45  1  0.777942  0.426736  0.009857  1
  O  O46  1  0.730694  0.419263  0.509472  1
  O  O47  1  0.269212  0.930848  0.485661  1
  O  O48  1  0.156352  0.086807  0.908268  1
  O  O49  1  0.843329  0.586749  0.092595  1
  O  O50  1  0.674306  0.582273  0.592147  1
  O  O51  1  0.341166  0.090345  0.403543  1
  O  O52  1  0.087250  0.528247  0.850429  1
  O  O53  1  0.913047  0.028133  0.150421  1
  O  O54  1  0.595416  0.032193  0.654215  1
  O  O55  1  0.409754  0.526740  0.348281  1
  O  O56  1  0.579267  0.179188  0.855086  1
  O  O57  1  0.420991  0.678579  0.146075  1
  O  O58  1  0.072671  0.678345  0.649658  1
  O  O59  1  0.914644  0.179049  0.351599  1
  O  O60  1  0.723080  0.017813  0.957557  1
  O  O61  1  0.276275  0.518015  0.043217  1
  O  O62  1  0.233495  0.506694  0.542796  1
  O  O63  1  0.769641  0.026492  0.452775  1
  O  O64  1  0.028445  0.224363  0.784864  1
  O  O65  1  0.971081  0.724587  0.216281  1
  O  O66  1  0.527973  0.724273  0.718865  1
  O  O67  1  0.470190  0.225312  0.281545  1
  O  O68  1  0.493043  0.086380  0.754359  1
  O  O69  1  0.506923  0.588427  0.247524  1
  O  O70  1  0.991711  0.586909  0.750067  1
  O  O71  1  0.006431  0.087598  0.250917  1
  O  O72  1  0.028646  0.952913  0.723325  1
  O  O73  1  0.971726  0.454098  0.278195  1
  O  O74  1  0.526803  0.453211  0.780722  1
  O  O75  1  0.471563  0.954063  0.219901  1
