# generated using pymatgen
data_Sc6Zn19AsPt4
_symmetry_space_group_name_H-M   'P 1'
_cell_length_a   8.82763033
_cell_length_b   8.82763297
_cell_length_c   8.82763410
_cell_angle_alpha   59.90820363
_cell_angle_beta   59.90821311
_cell_angle_gamma   59.90823950
_symmetry_Int_Tables_number   1
_chemical_formula_structural   Sc6Zn19AsPt4
_chemical_formula_sum   'Sc6 Zn19 As1 Pt4'
_cell_volume   485.41427173
_cell_formula_units_Z   1
loop_
 _symmetry_equiv_pos_site_id
 _symmetry_equiv_pos_as_xyz
  1  'x, y, z'
loop_
 _atom_site_type_symbol
 _atom_site_label
 _atom_site_symmetry_multiplicity
 _atom_site_fract_x
 _atom_site_fract_y
 _atom_site_fract_z
 _atom_site_occupancy
  Sc  Sc0  1  0.711021  0.284397  0.284398  1
  Sc  Sc1  1  0.288979  0.715603  0.715602  1
  Sc  Sc2  1  0.284397  0.711020  0.284399  1
  Sc  Sc3  1  0.715603  0.288980  0.715601  1
  Sc  Sc4  1  0.284397  0.284398  0.711020  1
  Sc  Sc5  1  0.715603  0.715602  0.288980  1
  Zn  Zn6  1  0.121688  0.121688  0.121688  1
  Zn  Zn7  1  0.878312  0.878312  0.878312  1
  Zn  Zn8  1  0.123064  0.123064  0.632285  1
  Zn  Zn9  1  0.123065  0.632285  0.123064  1
  Zn  Zn10  1  0.876936  0.876936  0.367715  1
  Zn  Zn11  1  0.876935  0.367715  0.876936  1
  Zn  Zn12  1  0.632285  0.123065  0.123064  1
  Zn  Zn13  1  0.367715  0.876935  0.876936  1
  Zn  Zn14  1  0.500000  0.000000  0.000000  1
  Zn  Zn15  1  0.000000  0.500000  0.000000  1
  Zn  Zn16  1  0.000000  0.000000  0.500000  1
  Zn  Zn17  1  0.335569  0.335569  0.335568  1
  Zn  Zn18  1  0.664431  0.664431  0.664432  1
  Zn  Zn19  1  0.336203  0.336203  0.986963  1
  Zn  Zn20  1  0.336203  0.986964  0.336203  1
  Zn  Zn21  1  0.663797  0.663797  0.013037  1
  Zn  Zn22  1  0.663797  0.013036  0.663797  1
  Zn  Zn23  1  0.986964  0.336203  0.336203  1
  Zn  Zn24  1  0.013036  0.663797  0.663797  1
  As  As25  1  0.500000  0.500000  0.500000  1
  Pt  Pt26  1  0.000000  0.500000  0.500000  1
  Pt  Pt27  1  0.500000  0.000000  0.500000  1
  Pt  Pt28  1  0.500000  0.500000  0.000000  1
  Pt  Pt29  1  0.000000  0.000000  0.000000  1
