# generated using pymatgen
data_Pr2Si2Os2C
_symmetry_space_group_name_H-M   'P 1'
_cell_length_a   5.98644411
_cell_length_b   5.98644399
_cell_length_c   7.10095740
_cell_angle_alpha   125.55056432
_cell_angle_beta   125.55056130
_cell_angle_gamma   40.64749099
_symmetry_Int_Tables_number   1
_chemical_formula_structural   Pr2Si2Os2C
_chemical_formula_sum   'Pr2 Si2 Os2 C1'
_cell_volume   130.06039685
_cell_formula_units_Z   1
loop_
 _symmetry_equiv_pos_site_id
 _symmetry_equiv_pos_as_xyz
  1  'x, y, z'
loop_
 _atom_site_type_symbol
 _atom_site_label
 _atom_site_symmetry_multiplicity
 _atom_site_fract_x
 _atom_site_fract_y
 _atom_site_fract_z
 _atom_site_occupancy
  Pr  Pr0  1  0.563216  0.563216  0.303486  1
  Pr  Pr1  1  0.436784  0.436784  0.696512  1
  Si  Si2  1  0.832632  0.832632  0.277931  1
  Si  Si3  1  0.167368  0.167368  0.722069  1
  Os  Os4  1  0.201312  0.201312  0.096034  1
  Os  Os5  1  0.798689  0.798689  0.903966  1
  C  C6  1  0.000000  0.000000  0.000000  1
