# generated using pymatgen
data_Tb10Pr6Cd4TcPt3
_symmetry_space_group_name_H-M   'P 1'
_cell_length_a   9.88213548
_cell_length_b   9.88213515
_cell_length_c   9.88213497
_cell_angle_alpha   59.52280749
_cell_angle_beta   59.52280961
_cell_angle_gamma   59.52280348
_symmetry_Int_Tables_number   1
_chemical_formula_structural   Tb10Pr6Cd4TcPt3
_chemical_formula_sum   'Tb10 Pr6 Cd4 Tc1 Pt3'
_cell_volume   674.99262318
_cell_formula_units_Z   1
loop_
 _symmetry_equiv_pos_site_id
 _symmetry_equiv_pos_as_xyz
  1  'x, y, z'
loop_
 _atom_site_type_symbol
 _atom_site_label
 _atom_site_symmetry_multiplicity
 _atom_site_fract_x
 _atom_site_fract_y
 _atom_site_fract_z
 _atom_site_occupancy
  Tb  Tb0  1  0.351160  0.351160  0.351160  1
  Tb  Tb1  1  0.347769  0.347769  0.955034  1
  Tb  Tb2  1  0.347769  0.955034  0.347769  1
  Tb  Tb3  1  0.955034  0.347769  0.347769  1
  Tb  Tb4  1  0.817223  0.186229  0.186229  1
  Tb  Tb5  1  0.185516  0.810949  0.810949  1
  Tb  Tb6  1  0.186229  0.817223  0.186229  1
  Tb  Tb7  1  0.810949  0.185516  0.810949  1
  Tb  Tb8  1  0.186229  0.186229  0.817223  1
  Tb  Tb9  1  0.810949  0.810949  0.185516  1
  Pr  Pr10  1  0.937792  0.561875  0.561875  1
  Pr  Pr11  1  0.553657  0.940900  0.940900  1
  Pr  Pr12  1  0.561875  0.937792  0.561875  1
  Pr  Pr13  1  0.940900  0.553657  0.940900  1
  Pr  Pr14  1  0.561875  0.561875  0.937792  1
  Pr  Pr15  1  0.940900  0.940900  0.553657  1
  Cd  Cd16  1  0.579027  0.579027  0.579027  1
  Cd  Cd17  1  0.579379  0.579379  0.260275  1
  Cd  Cd18  1  0.579379  0.260275  0.579379  1
  Cd  Cd19  1  0.260275  0.579379  0.579379  1
  Tc  Tc20  1  0.142871  0.142871  0.142871  1
  Pt  Pt21  1  0.144437  0.144437  0.574368  1
  Pt  Pt22  1  0.144437  0.574368  0.144437  1
  Pt  Pt23  1  0.574368  0.144437  0.144437  1
