# generated using pymatgen
data_CeNdTm2(NiSn)4
_symmetry_space_group_name_H-M   'P 1'
_cell_length_a   4.51874900
_cell_length_b   7.21035143
_cell_length_c   7.65163400
_cell_angle_alpha   90.02164109
_cell_angle_beta   90.00000000
_cell_angle_gamma   90.00000000
_symmetry_Int_Tables_number   1
_chemical_formula_structural   CeNdTm2(NiSn)4
_chemical_formula_sum   'Ce1 Nd1 Tm2 Ni4 Sn4'
_cell_volume   249.30374850
_cell_formula_units_Z   1
loop_
 _symmetry_equiv_pos_site_id
 _symmetry_equiv_pos_as_xyz
  1  'x, y, z'
loop_
 _atom_site_type_symbol
 _atom_site_label
 _atom_site_symmetry_multiplicity
 _atom_site_fract_x
 _atom_site_fract_y
 _atom_site_fract_z
 _atom_site_occupancy
  Ce  Ce0  1  0.250000  0.985838  0.303075  1
  Nd  Nd1  1  0.250000  0.487025  0.193830  1
  Tm  Tm2  1  0.750000  0.018152  0.703589  1
  Tm  Tm3  1  0.750000  0.517291  0.796561  1
  Ni  Ni4  1  0.250000  0.197056  0.911298  1
  Ni  Ni5  1  0.250000  0.700384  0.586121  1
  Ni  Ni6  1  0.750000  0.799375  0.082055  1
  Ni  Ni7  1  0.750000  0.290245  0.423423  1
  Sn  Sn8  1  0.250000  0.315500  0.591556  1
  Sn  Sn9  1  0.250000  0.816170  0.907343  1
  Sn  Sn10  1  0.750000  0.688485  0.417443  1
  Sn  Sn11  1  0.750000  0.184482  0.083706  1
