# generated using pymatgen
data_Ac7Pr(InSi2)4
_symmetry_space_group_name_H-M   'P 1'
_cell_length_a   4.55554900
_cell_length_b   8.00225590
_cell_length_c   15.29713401
_cell_angle_alpha   90.21764362
_cell_angle_beta   90.00000000
_cell_angle_gamma   90.00000000
_symmetry_Int_Tables_number   1
_chemical_formula_structural   Ac7Pr(InSi2)4
_chemical_formula_sum   'Ac7 Pr1 In4 Si8'
_cell_volume   557.64793119
_cell_formula_units_Z   1
loop_
 _symmetry_equiv_pos_site_id
 _symmetry_equiv_pos_as_xyz
  1  'x, y, z'
loop_
 _atom_site_type_symbol
 _atom_site_label
 _atom_site_symmetry_multiplicity
 _atom_site_fract_x
 _atom_site_fract_y
 _atom_site_fract_z
 _atom_site_occupancy
  Ac  Ac0  1  0.500000  0.746115  0.034011  1
  Ac  Ac1  1  0.500000  0.246085  0.961036  1
  Ac  Ac2  1  0.500000  0.253086  0.468981  1
  Ac  Ac3  1  0.500000  0.754060  0.536020  1
  Ac  Ac4  1  0.500000  0.617899  0.283549  1
  Ac  Ac5  1  0.500000  0.385519  0.719554  1
  Ac  Ac6  1  0.500000  0.118510  0.215140  1
  Pr  Pr7  1  0.500000  0.883607  0.783508  1
  In  In8  1  0.000000  0.938908  0.375120  1
  In  In9  1  0.000000  0.051646  0.631634  1
  In  In10  1  0.000000  0.438120  0.124502  1
  In  In11  1  0.000000  0.575883  0.872831  1
  Si  Si12  1  0.000000  0.551978  0.425953  1
  Si  Si13  1  0.000000  0.459763  0.578472  1
  Si  Si14  1  0.000000  0.044507  0.070501  1
  Si  Si15  1  0.000000  0.937438  0.919480  1
  Si  Si16  1  0.000000  0.829833  0.182329  1
  Si  Si17  1  0.000000  0.154596  0.811865  1
  Si  Si18  1  0.000000  0.329328  0.318556  1
  Si  Si19  1  0.000000  0.683118  0.686961  1
