# generated using pymatgen
data_Th10CuBi6As
_symmetry_space_group_name_H-M   'P 1'
_cell_length_a   6.55943901
_cell_length_b   9.66181807
_cell_length_c   9.66219601
_cell_angle_alpha   119.99872330
_cell_angle_beta   90.00087769
_cell_angle_gamma   89.99825303
_symmetry_Int_Tables_number   1
_chemical_formula_structural   Th10CuBi6As
_chemical_formula_sum   'Th10 Cu1 Bi6 As1'
_cell_volume   530.31952309
_cell_formula_units_Z   1
loop_
 _symmetry_equiv_pos_site_id
 _symmetry_equiv_pos_as_xyz
  1  'x, y, z'
loop_
 _atom_site_type_symbol
 _atom_site_label
 _atom_site_symmetry_multiplicity
 _atom_site_fract_x
 _atom_site_fract_y
 _atom_site_fract_z
 _atom_site_occupancy
  Th  Th0  1  0.500001  0.333331  0.666658  1
  Th  Th1  1  0.500001  0.666673  0.333342  1
  Th  Th2  1  0.000001  0.666670  0.333337  1
  Th  Th3  1  0.000001  0.333333  0.666663  1
  Th  Th4  1  0.754171  0.258828  0.000000  1
  Th  Th5  1  0.754148  0.741140  0.741182  1
  Th  Th6  1  0.754148  0.999958  0.258818  1
  Th  Th7  1  0.245821  0.741174  0.000000  1
  Th  Th8  1  0.245856  0.258858  0.258819  1
  Th  Th9  1  0.245856  0.000039  0.741181  1
  Cu  Cu10  1  0.999971  0.000004  0.000000  1
  Bi  Bi11  1  0.751547  0.611944  0.000000  1
  Bi  Bi12  1  0.751586  0.387961  0.387990  1
  Bi  Bi13  1  0.751586  0.999973  0.612010  1
  Bi  Bi14  1  0.248455  0.388051  0.000000  1
  Bi  Bi15  1  0.248427  0.612040  0.612010  1
  Bi  Bi16  1  0.248427  0.000029  0.387990  1
  As  As17  1  0.499998  0.999999  0.000000  1
