# generated using pymatgen
data_Sc20CuNi7
_symmetry_space_group_name_H-M   'P 1'
_cell_length_a   8.57041300
_cell_length_b   8.57041403
_cell_length_c   8.53709600
_cell_angle_alpha   90.00000000
_cell_angle_beta   90.00000000
_cell_angle_gamma   119.95618586
_symmetry_Int_Tables_number   1
_chemical_formula_structural   Sc20CuNi7
_chemical_formula_sum   'Sc20 Cu1 Ni7'
_cell_volume   543.29526756
_cell_formula_units_Z   1
loop_
 _symmetry_equiv_pos_site_id
 _symmetry_equiv_pos_as_xyz
  1  'x, y, z'
loop_
 _atom_site_type_symbol
 _atom_site_label
 _atom_site_symmetry_multiplicity
 _atom_site_fract_x
 _atom_site_fract_y
 _atom_site_fract_z
 _atom_site_occupancy
  Sc  Sc0  1  0.001718  0.998282  0.509063  1
  Sc  Sc1  1  0.001718  0.998282  0.990937  1
  Sc  Sc2  1  0.541989  0.458011  0.250000  1
  Sc  Sc3  1  0.537402  0.086359  0.250000  1
  Sc  Sc4  1  0.913641  0.462598  0.250000  1
  Sc  Sc5  1  0.457300  0.542700  0.750000  1
  Sc  Sc6  1  0.456449  0.914730  0.750000  1
  Sc  Sc7  1  0.085270  0.543551  0.750000  1
  Sc  Sc8  1  0.204224  0.795776  0.442788  1
  Sc  Sc9  1  0.204348  0.408187  0.443900  1
  Sc  Sc10  1  0.591813  0.795652  0.443900  1
  Sc  Sc11  1  0.795142  0.204858  0.559710  1
  Sc  Sc12  1  0.794985  0.590968  0.556709  1
  Sc  Sc13  1  0.409032  0.205015  0.556709  1
  Sc  Sc14  1  0.795142  0.204858  0.940290  1
  Sc  Sc15  1  0.794985  0.590968  0.943291  1
  Sc  Sc16  1  0.409032  0.205015  0.943291  1
  Sc  Sc17  1  0.204224  0.795776  0.057212  1
  Sc  Sc18  1  0.204348  0.408187  0.056100  1
  Sc  Sc19  1  0.591813  0.795652  0.056100  1
  Cu  Cu20  1  0.887273  0.112727  0.250000  1
  Ni  Ni21  1  0.885213  0.766524  0.250000  1
  Ni  Ni22  1  0.233476  0.114787  0.250000  1
  Ni  Ni23  1  0.118901  0.881099  0.750000  1
  Ni  Ni24  1  0.117154  0.236568  0.750000  1
  Ni  Ni25  1  0.763432  0.882846  0.750000  1
  Ni  Ni26  1  0.333994  0.666006  0.250000  1
  Ni  Ni27  1  0.665983  0.334017  0.750000  1
