# generated using pymatgen
data_Cd3Sn(IO6)2
_symmetry_space_group_name_H-M   'P 1'
_cell_length_a   4.95093877
_cell_length_b   4.94916636
_cell_length_c   9.85859900
_cell_angle_alpha   90.00000000
_cell_angle_beta   90.00000000
_cell_angle_gamma   90.23673878
_symmetry_Int_Tables_number   1
_chemical_formula_structural   Cd3Sn(IO6)2
_chemical_formula_sum   'Cd3 Sn1 I2 O12'
_cell_volume   241.56338255
_cell_formula_units_Z   1
loop_
 _symmetry_equiv_pos_site_id
 _symmetry_equiv_pos_as_xyz
  1  'x, y, z'
loop_
 _atom_site_type_symbol
 _atom_site_label
 _atom_site_symmetry_multiplicity
 _atom_site_fract_x
 _atom_site_fract_y
 _atom_site_fract_z
 _atom_site_occupancy
  Cd  Cd0  1  0.500000  0.500000  0.159095  1
  Cd  Cd1  1  0.000000  0.000000  0.671222  1
  Cd  Cd2  1  0.500000  0.500000  0.834725  1
  Sn  Sn3  1  0.000000  0.000000  0.334995  1
  I  I4  1  0.500000  0.500000  0.493934  1
  I  I5  1  0.000000  0.000000  0.003548  1
  O  O6  1  0.681081  0.681530  0.633258  1
  O  O7  1  0.318919  0.318470  0.633258  1
  O  O8  1  0.814887  0.185266  0.863958  1
  O  O9  1  0.185113  0.814734  0.863958  1
  O  O10  1  0.308990  0.308795  0.350177  1
  O  O11  1  0.691010  0.691205  0.350177  1
  O  O12  1  0.177511  0.822251  0.163539  1
  O  O13  1  0.822489  0.177749  0.163539  1
  O  O14  1  0.732426  0.732466  0.004914  1
  O  O15  1  0.267574  0.267534  0.004914  1
  O  O16  1  0.782403  0.217801  0.485394  1
  O  O17  1  0.217597  0.782199  0.485394  1
