# generated using pymatgen
data_Sm(HoSi2)5
_symmetry_space_group_name_H-M   'P 1'
_cell_length_a   6.65904016
_cell_length_b   6.65903890
_cell_length_c   8.24899000
_cell_angle_alpha   89.98756691
_cell_angle_beta   90.01243308
_cell_angle_gamma   119.97808305
_symmetry_Int_Tables_number   1
_chemical_formula_structural   Sm(HoSi2)5
_chemical_formula_sum   'Sm1 Ho5 Si10'
_cell_volume   316.84762216
_cell_formula_units_Z   1
loop_
 _symmetry_equiv_pos_site_id
 _symmetry_equiv_pos_as_xyz
  1  'x, y, z'
loop_
 _atom_site_type_symbol
 _atom_site_label
 _atom_site_symmetry_multiplicity
 _atom_site_fract_x
 _atom_site_fract_y
 _atom_site_fract_z
 _atom_site_occupancy
  Sm  Sm0  1  0.669633  0.669633  0.500000  1
  Ho  Ho1  1  0.330845  0.999653  0.999968  1
  Ho  Ho2  1  0.330853  0.000106  0.500091  1
  Ho  Ho3  1  0.000106  0.330853  0.499909  1
  Ho  Ho4  1  0.999653  0.330845  0.000032  1
  Ho  Ho5  1  0.668757  0.668757  0.000000  1
  Si  Si6  1  0.379723  0.329416  0.247897  1
  Si  Si7  1  0.668661  0.051293  0.249109  1
  Si  Si8  1  0.951279  0.618611  0.247596  1
  Si  Si9  1  0.618611  0.951279  0.752404  1
  Si  Si10  1  0.000668  0.000569  0.248138  1
  Si  Si11  1  0.666834  0.333101  0.751540  1
  Si  Si12  1  0.051293  0.668661  0.750891  1
  Si  Si13  1  0.329416  0.379723  0.752103  1
  Si  Si14  1  0.333101  0.666834  0.248460  1
  Si  Si15  1  0.000569  0.000668  0.751862  1
