# generated using pymatgen
data_MnV2CoP2
_symmetry_space_group_name_H-M   'P 1'
_cell_length_a   3.49495900
_cell_length_b   5.90705700
_cell_length_c   6.74002700
_cell_angle_alpha   90.00000000
_cell_angle_beta   90.00000000
_cell_angle_gamma   90.00000000
_symmetry_Int_Tables_number   1
_chemical_formula_structural   MnV2CoP2
_chemical_formula_sum   'Mn2 V4 Co2 P4'
_cell_volume   139.14733187
_cell_formula_units_Z   2
loop_
 _symmetry_equiv_pos_site_id
 _symmetry_equiv_pos_as_xyz
  1  'x, y, z'
loop_
 _atom_site_type_symbol
 _atom_site_label
 _atom_site_symmetry_multiplicity
 _atom_site_fract_x
 _atom_site_fract_y
 _atom_site_fract_z
 _atom_site_occupancy
  Mn  Mn0  1  0.250000  0.140747  0.558883  1
  Mn  Mn1  1  0.250000  0.640747  0.941117  1
  V  V2  1  0.250000  0.027949  0.174624  1
  V  V3  1  0.250000  0.527949  0.325376  1
  V  V4  1  0.750000  0.974510  0.828321  1
  V  V5  1  0.750000  0.474510  0.671679  1
  Co  Co6  1  0.750000  0.853338  0.436742  1
  Co  Co7  1  0.750000  0.353338  0.063258  1
  P  P8  1  0.250000  0.770080  0.626792  1
  P  P9  1  0.250000  0.270080  0.873208  1
  P  P10  1  0.750000  0.233375  0.375264  1
  P  P11  1  0.750000  0.733375  0.124736  1
