# generated using pymatgen
data_Na4TcPdCl12
_symmetry_space_group_name_H-M   'P 1'
_cell_length_a   7.00547919
_cell_length_b   6.76687502
_cell_length_c   11.75356800
_cell_angle_alpha   54.68451260
_cell_angle_beta   90.16539827
_cell_angle_gamma   89.85538541
_symmetry_Int_Tables_number   1
_chemical_formula_structural   Na4TcPdCl12
_chemical_formula_sum   'Na4 Tc1 Pd1 Cl12'
_cell_volume   454.64081648
_cell_formula_units_Z   1
loop_
 _symmetry_equiv_pos_site_id
 _symmetry_equiv_pos_as_xyz
  1  'x, y, z'
loop_
 _atom_site_type_symbol
 _atom_site_label
 _atom_site_symmetry_multiplicity
 _atom_site_fract_x
 _atom_site_fract_y
 _atom_site_fract_z
 _atom_site_occupancy
  Na  Na0  1  0.423397  0.740967  0.248767  1
  Na  Na1  1  0.924257  0.263637  0.246963  1
  Na  Na2  1  0.075743  0.736363  0.753037  1
  Na  Na3  1  0.576603  0.259033  0.751233  1
  Tc  Tc4  1  0.500000  0.000000  0.500000  1
  Pd  Pd5  1  0.000000  0.000000  0.000000  1
  Cl  Cl6  1  0.825101  0.341782  0.946632  1
  Cl  Cl7  1  0.525627  0.140607  0.262559  1
  Cl  Cl8  1  0.474373  0.859393  0.737441  1
  Cl  Cl9  1  0.286787  0.216061  0.950170  1
  Cl  Cl10  1  0.325862  0.656346  0.551871  1
  Cl  Cl11  1  0.208819  0.216692  0.450364  1
  Cl  Cl12  1  0.174899  0.658218  0.053368  1
  Cl  Cl13  1  0.791181  0.783308  0.549636  1
  Cl  Cl14  1  0.713213  0.783939  0.049830  1
  Cl  Cl15  1  0.026934  0.864630  0.234534  1
  Cl  Cl16  1  0.973066  0.135370  0.765466  1
  Cl  Cl17  1  0.674138  0.343654  0.448129  1
