# generated using pymatgen
data_Sm3Y9Si11Ni
_symmetry_space_group_name_H-M   'P 1'
_cell_length_a   3.88121300
_cell_length_b   5.75157916
_cell_length_c   23.94426804
_cell_angle_alpha   82.84612435
_cell_angle_beta   90.00000000
_cell_angle_gamma   90.00000000
_symmetry_Int_Tables_number   1
_chemical_formula_structural   Sm3Y9Si11Ni
_chemical_formula_sum   'Sm3 Y9 Si11 Ni1'
_cell_volume   530.34936472
_cell_formula_units_Z   1
loop_
 _symmetry_equiv_pos_site_id
 _symmetry_equiv_pos_as_xyz
  1  'x, y, z'
loop_
 _atom_site_type_symbol
 _atom_site_label
 _atom_site_symmetry_multiplicity
 _atom_site_fract_x
 _atom_site_fract_y
 _atom_site_fract_z
 _atom_site_occupancy
  Sm  Sm0  1  0.500000  0.082728  0.058971  1
  Sm  Sm1  1  0.500000  0.089186  0.566280  1
  Sm  Sm2  1  0.000000  0.924975  0.440113  1
  Y  Y3  1  0.000000  0.916744  0.938707  1
  Y  Y4  1  0.500000  0.449802  0.392961  1
  Y  Y5  1  0.500000  0.440829  0.892248  1
  Y  Y6  1  0.000000  0.556292  0.105924  1
  Y  Y7  1  0.000000  0.556878  0.609219  1
  Y  Y8  1  0.500000  0.256843  0.225991  1
  Y  Y9  1  0.500000  0.244388  0.722906  1
  Y  Y10  1  0.000000  0.746653  0.273209  1
  Y  Y11  1  0.000000  0.736077  0.773792  1
  Si  Si12  1  0.500000  0.622413  0.010532  1
  Si  Si13  1  0.500000  0.622869  0.513414  1
  Si  Si14  1  0.000000  0.385419  0.488833  1
  Si  Si15  1  0.000000  0.381048  0.985671  1
  Si  Si16  1  0.500000  0.770068  0.179248  1
  Si  Si17  1  0.500000  0.776782  0.680192  1
  Si  Si18  1  0.000000  0.234407  0.319953  1
  Si  Si19  1  0.000000  0.221534  0.819148  1
  Si  Si20  1  0.500000  0.962897  0.344549  1
  Si  Si21  1  0.500000  0.956017  0.844652  1
  Si  Si22  1  0.000000  0.040741  0.154580  1
  Ni  Ni23  1  0.000000  0.024409  0.658902  1
