# generated using pymatgen
data_NpU3B16
_symmetry_space_group_name_H-M   'P 1'
_cell_length_a   7.03493403
_cell_length_b   7.03493403
_cell_length_c   3.96429600
_cell_angle_alpha   90.00000000
_cell_angle_beta   90.00000000
_cell_angle_gamma   89.99012891
_symmetry_Int_Tables_number   1
_chemical_formula_structural   NpU3B16
_chemical_formula_sum   'Np1 U3 B16'
_cell_volume   196.19418254
_cell_formula_units_Z   1
loop_
 _symmetry_equiv_pos_site_id
 _symmetry_equiv_pos_as_xyz
  1  'x, y, z'
loop_
 _atom_site_type_symbol
 _atom_site_label
 _atom_site_symmetry_multiplicity
 _atom_site_fract_x
 _atom_site_fract_y
 _atom_site_fract_z
 _atom_site_occupancy
  Np  Np0  1  0.809955  0.309955  0.000000  1
  U  U1  1  0.310049  0.189573  0.000000  1
  U  U2  1  0.689573  0.810049  0.000000  1
  U  U3  1  0.190068  0.690068  0.000000  1
  B  B4  1  0.000072  0.999971  0.199981  1
  B  B5  1  0.499971  0.500072  0.800019  1
  B  B6  1  0.000072  0.999971  0.800019  1
  B  B7  1  0.499971  0.500072  0.199981  1
  B  B8  1  0.586534  0.086534  0.500000  1
  B  B9  1  0.087296  0.413125  0.500000  1
  B  B10  1  0.913125  0.587296  0.500000  1
  B  B11  1  0.412931  0.912931  0.500000  1
  B  B12  1  0.038947  0.178837  0.500000  1
  B  B13  1  0.178698  0.961941  0.500000  1
  B  B14  1  0.821013  0.038253  0.500000  1
  B  B15  1  0.961358  0.821337  0.500000  1
  B  B16  1  0.461941  0.678698  0.500000  1
  B  B17  1  0.538253  0.321013  0.500000  1
  B  B18  1  0.678837  0.538947  0.500000  1
  B  B19  1  0.321337  0.461358  0.500000  1
