# generated using pymatgen
data_Mg2Sc5Nb(Co4P3)4
_symmetry_space_group_name_H-M   'P 1'
_cell_length_a   11.99810669
_cell_length_b   11.99810624
_cell_length_c   3.62853700
_cell_angle_alpha   90.00000000
_cell_angle_beta   90.00000000
_cell_angle_gamma   119.77229712
_symmetry_Int_Tables_number   1
_chemical_formula_structural   Mg2Sc5Nb(Co4P3)4
_chemical_formula_sum   'Mg2 Sc5 Nb1 Co16 P12'
_cell_volume   453.39792332
_cell_formula_units_Z   1
loop_
 _symmetry_equiv_pos_site_id
 _symmetry_equiv_pos_as_xyz
  1  'x, y, z'
loop_
 _atom_site_type_symbol
 _atom_site_label
 _atom_site_symmetry_multiplicity
 _atom_site_fract_x
 _atom_site_fract_y
 _atom_site_fract_z
 _atom_site_occupancy
  Mg  Mg0  1  0.443485  0.998974  0.000000  1
  Mg  Mg1  1  0.998974  0.443485  0.000000  1
  Sc  Sc2  1  0.813586  0.997052  0.500000  1
  Sc  Sc3  1  0.997052  0.813586  0.500000  1
  Sc  Sc4  1  0.182720  0.182720  0.500000  1
  Sc  Sc5  1  0.334619  0.664732  0.000000  1
  Sc  Sc6  1  0.664732  0.334619  0.000000  1
  Nb  Nb7  1  0.555976  0.555976  0.000000  1
  Co  Co8  1  0.280972  0.000424  0.500000  1
  Co  Co9  1  0.000424  0.280972  0.500000  1
  Co  Co10  1  0.722055  0.722055  0.500000  1
  Co  Co11  1  0.629677  0.806961  0.000000  1
  Co  Co12  1  0.196904  0.822870  0.000000  1
  Co  Co13  1  0.177699  0.375360  0.000000  1
  Co  Co14  1  0.375360  0.177699  0.000000  1
  Co  Co15  1  0.806961  0.629677  0.000000  1
  Co  Co16  1  0.822870  0.196904  0.000000  1
  Co  Co17  1  0.514312  0.870320  0.500000  1
  Co  Co18  1  0.124809  0.643737  0.500000  1
  Co  Co19  1  0.355246  0.481135  0.500000  1
  Co  Co20  1  0.481135  0.355246  0.500000  1
  Co  Co21  1  0.870320  0.514312  0.500000  1
  Co  Co22  1  0.643737  0.124809  0.500000  1
  Co  Co23  1  0.003116  0.003116  0.000000  1
  P  P24  1  0.178137  0.000275  0.000000  1
  P  P25  1  0.000275  0.178137  0.000000  1
  P  P26  1  0.826152  0.826152  0.000000  1
  P  P27  1  0.517723  0.689446  0.500000  1
  P  P28  1  0.309427  0.824719  0.500000  1
  P  P29  1  0.173367  0.485035  0.500000  1
  P  P30  1  0.485035  0.173367  0.500000  1
  P  P31  1  0.689446  0.517723  0.500000  1
  P  P32  1  0.824719  0.309427  0.500000  1
  P  P33  1  0.647444  0.001517  0.000000  1
  P  P34  1  0.001517  0.647444  0.000000  1
  P  P35  1  0.350017  0.350017  0.000000  1
