# generated using pymatgen
data_YAg6NO11
_symmetry_space_group_name_H-M   'P 1'
_cell_length_a   7.08771311
_cell_length_b   7.08771344
_cell_length_c   7.08771379
_cell_angle_alpha   61.77109565
_cell_angle_beta   61.77109794
_cell_angle_gamma   61.77109214
_symmetry_Int_Tables_number   1
_chemical_formula_structural   YAg6NO11
_chemical_formula_sum   'Y1 Ag6 N1 O11'
_cell_volume   261.76001453
_cell_formula_units_Z   1
loop_
 _symmetry_equiv_pos_site_id
 _symmetry_equiv_pos_as_xyz
  1  'x, y, z'
loop_
 _atom_site_type_symbol
 _atom_site_label
 _atom_site_symmetry_multiplicity
 _atom_site_fract_x
 _atom_site_fract_y
 _atom_site_fract_z
 _atom_site_occupancy
  Y  Y0  1  0.999042  0.999042  0.999042  1
  Ag  Ag1  1  0.498063  0.001101  0.001101  1
  Ag  Ag2  1  0.500273  0.500273  0.000245  1
  Ag  Ag3  1  0.500273  0.000245  0.500273  1
  Ag  Ag4  1  0.001101  0.001101  0.498063  1
  Ag  Ag5  1  0.000245  0.500273  0.500273  1
  Ag  Ag6  1  0.001101  0.498063  0.001101  1
  N  N7  1  0.500085  0.500085  0.500085  1
  O  O8  1  0.587919  0.142379  0.142379  1
  O  O9  1  0.142379  0.587919  0.142379  1
  O  O10  1  0.137916  0.137916  0.137916  1
  O  O11  1  0.142379  0.142379  0.587919  1
  O  O12  1  0.600460  0.600460  0.299238  1
  O  O13  1  0.600460  0.299238  0.600460  1
  O  O14  1  0.299238  0.600460  0.600460  1
  O  O15  1  0.858734  0.858734  0.410037  1
  O  O16  1  0.858734  0.410037  0.858734  1
  O  O17  1  0.861563  0.861563  0.861563  1
  O  O18  1  0.410037  0.858734  0.858734  1
