# generated using pymatgen
data_Sc6Fe3Co9Si7Ni4
_symmetry_space_group_name_H-M   'P 1'
_cell_length_a   8.06619433
_cell_length_b   8.06619451
_cell_length_c   8.05823658
_cell_angle_alpha   59.96733416
_cell_angle_beta   59.96732342
_cell_angle_gamma   60.00000695
_symmetry_Int_Tables_number   1
_chemical_formula_structural   Sc6Fe3Co9Si7Ni4
_chemical_formula_sum   'Sc6 Fe3 Co9 Si7 Ni4'
_cell_volume   370.55081014
_cell_formula_units_Z   1
loop_
 _symmetry_equiv_pos_site_id
 _symmetry_equiv_pos_as_xyz
  1  'x, y, z'
loop_
 _atom_site_type_symbol
 _atom_site_label
 _atom_site_symmetry_multiplicity
 _atom_site_fract_x
 _atom_site_fract_y
 _atom_site_fract_z
 _atom_site_occupancy
  Sc  Sc0  1  0.715913  0.715913  0.285276  1
  Sc  Sc1  1  0.282899  0.715913  0.285276  1
  Sc  Sc2  1  0.715913  0.282899  0.285276  1
  Sc  Sc3  1  0.284747  0.284747  0.715218  1
  Sc  Sc4  1  0.715288  0.284747  0.715218  1
  Sc  Sc5  1  0.284747  0.715288  0.715218  1
  Fe  Fe6  1  0.676371  0.971191  0.676067  1
  Fe  Fe7  1  0.971191  0.676371  0.676067  1
  Fe  Fe8  1  0.676371  0.676371  0.676067  1
  Co  Co9  1  0.878463  0.878463  0.364611  1
  Co  Co10  1  0.878802  0.364817  0.877576  1
  Co  Co11  1  0.364817  0.878802  0.877576  1
  Co  Co12  1  0.878802  0.878802  0.877576  1
  Co  Co13  1  0.119287  0.119287  0.642140  1
  Co  Co14  1  0.119529  0.641715  0.119229  1
  Co  Co15  1  0.641715  0.119529  0.119229  1
  Co  Co16  1  0.119529  0.119529  0.119229  1
  Co  Co17  1  0.673481  0.673481  0.979556  1
  Si  Si18  1  0.999750  0.999750  0.000748  1
  Si  Si19  1  0.002652  0.002652  0.496692  1
  Si  Si20  1  0.498002  0.002652  0.496692  1
  Si  Si21  1  0.002652  0.498002  0.496692  1
  Si  Si22  1  0.498022  0.498022  0.001382  1
  Si  Si23  1  0.002573  0.498022  0.001382  1
  Si  Si24  1  0.498022  0.002573  0.001382  1
  Ni  Ni25  1  0.331175  0.331175  0.006475  1
  Ni  Ni26  1  0.331727  0.005829  0.330718  1
  Ni  Ni27  1  0.005829  0.331727  0.330718  1
  Ni  Ni28  1  0.331727  0.331727  0.330718  1
