# generated using pymatgen
data_Th3ZnPd12
_symmetry_space_group_name_H-M   'P 1'
_cell_length_a   5.86397500
_cell_length_b   5.86397448
_cell_length_c   9.62061500
_cell_angle_alpha   90.00000000
_cell_angle_beta   90.00000000
_cell_angle_gamma   119.99999732
_symmetry_Int_Tables_number   1
_chemical_formula_structural   Th3ZnPd12
_chemical_formula_sum   'Th3 Zn1 Pd12'
_cell_volume   286.49540448
_cell_formula_units_Z   1
loop_
 _symmetry_equiv_pos_site_id
 _symmetry_equiv_pos_as_xyz
  1  'x, y, z'
loop_
 _atom_site_type_symbol
 _atom_site_label
 _atom_site_symmetry_multiplicity
 _atom_site_fract_x
 _atom_site_fract_y
 _atom_site_fract_z
 _atom_site_occupancy
  Th  Th0  1  0.000000  0.000000  0.491635  1
  Th  Th1  1  0.000000  0.000000  0.008365  1
  Th  Th2  1  0.666667  0.333333  0.750000  1
  Zn  Zn3  1  0.333333  0.666667  0.250000  1
  Pd  Pd4  1  0.497028  0.502972  0.493544  1
  Pd  Pd5  1  0.497028  0.994056  0.493544  1
  Pd  Pd6  1  0.005944  0.502972  0.493544  1
  Pd  Pd7  1  0.497028  0.502972  0.006456  1
  Pd  Pd8  1  0.497028  0.994056  0.006456  1
  Pd  Pd9  1  0.005944  0.502972  0.006456  1
  Pd  Pd10  1  0.825546  0.651091  0.250000  1
  Pd  Pd11  1  0.348909  0.174454  0.250000  1
  Pd  Pd12  1  0.825546  0.174454  0.250000  1
  Pd  Pd13  1  0.172646  0.345291  0.750000  1
  Pd  Pd14  1  0.654709  0.827354  0.750000  1
  Pd  Pd15  1  0.172646  0.827354  0.750000  1
