# generated using pymatgen
data_DyHo7(Si4W3)4
_symmetry_space_group_name_H-M   'P 1'
_cell_length_a   6.75553095
_cell_length_b   6.93556940
_cell_length_c   12.88777763
_cell_angle_alpha   89.99637450
_cell_angle_beta   89.99906334
_cell_angle_gamma   89.99264496
_symmetry_Int_Tables_number   1
_chemical_formula_structural   DyHo7(Si4W3)4
_chemical_formula_sum   'Dy1 Ho7 Si16 W12'
_cell_volume   603.83688671
_cell_formula_units_Z   1
loop_
 _symmetry_equiv_pos_site_id
 _symmetry_equiv_pos_as_xyz
  1  'x, y, z'
loop_
 _atom_site_type_symbol
 _atom_site_label
 _atom_site_symmetry_multiplicity
 _atom_site_fract_x
 _atom_site_fract_y
 _atom_site_fract_z
 _atom_site_occupancy
  Dy  Dy0  1  0.995635  0.832986  0.592938  1
  Ho  Ho1  1  0.495573  0.666839  0.593191  1
  Ho  Ho2  1  0.995838  0.833125  0.906813  1
  Ho  Ho3  1  0.504511  0.333093  0.093298  1
  Ho  Ho4  1  0.004234  0.167167  0.406927  1
  Ho  Ho5  1  0.504194  0.333154  0.407020  1
  Ho  Ho6  1  0.004275  0.167091  0.093270  1
  Ho  Ho7  1  0.495709  0.666932  0.906611  1
  Si  Si8  1  0.661423  0.957900  0.453867  1
  Si  Si9  1  0.161911  0.542182  0.046189  1
  Si  Si10  1  0.338523  0.042358  0.953639  1
  Si  Si11  1  0.837987  0.457300  0.546175  1
  Si  Si12  1  0.338293  0.042184  0.546101  1
  Si  Si13  1  0.838270  0.457869  0.953737  1
  Si  Si14  1  0.661744  0.957645  0.046298  1
  Si  Si15  1  0.161875  0.542235  0.453747  1
  Si  Si16  1  0.463652  0.370058  0.749989  1
  Si  Si17  1  0.963822  0.129699  0.749805  1
  Si  Si18  1  0.536284  0.629809  0.250030  1
  Si  Si19  1  0.036244  0.870478  0.250104  1
  Si  Si20  1  0.696539  0.865903  0.750012  1
  Si  Si21  1  0.196626  0.633742  0.749995  1
  Si  Si22  1  0.303369  0.134271  0.250145  1
  Si  Si23  1  0.803416  0.366101  0.250237  1
  W  W24  1  0.668048  0.164582  0.625140  1
  W  W25  1  0.168324  0.335196  0.874782  1
  W  W26  1  0.331381  0.835613  0.124987  1
  W  W27  1  0.831227  0.664692  0.375007  1
  W  W28  1  0.331544  0.835340  0.374900  1
  W  W29  1  0.831683  0.664639  0.125157  1
  W  W30  1  0.668912  0.164453  0.874994  1
  W  W31  1  0.168696  0.335446  0.624882  1
  W  W32  1  0.833747  0.499760  0.749910  1
  W  W33  1  0.333941  0.999936  0.749856  1
  W  W34  1  0.166327  0.500119  0.250083  1
  W  W35  1  0.666220  0.000104  0.250163  1
