# generated using pymatgen
data_Yb2Y3Bi3C
_symmetry_space_group_name_H-M   'P 1'
_cell_length_a   9.17448701
_cell_length_b   9.17448827
_cell_length_c   6.61878900
_cell_angle_alpha   89.99997597
_cell_angle_beta   89.99997304
_cell_angle_gamma   119.99236684
_symmetry_Int_Tables_number   1
_chemical_formula_structural   Yb2Y3Bi3C
_chemical_formula_sum   'Yb4 Y6 Bi6 C2'
_cell_volume   482.50987631
_cell_formula_units_Z   2
loop_
 _symmetry_equiv_pos_site_id
 _symmetry_equiv_pos_as_xyz
  1  'x, y, z'
loop_
 _atom_site_type_symbol
 _atom_site_label
 _atom_site_symmetry_multiplicity
 _atom_site_fract_x
 _atom_site_fract_y
 _atom_site_fract_z
 _atom_site_occupancy
  Yb  Yb0  1  0.666608  0.333392  0.500002  1
  Yb  Yb1  1  0.333392  0.666608  0.500002  1
  Yb  Yb2  1  0.333392  0.666609  0.000001  1
  Yb  Yb3  1  0.666609  0.333392  0.000001  1
  Y  Y4  1  0.792235  0.792235  0.249998  1
  Y  Y5  1  0.207618  0.999897  0.250000  1
  Y  Y6  1  0.999897  0.207618  0.250000  1
  Y  Y7  1  0.207765  0.207765  0.749998  1
  Y  Y8  1  0.792381  0.000103  0.749998  1
  Y  Y9  1  0.000103  0.792381  0.749998  1
  Bi  Bi10  1  0.401172  0.401172  0.250000  1
  Bi  Bi11  1  0.598595  0.000027  0.250003  1
  Bi  Bi12  1  0.000027  0.598595  0.250003  1
  Bi  Bi13  1  0.598830  0.598830  0.750001  1
  Bi  Bi14  1  0.401405  0.999973  0.750003  1
  Bi  Bi15  1  0.999973  0.401405  0.750003  1
  C  C16  1  0.000000  0.000000  0.499994  1
  C  C17  1  0.999999  0.999999  0.999993  1
