# generated using pymatgen
data_YbEr3Ir7Ru
_symmetry_space_group_name_H-M   'P 1'
_cell_length_a   5.32292622
_cell_length_b   5.34124928
_cell_length_c   8.69869038
_cell_angle_alpha   89.99948125
_cell_angle_beta   89.94567761
_cell_angle_gamma   120.11486985
_symmetry_Int_Tables_number   1
_chemical_formula_structural   YbEr3Ir7Ru
_chemical_formula_sum   'Yb1 Er3 Ir7 Ru1'
_cell_volume   213.93097598
_cell_formula_units_Z   1
loop_
 _symmetry_equiv_pos_site_id
 _symmetry_equiv_pos_as_xyz
  1  'x, y, z'
loop_
 _atom_site_type_symbol
 _atom_site_label
 _atom_site_symmetry_multiplicity
 _atom_site_fract_x
 _atom_site_fract_y
 _atom_site_fract_z
 _atom_site_occupancy
  Yb  Yb0  1  0.666680  0.333360  0.934847  1
  Er  Er1  1  0.666811  0.333424  0.574462  1
  Er  Er2  1  0.333428  0.666737  0.431477  1
  Er  Er3  1  0.333032  0.666539  0.062554  1
  Ir  Ir4  1  0.003072  0.001560  0.498861  1
  Ir  Ir5  1  0.002384  0.001209  0.999954  1
  Ir  Ir6  1  0.169409  0.339076  0.748644  1
  Ir  Ir7  1  0.169418  0.830353  0.748635  1
  Ir  Ir8  1  0.658852  0.829435  0.748449  1
  Ir  Ir9  1  0.827625  0.658603  0.250876  1
  Ir  Ir10  1  0.827658  0.168913  0.250859  1
  Ru  Ru11  1  0.341630  0.170791  0.250379  1
