# generated using pymatgen
data_Dy11Y4Ho5Bi12
_symmetry_space_group_name_H-M   'P 1'
_cell_length_a   8.25921902
_cell_length_b   9.52474900
_cell_length_c   12.06870303
_cell_angle_alpha   89.99983028
_cell_angle_beta   90.00836565
_cell_angle_gamma   90.00126291
_symmetry_Int_Tables_number   1
_chemical_formula_structural   Dy11Y4Ho5Bi12
_chemical_formula_sum   'Dy11 Y4 Ho5 Bi12'
_cell_volume   949.40850783
_cell_formula_units_Z   1
loop_
 _symmetry_equiv_pos_site_id
 _symmetry_equiv_pos_as_xyz
  1  'x, y, z'
loop_
 _atom_site_type_symbol
 _atom_site_label
 _atom_site_symmetry_multiplicity
 _atom_site_fract_x
 _atom_site_fract_y
 _atom_site_fract_z
 _atom_site_occupancy
  Dy  Dy0  1  0.186299  0.749997  0.719011  1
  Dy  Dy1  1  0.686336  0.750001  0.780998  1
  Dy  Dy2  1  0.813691  0.250000  0.280986  1
  Dy  Dy3  1  0.313700  0.250036  0.218976  1
  Dy  Dy4  1  0.806246  0.063079  0.559695  1
  Dy  Dy5  1  0.693736  0.936893  0.059685  1
  Dy  Dy6  1  0.193765  0.563083  0.440311  1
  Dy  Dy7  1  0.693779  0.563083  0.059698  1
  Dy  Dy8  1  0.193754  0.936906  0.440298  1
  Dy  Dy9  1  0.306211  0.063158  0.940313  1
  Dy  Dy10  1  0.806241  0.436917  0.559700  1
  Y  Y11  1  0.353989  0.750025  0.215196  1
  Y  Y12  1  0.853966  0.750017  0.284815  1
  Y  Y13  1  0.645988  0.250043  0.784846  1
  Y  Y14  1  0.146112  0.250055  0.715233  1
  Ho  Ho15  1  0.026227  0.749985  0.988584  1
  Ho  Ho16  1  0.526179  0.750018  0.511420  1
  Ho  Ho17  1  0.973895  0.250035  0.011379  1
  Ho  Ho18  1  0.473840  0.250002  0.488598  1
  Ho  Ho19  1  0.306215  0.436771  0.940300  1
  Bi  Bi20  1  0.433496  0.003632  0.673696  1
  Bi  Bi21  1  0.933574  0.496385  0.826351  1
  Bi  Bi22  1  0.566472  0.503622  0.326301  1
  Bi  Bi23  1  0.066506  0.996396  0.173675  1
  Bi  Bi24  1  0.566487  0.996390  0.326308  1
  Bi  Bi25  1  0.066497  0.503628  0.173637  1
  Bi  Bi26  1  0.433472  0.496392  0.673726  1
  Bi  Bi27  1  0.933508  0.003633  0.826329  1
  Bi  Bi28  1  0.409197  0.749710  0.957844  1
  Bi  Bi29  1  0.909290  0.750002  0.542130  1
  Bi  Bi30  1  0.590610  0.250107  0.042081  1
  Bi  Bi31  1  0.090720  0.249999  0.457877  1
