# generated using pymatgen
data_Dy5Tm3Lu2(SiSb)4
_symmetry_space_group_name_H-M   'P 1'
_cell_length_a   8.37368339
_cell_length_b   8.53994596
_cell_length_c   7.78981636
_cell_angle_alpha   90.12414589
_cell_angle_beta   90.10741381
_cell_angle_gamma   125.36882615
_symmetry_Int_Tables_number   1
_chemical_formula_structural   Dy5Tm3Lu2(SiSb)4
_chemical_formula_sum   'Dy5 Tm3 Lu2 Si4 Sb4'
_cell_volume   454.24294699
_cell_formula_units_Z   1
loop_
 _symmetry_equiv_pos_site_id
 _symmetry_equiv_pos_as_xyz
  1  'x, y, z'
loop_
 _atom_site_type_symbol
 _atom_site_label
 _atom_site_symmetry_multiplicity
 _atom_site_fract_x
 _atom_site_fract_y
 _atom_site_fract_z
 _atom_site_occupancy
  Dy  Dy0  1  0.801829  0.544898  0.168291  1
  Dy  Dy1  1  0.537129  0.787094  0.165195  1
  Dy  Dy2  1  0.199490  0.455666  0.831475  1
  Dy  Dy3  1  0.698600  0.954805  0.668141  1
  Dy  Dy4  1  0.300435  0.043579  0.332374  1
  Tm  Tm5  1  0.036700  0.281368  0.336493  1
  Tm  Tm6  1  0.962115  0.716279  0.663570  1
  Tm  Tm7  1  0.462945  0.216920  0.836408  1
  Lu  Lu8  1  0.000486  0.000854  0.999459  1
  Lu  Lu9  1  0.499855  0.499062  0.500376  1
  Si  Si10  1  0.367130  0.366802  0.132332  1
  Si  Si11  1  0.633088  0.632115  0.867413  1
  Si  Si12  1  0.132348  0.131346  0.631290  1
  Si  Si13  1  0.868945  0.867912  0.369629  1
  Sb  Sb14  1  0.789536  0.201329  0.008523  1
  Sb  Sb15  1  0.212747  0.803618  0.987462  1
  Sb  Sb16  1  0.713813  0.301444  0.510656  1
  Sb  Sb17  1  0.282810  0.694908  0.490912  1
