# generated using pymatgen
data_TbYbEu2(Al3Pd)6
_symmetry_space_group_name_H-M   'P 1'
_cell_length_a   7.69627536
_cell_length_b   7.70194438
_cell_length_c   9.56242000
_cell_angle_alpha   90.00000000
_cell_angle_beta   90.00000000
_cell_angle_gamma   119.55097552
_symmetry_Int_Tables_number   1
_chemical_formula_structural   TbYbEu2(Al3Pd)6
_chemical_formula_sum   'Tb1 Yb1 Eu2 Al18 Pd6'
_cell_volume   493.09060906
_cell_formula_units_Z   1
loop_
 _symmetry_equiv_pos_site_id
 _symmetry_equiv_pos_as_xyz
  1  'x, y, z'
loop_
 _atom_site_type_symbol
 _atom_site_label
 _atom_site_symmetry_multiplicity
 _atom_site_fract_x
 _atom_site_fract_y
 _atom_site_fract_z
 _atom_site_occupancy
  Tb  Tb0  1  0.330816  0.003881  0.750000  1
  Yb  Yb1  1  0.671499  0.996214  0.250000  1
  Eu  Eu2  1  0.995380  0.668888  0.250000  1
  Eu  Eu3  1  0.003474  0.330643  0.750000  1
  Al  Al4  1  0.132489  0.131626  0.250000  1
  Al  Al5  1  0.870373  0.869598  0.750000  1
  Al  Al6  1  0.001207  0.334166  0.076230  1
  Al  Al7  1  0.998711  0.665373  0.923023  1
  Al  Al8  1  0.998711  0.665373  0.576977  1
  Al  Al9  1  0.335352  0.000834  0.423742  1
  Al  Al10  1  0.001207  0.334166  0.423770  1
  Al  Al11  1  0.665196  0.999010  0.575788  1
  Al  Al12  1  0.665196  0.999010  0.924212  1
  Al  Al13  1  0.335352  0.000834  0.076258  1
  Al  Al14  1  0.332878  0.332602  0.555639  1
  Al  Al15  1  0.666064  0.666422  0.445717  1
  Al  Al16  1  0.666064  0.666422  0.054283  1
  Al  Al17  1  0.332878  0.332602  0.944361  1
  Al  Al18  1  0.341266  0.547118  0.250000  1
  Al  Al19  1  0.656519  0.452920  0.750000  1
  Al  Al20  1  0.544884  0.340299  0.250000  1
  Al  Al21  1  0.455302  0.662958  0.750000  1
  Pd  Pd22  1  0.669413  0.326812  0.999705  1
  Pd  Pd23  1  0.330197  0.673101  0.999680  1
  Pd  Pd24  1  0.330197  0.673101  0.500320  1
  Pd  Pd25  1  0.669413  0.326812  0.500295  1
  Pd  Pd26  1  0.999980  0.999608  0.999895  1
  Pd  Pd27  1  0.999980  0.999608  0.500105  1
