# generated using pymatgen
data_NaEr(ReH9)2
_symmetry_space_group_name_H-M   'P 1'
_cell_length_a   5.18443718
_cell_length_b   5.18440408
_cell_length_c   8.42588261
_cell_angle_alpha   92.68718466
_cell_angle_beta   87.31211890
_cell_angle_gamma   125.36332377
_symmetry_Int_Tables_number   1
_chemical_formula_structural   NaEr(ReH9)2
_chemical_formula_sum   'Na1 Er1 Re2 H18'
_cell_volume   184.43075918
_cell_formula_units_Z   1
loop_
 _symmetry_equiv_pos_site_id
 _symmetry_equiv_pos_as_xyz
  1  'x, y, z'
loop_
 _atom_site_type_symbol
 _atom_site_label
 _atom_site_symmetry_multiplicity
 _atom_site_fract_x
 _atom_site_fract_y
 _atom_site_fract_z
 _atom_site_occupancy
  Na  Na0  1  0.000000  0.000000  0.000000  1
  Er  Er1  1  0.000000  0.000000  0.500000  1
  Re  Re2  1  0.338286  0.661618  0.724996  1
  Re  Re3  1  0.661714  0.338382  0.275004  1
  H  H4  1  0.388527  0.611502  0.525602  1
  H  H5  1  0.611473  0.388498  0.474398  1
  H  H6  1  0.416893  0.583082  0.899085  1
  H  H7  1  0.583107  0.416918  0.100915  1
  H  H8  1  0.471552  0.959329  0.860812  1
  H  H9  1  0.959412  0.471562  0.139168  1
  H  H10  1  0.598781  0.021992  0.649750  1
  H  H11  1  0.022093  0.598795  0.350310  1
  H  H12  1  0.528448  0.040671  0.139188  1
  H  H13  1  0.040588  0.528438  0.860832  1
  H  H14  1  0.401219  0.978008  0.350250  1
  H  H15  1  0.977907  0.401205  0.649690  1
  H  H16  1  0.706022  0.729550  0.721565  1
  H  H17  1  0.729622  0.706119  0.278439  1
  H  H18  1  0.293978  0.270450  0.278435  1
  H  H19  1  0.270378  0.293881  0.721561  1
  H  H20  1  0.156209  0.843907  0.696827  1
  H  H21  1  0.843791  0.156093  0.303173  1
