# generated using pymatgen
data_TmLu9(Hg2Bi)2
_symmetry_space_group_name_H-M   'P 1'
_cell_length_a   8.69424195
_cell_length_b   8.69424341
_cell_length_c   8.69787358
_cell_angle_alpha   124.63869245
_cell_angle_beta   124.63869416
_cell_angle_gamma   82.10637133
_symmetry_Int_Tables_number   1
_chemical_formula_structural   TmLu9(Hg2Bi)2
_chemical_formula_sum   'Tm1 Lu9 Hg4 Bi2'
_cell_volume   427.97409750
_cell_formula_units_Z   1
loop_
 _symmetry_equiv_pos_site_id
 _symmetry_equiv_pos_as_xyz
  1  'x, y, z'
loop_
 _atom_site_type_symbol
 _atom_site_label
 _atom_site_symmetry_multiplicity
 _atom_site_fract_x
 _atom_site_fract_y
 _atom_site_fract_z
 _atom_site_occupancy
  Tm  Tm0  1  0.799730  0.299730  0.804770  1
  Lu  Lu1  1  0.000072  0.999883  0.000098  1
  Lu  Lu2  1  0.499883  0.500072  0.000098  1
  Lu  Lu3  1  0.201083  0.701083  0.196056  1
  Lu  Lu4  1  0.494774  0.994774  0.195404  1
  Lu  Lu5  1  0.299256  0.494838  0.499979  1
  Lu  Lu6  1  0.005226  0.200657  0.499803  1
  Lu  Lu7  1  0.505125  0.005125  0.804317  1
  Lu  Lu8  1  0.700657  0.505226  0.499803  1
  Lu  Lu9  1  0.994838  0.799256  0.499979  1
  Hg  Hg10  1  0.140478  0.640478  0.781045  1
  Hg  Hg11  1  0.859490  0.359490  0.219263  1
  Hg  Hg12  1  0.640324  0.859082  0.499735  1
  Hg  Hg13  1  0.359082  0.140324  0.499735  1
  Bi  Bi14  1  0.250070  0.249913  0.999958  1
  Bi  Bi15  1  0.749913  0.750070  0.999958  1
