# generated using pymatgen
data_Nd5P12Ir7(Ru3Rh)3
_symmetry_space_group_name_H-M   'P 1'
_cell_length_a   12.69881000
_cell_length_b   12.69880958
_cell_length_c   4.01515100
_cell_angle_alpha   90.00000000
_cell_angle_beta   90.00000000
_cell_angle_gamma   120.00000629
_symmetry_Int_Tables_number   1
_chemical_formula_structural   Nd5P12Ir7(Ru3Rh)3
_chemical_formula_sum   'Nd5 P12 Ir7 Ru9 Rh3'
_cell_volume   560.73610839
_cell_formula_units_Z   1
loop_
 _symmetry_equiv_pos_site_id
 _symmetry_equiv_pos_as_xyz
  1  'x, y, z'
loop_
 _atom_site_type_symbol
 _atom_site_label
 _atom_site_symmetry_multiplicity
 _atom_site_fract_x
 _atom_site_fract_y
 _atom_site_fract_z
 _atom_site_occupancy
  Nd  Nd0  1  0.000000  0.185903  0.500000  1
  Nd  Nd1  1  0.814097  0.814097  0.500000  1
  Nd  Nd2  1  0.185903  0.000000  0.500000  1
  Nd  Nd3  1  0.666667  0.333333  0.000000  1
  Nd  Nd4  1  0.333333  0.666667  0.000000  1
  P  P5  1  0.000000  0.815565  0.000000  1
  P  P6  1  0.184435  0.184435  0.000000  1
  P  P7  1  0.815565  0.000000  0.000000  1
  P  P8  1  0.691300  0.173463  0.500000  1
  P  P9  1  0.826537  0.517837  0.500000  1
  P  P10  1  0.482163  0.308700  0.500000  1
  P  P11  1  0.173463  0.691300  0.500000  1
  P  P12  1  0.517837  0.826537  0.500000  1
  P  P13  1  0.308700  0.482163  0.500000  1
  P  P14  1  0.000000  0.370019  0.000000  1
  P  P15  1  0.629981  0.629981  0.000000  1
  P  P16  1  0.370019  0.000000  0.000000  1
  Ir  Ir17  1  0.805440  0.182438  0.000000  1
  Ir  Ir18  1  0.817562  0.623003  0.000000  1
  Ir  Ir19  1  0.376997  0.194560  0.000000  1
  Ir  Ir20  1  0.182438  0.805440  0.000000  1
  Ir  Ir21  1  0.623003  0.817562  0.000000  1
  Ir  Ir22  1  0.194560  0.376997  0.000000  1
  Ir  Ir23  1  0.000000  0.000000  0.000000  1
  Ru  Ru24  1  0.000000  0.710282  0.500000  1
  Ru  Ru25  1  0.289718  0.289718  0.500000  1
  Ru  Ru26  1  0.710282  0.000000  0.500000  1
  Ru  Ru27  1  0.874406  0.363643  0.500000  1
  Ru  Ru28  1  0.636357  0.510763  0.500000  1
  Ru  Ru29  1  0.489237  0.125594  0.500000  1
  Ru  Ru30  1  0.363643  0.874406  0.500000  1
  Ru  Ru31  1  0.510763  0.636357  0.500000  1
  Ru  Ru32  1  0.125594  0.489237  0.500000  1
  Rh  Rh33  1  0.000000  0.549997  0.000000  1
  Rh  Rh34  1  0.450003  0.450003  0.000000  1
  Rh  Rh35  1  0.549997  0.000000  0.000000  1
