# generated using pymatgen
data_SnHg2Bi(Pt2O7)2
_symmetry_space_group_name_H-M   'P 1'
_cell_length_a   7.30447073
_cell_length_b   7.30575010
_cell_length_c   7.17875900
_cell_angle_alpha   60.57335226
_cell_angle_beta   60.56769135
_cell_angle_gamma   60.98351235
_symmetry_Int_Tables_number   1
_chemical_formula_structural   SnHg2Bi(Pt2O7)2
_chemical_formula_sum   'Sn1 Hg2 Bi1 Pt4 O14'
_cell_volume   275.20708673
_cell_formula_units_Z   1
loop_
 _symmetry_equiv_pos_site_id
 _symmetry_equiv_pos_as_xyz
  1  'x, y, z'
loop_
 _atom_site_type_symbol
 _atom_site_label
 _atom_site_symmetry_multiplicity
 _atom_site_fract_x
 _atom_site_fract_y
 _atom_site_fract_z
 _atom_site_occupancy
  Sn  Sn0  1  0.125000  0.625000  0.125000  1
  Hg  Hg1  1  0.125000  0.125000  0.625000  1
  Hg  Hg2  1  0.125000  0.125000  0.125000  1
  Bi  Bi3  1  0.625000  0.125000  0.125000  1
  Pt  Pt4  1  0.625000  0.625000  0.125000  1
  Pt  Pt5  1  0.625000  0.125000  0.625000  1
  Pt  Pt6  1  0.125000  0.625000  0.625000  1
  Pt  Pt7  1  0.625000  0.625000  0.625000  1
  O  O8  1  0.243721  0.286988  0.234646  1
  O  O9  1  0.006279  0.963012  0.015354  1
  O  O10  1  0.543455  0.955978  0.539625  1
  O  O11  1  0.290993  0.693829  0.286943  1
  O  O12  1  0.531661  0.546333  0.961003  1
  O  O13  1  0.959007  0.556171  0.521764  1
  O  O14  1  0.543455  0.955978  0.960942  1
  O  O15  1  0.958776  0.956717  0.542253  1
  O  O16  1  0.959007  0.556171  0.963057  1
  O  O17  1  0.706545  0.294022  0.289058  1
  O  O18  1  0.290993  0.693829  0.728236  1
  O  O19  1  0.706545  0.294022  0.710375  1
  O  O20  1  0.291224  0.293283  0.707747  1
  O  O21  1  0.718339  0.703667  0.288997  1
