# generated using pymatgen
data_Tb2Sc2CrCoB12
_symmetry_space_group_name_H-M   'P 1'
_cell_length_a   3.46105000
_cell_length_b   8.96600557
_cell_length_c   11.36539206
_cell_angle_alpha   89.77369044
_cell_angle_beta   90.00000000
_cell_angle_gamma   90.00000000
_symmetry_Int_Tables_number   1
_chemical_formula_structural   Tb2Sc2CrCoB12
_chemical_formula_sum   'Tb4 Sc4 Cr2 Co2 B24'
_cell_volume   352.68574905
_cell_formula_units_Z   2
loop_
 _symmetry_equiv_pos_site_id
 _symmetry_equiv_pos_as_xyz
  1  'x, y, z'
loop_
 _atom_site_type_symbol
 _atom_site_label
 _atom_site_symmetry_multiplicity
 _atom_site_fract_x
 _atom_site_fract_y
 _atom_site_fract_z
 _atom_site_occupancy
  Tb  Tb0  1  0.000000  0.821429  0.085616  1
  Tb  Tb1  1  0.000000  0.178571  0.914384  1
  Tb  Tb2  1  0.000000  0.323016  0.415592  1
  Tb  Tb3  1  0.000000  0.676984  0.584408  1
  Sc  Sc4  1  0.000000  0.445513  0.129381  1
  Sc  Sc5  1  0.000000  0.554487  0.870619  1
  Sc  Sc6  1  0.000000  0.943063  0.371241  1
  Sc  Sc7  1  0.000000  0.056937  0.628759  1
  Cr  Cr8  1  0.000000  0.641953  0.316417  1
  Cr  Cr9  1  0.000000  0.358047  0.683583  1
  Co  Co10  1  0.000000  0.141236  0.181946  1
  Co  Co11  1  0.000000  0.858764  0.818054  1
  B  B12  1  0.500000  0.056332  0.068603  1
  B  B13  1  0.500000  0.943668  0.931397  1
  B  B14  1  0.500000  0.554687  0.431192  1
  B  B15  1  0.500000  0.445313  0.568808  1
  B  B16  1  0.500000  0.251918  0.083321  1
  B  B17  1  0.500000  0.748082  0.916679  1
  B  B18  1  0.500000  0.752814  0.417124  1
  B  B19  1  0.500000  0.247186  0.582876  1
  B  B20  1  0.500000  0.292381  0.235062  1
  B  B21  1  0.500000  0.707619  0.764938  1
  B  B22  1  0.500000  0.795564  0.264664  1
  B  B23  1  0.500000  0.204436  0.735336  1
  B  B24  1  0.500000  0.129859  0.316340  1
  B  B25  1  0.500000  0.870141  0.683660  1
  B  B26  1  0.500000  0.630198  0.182851  1
  B  B27  1  0.500000  0.369802  0.817149  1
  B  B28  1  0.500000  0.482383  0.285307  1
  B  B29  1  0.500000  0.517617  0.714693  1
  B  B30  1  0.500000  0.985420  0.213425  1
  B  B31  1  0.500000  0.014580  0.786575  1
  B  B32  1  0.500000  0.097749  0.473220  1
  B  B33  1  0.500000  0.902251  0.526780  1
  B  B34  1  0.500000  0.598462  0.025502  1
  B  B35  1  0.500000  0.401538  0.974498  1
