# generated using pymatgen
data_Lu4InPt11
_symmetry_space_group_name_H-M   'P 1'
_cell_length_a   4.14978800
_cell_length_b   5.79417620
_cell_length_c   11.55909776
_cell_angle_alpha   88.00662704
_cell_angle_beta   90.00000000
_cell_angle_gamma   90.00000000
_symmetry_Int_Tables_number   1
_chemical_formula_structural   Lu4InPt11
_chemical_formula_sum   'Lu4 In1 Pt11'
_cell_volume   277.76572530
_cell_formula_units_Z   1
loop_
 _symmetry_equiv_pos_site_id
 _symmetry_equiv_pos_as_xyz
  1  'x, y, z'
loop_
 _atom_site_type_symbol
 _atom_site_label
 _atom_site_symmetry_multiplicity
 _atom_site_fract_x
 _atom_site_fract_y
 _atom_site_fract_z
 _atom_site_occupancy
  Lu  Lu0  1  0.500000  0.758956  0.376054  1
  Lu  Lu1  1  0.500000  0.714603  0.862265  1
  Lu  Lu2  1  0.500000  0.285397  0.137735  1
  Lu  Lu3  1  0.500000  0.241044  0.623946  1
  In  In4  1  0.000000  0.000000  0.000000  1
  Pt  Pt5  1  0.000000  0.019833  0.249661  1
  Pt  Pt6  1  0.000000  0.980167  0.750339  1
  Pt  Pt7  1  0.000000  0.500000  0.000000  1
  Pt  Pt8  1  0.000000  0.500000  0.500000  1
  Pt  Pt9  1  0.000000  0.521671  0.250107  1
  Pt  Pt10  1  0.000000  0.478329  0.749893  1
  Pt  Pt11  1  0.500000  0.258431  0.377363  1
  Pt  Pt12  1  0.500000  0.225941  0.879501  1
  Pt  Pt13  1  0.500000  0.774059  0.120499  1
  Pt  Pt14  1  0.500000  0.741569  0.622637  1
  Pt  Pt15  1  0.000000  0.000000  0.500000  1
