# generated using pymatgen
data_Sm7LuZr11Si16Mo
_symmetry_space_group_name_H-M   'P 1'
_cell_length_a   7.13213349
_cell_length_b   7.32835918
_cell_length_c   13.98671261
_cell_angle_alpha   89.81507678
_cell_angle_beta   89.85546393
_cell_angle_gamma   89.94499899
_symmetry_Int_Tables_number   1
_chemical_formula_structural   Sm7LuZr11Si16Mo
_chemical_formula_sum   'Sm7 Lu1 Zr11 Si16 Mo1'
_cell_volume   731.03474787
_cell_formula_units_Z   1
loop_
 _symmetry_equiv_pos_site_id
 _symmetry_equiv_pos_as_xyz
  1  'x, y, z'
loop_
 _atom_site_type_symbol
 _atom_site_label
 _atom_site_symmetry_multiplicity
 _atom_site_fract_x
 _atom_site_fract_y
 _atom_site_fract_z
 _atom_site_occupancy
  Sm  Sm0  1  0.517669  0.326918  0.098928  1
  Sm  Sm1  1  0.013851  0.177176  0.400138  1
  Sm  Sm2  1  0.484406  0.674768  0.596406  1
  Sm  Sm3  1  0.983271  0.823325  0.905950  1
  Sm  Sm4  1  0.482690  0.674018  0.904623  1
  Sm  Sm5  1  0.984685  0.823971  0.595767  1
  Sm  Sm6  1  0.517795  0.328319  0.399129  1
  Lu  Lu7  1  0.015233  0.180696  0.102631  1
  Zr  Zr8  1  0.827154  0.323246  0.624034  1
  Zr  Zr9  1  0.324606  0.175354  0.875532  1
  Zr  Zr10  1  0.170441  0.676508  0.125858  1
  Zr  Zr11  1  0.677556  0.821362  0.372727  1
  Zr  Zr12  1  0.170715  0.674980  0.372611  1
  Zr  Zr13  1  0.679266  0.823524  0.124678  1
  Zr  Zr14  1  0.827668  0.321403  0.877940  1
  Zr  Zr15  1  0.327820  0.175448  0.624983  1
  Zr  Zr16  1  0.654006  0.000931  0.750365  1
  Zr  Zr17  1  0.152524  0.496836  0.750586  1
  Zr  Zr18  1  0.346164  0.999108  0.249414  1
  Si  Si19  1  0.652575  0.033344  0.539348  1
  Si  Si20  1  0.152734  0.461156  0.963091  1
  Si  Si21  1  0.342815  0.969372  0.042144  1
  Si  Si22  1  0.848813  0.532691  0.454954  1
  Si  Si23  1  0.348392  0.966234  0.457630  1
  Si  Si24  1  0.851281  0.526822  0.047592  1
  Si  Si25  1  0.647520  0.031490  0.958628  1
  Si  Si26  1  0.153728  0.464572  0.539238  1
  Si  Si27  1  0.530417  0.378525  0.750642  1
  Si  Si28  1  0.029336  0.120889  0.750334  1
  Si  Si29  1  0.475126  0.618490  0.248671  1
  Si  Si30  1  0.969779  0.882577  0.248763  1
  Si  Si31  1  0.779822  0.622023  0.750768  1
  Si  Si32  1  0.278918  0.875589  0.750463  1
  Si  Si33  1  0.209532  0.377640  0.248457  1
  Si  Si34  1  0.722327  0.128428  0.248156  1
  Mo  Mo35  1  0.849365  0.512268  0.248821  1
