# generated using pymatgen
data_Y5Er(Si3Ru)8
_symmetry_space_group_name_H-M   'P 1'
_cell_length_a   10.12086688
_cell_length_b   10.12086690
_cell_length_c   8.14246923
_cell_angle_alpha   89.98902026
_cell_angle_beta   89.98901823
_cell_angle_gamma   132.56678253
_symmetry_Int_Tables_number   1
_chemical_formula_structural   Y5Er(Si3Ru)8
_chemical_formula_sum   'Y5 Er1 Si24 Ru8'
_cell_volume   614.26814567
_cell_formula_units_Z   1
loop_
 _symmetry_equiv_pos_site_id
 _symmetry_equiv_pos_as_xyz
  1  'x, y, z'
loop_
 _atom_site_type_symbol
 _atom_site_label
 _atom_site_symmetry_multiplicity
 _atom_site_fract_x
 _atom_site_fract_y
 _atom_site_fract_z
 _atom_site_occupancy
  Y  Y0  1  0.497579  0.997451  0.249757  1
  Y  Y1  1  0.002549  0.502421  0.750243  1
  Y  Y2  1  0.502421  0.002549  0.750243  1
  Y  Y3  1  0.997451  0.497579  0.249757  1
  Y  Y4  1  0.500000  0.500000  0.500000  1
  Er  Er5  1  0.000000  0.000000  0.000000  1
  Si  Si6  1  0.388382  0.154974  0.004956  1
  Si  Si7  1  0.654772  0.888096  0.495017  1
  Si  Si8  1  0.111904  0.345228  0.504983  1
  Si  Si9  1  0.845026  0.611618  0.995044  1
  Si  Si10  1  0.611618  0.845026  0.995044  1
  Si  Si11  1  0.345228  0.111904  0.504983  1
  Si  Si12  1  0.888096  0.654772  0.495017  1
  Si  Si13  1  0.154974  0.388382  0.004956  1
  Si  Si14  1  0.613103  0.378893  0.228079  1
  Si  Si15  1  0.878235  0.112133  0.271488  1
  Si  Si16  1  0.887867  0.121765  0.728512  1
  Si  Si17  1  0.621107  0.386897  0.771921  1
  Si  Si18  1  0.386897  0.621107  0.771921  1
  Si  Si19  1  0.121765  0.887867  0.728512  1
  Si  Si20  1  0.705654  0.294346  0.000000  1
  Si  Si21  1  0.794656  0.205344  0.500000  1
  Si  Si22  1  0.294346  0.705654  0.000000  1
  Si  Si23  1  0.205344  0.794656  0.500000  1
  Si  Si24  1  0.167807  0.167807  0.333265  1
  Si  Si25  1  0.667297  0.667297  0.166979  1
  Si  Si26  1  0.332703  0.332703  0.833021  1
  Si  Si27  1  0.832193  0.832193  0.666735  1
  Si  Si28  1  0.378893  0.613103  0.228079  1
  Si  Si29  1  0.112133  0.878235  0.271488  1
  Ru  Ru30  1  0.626806  0.626806  0.873932  1
  Ru  Ru31  1  0.125519  0.125519  0.628004  1
  Ru  Ru32  1  0.874481  0.874481  0.371996  1
  Ru  Ru33  1  0.373194  0.373194  0.126068  1
  Ru  Ru34  1  0.330898  0.669102  0.500000  1
  Ru  Ru35  1  0.168392  0.831608  0.000000  1
  Ru  Ru36  1  0.669102  0.330898  0.500000  1
  Ru  Ru37  1  0.831608  0.168392  0.000000  1
