# generated using pymatgen
data_ErPaBiN2
_symmetry_space_group_name_H-M   'P 1'
_cell_length_a   7.26076848
_cell_length_b   7.26076912
_cell_length_c   7.26076849
_cell_angle_alpha   148.43594023
_cell_angle_beta   148.43593170
_cell_angle_gamma   45.24224270
_symmetry_Int_Tables_number   1
_chemical_formula_structural   ErPaBiN2
_chemical_formula_sum   'Er1 Pa1 Bi1 N2'
_cell_volume   104.54681621
_cell_formula_units_Z   1
loop_
 _symmetry_equiv_pos_site_id
 _symmetry_equiv_pos_as_xyz
  1  'x, y, z'
loop_
 _atom_site_type_symbol
 _atom_site_label
 _atom_site_symmetry_multiplicity
 _atom_site_fract_x
 _atom_site_fract_y
 _atom_site_fract_z
 _atom_site_occupancy
  Er  Er0  1  0.331835  0.331835  0.000000  1
  Pa  Pa1  1  0.675414  0.675414  0.000000  1
  Bi  Bi2  1  0.000821  0.000821  0.000000  1
  N  N3  1  0.245965  0.745965  0.500000  1
  N  N4  1  0.745965  0.245965  0.500000  1
