# generated using pymatgen
data_Eu10InHgAu4
_symmetry_space_group_name_H-M   'P 1'
_cell_length_a   9.56955188
_cell_length_b   9.56955286
_cell_length_c   9.56942900
_cell_angle_alpha   128.19564349
_cell_angle_beta   128.19565569
_cell_angle_gamma   76.31018560
_symmetry_Int_Tables_number   1
_chemical_formula_structural   Eu10InHgAu4
_chemical_formula_sum   'Eu10 In1 Hg1 Au4'
_cell_volume   525.98952715
_cell_formula_units_Z   1
loop_
 _symmetry_equiv_pos_site_id
 _symmetry_equiv_pos_as_xyz
  1  'x, y, z'
loop_
 _atom_site_type_symbol
 _atom_site_label
 _atom_site_symmetry_multiplicity
 _atom_site_fract_x
 _atom_site_fract_y
 _atom_site_fract_z
 _atom_site_occupancy
  Eu  Eu0  1  0.496397  0.496587  0.000116  1
  Eu  Eu1  1  0.003413  0.003603  0.999884  1
  Eu  Eu2  1  0.526210  0.024742  0.830964  1
  Eu  Eu3  1  0.193814  0.694970  0.168651  1
  Eu  Eu4  1  0.024984  0.194176  0.498874  1
  Eu  Eu5  1  0.695724  0.526685  0.502047  1
  Eu  Eu6  1  0.475258  0.973790  0.169036  1
  Eu  Eu7  1  0.805030  0.306186  0.831349  1
  Eu  Eu8  1  0.973315  0.804276  0.497953  1
  Eu  Eu9  1  0.305824  0.475016  0.501126  1
  In  In10  1  0.249808  0.250192  0.000000  1
  Hg  Hg11  1  0.749981  0.750019  0.000000  1
  Au  Au12  1  0.130255  0.630380  0.760731  1
  Au  Au13  1  0.869620  0.369745  0.239269  1
  Au  Au14  1  0.631224  0.868776  0.500000  1
  Au  Au15  1  0.369146  0.130854  0.500000  1
