# generated using pymatgen
data_Ac8Tb11LuSn16
_symmetry_space_group_name_H-M   'P 1'
_cell_length_a   8.31820200
_cell_length_b   8.55221012
_cell_length_c   16.11117700
_cell_angle_alpha   90.00000000
_cell_angle_beta   90.00000000
_cell_angle_gamma   89.99033928
_symmetry_Int_Tables_number   1
_chemical_formula_structural   Ac8Tb11LuSn16
_chemical_formula_sum   'Ac8 Tb11 Lu1 Sn16'
_cell_volume   1146.13318697
_cell_formula_units_Z   1
loop_
 _symmetry_equiv_pos_site_id
 _symmetry_equiv_pos_as_xyz
  1  'x, y, z'
loop_
 _atom_site_type_symbol
 _atom_site_label
 _atom_site_symmetry_multiplicity
 _atom_site_fract_x
 _atom_site_fract_y
 _atom_site_fract_z
 _atom_site_occupancy
  Ac  Ac0  1  0.509199  0.323471  0.904398  1
  Ac  Ac1  1  0.008849  0.176255  0.595372  1
  Ac  Ac2  1  0.490553  0.676854  0.404300  1
  Ac  Ac3  1  0.991437  0.823961  0.095679  1
  Ac  Ac4  1  0.490553  0.676854  0.095700  1
  Ac  Ac5  1  0.991437  0.823961  0.404321  1
  Ac  Ac6  1  0.509199  0.323471  0.595602  1
  Ac  Ac7  1  0.008849  0.176255  0.904628  1
  Tb  Tb8  1  0.348873  0.835568  0.875404  1
  Tb  Tb9  1  0.848632  0.663984  0.624890  1
  Tb  Tb10  1  0.650529  0.163576  0.374838  1
  Tb  Tb11  1  0.152046  0.335823  0.125095  1
  Tb  Tb12  1  0.650529  0.163576  0.125162  1
  Tb  Tb13  1  0.152046  0.335823  0.374905  1
  Tb  Tb14  1  0.348873  0.835568  0.624596  1
  Tb  Tb15  1  0.848632  0.663984  0.875110  1
  Tb  Tb16  1  0.183031  0.503826  0.750000  1
  Tb  Tb17  1  0.682951  0.996642  0.750000  1
  Tb  Tb18  1  0.817431  0.496676  0.250000  1
  Lu  Lu19  1  0.317077  0.004401  0.250000  1
  Sn  Sn20  1  0.316515  0.043436  0.044126  1
  Sn  Sn21  1  0.816752  0.456423  0.456528  1
  Sn  Sn22  1  0.683057  0.956322  0.542990  1
  Sn  Sn23  1  0.183023  0.543341  0.956912  1
  Sn  Sn24  1  0.683057  0.956322  0.957010  1
  Sn  Sn25  1  0.183023  0.543341  0.543088  1
  Sn  Sn26  1  0.316515  0.043436  0.455874  1
  Sn  Sn27  1  0.816752  0.456423  0.043472  1
  Sn  Sn28  1  0.546257  0.630437  0.750000  1
  Sn  Sn29  1  0.046304  0.870047  0.750000  1
  Sn  Sn30  1  0.453659  0.369625  0.250000  1
  Sn  Sn31  1  0.955842  0.129065  0.250000  1
  Sn  Sn32  1  0.314550  0.137137  0.750000  1
  Sn  Sn33  1  0.814530  0.362223  0.750000  1
  Sn  Sn34  1  0.684866  0.862457  0.250000  1
  Sn  Sn35  1  0.184571  0.639438  0.250000  1
