# generated using pymatgen
data_La13PrOsPd5
_symmetry_space_group_name_H-M   'P 1'
_cell_length_a   10.35934786
_cell_length_b   10.35934663
_cell_length_c   6.58774602
_cell_angle_alpha   89.61719895
_cell_angle_beta   90.38280678
_cell_angle_gamma   120.06573863
_symmetry_Int_Tables_number   1
_chemical_formula_structural   La13PrOsPd5
_chemical_formula_sum   'La13 Pr1 Os1 Pd5'
_cell_volume   611.83071497
_cell_formula_units_Z   1
loop_
 _symmetry_equiv_pos_site_id
 _symmetry_equiv_pos_as_xyz
  1  'x, y, z'
loop_
 _atom_site_type_symbol
 _atom_site_label
 _atom_site_symmetry_multiplicity
 _atom_site_fract_x
 _atom_site_fract_y
 _atom_site_fract_z
 _atom_site_occupancy
  La  La0  1  0.670428  0.329572  0.964269  1
  La  La1  1  0.126900  0.873100  0.243359  1
  La  La2  1  0.751803  0.885723  0.241765  1
  La  La3  1  0.114277  0.248197  0.241765  1
  La  La4  1  0.872332  0.127668  0.753288  1
  La  La5  1  0.253256  0.126200  0.743992  1
  La  La6  1  0.873800  0.746744  0.743992  1
  La  La7  1  0.537108  0.462892  0.445050  1
  La  La8  1  0.919587  0.453953  0.436594  1
  La  La9  1  0.546047  0.080413  0.436594  1
  La  La10  1  0.463322  0.536678  0.944685  1
  La  La11  1  0.075385  0.535254  0.943532  1
  La  La12  1  0.464746  0.924615  0.943532  1
  Pr  Pr13  1  0.334008  0.665992  0.453568  1
  Os  Os14  1  0.811113  0.188887  0.189208  1
  Pd  Pd15  1  0.374042  0.188808  0.191668  1
  Pd  Pd16  1  0.811192  0.625958  0.191668  1
  Pd  Pd17  1  0.188095  0.811905  0.692531  1
  Pd  Pd18  1  0.622734  0.810175  0.692363  1
  Pd  Pd19  1  0.189825  0.377266  0.692363  1
