# generated using pymatgen
data_Ta4(HRu4)3
_symmetry_space_group_name_H-M   'P 1'
_cell_length_a   3.94303500
_cell_length_b   3.94303500
_cell_length_c   15.69837700
_cell_angle_alpha   90.00000000
_cell_angle_beta   90.00000000
_cell_angle_gamma   90.00000000
_symmetry_Int_Tables_number   1
_chemical_formula_structural   Ta4(HRu4)3
_chemical_formula_sum   'Ta4 H3 Ru12'
_cell_volume   244.07090904
_cell_formula_units_Z   1
loop_
 _symmetry_equiv_pos_site_id
 _symmetry_equiv_pos_as_xyz
  1  'x, y, z'
loop_
 _atom_site_type_symbol
 _atom_site_label
 _atom_site_symmetry_multiplicity
 _atom_site_fract_x
 _atom_site_fract_y
 _atom_site_fract_z
 _atom_site_occupancy
  Ta  Ta0  1  0.000000  0.000000  0.876532  1
  Ta  Ta1  1  0.000000  0.000000  0.123468  1
  Ta  Ta2  1  0.000000  0.000000  0.375323  1
  Ta  Ta3  1  0.000000  0.000000  0.624677  1
  H  H4  1  0.500000  0.500000  0.247265  1
  H  H5  1  0.500000  0.500000  0.500000  1
  H  H6  1  0.500000  0.500000  0.752735  1
  Ru  Ru7  1  0.500000  0.500000  0.878081  1
  Ru  Ru8  1  0.500000  0.500000  0.121919  1
  Ru  Ru9  1  0.500000  0.500000  0.373755  1
  Ru  Ru10  1  0.500000  0.500000  0.626245  1
  Ru  Ru11  1  0.500000  0.000000  0.000000  1
  Ru  Ru12  1  0.500000  0.000000  0.248787  1
  Ru  Ru13  1  0.500000  0.000000  0.500000  1
  Ru  Ru14  1  0.500000  0.000000  0.751213  1
  Ru  Ru15  1  0.000000  0.500000  0.000000  1
  Ru  Ru16  1  0.000000  0.500000  0.248787  1
  Ru  Ru17  1  0.000000  0.500000  0.500000  1
  Ru  Ru18  1  0.000000  0.500000  0.751213  1
