# generated using pymatgen
data_Sr3Pa5O14
_symmetry_space_group_name_H-M   'P 1'
_cell_length_a   7.90374600
_cell_length_b   7.86614069
_cell_length_c   7.86613700
_cell_angle_alpha   59.99996926
_cell_angle_beta   60.15726885
_cell_angle_gamma   60.15730810
_symmetry_Int_Tables_number   1
_chemical_formula_structural   Sr3Pa5O14
_chemical_formula_sum   'Sr3 Pa5 O14'
_cell_volume   346.63268302
_cell_formula_units_Z   1
loop_
 _symmetry_equiv_pos_site_id
 _symmetry_equiv_pos_as_xyz
  1  'x, y, z'
loop_
 _atom_site_type_symbol
 _atom_site_label
 _atom_site_symmetry_multiplicity
 _atom_site_fract_x
 _atom_site_fract_y
 _atom_site_fract_z
 _atom_site_occupancy
  Sr  Sr0  1  0.500000  0.500000  0.000000  1
  Sr  Sr1  1  0.500001  0.500001  0.499999  1
  Sr  Sr2  1  0.499999  0.000000  0.500001  1
  Pa  Pa3  1  0.000000  0.000000  0.000000  1
  Pa  Pa4  1  0.500001  0.000000  0.000000  1
  Pa  Pa5  1  0.000000  0.499998  0.000000  1
  Pa  Pa6  1  0.000000  0.000000  0.500001  1
  Pa  Pa7  1  0.000000  0.499999  0.500001  1
  O  O8  1  0.662118  0.656703  0.090589  1
  O  O9  1  0.662118  0.090590  0.090589  1
  O  O10  1  0.082727  0.652423  0.112426  1
  O  O11  1  0.917276  0.347576  0.347575  1
  O  O12  1  0.337881  0.909410  0.343299  1
  O  O13  1  0.917275  0.887573  0.347576  1
  O  O14  1  0.320066  0.393311  0.393311  1
  O  O15  1  0.679936  0.606688  0.606689  1
  O  O16  1  0.082725  0.112427  0.652425  1
  O  O17  1  0.662115  0.090590  0.656702  1
  O  O18  1  0.082724  0.652424  0.652426  1
  O  O19  1  0.337884  0.343296  0.909411  1
  O  O20  1  0.917275  0.347575  0.887574  1
  O  O21  1  0.337884  0.909410  0.909411  1
