# generated using pymatgen
data_SrNd6PtI12
_symmetry_space_group_name_H-M   'P 1'
_cell_length_a   10.06694451
_cell_length_b   10.06694539
_cell_length_c   10.06694458
_cell_angle_alpha   106.45459982
_cell_angle_beta   106.45460389
_cell_angle_gamma   106.45461313
_symmetry_Int_Tables_number   1
_chemical_formula_structural   SrNd6PtI12
_chemical_formula_sum   'Sr1 Nd6 Pt1 I12'
_cell_volume   861.97599897
_cell_formula_units_Z   1
loop_
 _symmetry_equiv_pos_site_id
 _symmetry_equiv_pos_as_xyz
  1  'x, y, z'
loop_
 _atom_site_type_symbol
 _atom_site_label
 _atom_site_symmetry_multiplicity
 _atom_site_fract_x
 _atom_site_fract_y
 _atom_site_fract_z
 _atom_site_occupancy
  Sr  Sr0  1  0.000000  0.000000  0.000000  1
  Nd  Nd1  1  0.401808  0.477781  0.195729  1
  Nd  Nd2  1  0.195729  0.401808  0.477781  1
  Nd  Nd3  1  0.477781  0.195729  0.401808  1
  Nd  Nd4  1  0.598192  0.522219  0.804271  1
  Nd  Nd5  1  0.804271  0.598192  0.522219  1
  Nd  Nd6  1  0.522219  0.804271  0.598192  1
  Pt  Pt7  1  0.500000  0.500000  0.500000  1
  I  I8  1  0.046732  0.355831  0.127139  1
  I  I9  1  0.127139  0.046732  0.355831  1
  I  I10  1  0.355831  0.127139  0.046732  1
  I  I11  1  0.953268  0.644169  0.872861  1
  I  I12  1  0.872861  0.953268  0.644169  1
  I  I13  1  0.644169  0.872861  0.953268  1
  I  I14  1  0.724402  0.574297  0.178088  1
  I  I15  1  0.178088  0.724402  0.574297  1
  I  I16  1  0.574297  0.178088  0.724402  1
  I  I17  1  0.275598  0.425703  0.821912  1
  I  I18  1  0.821912  0.275598  0.425703  1
  I  I19  1  0.425703  0.821912  0.275598  1
