# generated using pymatgen
data_Gd2Sc2PtRh
_symmetry_space_group_name_H-M   'P 1'
_cell_length_a   4.60392100
_cell_length_b   7.16061300
_cell_length_c   8.56658900
_cell_angle_alpha   90.00000000
_cell_angle_beta   90.00000000
_cell_angle_gamma   90.00000000
_symmetry_Int_Tables_number   1
_chemical_formula_structural   Gd2Sc2PtRh
_chemical_formula_sum   'Gd4 Sc4 Pt2 Rh2'
_cell_volume   282.41385347
_cell_formula_units_Z   2
loop_
 _symmetry_equiv_pos_site_id
 _symmetry_equiv_pos_as_xyz
  1  'x, y, z'
loop_
 _atom_site_type_symbol
 _atom_site_label
 _atom_site_symmetry_multiplicity
 _atom_site_fract_x
 _atom_site_fract_y
 _atom_site_fract_z
 _atom_site_occupancy
  Gd  Gd0  1  0.250000  0.977618  0.326354  1
  Gd  Gd1  1  0.750000  0.518330  0.827259  1
  Gd  Gd2  1  0.250000  0.477618  0.173646  1
  Gd  Gd3  1  0.750000  0.018330  0.672741  1
  Sc  Sc4  1  0.750000  0.639061  0.428959  1
  Sc  Sc5  1  0.750000  0.139061  0.071041  1
  Sc  Sc6  1  0.250000  0.364306  0.571845  1
  Sc  Sc7  1  0.250000  0.864306  0.928155  1
  Pt  Pt8  1  0.750000  0.760781  0.101786  1
  Pt  Pt9  1  0.750000  0.260781  0.398214  1
  Rh  Rh10  1  0.250000  0.239902  0.905639  1
  Rh  Rh11  1  0.250000  0.739902  0.594361  1
