# generated using pymatgen
data_CsPmSe2
_symmetry_space_group_name_H-M   'P 1'
_cell_length_a   9.04610913
_cell_length_b   8.60808400
_cell_length_c   7.69038706
_cell_angle_alpha   90.00000000
_cell_angle_beta   106.10865171
_cell_angle_gamma   90.00000000
_symmetry_Int_Tables_number   1
_chemical_formula_structural   CsPmSe2
_chemical_formula_sum   'Cs4 Pm4 Se8'
_cell_volume   575.33547785
_cell_formula_units_Z   4
loop_
 _symmetry_equiv_pos_site_id
 _symmetry_equiv_pos_as_xyz
  1  'x, y, z'
loop_
 _atom_site_type_symbol
 _atom_site_label
 _atom_site_symmetry_multiplicity
 _atom_site_fract_x
 _atom_site_fract_y
 _atom_site_fract_z
 _atom_site_occupancy
  Cs  Cs0  1  0.002686  0.750506  0.002397  1
  Cs  Cs1  1  0.997313  0.250507  0.497602  1
  Cs  Cs2  1  0.002687  0.749492  0.502396  1
  Cs  Cs3  1  0.997314  0.249493  0.997604  1
  Pm  Pm4  1  0.501805  0.626880  0.250916  1
  Pm  Pm5  1  0.498194  0.126881  0.249084  1
  Pm  Pm6  1  0.501806  0.873118  0.750916  1
  Pm  Pm7  1  0.498195  0.373119  0.749084  1
  Se  Se8  1  0.682534  0.380983  0.139807  1
  Se  Se9  1  0.317465  0.880984  0.360192  1
  Se  Se10  1  0.682535  0.119016  0.639807  1
  Se  Se11  1  0.317465  0.619016  0.860192  1
  Se  Se12  1  0.685340  0.883149  0.142219  1
  Se  Se13  1  0.314660  0.383150  0.357781  1
  Se  Se14  1  0.685340  0.616851  0.642219  1
  Se  Se15  1  0.314660  0.116851  0.857781  1
