# generated using pymatgen
data_Dy6NpO12
_symmetry_space_group_name_H-M   'P 1'
_cell_length_a   6.56038838
_cell_length_b   6.56038977
_cell_length_c   6.56038803
_cell_angle_alpha   98.87697192
_cell_angle_beta   98.87698669
_cell_angle_gamma   98.87699149
_symmetry_Int_Tables_number   1
_chemical_formula_structural   Dy6NpO12
_chemical_formula_sum   'Dy6 Np1 O12'
_cell_volume   270.99963446
_cell_formula_units_Z   1
loop_
 _symmetry_equiv_pos_site_id
 _symmetry_equiv_pos_as_xyz
  1  'x, y, z'
loop_
 _atom_site_type_symbol
 _atom_site_label
 _atom_site_symmetry_multiplicity
 _atom_site_fract_x
 _atom_site_fract_y
 _atom_site_fract_z
 _atom_site_occupancy
  Dy  Dy0  1  0.854545  0.388604  0.679554  1
  Dy  Dy1  1  0.611396  0.320446  0.145455  1
  Dy  Dy2  1  0.320446  0.145455  0.611396  1
  Dy  Dy3  1  0.679554  0.854545  0.388604  1
  Dy  Dy4  1  0.388604  0.679554  0.854545  1
  Dy  Dy5  1  0.145455  0.611396  0.320446  1
  Np  Np6  1  0.000000  0.000000  0.000000  1
  O  O7  1  0.924713  0.044978  0.691582  1
  O  O8  1  0.955022  0.308418  0.075287  1
  O  O9  1  0.588871  0.177558  0.430086  1
  O  O10  1  0.822442  0.569914  0.411129  1
  O  O11  1  0.308418  0.075287  0.955022  1
  O  O12  1  0.569914  0.411129  0.822442  1
  O  O13  1  0.430086  0.588871  0.177558  1
  O  O14  1  0.691582  0.924713  0.044978  1
  O  O15  1  0.177558  0.430086  0.588871  1
  O  O16  1  0.411129  0.822442  0.569914  1
  O  O17  1  0.044978  0.691582  0.924713  1
  O  O18  1  0.075287  0.955022  0.308418  1
