# generated using pymatgen
data_Sc12Tl(ReBr8)2
_symmetry_space_group_name_H-M   'P 1'
_cell_length_a   9.01897279
_cell_length_b   11.08549227
_cell_length_c   11.71682000
_cell_angle_alpha   117.05285657
_cell_angle_beta   101.84738514
_cell_angle_gamma   101.42008676
_symmetry_Int_Tables_number   1
_chemical_formula_structural   Sc12Tl(ReBr8)2
_chemical_formula_sum   'Sc12 Tl1 Re2 Br16'
_cell_volume   962.30759270
_cell_formula_units_Z   1
loop_
 _symmetry_equiv_pos_site_id
 _symmetry_equiv_pos_as_xyz
  1  'x, y, z'
loop_
 _atom_site_type_symbol
 _atom_site_label
 _atom_site_symmetry_multiplicity
 _atom_site_fract_x
 _atom_site_fract_y
 _atom_site_fract_z
 _atom_site_occupancy
  Sc  Sc0  1  0.096492  0.238295  0.337945  1
  Sc  Sc1  1  0.903495  0.761700  0.662075  1
  Sc  Sc2  1  0.753486  0.538936  0.306320  1
  Sc  Sc3  1  0.246488  0.461043  0.693668  1
  Sc  Sc4  1  0.311487  0.762964  0.662289  1
  Sc  Sc5  1  0.688490  0.237040  0.337689  1
  Sc  Sc6  1  0.160700  0.538455  0.306939  1
  Sc  Sc7  1  0.839275  0.461559  0.693066  1
  Sc  Sc8  1  0.400715  0.350268  0.261857  1
  Sc  Sc9  1  0.599180  0.649750  0.738142  1
  Sc  Sc10  1  0.456991  0.302987  0.520454  1
  Sc  Sc11  1  0.542973  0.697025  0.479540  1
  Tl  Tl12  1  0.000057  0.499981  0.499965  1
  Re  Re13  1  0.336031  0.500184  0.499669  1
  Re  Re14  1  0.664063  0.499828  0.500335  1
  Br  Br15  1  0.401343  0.748927  0.896390  1
  Br  Br16  1  0.598611  0.251056  0.103599  1
  Br  Br17  1  0.191368  0.971606  0.787453  1
  Br  Br18  1  0.808634  0.028398  0.212578  1
  Br  Br19  1  0.333347  0.082800  0.242849  1
  Br  Br20  1  0.666744  0.917206  0.757151  1
  Br  Br21  1  0.559023  0.437380  0.807289  1
  Br  Br22  1  0.441031  0.562631  0.192708  1
  Br  Br23  1  0.312158  0.834524  0.461954  1
  Br  Br24  1  0.687833  0.165472  0.538039  1
  Br  Br25  1  0.166241  0.164532  0.534045  1
  Br  Br26  1  0.833773  0.835462  0.465963  1
  Br  Br27  1  0.926230  0.576785  0.157261  1
  Br  Br28  1  0.073763  0.423196  0.842736  1
  Br  Br29  1  0.928372  0.747887  0.896632  1
  Br  Br30  1  0.071604  0.252125  0.103399  1
