# generated using pymatgen
data_Tb5Lu3(P3Ir4)4
_symmetry_space_group_name_H-M   'P 1'
_cell_length_a   12.94989700
_cell_length_b   12.94989608
_cell_length_c   3.99848900
_cell_angle_alpha   90.00000000
_cell_angle_beta   90.00000000
_cell_angle_gamma   119.99999981
_symmetry_Int_Tables_number   1
_chemical_formula_structural   Tb5Lu3(P3Ir4)4
_chemical_formula_sum   'Tb5 Lu3 P12 Ir16'
_cell_volume   580.70977363
_cell_formula_units_Z   1
loop_
 _symmetry_equiv_pos_site_id
 _symmetry_equiv_pos_as_xyz
  1  'x, y, z'
loop_
 _atom_site_type_symbol
 _atom_site_label
 _atom_site_symmetry_multiplicity
 _atom_site_fract_x
 _atom_site_fract_y
 _atom_site_fract_z
 _atom_site_occupancy
  Tb  Tb0  1  0.333333  0.666667  0.500000  1
  Tb  Tb1  1  0.666667  0.333333  0.500000  1
  Tb  Tb2  1  0.000000  0.814071  0.000000  1
  Tb  Tb3  1  0.185929  0.185929  0.000000  1
  Tb  Tb4  1  0.814071  0.000000  0.000000  1
  Lu  Lu5  1  0.000000  0.446373  0.500000  1
  Lu  Lu6  1  0.553627  0.553627  0.500000  1
  Lu  Lu7  1  0.446373  0.000000  0.500000  1
  P  P8  1  0.000000  0.651378  0.500000  1
  P  P9  1  0.348622  0.348622  0.500000  1
  P  P10  1  0.651378  0.000000  0.500000  1
  P  P11  1  0.516834  0.687888  0.000000  1
  P  P12  1  0.312112  0.828947  0.000000  1
  P  P13  1  0.171053  0.483166  0.000000  1
  P  P14  1  0.483166  0.171053  0.000000  1
  P  P15  1  0.687888  0.516834  0.000000  1
  P  P16  1  0.828947  0.312112  0.000000  1
  P  P17  1  0.000000  0.176835  0.500000  1
  P  P18  1  0.823165  0.823165  0.500000  1
  P  P19  1  0.176835  0.000000  0.500000  1
  Ir  Ir20  1  0.509729  0.866526  0.000000  1
  Ir  Ir21  1  0.133474  0.643204  0.000000  1
  Ir  Ir22  1  0.356796  0.490271  0.000000  1
  Ir  Ir23  1  0.490271  0.356796  0.000000  1
  Ir  Ir24  1  0.866526  0.509729  0.000000  1
  Ir  Ir25  1  0.643204  0.133474  0.000000  1
  Ir  Ir26  1  0.000000  0.276313  0.000000  1
  Ir  Ir27  1  0.723687  0.723687  0.000000  1
  Ir  Ir28  1  0.276313  0.000000  0.000000  1
  Ir  Ir29  1  0.629445  0.807927  0.500000  1
  Ir  Ir30  1  0.192073  0.821518  0.500000  1
  Ir  Ir31  1  0.178482  0.370555  0.500000  1
  Ir  Ir32  1  0.370555  0.178482  0.500000  1
  Ir  Ir33  1  0.807927  0.629445  0.500000  1
  Ir  Ir34  1  0.821518  0.192073  0.500000  1
  Ir  Ir35  1  0.000000  0.000000  0.500000  1
