# generated using pymatgen
data_Y6Zn22SiPd
_symmetry_space_group_name_H-M   'P 1'
_cell_length_a   9.06696559
_cell_length_b   9.06696529
_cell_length_c   9.06696500
_cell_angle_alpha   60.00000472
_cell_angle_beta   60.00000582
_cell_angle_gamma   59.99999435
_symmetry_Int_Tables_number   1
_chemical_formula_structural   Y6Zn22SiPd
_chemical_formula_sum   'Y6 Zn22 Si1 Pd1'
_cell_volume   527.07313232
_cell_formula_units_Z   1
loop_
 _symmetry_equiv_pos_site_id
 _symmetry_equiv_pos_as_xyz
  1  'x, y, z'
loop_
 _atom_site_type_symbol
 _atom_site_label
 _atom_site_symmetry_multiplicity
 _atom_site_fract_x
 _atom_site_fract_y
 _atom_site_fract_z
 _atom_site_occupancy
  Y  Y0  1  0.716023  0.283977  0.283977  1
  Y  Y1  1  0.283977  0.716023  0.716023  1
  Y  Y2  1  0.283977  0.716023  0.283977  1
  Y  Y3  1  0.716023  0.283977  0.716023  1
  Y  Y4  1  0.283977  0.283977  0.716023  1
  Y  Y5  1  0.716023  0.716023  0.283977  1
  Zn  Zn6  1  0.122995  0.122995  0.122995  1
  Zn  Zn7  1  0.877005  0.877005  0.877005  1
  Zn  Zn8  1  0.122995  0.122995  0.631015  1
  Zn  Zn9  1  0.122995  0.631015  0.122995  1
  Zn  Zn10  1  0.877005  0.877005  0.368985  1
  Zn  Zn11  1  0.877005  0.368985  0.877005  1
  Zn  Zn12  1  0.631015  0.122995  0.122995  1
  Zn  Zn13  1  0.368985  0.877005  0.877005  1
  Zn  Zn14  1  0.500000  0.000000  0.000000  1
  Zn  Zn15  1  0.000000  0.500000  0.500000  1
  Zn  Zn16  1  0.000000  0.500000  0.000000  1
  Zn  Zn17  1  0.500000  0.000000  0.500000  1
  Zn  Zn18  1  0.000000  0.000000  0.500000  1
  Zn  Zn19  1  0.500000  0.500000  0.000000  1
  Zn  Zn20  1  0.332428  0.332428  0.332428  1
  Zn  Zn21  1  0.667572  0.667572  0.667572  1
  Zn  Zn22  1  0.332428  0.332428  0.002715  1
  Zn  Zn23  1  0.332428  0.002715  0.332428  1
  Zn  Zn24  1  0.667572  0.667572  0.997285  1
  Zn  Zn25  1  0.667572  0.997285  0.667572  1
  Zn  Zn26  1  0.002715  0.332428  0.332428  1
  Zn  Zn27  1  0.997285  0.667572  0.667572  1
  Si  Si28  1  0.500000  0.500000  0.500000  1
  Pd  Pd29  1  0.000000  0.000000  0.000000  1
