# generated using pymatgen
data_U2Be24CoCu
_symmetry_space_group_name_H-M   'P 1'
_cell_length_a   7.22599161
_cell_length_b   7.25205971
_cell_length_c   7.25472487
_cell_angle_alpha   59.75020971
_cell_angle_beta   60.36779430
_cell_angle_gamma   60.14321005
_symmetry_Int_Tables_number   1
_chemical_formula_structural   U2Be24CoCu
_chemical_formula_sum   'U2 Be24 Co1 Cu1'
_cell_volume   269.33640760
_cell_formula_units_Z   1
loop_
 _symmetry_equiv_pos_site_id
 _symmetry_equiv_pos_as_xyz
  1  'x, y, z'
loop_
 _atom_site_type_symbol
 _atom_site_label
 _atom_site_symmetry_multiplicity
 _atom_site_fract_x
 _atom_site_fract_y
 _atom_site_fract_z
 _atom_site_occupancy
  U  U0  1  0.759376  0.748897  0.751826  1
  U  U1  1  0.248174  0.260098  0.240624  1
  Be  Be2  1  0.001564  0.992839  0.998436  1
  Be  Be3  1  0.502156  0.500630  0.497844  1
  Be  Be4  1  0.941884  0.297725  0.058116  1
  Be  Be5  1  0.787477  0.437307  0.565439  1
  Be  Be6  1  0.434561  0.790222  0.212523  1
  Be  Be7  1  0.214894  0.432915  0.785106  1
  Be  Be8  1  0.786711  0.563328  0.213289  1
  Be  Be9  1  0.437894  0.562374  0.789293  1
  Be  Be10  1  0.210707  0.789562  0.562106  1
  Be  Be11  1  0.065145  0.941586  0.292279  1
  Be  Be12  1  0.295644  0.059274  0.940794  1
  Be  Be13  1  0.940625  0.703286  0.294476  1
  Be  Be14  1  0.940491  0.060085  0.705455  1
  Be  Be15  1  0.294545  0.706031  0.059509  1
  Be  Be16  1  0.705524  0.938387  0.059375  1
  Be  Be17  1  0.707721  0.299011  0.934855  1
  Be  Be18  1  0.059206  0.295712  0.704356  1
  Be  Be19  1  0.559029  0.788839  0.440971  1
  Be  Be20  1  0.562875  0.210270  0.788648  1
  Be  Be21  1  0.792206  0.210956  0.440016  1
  Be  Be22  1  0.559984  0.443177  0.207794  1
  Be  Be23  1  0.211352  0.561793  0.437125  1
  Be  Be24  1  0.430939  0.213027  0.569061  1
  Be  Be25  1  0.291863  0.936034  0.708137  1
  Co  Co26  1  0.057623  0.694854  0.942377  1
  Cu  Cu27  1  0.699837  0.061782  0.300163  1
