# generated using pymatgen
data_Tb11Y5Cd4Ni3Os
_symmetry_space_group_name_H-M   'P 1'
_cell_length_a   9.63233783
_cell_length_b   9.63291590
_cell_length_c   9.63291579
_cell_angle_alpha   59.57664131
_cell_angle_beta   59.57952286
_cell_angle_gamma   59.57953017
_symmetry_Int_Tables_number   1
_chemical_formula_structural   Tb11Y5Cd4Ni3Os
_chemical_formula_sum   'Tb11 Y5 Cd4 Ni3 Os1'
_cell_volume   625.96730086
_cell_formula_units_Z   1
loop_
 _symmetry_equiv_pos_site_id
 _symmetry_equiv_pos_as_xyz
  1  'x, y, z'
loop_
 _atom_site_type_symbol
 _atom_site_label
 _atom_site_symmetry_multiplicity
 _atom_site_fract_x
 _atom_site_fract_y
 _atom_site_fract_z
 _atom_site_occupancy
  Tb  Tb0  1  0.597711  0.597848  0.597848  1
  Tb  Tb1  1  0.600531  0.600480  0.203794  1
  Tb  Tb2  1  0.600531  0.203794  0.600480  1
  Tb  Tb3  1  0.203960  0.600433  0.600433  1
  Tb  Tb4  1  0.060329  0.438609  0.438609  1
  Tb  Tb5  1  0.437133  0.061022  0.061022  1
  Tb  Tb6  1  0.438597  0.060431  0.438512  1
  Tb  Tb7  1  0.061008  0.437247  0.061011  1
  Tb  Tb8  1  0.438597  0.438512  0.060431  1
  Tb  Tb9  1  0.061008  0.061011  0.437247  1
  Tb  Tb10  1  0.186264  0.815358  0.815358  1
  Y  Y11  1  0.807518  0.188622  0.188622  1
  Y  Y12  1  0.815212  0.186217  0.815245  1
  Y  Y13  1  0.188439  0.807607  0.188650  1
  Y  Y14  1  0.815212  0.815245  0.186217  1
  Y  Y15  1  0.188439  0.188650  0.807607  1
  Cd  Cd16  1  0.830228  0.830348  0.830348  1
  Cd  Cd17  1  0.830364  0.830326  0.505871  1
  Cd  Cd18  1  0.830364  0.505871  0.830326  1
  Cd  Cd19  1  0.505972  0.830305  0.830305  1
  Ni  Ni20  1  0.392428  0.392078  0.824739  1
  Ni  Ni21  1  0.392428  0.824739  0.392078  1
  Ni  Ni22  1  0.824781  0.392278  0.392278  1
  Os  Os23  1  0.392943  0.392969  0.392969  1
