# generated using pymatgen
data_BaCr2(SeO3)4
_symmetry_space_group_name_H-M   'P 1'
_cell_length_a   5.27589900
_cell_length_b   10.28188713
_cell_length_c   14.09097210
_cell_angle_alpha   49.12581955
_cell_angle_beta   90.00000000
_cell_angle_gamma   90.00000000
_symmetry_Int_Tables_number   1
_chemical_formula_structural   BaCr2(SeO3)4
_chemical_formula_sum   'Ba2 Cr4 Se8 O24'
_cell_volume   577.98600381
_cell_formula_units_Z   2
loop_
 _symmetry_equiv_pos_site_id
 _symmetry_equiv_pos_as_xyz
  1  'x, y, z'
loop_
 _atom_site_type_symbol
 _atom_site_label
 _atom_site_symmetry_multiplicity
 _atom_site_fract_x
 _atom_site_fract_y
 _atom_site_fract_z
 _atom_site_occupancy
  Ba  Ba0  1  0.061676  0.000000  0.750000  1
  Ba  Ba1  1  0.938324  0.000000  0.250000  1
  Cr  Cr2  1  0.000000  0.500000  0.500000  1
  Cr  Cr3  1  0.500000  0.000000  0.000000  1
  Cr  Cr4  1  0.500000  0.000000  0.500000  1
  Cr  Cr5  1  0.000000  0.500000  0.000000  1
  Se  Se6  1  0.495893  0.343582  0.182357  1
  Se  Se7  1  0.009380  0.745922  0.595089  1
  Se  Se8  1  0.009380  0.254078  0.904911  1
  Se  Se9  1  0.990620  0.254078  0.404911  1
  Se  Se10  1  0.504107  0.343582  0.682357  1
  Se  Se11  1  0.504107  0.656418  0.817643  1
  Se  Se12  1  0.495893  0.656418  0.317643  1
  Se  Se13  1  0.990620  0.745922  0.095089  1
  O  O14  1  0.209085  0.701193  0.351408  1
  O  O15  1  0.293142  0.809843  0.032028  1
  O  O16  1  0.790915  0.701193  0.851408  1
  O  O17  1  0.811645  0.914974  0.966151  1
  O  O18  1  0.706858  0.809843  0.532028  1
  O  O19  1  0.304819  0.348053  0.582550  1
  O  O20  1  0.188355  0.085026  0.033849  1
  O  O21  1  0.695181  0.348053  0.082550  1
  O  O22  1  0.790915  0.298807  0.648592  1
  O  O23  1  0.583829  0.136665  0.316225  1
  O  O24  1  0.695181  0.651947  0.417450  1
  O  O25  1  0.293142  0.190157  0.467972  1
  O  O26  1  0.583829  0.863335  0.183775  1
  O  O27  1  0.811645  0.085026  0.533849  1
  O  O28  1  0.416171  0.136665  0.816225  1
  O  O29  1  0.057189  0.422314  0.901719  1
  O  O30  1  0.706858  0.190157  0.967972  1
  O  O31  1  0.942811  0.422314  0.401719  1
  O  O32  1  0.057189  0.577686  0.598281  1
  O  O33  1  0.416171  0.863335  0.683775  1
  O  O34  1  0.304819  0.651947  0.917450  1
  O  O35  1  0.188355  0.914974  0.466151  1
  O  O36  1  0.942811  0.577686  0.098281  1
  O  O37  1  0.209085  0.298807  0.148592  1
