# generated using pymatgen
data_Li6Nb5GeRh12
_symmetry_space_group_name_H-M   'P 1'
_cell_length_a   4.35139300
_cell_length_b   6.09856500
_cell_length_c   12.96171600
_cell_angle_alpha   90.00000000
_cell_angle_beta   89.99948902
_cell_angle_gamma   90.00000000
_symmetry_Int_Tables_number   1
_chemical_formula_structural   Li6Nb5GeRh12
_chemical_formula_sum   'Li6 Nb5 Ge1 Rh12'
_cell_volume   343.96833746
_cell_formula_units_Z   1
loop_
 _symmetry_equiv_pos_site_id
 _symmetry_equiv_pos_as_xyz
  1  'x, y, z'
loop_
 _atom_site_type_symbol
 _atom_site_label
 _atom_site_symmetry_multiplicity
 _atom_site_fract_x
 _atom_site_fract_y
 _atom_site_fract_z
 _atom_site_occupancy
  Li  Li0  1  0.999970  0.500000  0.000300  1
  Li  Li1  1  0.499768  0.000000  0.163444  1
  Li  Li2  1  0.999742  0.500000  0.333334  1
  Li  Li3  1  0.500009  0.000000  0.503230  1
  Li  Li4  1  0.000198  0.500000  0.666377  1
  Li  Li5  1  0.500246  0.000000  0.833333  1
  Nb  Nb6  1  0.000045  0.000000  0.995136  1
  Nb  Nb7  1  0.499794  0.500000  0.164694  1
  Nb  Nb8  1  0.999776  0.000000  0.333333  1
  Nb  Nb9  1  0.500002  0.500000  0.501974  1
  Nb  Nb10  1  0.000211  0.000000  0.671531  1
  Ge  Ge11  1  0.500248  0.500000  0.833325  1
  Rh  Rh12  1  0.500030  0.255779  0.994683  1
  Rh  Rh13  1  0.500030  0.744222  0.994683  1
  Rh  Rh14  1  0.999793  0.249382  0.165278  1
  Rh  Rh15  1  0.999793  0.750619  0.165278  1
  Rh  Rh16  1  0.499777  0.249894  0.333332  1
  Rh  Rh17  1  0.499777  0.750105  0.333332  1
  Rh  Rh18  1  0.999999  0.249383  0.501390  1
  Rh  Rh19  1  0.999999  0.750618  0.501390  1
  Rh  Rh20  1  0.500204  0.255776  0.671980  1
  Rh  Rh21  1  0.500204  0.744223  0.671980  1
  Rh  Rh22  1  0.000192  0.259386  0.833333  1
  Rh  Rh23  1  0.000192  0.740615  0.833333  1
