# generated using pymatgen
data_DyY4Er3Pt4
_symmetry_space_group_name_H-M   'P 1'
_cell_length_a   4.76097300
_cell_length_b   7.15932054
_cell_length_c   8.77136001
_cell_angle_alpha   89.91945910
_cell_angle_beta   90.00000000
_cell_angle_gamma   90.00000000
_symmetry_Int_Tables_number   1
_chemical_formula_structural   DyY4Er3Pt4
_chemical_formula_sum   'Dy1 Y4 Er3 Pt4'
_cell_volume   298.97442086
_cell_formula_units_Z   1
loop_
 _symmetry_equiv_pos_site_id
 _symmetry_equiv_pos_as_xyz
  1  'x, y, z'
loop_
 _atom_site_type_symbol
 _atom_site_label
 _atom_site_symmetry_multiplicity
 _atom_site_fract_x
 _atom_site_fract_y
 _atom_site_fract_z
 _atom_site_occupancy
  Dy  Dy0  1  0.750000  0.644589  0.420250  1
  Y  Y1  1  0.250000  0.990538  0.331165  1
  Y  Y2  1  0.250000  0.489240  0.168135  1
  Y  Y3  1  0.750000  0.010822  0.670095  1
  Y  Y4  1  0.750000  0.510373  0.830636  1
  Er  Er5  1  0.250000  0.856444  0.920973  1
  Er  Er6  1  0.250000  0.355539  0.579569  1
  Er  Er7  1  0.750000  0.143804  0.079159  1
  Pt  Pt8  1  0.250000  0.254868  0.906061  1
  Pt  Pt9  1  0.250000  0.755837  0.595755  1
  Pt  Pt10  1  0.750000  0.745231  0.091831  1
  Pt  Pt11  1  0.750000  0.242714  0.406373  1
