# generated using pymatgen
data_Ca3Ho2Sc(Si3Ru)8
_symmetry_space_group_name_H-M   'P 1'
_cell_length_a   10.12832466
_cell_length_b   10.12828932
_cell_length_c   8.13421285
_cell_angle_alpha   89.93847009
_cell_angle_beta   90.07894183
_cell_angle_gamma   132.62046018
_symmetry_Int_Tables_number   1
_chemical_formula_structural   Ca3Ho2Sc(Si3Ru)8
_chemical_formula_sum   'Ca3 Ho2 Sc1 Si24 Ru8'
_cell_volume   614.01822874
_cell_formula_units_Z   1
loop_
 _symmetry_equiv_pos_site_id
 _symmetry_equiv_pos_as_xyz
  1  'x, y, z'
loop_
 _atom_site_type_symbol
 _atom_site_label
 _atom_site_symmetry_multiplicity
 _atom_site_fract_x
 _atom_site_fract_y
 _atom_site_fract_z
 _atom_site_occupancy
  Ca  Ca0  1  0.501128  0.001146  0.749867  1
  Ca  Ca1  1  0.998897  0.498933  0.250143  1
  Ca  Ca2  1  0.498074  0.998077  0.250153  1
  Ho  Ho3  1  0.999707  0.999721  0.000306  1
  Ho  Ho4  1  0.000683  0.500663  0.749942  1
  Sc  Sc5  1  0.499838  0.499794  0.499800  1
  Si  Si6  1  0.793167  0.205593  0.499175  1
  Si  Si7  1  0.294064  0.706455  0.000298  1
  Si  Si8  1  0.206648  0.793702  0.499842  1
  Si  Si9  1  0.705292  0.293452  0.000999  1
  Si  Si10  1  0.333246  0.334459  0.831611  1
  Si  Si11  1  0.663739  0.667152  0.168649  1
  Si  Si12  1  0.169801  0.166527  0.333973  1
  Si  Si13  1  0.831765  0.830522  0.665798  1
  Si  Si14  1  0.121468  0.888118  0.726803  1
  Si  Si15  1  0.111576  0.877381  0.272268  1
  Si  Si16  1  0.609779  0.377648  0.229742  1
  Si  Si17  1  0.623330  0.391932  0.771056  1
  Si  Si18  1  0.877358  0.111518  0.272312  1
  Si  Si19  1  0.890448  0.123760  0.726828  1
  Si  Si20  1  0.389708  0.621209  0.771294  1
  Si  Si21  1  0.377709  0.609925  0.229818  1
  Si  Si22  1  0.345725  0.113019  0.503982  1
  Si  Si23  1  0.887511  0.656054  0.496627  1
  Si  Si24  1  0.389295  0.155446  0.004794  1
  Si  Si25  1  0.843692  0.610286  0.993674  1
  Si  Si26  1  0.654725  0.886705  0.495324  1
  Si  Si27  1  0.113030  0.344452  0.505869  1
  Si  Si28  1  0.610497  0.845021  0.995795  1
  Si  Si29  1  0.156880  0.390180  0.003499  1
  Ru  Ru30  1  0.669877  0.334495  0.502046  1
  Ru  Ru31  1  0.166590  0.830197  0.997982  1
  Ru  Ru32  1  0.331264  0.665748  0.501970  1
  Ru  Ru33  1  0.833737  0.171016  0.997772  1
  Ru  Ru34  1  0.127305  0.127190  0.626087  1
  Ru  Ru35  1  0.872351  0.872983  0.373417  1
  Ru  Ru36  1  0.373853  0.373170  0.127305  1
  Ru  Ru37  1  0.626244  0.626353  0.873177  1
