# generated using pymatgen
data_Tb5Cu6
_symmetry_space_group_name_H-M   'P 1'
_cell_length_a   15.98003732
_cell_length_b   15.98003785
_cell_length_c   3.86012400
_cell_angle_alpha   90.00000000
_cell_angle_beta   90.00000000
_cell_angle_gamma   166.45746615
_symmetry_Int_Tables_number   1
_chemical_formula_structural   Tb5Cu6
_chemical_formula_sum   'Tb5 Cu6'
_cell_volume   230.82498036
_cell_formula_units_Z   1
loop_
 _symmetry_equiv_pos_site_id
 _symmetry_equiv_pos_as_xyz
  1  'x, y, z'
loop_
 _atom_site_type_symbol
 _atom_site_label
 _atom_site_symmetry_multiplicity
 _atom_site_fract_x
 _atom_site_fract_y
 _atom_site_fract_z
 _atom_site_occupancy
  Tb  Tb0  1  0.000000  0.000000  0.000000  1
  Tb  Tb1  1  0.615416  0.384582  0.000000  1
  Tb  Tb2  1  0.384582  0.615416  0.000000  1
  Tb  Tb3  1  0.804850  0.195148  0.500001  1
  Tb  Tb4  1  0.195148  0.804850  0.500001  1
  Cu  Cu5  1  0.724324  0.275674  0.000000  1
  Cu  Cu6  1  0.275674  0.724324  0.000000  1
  Cu  Cu7  1  0.911066  0.088933  0.500001  1
  Cu  Cu8  1  0.539347  0.460651  0.500001  1
  Cu  Cu9  1  0.460651  0.539347  0.500001  1
  Cu  Cu10  1  0.088933  0.911066  0.500001  1
