# generated using pymatgen
data_Tm3Lu3Al18(Si3Os4)2
_symmetry_space_group_name_H-M   'P 1'
_cell_length_a   8.68463405
_cell_length_b   8.65947971
_cell_length_c   9.49855000
_cell_angle_alpha   90.00000000
_cell_angle_beta   90.00000000
_cell_angle_gamma   120.10898090
_symmetry_Int_Tables_number   1
_chemical_formula_structural   Tm3Lu3Al18(Si3Os4)2
_chemical_formula_sum   'Tm3 Lu3 Al18 Si6 Os8'
_cell_volume   617.94993703
_cell_formula_units_Z   1
loop_
 _symmetry_equiv_pos_site_id
 _symmetry_equiv_pos_as_xyz
  1  'x, y, z'
loop_
 _atom_site_type_symbol
 _atom_site_label
 _atom_site_symmetry_multiplicity
 _atom_site_fract_x
 _atom_site_fract_y
 _atom_site_fract_z
 _atom_site_occupancy
  Tm  Tm0  1  0.392088  0.193357  0.750000  1
  Tm  Tm1  1  0.198829  0.806732  0.250000  1
  Tm  Tm2  1  0.801343  0.193301  0.750000  1
  Lu  Lu3  1  0.195119  0.390070  0.250000  1
  Lu  Lu4  1  0.805073  0.610087  0.750000  1
  Lu  Lu5  1  0.606812  0.806097  0.250000  1
  Al  Al6  1  0.164745  0.329610  0.579058  1
  Al  Al7  1  0.835181  0.670435  0.420884  1
  Al  Al8  1  0.670867  0.834835  0.577711  1
  Al  Al9  1  0.835181  0.670435  0.079116  1
  Al  Al10  1  0.329168  0.165198  0.422133  1
  Al  Al11  1  0.164745  0.329610  0.920942  1
  Al  Al12  1  0.163888  0.834776  0.577840  1
  Al  Al13  1  0.329168  0.165198  0.077867  1
  Al  Al14  1  0.836015  0.165086  0.422089  1
  Al  Al15  1  0.670867  0.834835  0.922289  1
  Al  Al16  1  0.836015  0.165086  0.077911  1
  Al  Al17  1  0.163888  0.834776  0.922160  1
  Al  Al18  1  0.873144  0.433316  0.250000  1
  Al  Al19  1  0.126777  0.566648  0.750000  1
  Al  Al20  1  0.560204  0.433640  0.250000  1
  Al  Al21  1  0.439878  0.566647  0.750000  1
  Al  Al22  1  0.999450  0.999543  0.250000  1
  Al  Al23  1  0.000119  0.000239  0.750000  1
  Si  Si24  1  0.332286  0.664110  0.040462  1
  Si  Si25  1  0.668116  0.336116  0.959787  1
  Si  Si26  1  0.668116  0.336116  0.540213  1
  Si  Si27  1  0.332286  0.664110  0.459538  1
  Si  Si28  1  0.563239  0.126010  0.250000  1
  Si  Si29  1  0.436878  0.873752  0.750000  1
  Os  Os30  1  0.500078  0.999848  0.000203  1
  Os  Os31  1  0.000117  0.500055  0.000030  1
  Os  Os32  1  0.500078  0.999848  0.499797  1
  Os  Os33  1  0.500066  0.500203  0.000182  1
  Os  Os34  1  0.000117  0.500055  0.499970  1
  Os  Os35  1  0.500066  0.500203  0.499818  1
  Os  Os36  1  0.999996  0.000008  0.999999  1
  Os  Os37  1  0.999996  0.000008  0.500001  1
