# generated using pymatgen
data_RbThB12
_symmetry_space_group_name_H-M   'P 1'
_cell_length_a   5.91009713
_cell_length_b   5.91009724
_cell_length_c   5.91009700
_cell_angle_alpha   59.99999576
_cell_angle_beta   59.99999512
_cell_angle_gamma   59.99999738
_symmetry_Int_Tables_number   1
_chemical_formula_structural   RbThB12
_chemical_formula_sum   'Rb1 Th1 B12'
_cell_volume   145.97175090
_cell_formula_units_Z   1
loop_
 _symmetry_equiv_pos_site_id
 _symmetry_equiv_pos_as_xyz
  1  'x, y, z'
loop_
 _atom_site_type_symbol
 _atom_site_label
 _atom_site_symmetry_multiplicity
 _atom_site_fract_x
 _atom_site_fract_y
 _atom_site_fract_z
 _atom_site_occupancy
  Rb  Rb0  1  0.000000  0.000000  0.000000  1
  Th  Th1  1  0.500000  0.500000  0.500000  1
  B  B2  1  0.399364  0.100636  0.100636  1
  B  B3  1  0.899364  0.600636  0.600636  1
  B  B4  1  0.399364  0.399364  0.100636  1
  B  B5  1  0.899364  0.899364  0.600636  1
  B  B6  1  0.100636  0.399364  0.100636  1
  B  B7  1  0.600636  0.899364  0.600636  1
  B  B8  1  0.100636  0.100636  0.399364  1
  B  B9  1  0.600636  0.600636  0.899364  1
  B  B10  1  0.399364  0.100636  0.399364  1
  B  B11  1  0.899364  0.600636  0.899364  1
  B  B12  1  0.100636  0.399364  0.399364  1
  B  B13  1  0.600636  0.899364  0.899364  1
