# generated using pymatgen
data_Lu2TiCr2O8
_symmetry_space_group_name_H-M   'P 1'
_cell_length_a   6.21703922
_cell_length_b   6.21703774
_cell_length_c   5.08436956
_cell_angle_alpha   71.64326701
_cell_angle_beta   71.64325626
_cell_angle_gamma   58.00491079
_symmetry_Int_Tables_number   1
_chemical_formula_structural   Lu2TiCr2O8
_chemical_formula_sum   'Lu2 Ti1 Cr2 O8'
_cell_volume   155.48611462
_cell_formula_units_Z   1
loop_
 _symmetry_equiv_pos_site_id
 _symmetry_equiv_pos_as_xyz
  1  'x, y, z'
loop_
 _atom_site_type_symbol
 _atom_site_label
 _atom_site_symmetry_multiplicity
 _atom_site_fract_x
 _atom_site_fract_y
 _atom_site_fract_z
 _atom_site_occupancy
  Lu  Lu0  1  0.728669  0.725814  0.337422  1
  Lu  Lu1  1  0.274186  0.271331  0.662578  1
  Ti  Ti2  1  0.724128  0.275872  0.000000  1
  Cr  Cr3  1  0.002391  0.997609  0.500000  1
  Cr  Cr4  1  0.251581  0.748419  0.000000  1
  O  O5  1  0.401545  0.384784  0.927960  1
  O  O6  1  0.615216  0.598455  0.072040  1
  O  O7  1  0.895003  0.896075  0.919807  1
  O  O8  1  0.103925  0.104997  0.080193  1
  O  O9  1  0.343798  0.892299  0.592225  1
  O  O10  1  0.891435  0.339577  0.599998  1
  O  O11  1  0.107701  0.656202  0.407775  1
  O  O12  1  0.660423  0.108565  0.400002  1
