# generated using pymatgen
data_Ho2TmLu2(ReO6)2
_symmetry_space_group_name_H-M   'P 1'
_cell_length_a   6.75279272
_cell_length_b   6.75279267
_cell_length_c   7.43479791
_cell_angle_alpha   73.95370044
_cell_angle_beta   73.95369981
_cell_angle_gamma   49.30324289
_symmetry_Int_Tables_number   1
_chemical_formula_structural   Ho2TmLu2(ReO6)2
_chemical_formula_sum   'Ho2 Tm1 Lu2 Re2 O12'
_cell_volume   244.86541577
_cell_formula_units_Z   1
loop_
 _symmetry_equiv_pos_site_id
 _symmetry_equiv_pos_as_xyz
  1  'x, y, z'
loop_
 _atom_site_type_symbol
 _atom_site_label
 _atom_site_symmetry_multiplicity
 _atom_site_fract_x
 _atom_site_fract_y
 _atom_site_fract_z
 _atom_site_occupancy
  Ho  Ho0  1  0.697380  0.697380  0.640929  1
  Ho  Ho1  1  0.302680  0.302680  0.358355  1
  Tm  Tm2  1  0.314521  0.314521  0.823807  1
  Lu  Lu3  1  0.685429  0.685429  0.176958  1
  Lu  Lu4  1  0.000037  0.000037  0.499744  1
  Re  Re5  1  0.214236  0.785720  0.000259  1
  Re  Re6  1  0.785720  0.214236  0.000259  1
  O  O7  1  0.500588  0.500588  0.179931  1
  O  O8  1  0.500096  0.500096  0.820595  1
  O  O9  1  0.000686  0.000686  0.209919  1
  O  O10  1  0.999325  0.999325  0.790111  1
  O  O11  1  0.913316  0.420948  0.915701  1
  O  O12  1  0.580573  0.084453  0.085554  1
  O  O13  1  0.084453  0.580573  0.085554  1
  O  O14  1  0.596746  0.099435  0.574172  1
  O  O15  1  0.899625  0.404207  0.424140  1
  O  O16  1  0.404207  0.899625  0.424140  1
  O  O17  1  0.099435  0.596746  0.574172  1
  O  O18  1  0.420948  0.913316  0.915701  1
