# generated using pymatgen
data_TbYFe6Co
_symmetry_space_group_name_H-M   'P 1'
_cell_length_a   5.07980452
_cell_length_b   5.07917920
_cell_length_c   12.42361700
_cell_angle_alpha   78.26789088
_cell_angle_beta   78.20318976
_cell_angle_gamma   59.99592147
_symmetry_Int_Tables_number   1
_chemical_formula_structural   TbYFe6Co
_chemical_formula_sum   'Tb2 Y2 Fe12 Co2'
_cell_volume   269.78590655
_cell_formula_units_Z   2
loop_
 _symmetry_equiv_pos_site_id
 _symmetry_equiv_pos_as_xyz
  1  'x, y, z'
loop_
 _atom_site_type_symbol
 _atom_site_label
 _atom_site_symmetry_multiplicity
 _atom_site_fract_x
 _atom_site_fract_y
 _atom_site_fract_z
 _atom_site_occupancy
  Tb  Tb0  1  0.149920  0.148920  0.551239  1
  Tb  Tb1  1  0.850652  0.851327  0.447368  1
  Y  Y2  1  0.051908  0.051993  0.844190  1
  Y  Y3  1  0.948237  0.948079  0.155448  1
  Fe  Fe4  1  0.278639  0.277999  0.164722  1
  Fe  Fe5  1  0.722043  0.720925  0.834989  1
  Fe  Fe6  1  0.387829  0.388303  0.836040  1
  Fe  Fe7  1  0.611783  0.612501  0.163932  1
  Fe  Fe8  1  0.500197  0.500046  0.999998  1
  Fe  Fe9  1  0.499845  0.000291  0.000019  1
  Fe  Fe10  1  0.999760  0.500046  0.999998  1
  Fe  Fe11  1  0.109059  0.609520  0.672091  1
  Fe  Fe12  1  0.609332  0.609520  0.672091  1
  Fe  Fe13  1  0.609720  0.108440  0.672121  1
  Fe  Fe14  1  0.890425  0.390557  0.328445  1
  Fe  Fe15  1  0.390573  0.390557  0.328445  1
  Co  Co16  1  0.499633  0.499726  0.501009  1
  Co  Co17  1  0.390445  0.891253  0.327858  1
