# generated using pymatgen
data_AcPbIO2
_symmetry_space_group_name_H-M   'P 1'
_cell_length_a   7.64491026
_cell_length_b   7.64491011
_cell_length_c   7.64491075
_cell_angle_alpha   147.34805637
_cell_angle_beta   147.34805740
_cell_angle_gamma   46.84870635
_symmetry_Int_Tables_number   1
_chemical_formula_structural   AcPbIO2
_chemical_formula_sum   'Ac1 Pb1 I1 O2'
_cell_volume   129.58386753
_cell_formula_units_Z   1
loop_
 _symmetry_equiv_pos_site_id
 _symmetry_equiv_pos_as_xyz
  1  'x, y, z'
loop_
 _atom_site_type_symbol
 _atom_site_label
 _atom_site_symmetry_multiplicity
 _atom_site_fract_x
 _atom_site_fract_y
 _atom_site_fract_z
 _atom_site_occupancy
  Ac  Ac0  1  0.334268  0.334268  0.000000  1
  Pb  Pb1  1  0.669662  0.669662  0.000000  1
  I  I2  1  0.988867  0.988867  0.000000  1
  O  O3  1  0.753601  0.253601  0.500000  1
  O  O4  1  0.253601  0.753601  0.500000  1
