# generated using pymatgen
data_Er4Tm6In8Ag2PdPt
_symmetry_space_group_name_H-M   'P 1'
_cell_length_a   3.61505000
_cell_length_b   8.14123407
_cell_length_c   18.25440700
_cell_angle_alpha   89.93606928
_cell_angle_beta   90.00000000
_cell_angle_gamma   90.00000000
_symmetry_Int_Tables_number   1
_chemical_formula_structural   Er4Tm6In8Ag2PdPt
_chemical_formula_sum   'Er4 Tm6 In8 Ag2 Pd1 Pt1'
_cell_volume   537.24453781
_cell_formula_units_Z   1
loop_
 _symmetry_equiv_pos_site_id
 _symmetry_equiv_pos_as_xyz
  1  'x, y, z'
loop_
 _atom_site_type_symbol
 _atom_site_label
 _atom_site_symmetry_multiplicity
 _atom_site_fract_x
 _atom_site_fract_y
 _atom_site_fract_z
 _atom_site_occupancy
  Er  Er0  1  0.000000  0.271830  0.720117  1
  Er  Er1  1  0.000000  0.725480  0.279140  1
  Er  Er2  1  0.000000  0.999813  0.000015  1
  Er  Er3  1  0.000000  0.500602  0.499937  1
  Tm  Tm4  1  0.000000  0.121970  0.421580  1
  Tm  Tm5  1  0.000000  0.877664  0.578577  1
  Tm  Tm6  1  0.000000  0.382541  0.917173  1
  Tm  Tm7  1  0.000000  0.617044  0.083530  1
  Tm  Tm8  1  0.000000  0.256565  0.215440  1
  Tm  Tm9  1  0.000000  0.746265  0.784669  1
  In  In10  1  0.500000  0.416247  0.352601  1
  In  In11  1  0.500000  0.582298  0.648386  1
  In  In12  1  0.500000  0.078707  0.851505  1
  In  In13  1  0.500000  0.923176  0.148297  1
  In  In14  1  0.500000  0.292671  0.064537  1
  In  In15  1  0.500000  0.706388  0.934709  1
  In  In16  1  0.500000  0.208498  0.568626  1
  In  In17  1  0.500000  0.792315  0.431268  1
  Ag  Ag18  1  0.500000  0.028297  0.302022  1
  Ag  Ag19  1  0.500000  0.971349  0.697904  1
  Pd  Pd20  1  0.500000  0.473734  0.804694  1
  Pt  Pt21  1  0.500000  0.526544  0.195274  1
