# generated using pymatgen
data_YHo2NiSn3Pt2
_symmetry_space_group_name_H-M   'P 1'
_cell_length_a   7.58473926
_cell_length_b   7.58473789
_cell_length_c   3.83375200
_cell_angle_alpha   90.00000000
_cell_angle_beta   90.00000000
_cell_angle_gamma   120.13197133
_symmetry_Int_Tables_number   1
_chemical_formula_structural   YHo2NiSn3Pt2
_chemical_formula_sum   'Y1 Ho2 Ni1 Sn3 Pt2'
_cell_volume   190.74659959
_cell_formula_units_Z   1
loop_
 _symmetry_equiv_pos_site_id
 _symmetry_equiv_pos_as_xyz
  1  'x, y, z'
loop_
 _atom_site_type_symbol
 _atom_site_label
 _atom_site_symmetry_multiplicity
 _atom_site_fract_x
 _atom_site_fract_y
 _atom_site_fract_z
 _atom_site_occupancy
  Y  Y0  1  0.403696  0.403696  0.500000  1
  Ho  Ho1  1  0.596155  0.999965  0.500000  1
  Ho  Ho2  1  0.999965  0.596155  0.500000  1
  Ni  Ni3  1  0.999216  0.999216  0.500000  1
  Sn  Sn4  1  0.749546  0.749546  0.000000  1
  Sn  Sn5  1  0.250245  0.999649  0.000000  1
  Sn  Sn6  1  0.999649  0.250245  0.000000  1
  Pt  Pt7  1  0.668634  0.332894  0.000000  1
  Pt  Pt8  1  0.332894  0.668634  0.000000  1
