# generated using pymatgen
data_Na4Li2ScInSb4
_symmetry_space_group_name_H-M   'P 1'
_cell_length_a   10.08697896
_cell_length_b   10.08697985
_cell_length_c   6.57624700
_cell_angle_alpha   90.00000000
_cell_angle_beta   90.00000000
_cell_angle_gamma   98.93347243
_symmetry_Int_Tables_number   1
_chemical_formula_structural   Na4Li2ScInSb4
_chemical_formula_sum   'Na8 Li4 Sc2 In2 Sb8'
_cell_volume   660.99759678
_cell_formula_units_Z   2
loop_
 _symmetry_equiv_pos_site_id
 _symmetry_equiv_pos_as_xyz
  1  'x, y, z'
loop_
 _atom_site_type_symbol
 _atom_site_label
 _atom_site_symmetry_multiplicity
 _atom_site_fract_x
 _atom_site_fract_y
 _atom_site_fract_z
 _atom_site_occupancy
  Na  Na0  1  0.074237  0.425763  0.250000  1
  Na  Na1  1  0.425763  0.074237  0.750000  1
  Na  Na2  1  0.926141  0.573859  0.750000  1
  Na  Na3  1  0.573859  0.926141  0.250000  1
  Na  Na4  1  0.674761  0.325126  0.225237  1
  Na  Na5  1  0.825239  0.174874  0.725237  1
  Na  Na6  1  0.325126  0.674761  0.774763  1
  Na  Na7  1  0.174874  0.825239  0.274763  1
  Li  Li8  1  0.380525  0.380525  0.000000  1
  Li  Li9  1  0.119475  0.119475  0.500000  1
  Li  Li10  1  0.620335  0.620335  0.000000  1
  Li  Li11  1  0.879665  0.879665  0.500000  1
  Sc  Sc12  1  0.127304  0.127304  0.000000  1
  Sc  Sc13  1  0.372696  0.372696  0.500000  1
  In  In14  1  0.870484  0.870484  0.000000  1
  In  In15  1  0.629516  0.629516  0.500000  1
  Sb  Sb16  1  0.866393  0.633606  0.250000  1
  Sb  Sb17  1  0.633606  0.866393  0.750000  1
  Sb  Sb18  1  0.139289  0.360710  0.750000  1
  Sb  Sb19  1  0.360710  0.139289  0.250000  1
  Sb  Sb20  1  0.889110  0.116475  0.237691  1
  Sb  Sb21  1  0.610890  0.383525  0.737691  1
  Sb  Sb22  1  0.116475  0.889110  0.762309  1
  Sb  Sb23  1  0.383525  0.610890  0.262309  1
