# generated using pymatgen
data_Tb4Pr6Sn20Pd3Rh5
_symmetry_space_group_name_H-M   'P 1'
_cell_length_a   14.22880816
_cell_length_b   14.22981196
_cell_length_c   4.61965600
_cell_angle_alpha   90.00000000
_cell_angle_beta   90.00000000
_cell_angle_gamma   90.02466447
_symmetry_Int_Tables_number   1
_chemical_formula_structural   Tb4Pr6Sn20Pd3Rh5
_chemical_formula_sum   'Tb4 Pr6 Sn20 Pd3 Rh5'
_cell_volume   935.35674467
_cell_formula_units_Z   1
loop_
 _symmetry_equiv_pos_site_id
 _symmetry_equiv_pos_as_xyz
  1  'x, y, z'
loop_
 _atom_site_type_symbol
 _atom_site_label
 _atom_site_symmetry_multiplicity
 _atom_site_fract_x
 _atom_site_fract_y
 _atom_site_fract_z
 _atom_site_occupancy
  Tb  Tb0  1  0.677596  0.178770  0.500000  1
  Tb  Tb1  1  0.324521  0.819720  0.500000  1
  Tb  Tb2  1  0.174374  0.318657  0.500000  1
  Tb  Tb3  1  0.824934  0.680795  0.500000  1
  Pr  Pr4  1  0.500164  0.500419  0.000000  1
  Pr  Pr5  1  0.997593  0.002016  0.000000  1
  Pr  Pr6  1  0.891556  0.390532  0.500000  1
  Pr  Pr7  1  0.108706  0.609007  0.500000  1
  Pr  Pr8  1  0.389769  0.108639  0.500000  1
  Pr  Pr9  1  0.609610  0.891436  0.500000  1
  Sn  Sn10  1  0.570227  0.071565  0.000000  1
  Sn  Sn11  1  0.433940  0.928486  0.000000  1
  Sn  Sn12  1  0.067562  0.428730  0.000000  1
  Sn  Sn13  1  0.933555  0.572228  0.000000  1
  Sn  Sn14  1  0.652563  0.703045  0.000000  1
  Sn  Sn15  1  0.347415  0.296229  0.000000  1
  Sn  Sn16  1  0.151660  0.797463  0.000000  1
  Sn  Sn17  1  0.847532  0.200593  0.000000  1
  Sn  Sn18  1  0.300292  0.653010  0.000000  1
  Sn  Sn19  1  0.699971  0.346406  0.000000  1
  Sn  Sn20  1  0.198796  0.152059  0.000000  1
  Sn  Sn21  1  0.799444  0.849111  0.000000  1
  Sn  Sn22  1  0.664202  0.505771  0.500000  1
  Sn  Sn23  1  0.335900  0.493966  0.500000  1
  Sn  Sn24  1  0.162976  0.993046  0.500000  1
  Sn  Sn25  1  0.834992  0.008544  0.500000  1
  Sn  Sn26  1  0.495389  0.662597  0.500000  1
  Sn  Sn27  1  0.505725  0.335839  0.500000  1
  Sn  Sn28  1  0.003250  0.164178  0.500000  1
  Sn  Sn29  1  0.993687  0.837617  0.500000  1
  Pd  Pd30  1  0.748099  0.533267  0.000000  1
  Pd  Pd31  1  0.252862  0.466321  0.000000  1
  Pd  Pd32  1  0.248469  0.966306  0.000000  1
  Rh  Rh33  1  0.753490  0.033149  0.000000  1
  Rh  Rh34  1  0.467430  0.743818  0.000000  1
  Rh  Rh35  1  0.532332  0.255411  0.000000  1
  Rh  Rh36  1  0.033125  0.244421  0.000000  1
  Rh  Rh37  1  0.966294  0.756831  0.000000  1
