# generated using pymatgen
data_Tb2MnCo5P4
_symmetry_space_group_name_H-M   'P 1'
_cell_length_a   3.71862100
_cell_length_b   10.59378800
_cell_length_c   12.20849600
_cell_angle_alpha   90.00000000
_cell_angle_beta   90.00000000
_cell_angle_gamma   90.00000000
_symmetry_Int_Tables_number   1
_chemical_formula_structural   Tb2MnCo5P4
_chemical_formula_sum   'Tb6 Mn3 Co15 P12'
_cell_volume   480.94494065
_cell_formula_units_Z   3
loop_
 _symmetry_equiv_pos_site_id
 _symmetry_equiv_pos_as_xyz
  1  'x, y, z'
loop_
 _atom_site_type_symbol
 _atom_site_label
 _atom_site_symmetry_multiplicity
 _atom_site_fract_x
 _atom_site_fract_y
 _atom_site_fract_z
 _atom_site_occupancy
  Tb  Tb0  1  0.000000  0.500000  0.523283  1
  Tb  Tb1  1  0.500000  0.000000  0.477364  1
  Tb  Tb2  1  0.500000  0.818185  0.204825  1
  Tb  Tb3  1  0.500000  0.181815  0.204825  1
  Tb  Tb4  1  0.000000  0.680712  0.795692  1
  Tb  Tb5  1  0.000000  0.319288  0.795692  1
  Mn  Mn6  1  0.500000  0.500000  0.154432  1
  Mn  Mn7  1  0.000000  0.000000  0.841534  1
  Mn  Mn8  1  0.000000  0.500000  0.988811  1
  Co  Co9  1  0.500000  0.500000  0.699672  1
  Co  Co10  1  0.000000  0.000000  0.297729  1
  Co  Co11  1  0.500000  0.000000  0.013232  1
  Co  Co12  1  0.500000  0.330612  0.994635  1
  Co  Co13  1  0.500000  0.669388  0.994635  1
  Co  Co14  1  0.000000  0.164939  0.004798  1
  Co  Co15  1  0.000000  0.835061  0.004798  1
  Co  Co16  1  0.500000  0.295919  0.430441  1
  Co  Co17  1  0.500000  0.704081  0.430441  1
  Co  Co18  1  0.000000  0.203564  0.570022  1
  Co  Co19  1  0.000000  0.796436  0.570022  1
  Co  Co20  1  0.500000  0.880002  0.709740  1
  Co  Co21  1  0.500000  0.119998  0.709740  1
  Co  Co22  1  0.000000  0.620910  0.291569  1
  Co  Co23  1  0.000000  0.379090  0.291569  1
  P  P24  1  0.500000  0.500000  0.883006  1
  P  P25  1  0.000000  0.000000  0.116890  1
  P  P26  1  0.500000  0.500000  0.345878  1
  P  P27  1  0.000000  0.000000  0.655330  1
  P  P28  1  0.500000  0.309764  0.616109  1
  P  P29  1  0.500000  0.690236  0.616109  1
  P  P30  1  0.000000  0.189577  0.384433  1
  P  P31  1  0.000000  0.810423  0.384433  1
  P  P32  1  0.500000  0.847107  0.893389  1
  P  P33  1  0.500000  0.152893  0.893389  1
  P  P34  1  0.000000  0.655002  0.105765  1
  P  P35  1  0.000000  0.344998  0.105765  1
