# generated using pymatgen
data_La10Ge3BiRh2
_symmetry_space_group_name_H-M   'P 1'
_cell_length_a   8.25346500
_cell_length_b   9.10480151
_cell_length_c   12.73301753
_cell_angle_alpha   89.72903037
_cell_angle_beta   90.00000000
_cell_angle_gamma   90.00000000
_symmetry_Int_Tables_number   1
_chemical_formula_structural   La10Ge3BiRh2
_chemical_formula_sum   'La20 Ge6 Bi2 Rh4'
_cell_volume   956.82667911
_cell_formula_units_Z   2
loop_
 _symmetry_equiv_pos_site_id
 _symmetry_equiv_pos_as_xyz
  1  'x, y, z'
loop_
 _atom_site_type_symbol
 _atom_site_label
 _atom_site_symmetry_multiplicity
 _atom_site_fract_x
 _atom_site_fract_y
 _atom_site_fract_z
 _atom_site_occupancy
  La  La0  1  0.678978  0.466666  0.062957  1
  La  La1  1  0.178978  0.533334  0.437043  1
  La  La2  1  0.323757  0.962197  0.921127  1
  La  La3  1  0.823757  0.037803  0.578873  1
  La  La4  1  0.316756  0.531461  0.920656  1
  La  La5  1  0.816756  0.468539  0.579344  1
  La  La6  1  0.681573  0.037209  0.072323  1
  La  La7  1  0.181573  0.962791  0.427677  1
  La  La8  1  0.952353  0.758848  0.993104  1
  La  La9  1  0.452353  0.241152  0.506896  1
  La  La10  1  0.039543  0.239339  0.993179  1
  La  La11  1  0.539543  0.760661  0.506821  1
  La  La12  1  0.356234  0.767533  0.199590  1
  La  La13  1  0.856234  0.232467  0.300410  1
  La  La14  1  0.647030  0.249239  0.796876  1
  La  La15  1  0.147030  0.750761  0.703124  1
  La  La16  1  0.832053  0.767739  0.289354  1
  La  La17  1  0.332053  0.232261  0.210646  1
  La  La18  1  0.170346  0.251254  0.716840  1
  La  La19  1  0.670346  0.748746  0.783160  1
  Ge  Ge20  1  0.443384  0.995644  0.676286  1
  Ge  Ge21  1  0.943384  0.004356  0.823714  1
  Ge  Ge22  1  0.440837  0.505728  0.671284  1
  Ge  Ge23  1  0.940837  0.494272  0.828716  1
  Ge  Ge24  1  0.555336  0.005451  0.329171  1
  Ge  Ge25  1  0.055336  0.994549  0.170829  1
  Bi  Bi26  1  0.564357  0.493244  0.326195  1
  Bi  Bi27  1  0.064357  0.506756  0.173805  1
  Rh  Rh28  1  0.580918  0.752229  0.011240  1
  Rh  Rh29  1  0.080918  0.247771  0.488760  1
  Rh  Rh30  1  0.416545  0.250258  0.981782  1
  Rh  Rh31  1  0.916545  0.749742  0.518218  1
