# generated using pymatgen
data_Th2Zn13Au4
_symmetry_space_group_name_H-M   'P 1'
_cell_length_a   6.96323466
_cell_length_b   6.96323631
_cell_length_c   6.95401926
_cell_angle_alpha   83.28430052
_cell_angle_beta   83.28429385
_cell_angle_gamma   82.97094558
_symmetry_Int_Tables_number   1
_chemical_formula_structural   Th2Zn13Au4
_chemical_formula_sum   'Th2 Zn13 Au4'
_cell_volume   330.54030464
_cell_formula_units_Z   1
loop_
 _symmetry_equiv_pos_site_id
 _symmetry_equiv_pos_as_xyz
  1  'x, y, z'
loop_
 _atom_site_type_symbol
 _atom_site_label
 _atom_site_symmetry_multiplicity
 _atom_site_fract_x
 _atom_site_fract_y
 _atom_site_fract_z
 _atom_site_occupancy
  Th  Th0  1  0.341106  0.341106  0.337947  1
  Th  Th1  1  0.658894  0.658894  0.662053  1
  Zn  Zn2  1  0.000000  0.000000  0.500000  1
  Zn  Zn3  1  0.000000  0.500000  0.000000  1
  Zn  Zn4  1  0.500000  0.000000  0.000000  1
  Zn  Zn5  1  0.710958  0.289042  0.000000  1
  Zn  Zn6  1  0.293797  0.998647  0.707261  1
  Zn  Zn7  1  0.001353  0.706203  0.292739  1
  Zn  Zn8  1  0.289042  0.710958  0.000000  1
  Zn  Zn9  1  0.706203  0.001353  0.292739  1
  Zn  Zn10  1  0.998647  0.293797  0.707261  1
  Zn  Zn11  1  0.155098  0.653585  0.646430  1
  Zn  Zn12  1  0.653585  0.155098  0.646430  1
  Zn  Zn13  1  0.346415  0.844902  0.353570  1
  Zn  Zn14  1  0.844902  0.346415  0.353570  1
  Au  Au15  1  0.641611  0.641611  0.168892  1
  Au  Au16  1  0.358389  0.358389  0.831108  1
  Au  Au17  1  0.106025  0.106025  0.119107  1
  Au  Au18  1  0.893975  0.893975  0.880893  1
