# generated using pymatgen
data_TbHo2Al3Ga2Pd
_symmetry_space_group_name_H-M   'P 1'
_cell_length_a   6.95381100
_cell_length_b   6.96150422
_cell_length_c   4.33839800
_cell_angle_alpha   90.00000000
_cell_angle_beta   90.00000000
_cell_angle_gamma   119.96344526
_symmetry_Int_Tables_number   1
_chemical_formula_structural   TbHo2Al3Ga2Pd
_chemical_formula_sum   'Tb1 Ho2 Al3 Ga2 Pd1'
_cell_volume   181.94739874
_cell_formula_units_Z   1
loop_
 _symmetry_equiv_pos_site_id
 _symmetry_equiv_pos_as_xyz
  1  'x, y, z'
loop_
 _atom_site_type_symbol
 _atom_site_label
 _atom_site_symmetry_multiplicity
 _atom_site_fract_x
 _atom_site_fract_y
 _atom_site_fract_z
 _atom_site_occupancy
  Tb  Tb0  1  0.581919  0.000000  0.500000  1
  Ho  Ho1  1  0.999788  0.582551  0.500000  1
  Ho  Ho2  1  0.417238  0.417449  0.500000  1
  Al  Al3  1  0.763947  0.763682  0.000000  1
  Al  Al4  1  0.235716  0.000000  0.000000  1
  Al  Al5  1  0.000265  0.236318  0.000000  1
  Ga  Ga6  1  0.332591  0.665490  0.000000  1
  Ga  Ga7  1  0.667102  0.334510  0.000000  1
  Pd  Pd8  1  0.001435  0.000000  0.500000  1
