# generated using pymatgen
data_LiSm7(Si3Au)4
_symmetry_space_group_name_H-M   'P 1'
_cell_length_a   8.24059200
_cell_length_b   8.26048763
_cell_length_c   8.46336300
_cell_angle_alpha   90.00000000
_cell_angle_beta   90.00000000
_cell_angle_gamma   120.07989287
_symmetry_Int_Tables_number   1
_chemical_formula_structural   LiSm7(Si3Au)4
_chemical_formula_sum   'Li1 Sm7 Si12 Au4'
_cell_volume   498.52564531
_cell_formula_units_Z   1
loop_
 _symmetry_equiv_pos_site_id
 _symmetry_equiv_pos_as_xyz
  1  'x, y, z'
loop_
 _atom_site_type_symbol
 _atom_site_label
 _atom_site_symmetry_multiplicity
 _atom_site_fract_x
 _atom_site_fract_y
 _atom_site_fract_z
 _atom_site_occupancy
  Li  Li0  1  0.000405  0.500204  0.750000  1
  Sm  Sm1  1  0.999855  0.999928  0.250000  1
  Sm  Sm2  1  0.000007  0.000004  0.750000  1
  Sm  Sm3  1  0.500027  0.500356  0.250000  1
  Sm  Sm4  1  0.500027  0.999671  0.250000  1
  Sm  Sm5  1  0.000094  0.500048  0.250000  1
  Sm  Sm6  1  0.500195  0.499868  0.750000  1
  Sm  Sm7  1  0.500195  0.000327  0.750000  1
  Si  Si8  1  0.163886  0.837589  0.502671  1
  Si  Si9  1  0.163886  0.326299  0.502671  1
  Si  Si10  1  0.670568  0.835284  0.497308  1
  Si  Si11  1  0.836081  0.162354  0.501098  1
  Si  Si12  1  0.836081  0.673725  0.501098  1
  Si  Si13  1  0.329240  0.164619  0.496225  1
  Si  Si14  1  0.836081  0.162354  0.998902  1
  Si  Si15  1  0.836081  0.673725  0.998902  1
  Si  Si16  1  0.329240  0.164619  0.003775  1
  Si  Si17  1  0.163886  0.837589  0.997329  1
  Si  Si18  1  0.163886  0.326299  0.997329  1
  Si  Si19  1  0.670568  0.835284  0.002692  1
  Au  Au20  1  0.328200  0.664100  0.504063  1
  Au  Au21  1  0.671654  0.335827  0.504016  1
  Au  Au22  1  0.671654  0.335827  0.995984  1
  Au  Au23  1  0.328200  0.664100  0.995937  1
