# generated using pymatgen
data_YbSmTcB8Ru
_symmetry_space_group_name_H-M   'P 1'
_cell_length_a   3.58926800
_cell_length_b   5.99419826
_cell_length_c   11.60657323
_cell_angle_alpha   90.02998424
_cell_angle_beta   90.00000000
_cell_angle_gamma   90.00000000
_symmetry_Int_Tables_number   1
_chemical_formula_structural   YbSmTcB8Ru
_chemical_formula_sum   'Yb2 Sm2 Tc2 B16 Ru2'
_cell_volume   249.71288158
_cell_formula_units_Z   2
loop_
 _symmetry_equiv_pos_site_id
 _symmetry_equiv_pos_as_xyz
  1  'x, y, z'
loop_
 _atom_site_type_symbol
 _atom_site_label
 _atom_site_symmetry_multiplicity
 _atom_site_fract_x
 _atom_site_fract_y
 _atom_site_fract_z
 _atom_site_occupancy
  Yb  Yb0  1  0.500000  0.127818  0.349494  1
  Yb  Yb1  1  0.500000  0.872182  0.650506  1
  Sm  Sm2  1  0.500000  0.629163  0.150436  1
  Sm  Sm3  1  0.500000  0.370837  0.849564  1
  Tc  Tc4  1  0.500000  0.629765  0.416953  1
  Tc  Tc5  1  0.500000  0.370235  0.583047  1
  B  B6  1  0.000000  0.976346  0.192019  1
  B  B7  1  0.000000  0.023654  0.807981  1
  B  B8  1  0.000000  0.477143  0.309690  1
  B  B9  1  0.000000  0.522857  0.690310  1
  B  B10  1  0.000000  0.787456  0.316893  1
  B  B11  1  0.000000  0.212544  0.683107  1
  B  B12  1  0.000000  0.283147  0.186347  1
  B  B13  1  0.000000  0.716853  0.813653  1
  B  B14  1  0.000000  0.865685  0.467804  1
  B  B15  1  0.000000  0.134315  0.532196  1
  B  B16  1  0.000000  0.361440  0.031165  1
  B  B17  1  0.000000  0.638560  0.968835  1
  B  B18  1  0.000000  0.890012  0.046768  1
  B  B19  1  0.000000  0.109988  0.953232  1
  B  B20  1  0.000000  0.385737  0.453222  1
  B  B21  1  0.000000  0.614263  0.546778  1
  Ru  Ru22  1  0.500000  0.140509  0.091097  1
  Ru  Ru23  1  0.500000  0.859491  0.908903  1
