# generated using pymatgen
data_Sc2Mn3Fe3P7Ir6
_symmetry_space_group_name_H-M   'P 1'
_cell_length_a   9.32169100
_cell_length_b   9.32169057
_cell_length_c   3.74732100
_cell_angle_alpha   90.00000000
_cell_angle_beta   90.00000000
_cell_angle_gamma   119.99999799
_symmetry_Int_Tables_number   1
_chemical_formula_structural   Sc2Mn3Fe3P7Ir6
_chemical_formula_sum   'Sc2 Mn3 Fe3 P7 Ir6'
_cell_volume   281.99468470
_cell_formula_units_Z   1
loop_
 _symmetry_equiv_pos_site_id
 _symmetry_equiv_pos_as_xyz
  1  'x, y, z'
loop_
 _atom_site_type_symbol
 _atom_site_label
 _atom_site_symmetry_multiplicity
 _atom_site_fract_x
 _atom_site_fract_y
 _atom_site_fract_z
 _atom_site_occupancy
  Sc  Sc0  1  0.000000  0.000000  0.000000  1
  Sc  Sc1  1  0.666667  0.333333  0.500000  1
  Mn  Mn2  1  0.429466  0.541499  0.500000  1
  Mn  Mn3  1  0.112035  0.570534  0.500000  1
  Mn  Mn4  1  0.458501  0.887965  0.500000  1
  Fe  Fe5  1  0.602263  0.778695  0.000000  1
  Fe  Fe6  1  0.176432  0.397737  0.000000  1
  Fe  Fe7  1  0.221305  0.823568  0.000000  1
  P  P8  1  0.630261  0.556756  0.000000  1
  P  P9  1  0.926495  0.369739  0.000000  1
  P  P10  1  0.443244  0.073505  0.000000  1
  P  P11  1  0.727874  0.943214  0.500000  1
  P  P12  1  0.215340  0.272126  0.500000  1
  P  P13  1  0.056786  0.784660  0.500000  1
  P  P14  1  0.333333  0.666667  0.000000  1
  Ir  Ir15  1  0.403437  0.304049  0.000000  1
  Ir  Ir16  1  0.900612  0.596563  0.000000  1
  Ir  Ir17  1  0.695951  0.099388  0.000000  1
  Ir  Ir18  1  0.779656  0.726941  0.500000  1
  Ir  Ir19  1  0.947284  0.220344  0.500000  1
  Ir  Ir20  1  0.273059  0.052716  0.500000  1
