# generated using pymatgen
data_Zr10GaAg(BiPb2)2
_symmetry_space_group_name_H-M   'P 1'
_cell_length_a   8.88567459
_cell_length_b   8.88280543
_cell_length_c   5.98501817
_cell_angle_alpha   89.90207703
_cell_angle_beta   90.04894849
_cell_angle_gamma   119.98931259
_symmetry_Int_Tables_number   1
_chemical_formula_structural   Zr10GaAg(BiPb2)2
_chemical_formula_sum   'Zr10 Ga1 Ag1 Bi2 Pb4'
_cell_volume   409.15021635
_cell_formula_units_Z   1
loop_
 _symmetry_equiv_pos_site_id
 _symmetry_equiv_pos_as_xyz
  1  'x, y, z'
loop_
 _atom_site_type_symbol
 _atom_site_label
 _atom_site_symmetry_multiplicity
 _atom_site_fract_x
 _atom_site_fract_y
 _atom_site_fract_z
 _atom_site_occupancy
  Zr  Zr0  1  0.666682  0.333680  0.001310  1
  Zr  Zr1  1  0.333318  0.666999  0.001310  1
  Zr  Zr2  1  0.333111  0.666891  0.498580  1
  Zr  Zr3  1  0.666889  0.333779  0.498580  1
  Zr  Zr4  1  0.731427  0.730069  0.738003  1
  Zr  Zr5  1  0.268573  0.998642  0.738003  1
  Zr  Zr6  1  0.000000  0.269372  0.737915  1
  Zr  Zr7  1  0.270763  0.270912  0.261921  1
  Zr  Zr8  1  0.729237  0.000148  0.261921  1
  Zr  Zr9  1  0.000000  0.728929  0.261883  1
  Ga  Ga10  1  0.000000  0.999697  0.498030  1
  Ag  Ag11  1  0.000000  0.999217  0.002931  1
  Bi  Bi12  1  0.385038  0.385011  0.754948  1
  Bi  Bi13  1  0.614962  0.999973  0.754948  1
  Pb  Pb14  1  0.000000  0.615335  0.754878  1
  Pb  Pb15  1  0.617268  0.617274  0.245064  1
  Pb  Pb16  1  0.382732  0.000007  0.245064  1
  Pb  Pb17  1  0.000000  0.384066  0.244711  1
