# generated using pymatgen
data_Tb20Si5Bi3Ir4
_symmetry_space_group_name_H-M   'P 1'
_cell_length_a   7.79419807
_cell_length_b   8.85487213
_cell_length_c   12.14299974
_cell_angle_alpha   89.77744768
_cell_angle_beta   89.99354902
_cell_angle_gamma   89.93924754
_symmetry_Int_Tables_number   1
_chemical_formula_structural   Tb20Si5Bi3Ir4
_chemical_formula_sum   'Tb20 Si5 Bi3 Ir4'
_cell_volume   838.06208846
_cell_formula_units_Z   1
loop_
 _symmetry_equiv_pos_site_id
 _symmetry_equiv_pos_as_xyz
  1  'x, y, z'
loop_
 _atom_site_type_symbol
 _atom_site_label
 _atom_site_symmetry_multiplicity
 _atom_site_fract_x
 _atom_site_fract_y
 _atom_site_fract_z
 _atom_site_occupancy
  Tb  Tb0  1  0.667578  0.726245  0.714890  1
  Tb  Tb1  1  0.337550  0.263228  0.282401  1
  Tb  Tb2  1  0.168694  0.272920  0.789238  1
  Tb  Tb3  1  0.825118  0.740624  0.213694  1
  Tb  Tb4  1  0.140511  0.726950  0.802288  1
  Tb  Tb5  1  0.848281  0.260591  0.196905  1
  Tb  Tb6  1  0.640121  0.272222  0.698082  1
  Tb  Tb7  1  0.367316  0.738018  0.297301  1
  Tb  Tb8  1  0.545376  0.739705  0.003693  1
  Tb  Tb9  1  0.461295  0.260897  0.008069  1
  Tb  Tb10  1  0.045595  0.271056  0.500364  1
  Tb  Tb11  1  0.954406  0.728617  0.498025  1
  Tb  Tb12  1  0.817108  0.461521  0.924157  1
  Tb  Tb13  1  0.177952  0.538145  0.080007  1
  Tb  Tb14  1  0.320950  0.540870  0.576298  1
  Tb  Tb15  1  0.190658  0.964185  0.071254  1
  Tb  Tb16  1  0.680041  0.459824  0.420654  1
  Tb  Tb17  1  0.820199  0.036744  0.936813  1
  Tb  Tb18  1  0.671292  0.034873  0.417634  1
  Tb  Tb19  1  0.321232  0.963609  0.568867  1
  Si  Si20  1  0.057289  0.505285  0.325842  1
  Si  Si21  1  0.559920  0.005341  0.169090  1
  Si  Si22  1  0.942462  0.494098  0.672535  1
  Si  Si23  1  0.559755  0.496057  0.171357  1
  Si  Si24  1  0.443411  0.504710  0.831559  1
  Bi  Bi25  1  0.931895  0.006656  0.672566  1
  Bi  Bi26  1  0.067343  0.993846  0.329125  1
  Bi  Bi27  1  0.433530  0.993405  0.826534  1
  Ir  Ir28  1  0.931670  0.747284  0.991313  1
  Ir  Ir29  1  0.070069  0.252098  0.012466  1
  Ir  Ir30  1  0.429593  0.253124  0.508560  1
  Ir  Ir31  1  0.571788  0.747251  0.488418  1
