# generated using pymatgen
data_Pr3ZnAu5
_symmetry_space_group_name_H-M   'P 1'
_cell_length_a   8.70863529
_cell_length_b   8.70863561
_cell_length_c   13.70832500
_cell_angle_alpha   90.00000000
_cell_angle_beta   90.00000000
_cell_angle_gamma   127.21885776
_symmetry_Int_Tables_number   1
_chemical_formula_structural   Pr3ZnAu5
_chemical_formula_sum   'Pr12 Zn4 Au20'
_cell_volume   827.90055367
_cell_formula_units_Z   4
loop_
 _symmetry_equiv_pos_site_id
 _symmetry_equiv_pos_as_xyz
  1  'x, y, z'
loop_
 _atom_site_type_symbol
 _atom_site_label
 _atom_site_symmetry_multiplicity
 _atom_site_fract_x
 _atom_site_fract_y
 _atom_site_fract_z
 _atom_site_occupancy
  Pr  Pr0  1  0.927324  0.072676  0.250000  1
  Pr  Pr1  1  0.072676  0.927324  0.750000  1
  Pr  Pr2  1  0.320917  0.679083  0.250000  1
  Pr  Pr3  1  0.679083  0.320917  0.750000  1
  Pr  Pr4  1  0.629812  0.370188  0.460342  1
  Pr  Pr5  1  0.370188  0.629812  0.539658  1
  Pr  Pr6  1  0.629812  0.370188  0.039658  1
  Pr  Pr7  1  0.370188  0.629812  0.960342  1
  Pr  Pr8  1  0.882818  0.117182  0.951874  1
  Pr  Pr9  1  0.117182  0.882818  0.048126  1
  Pr  Pr10  1  0.882818  0.117182  0.548126  1
  Pr  Pr11  1  0.117182  0.882818  0.451874  1
  Zn  Zn12  1  0.721173  0.278827  0.250000  1
  Zn  Zn13  1  0.278827  0.721173  0.750000  1
  Zn  Zn14  1  0.531606  0.468394  0.250000  1
  Zn  Zn15  1  0.468394  0.531606  0.750000  1
  Au  Au16  1  0.324944  0.070060  0.250000  1
  Au  Au17  1  0.070060  0.324944  0.750000  1
  Au  Au18  1  0.675056  0.929940  0.750000  1
  Au  Au19  1  0.929940  0.675056  0.250000  1
  Au  Au20  1  0.571524  0.003779  0.394852  1
  Au  Au21  1  0.003779  0.571524  0.605148  1
  Au  Au22  1  0.571524  0.003779  0.105148  1
  Au  Au23  1  0.003779  0.571524  0.894852  1
  Au  Au24  1  0.428476  0.996221  0.605148  1
  Au  Au25  1  0.996221  0.428476  0.394852  1
  Au  Au26  1  0.428476  0.996221  0.894852  1
  Au  Au27  1  0.996221  0.428476  0.105148  1
  Au  Au28  1  0.684329  0.740734  0.392799  1
  Au  Au29  1  0.740734  0.684329  0.607201  1
  Au  Au30  1  0.684329  0.740734  0.107201  1
  Au  Au31  1  0.740734  0.684329  0.892799  1
  Au  Au32  1  0.315671  0.259266  0.607201  1
  Au  Au33  1  0.259266  0.315671  0.392799  1
  Au  Au34  1  0.315671  0.259266  0.892799  1
  Au  Au35  1  0.259266  0.315671  0.107201  1
