# generated using pymatgen
data_TbHo3(WO6)2
_symmetry_space_group_name_H-M   'P 1'
_cell_length_a   5.38959800
_cell_length_b   7.69232593
_cell_length_c   11.46445077
_cell_angle_alpha   75.41809510
_cell_angle_beta   90.00000000
_cell_angle_gamma   90.00000000
_symmetry_Int_Tables_number   1
_chemical_formula_structural   TbHo3(WO6)2
_chemical_formula_sum   'Tb2 Ho6 W4 O24'
_cell_volume   459.98944334
_cell_formula_units_Z   2
loop_
 _symmetry_equiv_pos_site_id
 _symmetry_equiv_pos_as_xyz
  1  'x, y, z'
loop_
 _atom_site_type_symbol
 _atom_site_label
 _atom_site_symmetry_multiplicity
 _atom_site_fract_x
 _atom_site_fract_y
 _atom_site_fract_z
 _atom_site_occupancy
  Tb  Tb0  1  0.684040  0.500000  0.750000  1
  Tb  Tb1  1  0.315960  0.500000  0.250000  1
  Ho  Ho2  1  0.738530  0.000000  0.750000  1
  Ho  Ho3  1  0.261470  0.000000  0.250000  1
  Ho  Ho4  1  0.186904  0.796722  0.577745  1
  Ho  Ho5  1  0.813096  0.796722  0.077745  1
  Ho  Ho6  1  0.186904  0.203278  0.922255  1
  Ho  Ho7  1  0.813096  0.203278  0.422255  1
  W  W8  1  0.253941  0.723501  0.885731  1
  W  W9  1  0.746059  0.723501  0.385731  1
  W  W10  1  0.253941  0.276499  0.614269  1
  W  W11  1  0.746059  0.276499  0.114269  1
  O  O12  1  0.039936  0.939961  0.895452  1
  O  O13  1  0.529896  0.849795  0.930886  1
  O  O14  1  0.960064  0.939961  0.395452  1
  O  O15  1  0.459523  0.790131  0.727732  1
  O  O16  1  0.470104  0.849795  0.430886  1
  O  O17  1  0.982693  0.711448  0.770985  1
  O  O18  1  0.540477  0.790131  0.227732  1
  O  O19  1  0.852533  0.635884  0.548370  1
  O  O20  1  0.360283  0.489390  0.887319  1
  O  O21  1  0.017307  0.711448  0.270985  1
  O  O22  1  0.360283  0.510610  0.612681  1
  O  O23  1  0.852533  0.364116  0.951630  1
  O  O24  1  0.147467  0.635884  0.048370  1
  O  O25  1  0.639717  0.489390  0.387319  1
  O  O26  1  0.982693  0.288552  0.729015  1
  O  O27  1  0.639717  0.510610  0.112681  1
  O  O28  1  0.147467  0.364116  0.451630  1
  O  O29  1  0.459523  0.209869  0.772268  1
  O  O30  1  0.017307  0.288552  0.229015  1
  O  O31  1  0.529896  0.150205  0.569114  1
  O  O32  1  0.540477  0.209869  0.272268  1
  O  O33  1  0.039936  0.060039  0.604548  1
  O  O34  1  0.470104  0.150205  0.069114  1
  O  O35  1  0.960064  0.060039  0.104548  1
