# generated using pymatgen
data_Y9Tm11(Bi2Sb)4
_symmetry_space_group_name_H-M   'P 1'
_cell_length_a   8.13785763
_cell_length_b   9.38730845
_cell_length_c   11.96857097
_cell_angle_alpha   90.01323923
_cell_angle_beta   90.06450130
_cell_angle_gamma   89.96710827
_symmetry_Int_Tables_number   1
_chemical_formula_structural   Y9Tm11(Bi2Sb)4
_chemical_formula_sum   'Y9 Tm11 Bi8 Sb4'
_cell_volume   914.30925707
_cell_formula_units_Z   1
loop_
 _symmetry_equiv_pos_site_id
 _symmetry_equiv_pos_as_xyz
  1  'x, y, z'
loop_
 _atom_site_type_symbol
 _atom_site_label
 _atom_site_symmetry_multiplicity
 _atom_site_fract_x
 _atom_site_fract_y
 _atom_site_fract_z
 _atom_site_occupancy
  Y  Y0  1  0.182201  0.749981  0.718433  1
  Y  Y1  1  0.682496  0.750062  0.781874  1
  Y  Y2  1  0.817483  0.249337  0.281081  1
  Y  Y3  1  0.317389  0.249852  0.218025  1
  Y  Y4  1  0.811729  0.439062  0.557814  1
  Y  Y5  1  0.352430  0.749764  0.213898  1
  Y  Y6  1  0.852000  0.749577  0.285894  1
  Y  Y7  1  0.646596  0.248790  0.786666  1
  Y  Y8  1  0.148422  0.249127  0.714356  1
  Tm  Tm9  1  0.026790  0.749865  0.989263  1
  Tm  Tm10  1  0.526611  0.750018  0.510997  1
  Tm  Tm11  1  0.973207  0.249757  0.011021  1
  Tm  Tm12  1  0.472444  0.249349  0.488852  1
  Tm  Tm13  1  0.311650  0.435272  0.942582  1
  Tm  Tm14  1  0.811442  0.065118  0.557845  1
  Tm  Tm15  1  0.688333  0.935336  0.057443  1
  Tm  Tm16  1  0.188533  0.564867  0.442208  1
  Tm  Tm17  1  0.688253  0.564699  0.057583  1
  Tm  Tm18  1  0.189397  0.935566  0.441868  1
  Tm  Tm19  1  0.311609  0.064492  0.942745  1
  Bi  Bi20  1  0.433798  0.003199  0.672003  1
  Bi  Bi21  1  0.934306  0.495901  0.828514  1
  Bi  Bi22  1  0.565886  0.503229  0.327710  1
  Bi  Bi23  1  0.066157  0.995979  0.171806  1
  Bi  Bi24  1  0.565962  0.996058  0.328028  1
  Bi  Bi25  1  0.066292  0.503583  0.171734  1
  Bi  Bi26  1  0.433221  0.495912  0.672072  1
  Bi  Bi27  1  0.934029  0.003464  0.828349  1
  Sb  Sb28  1  0.404457  0.749909  0.958548  1
  Sb  Sb29  1  0.906164  0.753450  0.540601  1
  Sb  Sb30  1  0.595458  0.250069  0.041790  1
  Sb  Sb31  1  0.095255  0.249353  0.458397  1
