# generated using pymatgen
data_Lu6FeRh
_symmetry_space_group_name_H-M   'P 1'
_cell_length_a   7.01472600
_cell_length_b   8.96341600
_cell_length_c   6.18535600
_cell_angle_alpha   90.00000000
_cell_angle_beta   90.00000000
_cell_angle_gamma   90.00000000
_symmetry_Int_Tables_number   1
_chemical_formula_structural   Lu6FeRh
_chemical_formula_sum   'Lu12 Fe2 Rh2'
_cell_volume   388.90987025
_cell_formula_units_Z   2
loop_
 _symmetry_equiv_pos_site_id
 _symmetry_equiv_pos_as_xyz
  1  'x, y, z'
loop_
 _atom_site_type_symbol
 _atom_site_label
 _atom_site_symmetry_multiplicity
 _atom_site_fract_x
 _atom_site_fract_y
 _atom_site_fract_z
 _atom_site_occupancy
  Lu  Lu0  1  0.677158  0.056020  0.331722  1
  Lu  Lu1  1  0.177158  0.443980  0.168278  1
  Lu  Lu2  1  0.324396  0.569917  0.676424  1
  Lu  Lu3  1  0.824396  0.930083  0.823576  1
  Lu  Lu4  1  0.324396  0.930083  0.676424  1
  Lu  Lu5  1  0.824396  0.569917  0.823576  1
  Lu  Lu6  1  0.677158  0.443980  0.331722  1
  Lu  Lu7  1  0.177158  0.056020  0.168278  1
  Lu  Lu8  1  0.536543  0.250000  0.872037  1
  Lu  Lu9  1  0.036543  0.250000  0.627963  1
  Lu  Lu10  1  0.458858  0.750000  0.127994  1
  Lu  Lu11  1  0.958858  0.750000  0.372006  1
  Fe  Fe12  1  0.114219  0.750000  0.968465  1
  Fe  Fe13  1  0.614219  0.750000  0.531535  1
  Rh  Rh14  1  0.887272  0.250000  0.042301  1
  Rh  Rh15  1  0.387272  0.250000  0.457699  1
