# generated using pymatgen
data_Dy13Y2Lu5Pt16
_symmetry_space_group_name_H-M   'P 1'
_cell_length_a   7.45078150
_cell_length_b   7.55282610
_cell_length_c   14.67605056
_cell_angle_alpha   89.95698211
_cell_angle_beta   89.97200645
_cell_angle_gamma   89.98685140
_symmetry_Int_Tables_number   1
_chemical_formula_structural   Dy13Y2Lu5Pt16
_chemical_formula_sum   'Dy13 Y2 Lu5 Pt16'
_cell_volume   825.88642244
_cell_formula_units_Z   1
loop_
 _symmetry_equiv_pos_site_id
 _symmetry_equiv_pos_as_xyz
  1  'x, y, z'
loop_
 _atom_site_type_symbol
 _atom_site_label
 _atom_site_symmetry_multiplicity
 _atom_site_fract_x
 _atom_site_fract_y
 _atom_site_fract_z
 _atom_site_occupancy
  Dy  Dy0  1  0.156184  0.668391  0.876828  1
  Dy  Dy1  1  0.843201  0.331444  0.378122  1
  Dy  Dy2  1  0.343793  0.168310  0.122692  1
  Dy  Dy3  1  0.344070  0.167971  0.377709  1
  Dy  Dy4  1  0.843694  0.331561  0.122663  1
  Dy  Dy5  1  0.156160  0.668264  0.622373  1
  Dy  Dy6  1  0.656456  0.831809  0.877054  1
  Dy  Dy7  1  0.997452  0.820457  0.406096  1
  Dy  Dy8  1  0.497856  0.679801  0.093977  1
  Dy  Dy9  1  0.502899  0.320130  0.594027  1
  Dy  Dy10  1  0.002627  0.179850  0.905685  1
  Dy  Dy11  1  0.001558  0.178160  0.594260  1
  Dy  Dy12  1  0.502408  0.320307  0.905392  1
  Y  Y13  1  0.498239  0.680025  0.407206  1
  Y  Y14  1  0.997703  0.820560  0.093886  1
  Lu  Lu15  1  0.681269  0.987489  0.250104  1
  Lu  Lu16  1  0.181301  0.512406  0.250207  1
  Lu  Lu17  1  0.818269  0.488352  0.749222  1
  Lu  Lu18  1  0.319345  0.011542  0.749309  1
  Lu  Lu19  1  0.656099  0.832033  0.623397  1
  Pt  Pt20  1  0.817775  0.644909  0.250330  1
  Pt  Pt21  1  0.318140  0.854990  0.250096  1
  Pt  Pt22  1  0.681667  0.143891  0.748662  1
  Pt  Pt23  1  0.182820  0.355285  0.749640  1
  Pt  Pt24  1  0.544839  0.389532  0.250237  1
  Pt  Pt25  1  0.044579  0.110380  0.250339  1
  Pt  Pt26  1  0.953488  0.888432  0.748522  1
  Pt  Pt27  1  0.456362  0.612812  0.748541  1
  Pt  Pt28  1  0.814467  0.534959  0.543570  1
  Pt  Pt29  1  0.316993  0.969045  0.956884  1
  Pt  Pt30  1  0.683335  0.029304  0.459264  1
  Pt  Pt31  1  0.183034  0.469018  0.042895  1
  Pt  Pt32  1  0.181910  0.468716  0.457210  1
  Pt  Pt33  1  0.682562  0.030969  0.042825  1
  Pt  Pt34  1  0.320413  0.968168  0.543998  1
  Pt  Pt35  1  0.817035  0.530729  0.956780  1
