# generated using pymatgen
data_Tb3Al12Ir2RuPt
_symmetry_space_group_name_H-M   'P 1'
_cell_length_a   8.85964391
_cell_length_b   8.84844908
_cell_length_c   9.52961877
_cell_angle_alpha   90.00000162
_cell_angle_beta   90.04020915
_cell_angle_gamma   119.95820381
_symmetry_Int_Tables_number   1
_chemical_formula_structural   Tb3Al12Ir2RuPt
_chemical_formula_sum   'Tb6 Al24 Ir4 Ru2 Pt2'
_cell_volume   647.25020324
_cell_formula_units_Z   2
loop_
 _symmetry_equiv_pos_site_id
 _symmetry_equiv_pos_as_xyz
  1  'x, y, z'
loop_
 _atom_site_type_symbol
 _atom_site_label
 _atom_site_symmetry_multiplicity
 _atom_site_fract_x
 _atom_site_fract_y
 _atom_site_fract_z
 _atom_site_occupancy
  Tb  Tb0  1  0.382710  0.191354  0.250360  1
  Tb  Tb1  1  0.808772  0.192228  0.249077  1
  Tb  Tb2  1  0.808772  0.616543  0.249077  1
  Tb  Tb3  1  0.617290  0.808646  0.749640  1
  Tb  Tb4  1  0.191228  0.807772  0.750923  1
  Tb  Tb5  1  0.191228  0.383457  0.750923  1
  Al  Al6  1  0.436542  0.873860  0.247896  1
  Al  Al7  1  0.125200  0.562600  0.250019  1
  Al  Al8  1  0.436542  0.562681  0.247896  1
  Al  Al9  1  0.563458  0.126140  0.752104  1
  Al  Al10  1  0.874800  0.437400  0.749981  1
  Al  Al11  1  0.563458  0.437319  0.752104  1
  Al  Al12  1  0.159567  0.834204  0.421927  1
  Al  Al13  1  0.159567  0.325364  0.421927  1
  Al  Al14  1  0.675757  0.837879  0.422013  1
  Al  Al15  1  0.840433  0.165796  0.578073  1
  Al  Al16  1  0.840433  0.674636  0.578073  1
  Al  Al17  1  0.324243  0.162121  0.577987  1
  Al  Al18  1  0.836390  0.163210  0.924349  1
  Al  Al19  1  0.836390  0.673180  0.924349  1
  Al  Al20  1  0.326516  0.163258  0.925632  1
  Al  Al21  1  0.163610  0.836790  0.075651  1
  Al  Al22  1  0.163610  0.326820  0.075651  1
  Al  Al23  1  0.673484  0.836742  0.074368  1
  Al  Al24  1  0.330366  0.665183  0.533086  1
  Al  Al25  1  0.669634  0.334817  0.466914  1
  Al  Al26  1  0.666211  0.333105  0.031178  1
  Al  Al27  1  0.333789  0.666895  0.968822  1
  Al  Al28  1  0.000899  0.000450  0.249578  1
  Al  Al29  1  0.999101  0.999550  0.750422  1
  Ir  Ir30  1  0.000000  0.500000  0.500000  1
  Ir  Ir31  1  0.500000  0.000000  0.000000  1
  Ir  Ir32  1  0.000000  0.500000  0.000000  1
  Ir  Ir33  1  0.500000  0.500000  0.000000  1
  Ru  Ru34  1  0.000000  0.000000  0.500000  1
  Ru  Ru35  1  0.000000  0.000000  0.000000  1
  Pt  Pt36  1  0.500000  0.000000  0.500000  1
  Pt  Pt37  1  0.500000  0.500000  0.500000  1
