# generated using pymatgen
data_YbSe2O7
_symmetry_space_group_name_H-M   'P 1'
_cell_length_a   5.55835336
_cell_length_b   7.82331304
_cell_length_c   9.36281893
_cell_angle_alpha   92.33102948
_cell_angle_beta   94.95099638
_cell_angle_gamma   106.64831454
_symmetry_Int_Tables_number   1
_chemical_formula_structural   YbSe2O7
_chemical_formula_sum   'Yb2 Se4 O14'
_cell_volume   387.70432919
_cell_formula_units_Z   2
loop_
 _symmetry_equiv_pos_site_id
 _symmetry_equiv_pos_as_xyz
  1  'x, y, z'
loop_
 _atom_site_type_symbol
 _atom_site_label
 _atom_site_symmetry_multiplicity
 _atom_site_fract_x
 _atom_site_fract_y
 _atom_site_fract_z
 _atom_site_occupancy
  Yb  Yb0  1  0.000000  0.500000  0.000000  1
  Yb  Yb1  1  0.500000  0.000000  0.500000  1
  Se  Se2  1  0.504997  0.645065  0.768005  1
  Se  Se3  1  0.495003  0.354935  0.231995  1
  Se  Se4  1  0.133041  0.251460  0.688690  1
  Se  Se5  1  0.866959  0.748540  0.311310  1
  O  O6  1  0.735101  0.560629  0.817954  1
  O  O7  1  0.264899  0.439371  0.182046  1
  O  O8  1  0.341459  0.680290  0.898646  1
  O  O9  1  0.658541  0.319710  0.101354  1
  O  O10  1  0.589961  0.812434  0.665403  1
  O  O11  1  0.410039  0.187566  0.334597  1
  O  O12  1  0.285440  0.478868  0.638473  1
  O  O13  1  0.714560  0.521132  0.361527  1
  O  O14  1  0.896816  0.192339  0.561542  1
  O  O15  1  0.103184  0.807661  0.438458  1
  O  O16  1  0.342052  0.141081  0.678336  1
  O  O17  1  0.657948  0.858919  0.321664  1
  O  O18  1  0.053925  0.272352  0.852548  1
  O  O19  1  0.946075  0.727648  0.147452  1
