# generated using pymatgen
data_Sc9Mo4Se
_symmetry_space_group_name_H-M   'P 1'
_cell_length_a   8.83020700
_cell_length_b   8.83020575
_cell_length_c   8.61422300
_cell_angle_alpha   90.00000000
_cell_angle_beta   90.00000000
_cell_angle_gamma   119.99999346
_symmetry_Int_Tables_number   1
_chemical_formula_structural   Sc9Mo4Se
_chemical_formula_sum   'Sc18 Mo8 Se2'
_cell_volume   581.68582144
_cell_formula_units_Z   2
loop_
 _symmetry_equiv_pos_site_id
 _symmetry_equiv_pos_as_xyz
  1  'x, y, z'
loop_
 _atom_site_type_symbol
 _atom_site_label
 _atom_site_symmetry_multiplicity
 _atom_site_fract_x
 _atom_site_fract_y
 _atom_site_fract_z
 _atom_site_occupancy
  Sc  Sc0  1  0.195107  0.804893  0.451545  1
  Sc  Sc1  1  0.195107  0.390214  0.451545  1
  Sc  Sc2  1  0.609786  0.804893  0.451545  1
  Sc  Sc3  1  0.804893  0.195107  0.548455  1
  Sc  Sc4  1  0.804893  0.609786  0.548455  1
  Sc  Sc5  1  0.390214  0.195107  0.548455  1
  Sc  Sc6  1  0.804893  0.195107  0.951545  1
  Sc  Sc7  1  0.804893  0.609786  0.951545  1
  Sc  Sc8  1  0.390214  0.195107  0.951545  1
  Sc  Sc9  1  0.195107  0.804893  0.048455  1
  Sc  Sc10  1  0.195107  0.390214  0.048455  1
  Sc  Sc11  1  0.609786  0.804893  0.048455  1
  Sc  Sc12  1  0.540346  0.459654  0.250000  1
  Sc  Sc13  1  0.540346  0.080692  0.250000  1
  Sc  Sc14  1  0.919308  0.459654  0.250000  1
  Sc  Sc15  1  0.459654  0.540346  0.750000  1
  Sc  Sc16  1  0.459654  0.919308  0.750000  1
  Sc  Sc17  1  0.080692  0.540346  0.750000  1
  Mo  Mo18  1  0.890964  0.109036  0.250000  1
  Mo  Mo19  1  0.890964  0.781927  0.250000  1
  Mo  Mo20  1  0.218073  0.109036  0.250000  1
  Mo  Mo21  1  0.109036  0.890964  0.750000  1
  Mo  Mo22  1  0.109036  0.218073  0.750000  1
  Mo  Mo23  1  0.781927  0.890964  0.750000  1
  Mo  Mo24  1  0.000000  0.000000  0.500000  1
  Mo  Mo25  1  0.000000  0.000000  0.000000  1
  Se  Se26  1  0.333333  0.666667  0.250000  1
  Se  Se27  1  0.666667  0.333333  0.750000  1
