# generated using pymatgen
data_Dy4Al3Zn3Pt8
_symmetry_space_group_name_H-M   'P 1'
_cell_length_a   8.11413845
_cell_length_b   8.11414028
_cell_length_c   7.63861865
_cell_angle_alpha   89.96157300
_cell_angle_beta   89.96156944
_cell_angle_gamma   139.78321239
_symmetry_Int_Tables_number   1
_chemical_formula_structural   Dy4Al3Zn3Pt8
_chemical_formula_sum   'Dy4 Al3 Zn3 Pt8'
_cell_volume   324.72613088
_cell_formula_units_Z   1
loop_
 _symmetry_equiv_pos_site_id
 _symmetry_equiv_pos_as_xyz
  1  'x, y, z'
loop_
 _atom_site_type_symbol
 _atom_site_label
 _atom_site_symmetry_multiplicity
 _atom_site_fract_x
 _atom_site_fract_y
 _atom_site_fract_z
 _atom_site_occupancy
  Dy  Dy0  1  0.606660  0.388174  0.908894  1
  Dy  Dy1  1  0.391371  0.611696  0.093815  1
  Dy  Dy2  1  0.888304  0.108629  0.406185  1
  Dy  Dy3  1  0.111826  0.893340  0.591106  1
  Al  Al4  1  0.499146  0.499014  0.500406  1
  Al  Al5  1  0.000986  0.000854  0.999594  1
  Al  Al6  1  0.024001  0.475999  0.750000  1
  Zn  Zn7  1  0.522500  0.977500  0.750000  1
  Zn  Zn8  1  0.977055  0.522945  0.250000  1
  Zn  Zn9  1  0.477341  0.022659  0.250000  1
  Pt  Pt10  1  0.695112  0.804888  0.750000  1
  Pt  Pt11  1  0.805033  0.694967  0.250000  1
  Pt  Pt12  1  0.305568  0.194432  0.250000  1
  Pt  Pt13  1  0.191926  0.308074  0.750000  1
  Pt  Pt14  1  0.688956  0.331316  0.531987  1
  Pt  Pt15  1  0.316881  0.671351  0.477104  1
  Pt  Pt16  1  0.828649  0.183119  0.022896  1
  Pt  Pt17  1  0.168684  0.811044  0.968013  1
