# generated using pymatgen
data_Hf16NbNi4Pd3
_symmetry_space_group_name_H-M   'P 1'
_cell_length_a   8.72118163
_cell_length_b   8.72118125
_cell_length_c   8.72118080
_cell_angle_alpha   59.64195321
_cell_angle_beta   59.64195791
_cell_angle_gamma   59.64195579
_symmetry_Int_Tables_number   1
_chemical_formula_structural   Hf16NbNi4Pd3
_chemical_formula_sum   'Hf16 Nb1 Ni4 Pd3'
_cell_volume   465.22509458
_cell_formula_units_Z   1
loop_
 _symmetry_equiv_pos_site_id
 _symmetry_equiv_pos_as_xyz
  1  'x, y, z'
loop_
 _atom_site_type_symbol
 _atom_site_label
 _atom_site_symmetry_multiplicity
 _atom_site_fract_x
 _atom_site_fract_y
 _atom_site_fract_z
 _atom_site_occupancy
  Hf  Hf0  1  0.699810  0.100145  0.100145  1
  Hf  Hf1  1  0.100145  0.699810  0.100145  1
  Hf  Hf2  1  0.100145  0.100145  0.699810  1
  Hf  Hf3  1  0.109373  0.109373  0.109373  1
  Hf  Hf4  1  0.313280  0.313280  0.674152  1
  Hf  Hf5  1  0.683560  0.683560  0.316635  1
  Hf  Hf6  1  0.313280  0.674152  0.313280  1
  Hf  Hf7  1  0.683560  0.316635  0.683560  1
  Hf  Hf8  1  0.674152  0.313280  0.313280  1
  Hf  Hf9  1  0.316635  0.683560  0.683560  1
  Hf  Hf10  1  0.945677  0.945677  0.555894  1
  Hf  Hf11  1  0.554710  0.554710  0.949182  1
  Hf  Hf12  1  0.945677  0.555894  0.945677  1
  Hf  Hf13  1  0.554710  0.949182  0.554710  1
  Hf  Hf14  1  0.555894  0.945677  0.945677  1
  Hf  Hf15  1  0.949182  0.554710  0.554710  1
  Nb  Nb16  1  0.328080  0.328080  0.328080  1
  Ni  Ni17  1  0.321809  0.898073  0.898073  1
  Ni  Ni18  1  0.898073  0.321809  0.898073  1
  Ni  Ni19  1  0.898073  0.898073  0.321809  1
  Ni  Ni20  1  0.891307  0.891307  0.891307  1
  Pd  Pd21  1  0.983134  0.339867  0.339867  1
  Pd  Pd22  1  0.339867  0.983134  0.339867  1
  Pd  Pd23  1  0.339867  0.339867  0.983134  1
