# generated using pymatgen
data_Rb4Tb7(DySe4)5
_symmetry_space_group_name_H-M   'P 1'
_cell_length_a   4.15945400
_cell_length_b   12.34377018
_cell_length_c   22.23265833
_cell_angle_alpha   90.01981635
_cell_angle_beta   90.00000000
_cell_angle_gamma   90.00000000
_symmetry_Int_Tables_number   1
_chemical_formula_structural   Rb4Tb7(DySe4)5
_chemical_formula_sum   'Rb4 Tb7 Dy5 Se20'
_cell_volume   1141.49896251
_cell_formula_units_Z   1
loop_
 _symmetry_equiv_pos_site_id
 _symmetry_equiv_pos_as_xyz
  1  'x, y, z'
loop_
 _atom_site_type_symbol
 _atom_site_label
 _atom_site_symmetry_multiplicity
 _atom_site_fract_x
 _atom_site_fract_y
 _atom_site_fract_z
 _atom_site_occupancy
  Rb  Rb0  1  0.250000  0.845589  0.097726  1
  Rb  Rb1  1  0.750000  0.154378  0.902283  1
  Rb  Rb2  1  0.750000  0.345625  0.402272  1
  Rb  Rb3  1  0.250000  0.654376  0.597718  1
  Tb  Tb4  1  0.750000  0.803622  0.828641  1
  Tb  Tb5  1  0.250000  0.196455  0.171377  1
  Tb  Tb6  1  0.250000  0.303618  0.671359  1
  Tb  Tb7  1  0.750000  0.696303  0.328590  1
  Tb  Tb8  1  0.250000  0.960321  0.698654  1
  Tb  Tb9  1  0.750000  0.039686  0.301348  1
  Tb  Tb10  1  0.750000  0.460313  0.801344  1
  Dy  Dy11  1  0.250000  0.539955  0.198634  1
  Dy  Dy12  1  0.750000  0.388725  0.052576  1
  Dy  Dy13  1  0.250000  0.611295  0.947504  1
  Dy  Dy14  1  0.250000  0.888693  0.447460  1
  Dy  Dy15  1  0.750000  0.111308  0.552536  1
  Se  Se16  1  0.250000  0.948837  0.569453  1
  Se  Se17  1  0.750000  0.051158  0.430550  1
  Se  Se18  1  0.750000  0.448847  0.930549  1
  Se  Se19  1  0.250000  0.551161  0.069687  1
  Se  Se20  1  0.750000  0.769080  0.956041  1
  Se  Se21  1  0.250000  0.230907  0.043962  1
  Se  Se22  1  0.250000  0.269078  0.543952  1
  Se  Se23  1  0.750000  0.730911  0.456044  1
  Se  Se24  1  0.250000  0.958928  0.827508  1
  Se  Se25  1  0.750000  0.041081  0.172490  1
  Se  Se26  1  0.750000  0.458930  0.672495  1
  Se  Se27  1  0.250000  0.540987  0.327207  1
  Se  Se28  1  0.750000  0.130962  0.683051  1
  Se  Se29  1  0.250000  0.869033  0.316946  1
  Se  Se30  1  0.250000  0.630963  0.816958  1
  Se  Se31  1  0.750000  0.369578  0.183126  1
  Se  Se32  1  0.750000  0.692847  0.199632  1
  Se  Se33  1  0.250000  0.306466  0.800328  1
  Se  Se34  1  0.250000  0.193521  0.300328  1
  Se  Se35  1  0.750000  0.806462  0.699672  1
