# generated using pymatgen
data_Yb4Eu4PdPt3
_symmetry_space_group_name_H-M   'P 1'
_cell_length_a   4.42792700
_cell_length_b   7.84047835
_cell_length_c   9.20779614
_cell_angle_alpha   90.35537170
_cell_angle_beta   90.00000000
_cell_angle_gamma   90.00000000
_symmetry_Int_Tables_number   1
_chemical_formula_structural   Yb4Eu4PdPt3
_chemical_formula_sum   'Yb4 Eu4 Pd1 Pt3'
_cell_volume   319.66151544
_cell_formula_units_Z   1
loop_
 _symmetry_equiv_pos_site_id
 _symmetry_equiv_pos_as_xyz
  1  'x, y, z'
loop_
 _atom_site_type_symbol
 _atom_site_label
 _atom_site_symmetry_multiplicity
 _atom_site_fract_x
 _atom_site_fract_y
 _atom_site_fract_z
 _atom_site_occupancy
  Yb  Yb0  1  0.250000  0.144888  0.934599  1
  Yb  Yb1  1  0.750000  0.356600  0.433560  1
  Yb  Yb2  1  0.250000  0.644520  0.565366  1
  Yb  Yb3  1  0.750000  0.856120  0.067674  1
  Eu  Eu4  1  0.250000  0.524207  0.172656  1
  Eu  Eu5  1  0.750000  0.468193  0.828618  1
  Eu  Eu6  1  0.250000  0.025862  0.329009  1
  Eu  Eu7  1  0.750000  0.978733  0.666184  1
  Pd  Pd8  1  0.250000  0.766420  0.877988  1
  Pt  Pt9  1  0.750000  0.233692  0.123703  1
  Pt  Pt10  1  0.250000  0.266732  0.624249  1
  Pt  Pt11  1  0.750000  0.734034  0.376394  1
