# generated using pymatgen
data_LiHf4Sc3(Si4Ru3)4
_symmetry_space_group_name_H-M   'P 1'
_cell_length_a   9.89269788
_cell_length_b   9.89849781
_cell_length_c   13.37845100
_cell_angle_alpha   53.74697330
_cell_angle_beta   53.87874030
_cell_angle_gamma   31.16432285
_symmetry_Int_Tables_number   1
_chemical_formula_structural   LiHf4Sc3(Si4Ru3)4
_chemical_formula_sum   'Li1 Hf4 Sc3 Si16 Ru12'
_cell_volume   535.65381713
_cell_formula_units_Z   1
loop_
 _symmetry_equiv_pos_site_id
 _symmetry_equiv_pos_as_xyz
  1  'x, y, z'
loop_
 _atom_site_type_symbol
 _atom_site_label
 _atom_site_symmetry_multiplicity
 _atom_site_fract_x
 _atom_site_fract_y
 _atom_site_fract_z
 _atom_site_occupancy
  Li  Li0  1  0.560882  0.292902  0.148578  1
  Hf  Hf1  1  0.039104  0.295175  0.635672  1
  Hf  Hf2  1  0.702652  0.962693  0.865400  1
  Hf  Hf3  1  0.961278  0.707096  0.362883  1
  Hf  Hf4  1  0.294041  0.039777  0.135896  1
  Sc  Sc5  1  0.292423  0.562233  0.645292  1
  Sc  Sc6  1  0.441840  0.698015  0.859637  1
  Sc  Sc7  1  0.707915  0.439162  0.352020  1
  Si  Si8  1  0.868928  0.127952  0.249033  1
  Si  Si9  1  0.125719  0.874484  0.749620  1
  Si  Si10  1  0.382294  0.614968  0.247891  1
  Si  Si11  1  0.616293  0.384630  0.749381  1
  Si  Si12  1  0.980291  0.247502  0.890345  1
  Si  Si13  1  0.746025  0.026808  0.608499  1
  Si  Si14  1  0.030978  0.742469  0.107318  1
  Si  Si15  1  0.254280  0.971104  0.393663  1
  Si  Si16  1  0.574034  0.089857  0.068350  1
  Si  Si17  1  0.918987  0.425193  0.432380  1
  Si  Si18  1  0.424758  0.915075  0.935717  1
  Si  Si19  1  0.082013  0.575166  0.566753  1
  Si  Si20  1  0.391552  0.146533  0.392208  1
  Si  Si21  1  0.852371  0.618920  0.102901  1
  Si  Si22  1  0.611486  0.854871  0.606104  1
  Si  Si23  1  0.145599  0.385774  0.895268  1
  Ru  Ru24  1  0.646913  0.830722  0.282526  1
  Ru  Ru25  1  0.169240  0.348618  0.217860  1
  Ru  Ru26  1  0.759941  0.486247  0.069828  1
  Ru  Ru27  1  0.828844  0.648057  0.783455  1
  Ru  Ru28  1  0.897105  0.144878  0.585178  1
  Ru  Ru29  1  0.862731  0.097228  0.911537  1
  Ru  Ru30  1  0.102178  0.857126  0.413710  1
  Ru  Ru31  1  0.134547  0.904200  0.086142  1
  Ru  Ru32  1  0.243301  0.512170  0.929494  1
  Ru  Ru33  1  0.484285  0.760687  0.568064  1
  Ru  Ru34  1  0.514374  0.241420  0.432871  1
  Ru  Ru35  1  0.350797  0.170285  0.718530  1
