# generated using pymatgen
data_Yb12CuSi12Ag11
_symmetry_space_group_name_H-M   'P 1'
_cell_length_a   4.49605200
_cell_length_b   7.68023173
_cell_length_c   21.19073965
_cell_angle_alpha   89.89417736
_cell_angle_beta   90.00000000
_cell_angle_gamma   90.00000000
_symmetry_Int_Tables_number   1
_chemical_formula_structural   Yb12CuSi12Ag11
_chemical_formula_sum   'Yb12 Cu1 Si12 Ag11'
_cell_volume   731.73027536
_cell_formula_units_Z   1
loop_
 _symmetry_equiv_pos_site_id
 _symmetry_equiv_pos_as_xyz
  1  'x, y, z'
loop_
 _atom_site_type_symbol
 _atom_site_label
 _atom_site_symmetry_multiplicity
 _atom_site_fract_x
 _atom_site_fract_y
 _atom_site_fract_z
 _atom_site_occupancy
  Yb  Yb0  1  0.250000  0.794741  0.166295  1
  Yb  Yb1  1  0.250000  0.781689  0.500941  1
  Yb  Yb2  1  0.250000  0.706558  0.332855  1
  Yb  Yb3  1  0.750000  0.217862  0.500427  1
  Yb  Yb4  1  0.750000  0.295964  0.669277  1
  Yb  Yb5  1  0.750000  0.282000  0.998883  1
  Yb  Yb6  1  0.250000  0.790528  0.831182  1
  Yb  Yb7  1  0.250000  0.718949  0.999788  1
  Yb  Yb8  1  0.750000  0.206887  0.166996  1
  Yb  Yb9  1  0.750000  0.294590  0.333620  1
  Yb  Yb10  1  0.250000  0.701882  0.667978  1
  Yb  Yb11  1  0.750000  0.209643  0.832464  1
  Cu  Cu12  1  0.750000  0.586910  0.761762  1
  Si  Si13  1  0.250000  0.415576  0.892588  1
  Si  Si14  1  0.750000  0.907393  0.727252  1
  Si  Si15  1  0.750000  0.581217  0.224568  1
  Si  Si16  1  0.250000  0.090152  0.070837  1
  Si  Si17  1  0.750000  0.910989  0.928168  1
  Si  Si18  1  0.750000  0.912917  0.608358  1
  Si  Si19  1  0.250000  0.409255  0.571553  1
  Si  Si20  1  0.250000  0.086140  0.393463  1
  Si  Si21  1  0.250000  0.081270  0.275436  1
  Si  Si22  1  0.750000  0.589829  0.428928  1
  Si  Si23  1  0.250000  0.428881  0.773863  1
  Si  Si24  1  0.750000  0.586398  0.106432  1
  Ag  Ag25  1  0.750000  0.583688  0.903731  1
  Ag  Ag26  1  0.250000  0.415067  0.434730  1
  Ag  Ag27  1  0.750000  0.584342  0.565989  1
  Ag  Ag28  1  0.750000  0.917719  0.405859  1
  Ag  Ag29  1  0.250000  0.417666  0.093977  1
  Ag  Ag30  1  0.250000  0.411291  0.237744  1
  Ag  Ag31  1  0.750000  0.911186  0.262127  1
  Ag  Ag32  1  0.250000  0.088510  0.738139  1
  Ag  Ag33  1  0.250000  0.085037  0.933381  1
  Ag  Ag34  1  0.750000  0.915609  0.065050  1
  Ag  Ag35  1  0.250000  0.081664  0.595357  1
