# generated using pymatgen
data_Gd4Ge3
_symmetry_space_group_name_H-M   'P 1'
_cell_length_a   7.70868246
_cell_length_b   7.70909292
_cell_length_c   7.70832300
_cell_angle_alpha   109.47250143
_cell_angle_beta   109.46862321
_cell_angle_gamma   109.47267413
_symmetry_Int_Tables_number   1
_chemical_formula_structural   Gd4Ge3
_chemical_formula_sum   'Gd8 Ge6'
_cell_volume   352.63118474
_cell_formula_units_Z   2
loop_
 _symmetry_equiv_pos_site_id
 _symmetry_equiv_pos_as_xyz
  1  'x, y, z'
loop_
 _atom_site_type_symbol
 _atom_site_label
 _atom_site_symmetry_multiplicity
 _atom_site_fract_x
 _atom_site_fract_y
 _atom_site_fract_z
 _atom_site_occupancy
  Gd  Gd0  1  0.500003  0.999991  0.366463  1
  Gd  Gd1  1  0.499997  0.999988  0.866459  1
  Gd  Gd2  1  0.633540  0.633560  0.633547  1
  Gd  Gd3  1  0.999990  0.366449  0.500000  1
  Gd  Gd4  1  0.133561  0.133549  0.133544  1
  Gd  Gd5  1  0.866439  0.499988  0.999983  1
  Gd  Gd6  1  0.000010  0.866459  0.500010  1
  Gd  Gd7  1  0.366460  0.500020  0.000007  1
  Ge  Ge8  1  0.125014  0.750005  0.875012  1
  Ge  Ge9  1  0.874986  0.124990  0.749997  1
  Ge  Ge10  1  0.624989  0.374994  0.249991  1
  Ge  Ge11  1  0.375011  0.250005  0.625002  1
  Ge  Ge12  1  0.749984  0.874992  0.124985  1
  Ge  Ge13  1  0.250016  0.625009  0.375001  1
