# generated using pymatgen
data_TbThBIr6
_symmetry_space_group_name_H-M   'P 1'
_cell_length_a   5.90861638
_cell_length_b   5.90861523
_cell_length_c   5.90861600
_cell_angle_alpha   59.99999568
_cell_angle_beta   60.00000215
_cell_angle_gamma   60.00000143
_symmetry_Int_Tables_number   1
_chemical_formula_structural   TbThBIr6
_chemical_formula_sum   'Tb1 Th1 B1 Ir6'
_cell_volume   145.86203544
_cell_formula_units_Z   1
loop_
 _symmetry_equiv_pos_site_id
 _symmetry_equiv_pos_as_xyz
  1  'x, y, z'
loop_
 _atom_site_type_symbol
 _atom_site_label
 _atom_site_symmetry_multiplicity
 _atom_site_fract_x
 _atom_site_fract_y
 _atom_site_fract_z
 _atom_site_occupancy
  Tb  Tb0  1  0.750000  0.750000  0.750000  1
  Th  Th1  1  0.250000  0.250000  0.250000  1
  B  B2  1  0.000000  0.000000  0.000000  1
  Ir  Ir3  1  0.742458  0.742458  0.257542  1
  Ir  Ir4  1  0.257542  0.742458  0.257542  1
  Ir  Ir5  1  0.742458  0.257542  0.257542  1
  Ir  Ir6  1  0.257542  0.257542  0.742458  1
  Ir  Ir7  1  0.742458  0.257542  0.742458  1
  Ir  Ir8  1  0.257542  0.742458  0.742458  1
