# generated using pymatgen
data_Dy3VCoP6Rh7
_symmetry_space_group_name_H-M   'P 1'
_cell_length_a   3.85551800
_cell_length_b   11.11470700
_cell_length_c   12.77285400
_cell_angle_alpha   90.00000000
_cell_angle_beta   90.00000000
_cell_angle_gamma   90.00000000
_symmetry_Int_Tables_number   1
_chemical_formula_structural   Dy3VCoP6Rh7
_chemical_formula_sum   'Dy6 V2 Co2 P12 Rh14'
_cell_volume   547.35451090
_cell_formula_units_Z   2
loop_
 _symmetry_equiv_pos_site_id
 _symmetry_equiv_pos_as_xyz
  1  'x, y, z'
loop_
 _atom_site_type_symbol
 _atom_site_label
 _atom_site_symmetry_multiplicity
 _atom_site_fract_x
 _atom_site_fract_y
 _atom_site_fract_z
 _atom_site_occupancy
  Dy  Dy0  1  0.000000  0.500000  0.519640  1
  Dy  Dy1  1  0.500000  0.000000  0.480360  1
  Dy  Dy2  1  0.500000  0.816950  0.199606  1
  Dy  Dy3  1  0.500000  0.183050  0.199606  1
  Dy  Dy4  1  0.000000  0.683050  0.800394  1
  Dy  Dy5  1  0.000000  0.316950  0.800394  1
  V  V6  1  0.500000  0.500000  0.155056  1
  V  V7  1  0.000000  0.000000  0.844944  1
  Co  Co8  1  0.000000  0.500000  0.988594  1
  Co  Co9  1  0.500000  0.000000  0.011406  1
  P  P10  1  0.500000  0.500000  0.881478  1
  P  P11  1  0.000000  0.000000  0.118522  1
  P  P12  1  0.500000  0.500000  0.343395  1
  P  P13  1  0.000000  0.000000  0.656605  1
  P  P14  1  0.500000  0.314501  0.618385  1
  P  P15  1  0.500000  0.685499  0.618385  1
  P  P16  1  0.000000  0.185499  0.381615  1
  P  P17  1  0.000000  0.814501  0.381615  1
  P  P18  1  0.500000  0.852360  0.892393  1
  P  P19  1  0.500000  0.147640  0.892393  1
  P  P20  1  0.000000  0.647640  0.107607  1
  P  P21  1  0.000000  0.352360  0.107607  1
  Rh  Rh22  1  0.500000  0.500000  0.701123  1
  Rh  Rh23  1  0.000000  0.000000  0.298877  1
  Rh  Rh24  1  0.500000  0.334806  0.990901  1
  Rh  Rh25  1  0.500000  0.665194  0.990901  1
  Rh  Rh26  1  0.000000  0.165194  0.009099  1
  Rh  Rh27  1  0.000000  0.834806  0.009099  1
  Rh  Rh28  1  0.500000  0.293007  0.430283  1
  Rh  Rh29  1  0.500000  0.706993  0.430283  1
  Rh  Rh30  1  0.000000  0.206993  0.569717  1
  Rh  Rh31  1  0.000000  0.793007  0.569717  1
  Rh  Rh32  1  0.500000  0.875296  0.711297  1
  Rh  Rh33  1  0.500000  0.124704  0.711297  1
  Rh  Rh34  1  0.000000  0.624704  0.288703  1
  Rh  Rh35  1  0.000000  0.375296  0.288703  1
