# generated using pymatgen
data_YErAl2PtRh
_symmetry_space_group_name_H-M   'P 1'
_cell_length_a   4.37093000
_cell_length_b   6.80691357
_cell_length_c   7.84590418
_cell_angle_alpha   90.49425661
_cell_angle_beta   90.00000000
_cell_angle_gamma   90.00000000
_symmetry_Int_Tables_number   1
_chemical_formula_structural   YErAl2PtRh
_chemical_formula_sum   'Y2 Er2 Al4 Pt2 Rh2'
_cell_volume   233.42691376
_cell_formula_units_Z   2
loop_
 _symmetry_equiv_pos_site_id
 _symmetry_equiv_pos_as_xyz
  1  'x, y, z'
loop_
 _atom_site_type_symbol
 _atom_site_label
 _atom_site_symmetry_multiplicity
 _atom_site_fract_x
 _atom_site_fract_y
 _atom_site_fract_z
 _atom_site_occupancy
  Y  Y0  1  0.250000  0.467612  0.183260  1
  Y  Y1  1  0.750000  0.532388  0.816740  1
  Er  Er2  1  0.750000  0.029867  0.677918  1
  Er  Er3  1  0.250000  0.970133  0.322082  1
  Al  Al4  1  0.250000  0.856699  0.937599  1
  Al  Al5  1  0.750000  0.143301  0.062401  1
  Al  Al6  1  0.750000  0.638986  0.437409  1
  Al  Al7  1  0.250000  0.361014  0.562591  1
  Pt  Pt8  1  0.750000  0.772216  0.121567  1
  Pt  Pt9  1  0.250000  0.227784  0.878433  1
  Rh  Rh10  1  0.250000  0.737906  0.614920  1
  Rh  Rh11  1  0.750000  0.262094  0.385080  1
