# generated using pymatgen
data_BaYIn3B4Ir9
_symmetry_space_group_name_H-M   'P 1'
_cell_length_a   5.68123700
_cell_length_b   5.68123676
_cell_length_c   10.34447000
_cell_angle_alpha   90.00000000
_cell_angle_beta   90.00000000
_cell_angle_gamma   120.00000723
_symmetry_Int_Tables_number   1
_chemical_formula_structural   BaYIn3B4Ir9
_chemical_formula_sum   'Ba1 Y1 In3 B4 Ir9'
_cell_volume   289.15096078
_cell_formula_units_Z   1
loop_
 _symmetry_equiv_pos_site_id
 _symmetry_equiv_pos_as_xyz
  1  'x, y, z'
loop_
 _atom_site_type_symbol
 _atom_site_label
 _atom_site_symmetry_multiplicity
 _atom_site_fract_x
 _atom_site_fract_y
 _atom_site_fract_z
 _atom_site_occupancy
  Ba  Ba0  1  0.000000  0.000000  0.526036  1
  Y  Y1  1  0.000000  0.000000  0.878625  1
  In  In2  1  0.666667  0.333333  0.525973  1
  In  In3  1  0.000000  0.000000  0.194510  1
  In  In4  1  0.333333  0.666667  0.525973  1
  B  B5  1  0.666667  0.333333  0.173385  1
  B  B6  1  0.333333  0.666667  0.881920  1
  B  B7  1  0.666667  0.333333  0.881920  1
  B  B8  1  0.333333  0.666667  0.173385  1
  Ir  Ir9  1  0.000000  0.470640  0.300953  1
  Ir  Ir10  1  0.496164  0.000000  0.751137  1
  Ir  Ir11  1  0.470640  0.000000  0.300953  1
  Ir  Ir12  1  0.000000  0.467148  0.027335  1
  Ir  Ir13  1  0.503836  0.503836  0.751137  1
  Ir  Ir14  1  0.000000  0.496164  0.751137  1
  Ir  Ir15  1  0.532852  0.532852  0.027335  1
  Ir  Ir16  1  0.467148  0.000000  0.027335  1
  Ir  Ir17  1  0.529360  0.529360  0.300953  1
