# generated using pymatgen
data_Dy4Al6ReIr
_symmetry_space_group_name_H-M   'P 1'
_cell_length_a   5.50703500
_cell_length_b   5.50703543
_cell_length_c   8.85612800
_cell_angle_alpha   90.00000000
_cell_angle_beta   90.00000000
_cell_angle_gamma   119.99999138
_symmetry_Int_Tables_number   1
_chemical_formula_structural   Dy4Al6ReIr
_chemical_formula_sum   'Dy4 Al6 Re1 Ir1'
_cell_volume   232.60029536
_cell_formula_units_Z   1
loop_
 _symmetry_equiv_pos_site_id
 _symmetry_equiv_pos_as_xyz
  1  'x, y, z'
loop_
 _atom_site_type_symbol
 _atom_site_label
 _atom_site_symmetry_multiplicity
 _atom_site_fract_x
 _atom_site_fract_y
 _atom_site_fract_z
 _atom_site_occupancy
  Dy  Dy0  1  0.666667  0.333332  0.054332  1
  Dy  Dy1  1  0.666667  0.333332  0.449045  1
  Dy  Dy2  1  0.333334  0.666667  0.550955  1
  Dy  Dy3  1  0.333334  0.666667  0.945668  1
  Al  Al4  1  0.162535  0.325070  0.252159  1
  Al  Al5  1  0.162534  0.837465  0.252159  1
  Al  Al6  1  0.674929  0.837465  0.252159  1
  Al  Al7  1  0.325071  0.162535  0.747841  1
  Al  Al8  1  0.837466  0.162535  0.747841  1
  Al  Al9  1  0.837466  0.674929  0.747841  1
  Re  Re10  1  0.000000  0.000000  0.000000  1
  Ir  Ir11  1  0.000000  0.000000  0.500000  1
