# generated using pymatgen
data_Y2Ho2Pa(FeB3)2
_symmetry_space_group_name_H-M   'P 1'
_cell_length_a   5.43521455
_cell_length_b   5.43521309
_cell_length_c   7.91584243
_cell_angle_alpha   69.92118686
_cell_angle_beta   69.92118352
_cell_angle_gamma   59.99999380
_symmetry_Int_Tables_number   1
_chemical_formula_structural   Y2Ho2Pa(FeB3)2
_chemical_formula_sum   'Y2 Ho2 Pa1 Fe2 B6'
_cell_volume   185.92416547
_cell_formula_units_Z   1
loop_
 _symmetry_equiv_pos_site_id
 _symmetry_equiv_pos_as_xyz
  1  'x, y, z'
loop_
 _atom_site_type_symbol
 _atom_site_label
 _atom_site_symmetry_multiplicity
 _atom_site_fract_x
 _atom_site_fract_y
 _atom_site_fract_z
 _atom_site_occupancy
  Y  Y0  1  0.587468  0.587468  0.237597  1
  Y  Y1  1  0.412532  0.412532  0.762403  1
  Ho  Ho2  1  0.745752  0.745752  0.762744  1
  Ho  Ho3  1  0.254248  0.254248  0.237256  1
  Pa  Pa4  1  0.000000  0.000000  0.000000  1
  Fe  Fe5  1  0.891505  0.891505  0.325484  1
  Fe  Fe6  1  0.108495  0.108495  0.674516  1
  B  B7  1  0.500000  0.166843  0.500000  1
  B  B8  1  0.833157  0.500000  0.500000  1
  B  B9  1  0.166843  0.833157  0.500000  1
  B  B10  1  0.166843  0.500000  0.500000  1
  B  B11  1  0.833157  0.166843  0.500000  1
  B  B12  1  0.500000  0.833157  0.500000  1
