# generated using pymatgen
data_La3Zn(GeRh3)2
_symmetry_space_group_name_H-M   'P 1'
_cell_length_a   5.70895200
_cell_length_b   5.70895110
_cell_length_c   15.84211700
_cell_angle_alpha   90.00000000
_cell_angle_beta   90.00000000
_cell_angle_gamma   119.99999362
_symmetry_Int_Tables_number   1
_chemical_formula_structural   La3Zn(GeRh3)2
_chemical_formula_sum   'La6 Zn2 Ge4 Rh12'
_cell_volume   447.15345493
_cell_formula_units_Z   2
loop_
 _symmetry_equiv_pos_site_id
 _symmetry_equiv_pos_as_xyz
  1  'x, y, z'
loop_
 _atom_site_type_symbol
 _atom_site_label
 _atom_site_symmetry_multiplicity
 _atom_site_fract_x
 _atom_site_fract_y
 _atom_site_fract_z
 _atom_site_occupancy
  La  La0  1  0.333333  0.666667  0.539497  1
  La  La1  1  0.666667  0.333333  0.460503  1
  La  La2  1  0.666667  0.333333  0.039497  1
  La  La3  1  0.333333  0.666667  0.960503  1
  La  La4  1  0.333333  0.666667  0.750000  1
  La  La5  1  0.666667  0.333333  0.250000  1
  Zn  Zn6  1  0.000000  0.000000  0.000000  1
  Zn  Zn7  1  0.000000  0.000000  0.500000  1
  Ge  Ge8  1  0.000000  0.000000  0.250000  1
  Ge  Ge9  1  0.000000  0.000000  0.750000  1
  Ge  Ge10  1  0.333333  0.666667  0.250000  1
  Ge  Ge11  1  0.666667  0.333333  0.750000  1
  Rh  Rh12  1  0.167124  0.334248  0.131587  1
  Rh  Rh13  1  0.832876  0.665752  0.868413  1
  Rh  Rh14  1  0.665752  0.832876  0.131587  1
  Rh  Rh15  1  0.832876  0.665752  0.631587  1
  Rh  Rh16  1  0.334248  0.167124  0.868413  1
  Rh  Rh17  1  0.167124  0.334248  0.368413  1
  Rh  Rh18  1  0.167124  0.832876  0.131587  1
  Rh  Rh19  1  0.334248  0.167124  0.631587  1
  Rh  Rh20  1  0.832876  0.167124  0.868413  1
  Rh  Rh21  1  0.665752  0.832876  0.368413  1
  Rh  Rh22  1  0.832876  0.167124  0.631587  1
  Rh  Rh23  1  0.167124  0.832876  0.368413  1
