# generated using pymatgen
data_Dy7Tm3(IrRu)2
_symmetry_space_group_name_H-M   'P 1'
_cell_length_a   6.39088725
_cell_length_b   7.23960207
_cell_length_c   8.44101632
_cell_angle_alpha   96.82930348
_cell_angle_beta   112.02199543
_cell_angle_gamma   89.95611967
_symmetry_Int_Tables_number   1
_chemical_formula_structural   Dy7Tm3(IrRu)2
_chemical_formula_sum   'Dy7 Tm3 Ir2 Ru2'
_cell_volume   359.07398427
_cell_formula_units_Z   1
loop_
 _symmetry_equiv_pos_site_id
 _symmetry_equiv_pos_as_xyz
  1  'x, y, z'
loop_
 _atom_site_type_symbol
 _atom_site_label
 _atom_site_symmetry_multiplicity
 _atom_site_fract_x
 _atom_site_fract_y
 _atom_site_fract_z
 _atom_site_occupancy
  Dy  Dy0  1  0.791193  0.081662  0.815317  1
  Dy  Dy1  1  0.977016  0.418533  0.185329  1
  Dy  Dy2  1  0.210059  0.915377  0.183755  1
  Dy  Dy3  1  0.027255  0.584471  0.816286  1
  Dy  Dy4  1  0.209309  0.183126  0.564583  1
  Dy  Dy5  1  0.644301  0.317922  0.435761  1
  Dy  Dy6  1  0.789642  0.813805  0.436961  1
  Tm  Tm7  1  0.353565  0.684726  0.564143  1
  Tm  Tm8  1  0.425605  0.249703  0.999792  1
  Tm  Tm9  1  0.574519  0.749888  0.998945  1
  Ir  Ir10  1  0.602475  0.425644  0.780545  1
  Ir  Ir11  1  0.821929  0.075325  0.218709  1
  Ru  Ru12  1  0.394924  0.574637  0.218752  1
  Ru  Ru13  1  0.178207  0.925182  0.781121  1
