# generated using pymatgen
data_DyY3CoB14
_symmetry_space_group_name_H-M   'P 1'
_cell_length_a   7.22916503
_cell_length_b   7.22872003
_cell_length_c   7.52107100
_cell_angle_alpha   90.00000000
_cell_angle_beta   90.00000000
_cell_angle_gamma   90.01069995
_symmetry_Int_Tables_number   1
_chemical_formula_structural   DyY3CoB14
_chemical_formula_sum   'Dy2 Y6 Co2 B28'
_cell_volume   393.03318881
_cell_formula_units_Z   2
loop_
 _symmetry_equiv_pos_site_id
 _symmetry_equiv_pos_as_xyz
  1  'x, y, z'
loop_
 _atom_site_type_symbol
 _atom_site_label
 _atom_site_symmetry_multiplicity
 _atom_site_fract_x
 _atom_site_fract_y
 _atom_site_fract_z
 _atom_site_occupancy
  Dy  Dy0  1  0.829894  0.692987  0.500000  1
  Dy  Dy1  1  0.170106  0.307013  0.500000  1
  Y  Y2  1  0.193039  0.330176  0.000000  1
  Y  Y3  1  0.669843  0.193003  0.000000  1
  Y  Y4  1  0.330157  0.806997  0.000000  1
  Y  Y5  1  0.693073  0.170002  0.500000  1
  Y  Y6  1  0.306927  0.829998  0.500000  1
  Y  Y7  1  0.806961  0.669824  0.000000  1
  Co  Co8  1  0.000000  0.000000  0.000000  1
  Co  Co9  1  0.500000  0.500000  0.500000  1
  B  B10  1  0.173999  0.038821  0.230988  1
  B  B11  1  0.961395  0.174098  0.231043  1
  B  B12  1  0.038605  0.825902  0.231043  1
  B  B13  1  0.673995  0.461397  0.269304  1
  B  B14  1  0.326005  0.538603  0.269304  1
  B  B15  1  0.826001  0.961179  0.230988  1
  B  B16  1  0.538811  0.673964  0.269293  1
  B  B17  1  0.461189  0.326036  0.269293  1
  B  B18  1  0.826001  0.961179  0.769012  1
  B  B19  1  0.038605  0.825902  0.768957  1
  B  B20  1  0.961395  0.174098  0.768957  1
  B  B21  1  0.326005  0.538603  0.730696  1
  B  B22  1  0.673995  0.461397  0.730696  1
  B  B23  1  0.173999  0.038821  0.769012  1
  B  B24  1  0.461189  0.326036  0.730707  1
  B  B25  1  0.538811  0.673964  0.730707  1
  B  B26  1  0.088292  0.588256  0.250731  1
  B  B27  1  0.411621  0.088386  0.250289  1
  B  B28  1  0.588379  0.911614  0.250289  1
  B  B29  1  0.911708  0.411744  0.250731  1
  B  B30  1  0.911708  0.411744  0.749269  1
  B  B31  1  0.588379  0.911614  0.749711  1
  B  B32  1  0.411621  0.088386  0.749711  1
  B  B33  1  0.088292  0.588256  0.749269  1
  B  B34  1  0.000000  0.000000  0.388115  1
  B  B35  1  0.500000  0.500000  0.111919  1
  B  B36  1  0.000000  0.000000  0.611885  1
  B  B37  1  0.500000  0.500000  0.888081  1
