# generated using pymatgen
data_Li2CoP2Pd
_symmetry_space_group_name_H-M   'P 1'
_cell_length_a   3.78262100
_cell_length_b   6.36634495
_cell_length_c   6.70097092
_cell_angle_alpha   90.42214006
_cell_angle_beta   90.00000000
_cell_angle_gamma   90.00000000
_symmetry_Int_Tables_number   1
_chemical_formula_structural   Li2CoP2Pd
_chemical_formula_sum   'Li4 Co2 P4 Pd2'
_cell_volume   161.36485109
_cell_formula_units_Z   2
loop_
 _symmetry_equiv_pos_site_id
 _symmetry_equiv_pos_as_xyz
  1  'x, y, z'
loop_
 _atom_site_type_symbol
 _atom_site_label
 _atom_site_symmetry_multiplicity
 _atom_site_fract_x
 _atom_site_fract_y
 _atom_site_fract_z
 _atom_site_occupancy
  Li  Li0  1  0.250000  0.520360  0.172963  1
  Li  Li1  1  0.750000  0.479640  0.827037  1
  Li  Li2  1  0.750000  0.988572  0.666685  1
  Li  Li3  1  0.250000  0.011428  0.333315  1
  Co  Co4  1  0.250000  0.636831  0.555700  1
  Co  Co5  1  0.750000  0.363169  0.444300  1
  P  P6  1  0.250000  0.774199  0.851566  1
  P  P7  1  0.750000  0.225801  0.148434  1
  P  P8  1  0.750000  0.703844  0.396422  1
  P  P9  1  0.250000  0.296156  0.603578  1
  Pd  Pd10  1  0.750000  0.846437  0.061656  1
  Pd  Pd11  1  0.250000  0.153563  0.938344  1
