# generated using pymatgen
data_Dy5Er3Ga12CoAu3
_symmetry_space_group_name_H-M   'P 1'
_cell_length_a   7.16754001
_cell_length_b   8.86725158
_cell_length_c   8.85730347
_cell_angle_alpha   120.10125744
_cell_angle_beta   89.99585699
_cell_angle_gamma   89.99874403
_symmetry_Int_Tables_number   1
_chemical_formula_structural   Dy5Er3Ga12CoAu3
_chemical_formula_sum   'Dy5 Er3 Ga12 Co1 Au3'
_cell_volume   487.02054130
_cell_formula_units_Z   1
loop_
 _symmetry_equiv_pos_site_id
 _symmetry_equiv_pos_as_xyz
  1  'x, y, z'
loop_
 _atom_site_type_symbol
 _atom_site_label
 _atom_site_symmetry_multiplicity
 _atom_site_fract_x
 _atom_site_fract_y
 _atom_site_fract_z
 _atom_site_occupancy
  Dy  Dy0  1  0.738796  0.999943  0.000139  1
  Dy  Dy1  1  0.251879  0.000081  0.999775  1
  Dy  Dy2  1  0.749518  0.486423  0.513951  1
  Dy  Dy3  1  0.257798  0.522487  0.477716  1
  Dy  Dy4  1  0.749438  0.027548  0.513912  1
  Er  Er5  1  0.258517  0.954600  0.477204  1
  Er  Er6  1  0.749086  0.486558  0.972986  1
  Er  Er7  1  0.258683  0.522777  0.045085  1
  Ga  Ga8  1  0.957632  0.837070  0.162240  1
  Ga  Ga9  1  0.047313  0.165235  0.834875  1
  Ga  Ga10  1  0.957056  0.325230  0.162225  1
  Ga  Ga11  1  0.460115  0.163736  0.836470  1
  Ga  Ga12  1  0.046781  0.669724  0.835307  1
  Ga  Ga13  1  0.539442  0.825450  0.173664  1
  Ga  Ga14  1  0.957970  0.837336  0.674612  1
  Ga  Ga15  1  0.460705  0.672714  0.836756  1
  Ga  Ga16  1  0.047135  0.164927  0.330654  1
  Ga  Ga17  1  0.539981  0.348349  0.173436  1
  Ga  Ga18  1  0.460289  0.163474  0.327606  1
  Ga  Ga19  1  0.539048  0.826089  0.651608  1
  Co  Co20  1  0.513326  0.666753  0.332378  1
  Au  Au21  1  0.954955  0.666529  0.332333  1
  Au  Au22  1  0.033380  0.333457  0.667526  1
  Au  Au23  1  0.471163  0.333512  0.667540  1
