# generated using pymatgen
data_Ta9Ni2GePt2
_symmetry_space_group_name_H-M   'P 1'
_cell_length_a   5.13092482
_cell_length_b   9.81543621
_cell_length_c   9.81518747
_cell_angle_alpha   86.07861582
_cell_angle_beta   74.84866144
_cell_angle_gamma   74.83459052
_symmetry_Int_Tables_number   1
_chemical_formula_structural   Ta9Ni2GePt2
_chemical_formula_sum   'Ta18 Ni4 Ge2 Pt4'
_cell_volume   460.51578953
_cell_formula_units_Z   2
loop_
 _symmetry_equiv_pos_site_id
 _symmetry_equiv_pos_as_xyz
  1  'x, y, z'
loop_
 _atom_site_type_symbol
 _atom_site_label
 _atom_site_symmetry_multiplicity
 _atom_site_fract_x
 _atom_site_fract_y
 _atom_site_fract_z
 _atom_site_occupancy
  Ta  Ta0  1  0.749996  0.500026  0.499996  1
  Ta  Ta1  1  0.250004  0.499974  0.500004  1
  Ta  Ta2  1  0.790158  0.780606  0.639197  1
  Ta  Ta3  1  0.209842  0.219394  0.360803  1
  Ta  Ta4  1  0.709920  0.360779  0.219410  1
  Ta  Ta5  1  0.290080  0.639221  0.780590  1
  Ta  Ta6  1  0.570659  0.639226  0.219421  1
  Ta  Ta7  1  0.429341  0.360774  0.780579  1
  Ta  Ta8  1  0.070631  0.219405  0.639202  1
  Ta  Ta9  1  0.929369  0.780595  0.360798  1
  Ta  Ta10  1  0.584972  0.077449  0.752663  1
  Ta  Ta11  1  0.415028  0.922551  0.247337  1
  Ta  Ta12  1  0.915092  0.247319  0.922530  1
  Ta  Ta13  1  0.084908  0.752681  0.077470  1
  Ta  Ta14  1  0.662394  0.752675  0.922538  1
  Ta  Ta15  1  0.337606  0.247325  0.077462  1
  Ta  Ta16  1  0.162353  0.922559  0.752657  1
  Ta  Ta17  1  0.837647  0.077441  0.247343  1
  Ni  Ni18  1  0.500000  0.000000  0.500000  1
  Ni  Ni19  1  0.000000  0.000000  0.500000  1
  Ni  Ni20  1  0.500000  0.500000  0.000000  1
  Ni  Ni21  1  0.000000  0.500000  0.000000  1
  Ge  Ge22  1  0.249998  0.000001  0.000004  1
  Ge  Ge23  1  0.750002  0.999999  0.999996  1
  Pt  Pt24  1  0.130253  0.499990  0.239469  1
  Pt  Pt25  1  0.869747  0.500010  0.760531  1
  Pt  Pt26  1  0.369704  0.760519  0.500012  1
  Pt  Pt27  1  0.630296  0.239481  0.499988  1
