# generated using pymatgen
data_Ti8Mn4FeCo3
_symmetry_space_group_name_H-M   'P 1'
_cell_length_a   5.92236600
_cell_length_b   4.19956400
_cell_length_c   8.39698800
_cell_angle_alpha   90.00000000
_cell_angle_beta   89.99924059
_cell_angle_gamma   90.00000000
_symmetry_Int_Tables_number   1
_chemical_formula_structural   Ti8Mn4FeCo3
_chemical_formula_sum   'Ti8 Mn4 Fe1 Co3'
_cell_volume   208.84446988
_cell_formula_units_Z   1
loop_
 _symmetry_equiv_pos_site_id
 _symmetry_equiv_pos_as_xyz
  1  'x, y, z'
loop_
 _atom_site_type_symbol
 _atom_site_label
 _atom_site_symmetry_multiplicity
 _atom_site_fract_x
 _atom_site_fract_y
 _atom_site_fract_z
 _atom_site_occupancy
  Ti  Ti0  1  0.500913  0.749999  0.122958  1
  Ti  Ti1  1  0.999268  0.749999  0.122961  1
  Ti  Ti2  1  0.499744  0.249999  0.374986  1
  Ti  Ti3  1  0.000436  0.249999  0.374988  1
  Ti  Ti4  1  0.999070  0.749999  0.627041  1
  Ti  Ti5  1  0.500747  0.749999  0.627038  1
  Ti  Ti6  1  0.997216  0.249999  0.875014  1
  Ti  Ti7  1  0.502613  0.249999  0.875015  1
  Mn  Mn8  1  0.750059  0.249999  0.126446  1
  Mn  Mn9  1  0.250042  0.749999  0.374982  1
  Mn  Mn10  1  0.749940  0.249999  0.623559  1
  Mn  Mn11  1  0.249953  0.749999  0.875010  1
  Fe  Fe12  1  0.749939  0.749999  0.875003  1
  Co  Co13  1  0.250067  0.249999  0.125403  1
  Co  Co14  1  0.750059  0.749999  0.374999  1
  Co  Co15  1  0.249936  0.249999  0.624597  1
