# generated using pymatgen
data_InPd5
_symmetry_space_group_name_H-M   'P 1'
_cell_length_a   4.88320297
_cell_length_b   4.90267110
_cell_length_c   4.92428927
_cell_angle_alpha   60.10972055
_cell_angle_beta   99.09633865
_cell_angle_gamma   108.43157441
_symmetry_Int_Tables_number   1
_chemical_formula_structural   InPd5
_chemical_formula_sum   'In1 Pd5'
_cell_volume   96.96623100
_cell_formula_units_Z   1
loop_
 _symmetry_equiv_pos_site_id
 _symmetry_equiv_pos_as_xyz
  1  'x, y, z'
loop_
 _atom_site_type_symbol
 _atom_site_label
 _atom_site_symmetry_multiplicity
 _atom_site_fract_x
 _atom_site_fract_y
 _atom_site_fract_z
 _atom_site_occupancy
  In  In0  1  0.849404  0.876811  0.691651  1
  Pd  Pd1  1  0.348829  0.707128  0.027113  1
  Pd  Pd2  1  0.849409  0.542447  0.359508  1
  Pd  Pd3  1  0.349504  0.042515  0.356179  1
  Pd  Pd4  1  0.349038  0.374700  0.691697  1
  Pd  Pd5  1  0.849360  0.209945  0.023981  1
