# generated using pymatgen
data_Lu6Zn22CdSi
_symmetry_space_group_name_H-M   'P 1'
_cell_length_a   9.02034842
_cell_length_b   9.02034852
_cell_length_c   9.02034900
_cell_angle_alpha   60.00000191
_cell_angle_beta   60.00000153
_cell_angle_gamma   60.00000352
_symmetry_Int_Tables_number   1
_chemical_formula_structural   Lu6Zn22CdSi
_chemical_formula_sum   'Lu6 Zn22 Cd1 Si1'
_cell_volume   518.98522776
_cell_formula_units_Z   1
loop_
 _symmetry_equiv_pos_site_id
 _symmetry_equiv_pos_as_xyz
  1  'x, y, z'
loop_
 _atom_site_type_symbol
 _atom_site_label
 _atom_site_symmetry_multiplicity
 _atom_site_fract_x
 _atom_site_fract_y
 _atom_site_fract_z
 _atom_site_occupancy
  Lu  Lu0  1  0.714176  0.285824  0.285824  1
  Lu  Lu1  1  0.714176  0.285824  0.714176  1
  Lu  Lu2  1  0.714176  0.714176  0.285824  1
  Lu  Lu3  1  0.285824  0.714176  0.714176  1
  Lu  Lu4  1  0.285824  0.714176  0.285824  1
  Lu  Lu5  1  0.285824  0.285824  0.714176  1
  Zn  Zn6  1  0.617261  0.127580  0.127580  1
  Zn  Zn7  1  0.127580  0.617261  0.127580  1
  Zn  Zn8  1  0.127580  0.127580  0.617261  1
  Zn  Zn9  1  0.127580  0.127580  0.127580  1
  Zn  Zn10  1  0.382739  0.872420  0.872420  1
  Zn  Zn11  1  0.872420  0.382739  0.872420  1
  Zn  Zn12  1  0.872420  0.872420  0.382739  1
  Zn  Zn13  1  0.872420  0.872420  0.872420  1
  Zn  Zn14  1  0.500000  0.000000  0.000000  1
  Zn  Zn15  1  0.500000  0.000000  0.500000  1
  Zn  Zn16  1  0.500000  0.500000  0.000000  1
  Zn  Zn17  1  0.000000  0.500000  0.500000  1
  Zn  Zn18  1  0.000000  0.500000  0.000000  1
  Zn  Zn19  1  0.000000  0.000000  0.500000  1
  Zn  Zn20  1  0.004741  0.331753  0.331753  1
  Zn  Zn21  1  0.331753  0.004741  0.331753  1
  Zn  Zn22  1  0.331753  0.331753  0.004741  1
  Zn  Zn23  1  0.331753  0.331753  0.331753  1
  Zn  Zn24  1  0.995259  0.668247  0.668247  1
  Zn  Zn25  1  0.668247  0.995259  0.668247  1
  Zn  Zn26  1  0.668247  0.668247  0.995259  1
  Zn  Zn27  1  0.668247  0.668247  0.668247  1
  Cd  Cd28  1  0.000000  0.000000  0.000000  1
  Si  Si29  1  0.500000  0.500000  0.500000  1
