# generated using pymatgen
data_LiErTm(P3Pd10)2
_symmetry_space_group_name_H-M   'P 1'
_cell_length_a   8.61539841
_cell_length_b   8.61539794
_cell_length_c   8.61539800
_cell_angle_alpha   59.99999977
_cell_angle_beta   60.00000156
_cell_angle_gamma   60.00000147
_symmetry_Int_Tables_number   1
_chemical_formula_structural   LiErTm(P3Pd10)2
_chemical_formula_sum   'Li1 Er1 Tm1 P6 Pd20'
_cell_volume   452.17970273
_cell_formula_units_Z   1
loop_
 _symmetry_equiv_pos_site_id
 _symmetry_equiv_pos_as_xyz
  1  'x, y, z'
loop_
 _atom_site_type_symbol
 _atom_site_label
 _atom_site_symmetry_multiplicity
 _atom_site_fract_x
 _atom_site_fract_y
 _atom_site_fract_z
 _atom_site_occupancy
  Li  Li0  1  0.000000  0.000000  0.000000  1
  Er  Er1  1  0.250000  0.250000  0.250000  1
  Tm  Tm2  1  0.750000  0.750000  0.750000  1
  P  P3  1  0.738780  0.261220  0.261220  1
  P  P4  1  0.738780  0.738780  0.261220  1
  P  P5  1  0.738780  0.261220  0.738780  1
  P  P6  1  0.261220  0.738780  0.261220  1
  P  P7  1  0.261220  0.738780  0.738780  1
  P  P8  1  0.261220  0.261220  0.738780  1
  Pd  Pd9  1  0.344268  0.000671  0.000671  1
  Pd  Pd10  1  0.000671  0.654392  0.344268  1
  Pd  Pd11  1  0.344268  0.000671  0.654392  1
  Pd  Pd12  1  0.000671  0.654392  0.000671  1
  Pd  Pd13  1  0.654392  0.344268  0.000671  1
  Pd  Pd14  1  0.616602  0.616602  0.150193  1
  Pd  Pd15  1  0.384784  0.845648  0.384784  1
  Pd  Pd16  1  0.150193  0.616602  0.616602  1
  Pd  Pd17  1  0.654392  0.000671  0.344268  1
  Pd  Pd18  1  0.000671  0.344268  0.654392  1
  Pd  Pd19  1  0.654392  0.000671  0.000671  1
  Pd  Pd20  1  0.000671  0.000671  0.344268  1
  Pd  Pd21  1  0.616602  0.150193  0.616602  1
  Pd  Pd22  1  0.344268  0.654392  0.000671  1
  Pd  Pd23  1  0.384784  0.384784  0.384784  1
  Pd  Pd24  1  0.616602  0.616602  0.616602  1
  Pd  Pd25  1  0.384784  0.384784  0.845648  1
  Pd  Pd26  1  0.000671  0.000671  0.654392  1
  Pd  Pd27  1  0.845648  0.384784  0.384784  1
  Pd  Pd28  1  0.000671  0.344268  0.000671  1
