# generated using pymatgen
data_CaTm2(SiIr2)3
_symmetry_space_group_name_H-M   'P 1'
_cell_length_a   5.57355500
_cell_length_b   5.57355406
_cell_length_c   14.94506300
_cell_angle_alpha   90.00000000
_cell_angle_beta   90.00000000
_cell_angle_gamma   119.99998777
_symmetry_Int_Tables_number   1
_chemical_formula_structural   CaTm2(SiIr2)3
_chemical_formula_sum   'Ca2 Tm4 Si6 Ir12'
_cell_volume   402.06192191
_cell_formula_units_Z   2
loop_
 _symmetry_equiv_pos_site_id
 _symmetry_equiv_pos_as_xyz
  1  'x, y, z'
loop_
 _atom_site_type_symbol
 _atom_site_label
 _atom_site_symmetry_multiplicity
 _atom_site_fract_x
 _atom_site_fract_y
 _atom_site_fract_z
 _atom_site_occupancy
  Ca  Ca0  1  0.333346  0.666661  0.750000  1
  Ca  Ca1  1  0.666654  0.333339  0.250000  1
  Tm  Tm2  1  0.333335  0.666666  0.541705  1
  Tm  Tm3  1  0.666665  0.333334  0.458295  1
  Tm  Tm4  1  0.666665  0.333334  0.041705  1
  Tm  Tm5  1  0.333335  0.666666  0.958295  1
  Si  Si6  1  0.999998  0.000001  0.250000  1
  Si  Si7  1  0.000002  0.999999  0.750000  1
  Si  Si8  1  0.333330  0.666668  0.250000  1
  Si  Si9  1  0.666670  0.333332  0.750000  1
  Si  Si10  1  0.000000  0.000000  0.000000  1
  Si  Si11  1  0.000000  0.000000  0.500000  1
  Ir  Ir12  1  0.167947  0.335894  0.128122  1
  Ir  Ir13  1  0.832053  0.664106  0.871878  1
  Ir  Ir14  1  0.664102  0.832051  0.128123  1
  Ir  Ir15  1  0.832053  0.664106  0.628122  1
  Ir  Ir16  1  0.335898  0.167949  0.871877  1
  Ir  Ir17  1  0.167947  0.335894  0.371878  1
  Ir  Ir18  1  0.167946  0.832055  0.128123  1
  Ir  Ir19  1  0.335898  0.167949  0.628123  1
  Ir  Ir20  1  0.832054  0.167945  0.871877  1
  Ir  Ir21  1  0.664102  0.832051  0.371877  1
  Ir  Ir22  1  0.832054  0.167945  0.628123  1
  Ir  Ir23  1  0.167946  0.832055  0.371877  1
