# generated using pymatgen
data_Ho2Th3(Ge5Rh2)2
_symmetry_space_group_name_H-M   'P 1'
_cell_length_a   13.13669400
_cell_length_b   13.13669400
_cell_length_c   4.38613400
_cell_angle_alpha   90.00000000
_cell_angle_beta   90.00000000
_cell_angle_gamma   90.00000000
_symmetry_Int_Tables_number   1
_chemical_formula_structural   Ho2Th3(Ge5Rh2)2
_chemical_formula_sum   'Ho4 Th6 Ge20 Rh8'
_cell_volume   756.92711523
_cell_formula_units_Z   2
loop_
 _symmetry_equiv_pos_site_id
 _symmetry_equiv_pos_as_xyz
  1  'x, y, z'
loop_
 _atom_site_type_symbol
 _atom_site_label
 _atom_site_symmetry_multiplicity
 _atom_site_fract_x
 _atom_site_fract_y
 _atom_site_fract_z
 _atom_site_occupancy
  Ho  Ho0  1  0.325167  0.825167  0.500000  1
  Ho  Ho1  1  0.825167  0.674833  0.500000  1
  Ho  Ho2  1  0.174833  0.325167  0.500000  1
  Ho  Ho3  1  0.674833  0.174833  0.500000  1
  Th  Th4  1  0.500000  0.500000  0.000000  1
  Th  Th5  1  0.000000  0.000000  0.000000  1
  Th  Th6  1  0.887477  0.387477  0.500000  1
  Th  Th7  1  0.387477  0.112523  0.500000  1
  Th  Th8  1  0.612523  0.887477  0.500000  1
  Th  Th9  1  0.112523  0.612523  0.500000  1
  Ge  Ge10  1  0.433114  0.933114  0.000000  1
  Ge  Ge11  1  0.933114  0.566886  0.000000  1
  Ge  Ge12  1  0.066886  0.433114  0.000000  1
  Ge  Ge13  1  0.566886  0.066886  0.000000  1
  Ge  Ge14  1  0.337384  0.300651  0.000000  1
  Ge  Ge15  1  0.662616  0.699349  0.000000  1
  Ge  Ge16  1  0.699349  0.337384  0.000000  1
  Ge  Ge17  1  0.300651  0.662616  0.000000  1
  Ge  Ge18  1  0.800651  0.837384  0.000000  1
  Ge  Ge19  1  0.837384  0.199349  0.000000  1
  Ge  Ge20  1  0.162616  0.800651  0.000000  1
  Ge  Ge21  1  0.199349  0.162616  0.000000  1
  Ge  Ge22  1  0.338103  0.497033  0.500000  1
  Ge  Ge23  1  0.661897  0.502967  0.500000  1
  Ge  Ge24  1  0.502967  0.338103  0.500000  1
  Ge  Ge25  1  0.497033  0.661897  0.500000  1
  Ge  Ge26  1  0.997033  0.838103  0.500000  1
  Ge  Ge27  1  0.838103  0.002967  0.500000  1
  Ge  Ge28  1  0.002967  0.161897  0.500000  1
  Ge  Ge29  1  0.161897  0.997033  0.500000  1
  Rh  Rh30  1  0.255770  0.477549  0.000000  1
  Rh  Rh31  1  0.744230  0.522451  0.000000  1
  Rh  Rh32  1  0.522451  0.255770  0.000000  1
  Rh  Rh33  1  0.477549  0.744230  0.000000  1
  Rh  Rh34  1  0.977549  0.755770  0.000000  1
  Rh  Rh35  1  0.755770  0.022451  0.000000  1
  Rh  Rh36  1  0.244230  0.977549  0.000000  1
  Rh  Rh37  1  0.022451  0.244230  0.000000  1
