# generated using pymatgen
data_Dy8Lu3Sc(Si3Ir)4
_symmetry_space_group_name_H-M   'P 1'
_cell_length_a   4.19972000
_cell_length_b   10.59602216
_cell_length_c   12.15302340
_cell_angle_alpha   89.88120263
_cell_angle_beta   90.00000000
_cell_angle_gamma   90.00000000
_symmetry_Int_Tables_number   1
_chemical_formula_structural   Dy8Lu3Sc(Si3Ir)4
_chemical_formula_sum   'Dy8 Lu3 Sc1 Si12 Ir4'
_cell_volume   540.81234264
_cell_formula_units_Z   1
loop_
 _symmetry_equiv_pos_site_id
 _symmetry_equiv_pos_as_xyz
  1  'x, y, z'
loop_
 _atom_site_type_symbol
 _atom_site_label
 _atom_site_symmetry_multiplicity
 _atom_site_fract_x
 _atom_site_fract_y
 _atom_site_fract_z
 _atom_site_occupancy
  Dy  Dy0  1  0.750000  0.377969  0.481407  1
  Dy  Dy1  1  0.250000  0.920157  0.603745  1
  Dy  Dy2  1  0.250000  0.582019  0.102873  1
  Dy  Dy3  1  0.750000  0.080340  0.398500  1
  Dy  Dy4  1  0.750000  0.417181  0.895869  1
  Dy  Dy5  1  0.250000  0.658830  0.801128  1
  Dy  Dy6  1  0.250000  0.842751  0.301218  1
  Dy  Dy7  1  0.750000  0.340071  0.197962  1
  Lu  Lu8  1  0.250000  0.882260  0.019632  1
  Lu  Lu9  1  0.250000  0.619082  0.520539  1
  Lu  Lu10  1  0.750000  0.118912  0.976231  1
  Sc  Sc11  1  0.750000  0.160070  0.702466  1
  Si  Si12  1  0.250000  0.013237  0.821161  1
  Si  Si13  1  0.250000  0.489497  0.322638  1
  Si  Si14  1  0.750000  0.990786  0.176610  1
  Si  Si15  1  0.750000  0.512054  0.678227  1
  Si  Si16  1  0.250000  0.243747  0.837084  1
  Si  Si17  1  0.250000  0.252099  0.342176  1
  Si  Si18  1  0.750000  0.755436  0.158373  1
  Si  Si19  1  0.750000  0.746034  0.658636  1
  Si  Si20  1  0.250000  0.197555  0.552047  1
  Si  Si21  1  0.250000  0.296132  0.041165  1
  Si  Si22  1  0.750000  0.796690  0.457140  1
  Si  Si23  1  0.750000  0.704016  0.956135  1
  Ir  Ir24  1  0.250000  0.388937  0.680207  1
  Ir  Ir25  1  0.250000  0.110122  0.177966  1
  Ir  Ir26  1  0.750000  0.611083  0.320212  1
  Ir  Ir27  1  0.750000  0.892937  0.818652  1
