# generated using pymatgen
data_Sm2Y6Si12PtRh3
_symmetry_space_group_name_H-M   'P 1'
_cell_length_a   8.19593700
_cell_length_b   8.19593792
_cell_length_c   8.02026100
_cell_angle_alpha   90.00000000
_cell_angle_beta   90.00000000
_cell_angle_gamma   119.99999225
_symmetry_Int_Tables_number   1
_chemical_formula_structural   Sm2Y6Si12PtRh3
_chemical_formula_sum   'Sm2 Y6 Si12 Pt1 Rh3'
_cell_volume   466.56960048
_cell_formula_units_Z   1
loop_
 _symmetry_equiv_pos_site_id
 _symmetry_equiv_pos_as_xyz
  1  'x, y, z'
loop_
 _atom_site_type_symbol
 _atom_site_label
 _atom_site_symmetry_multiplicity
 _atom_site_fract_x
 _atom_site_fract_y
 _atom_site_fract_z
 _atom_site_occupancy
  Sm  Sm0  1  0.000000  0.000000  0.249389  1
  Sm  Sm1  1  0.000000  0.000000  0.751184  1
  Y  Y2  1  0.509998  0.490002  0.247372  1
  Y  Y3  1  0.509998  0.019995  0.247372  1
  Y  Y4  1  0.980005  0.490002  0.247372  1
  Y  Y5  1  0.491690  0.508310  0.752171  1
  Y  Y6  1  0.491690  0.983381  0.752171  1
  Y  Y7  1  0.016619  0.508310  0.752171  1
  Si  Si8  1  0.165150  0.834850  0.500424  1
  Si  Si9  1  0.165150  0.330301  0.500424  1
  Si  Si10  1  0.669699  0.834850  0.500424  1
  Si  Si11  1  0.831360  0.168640  0.499264  1
  Si  Si12  1  0.831360  0.662719  0.499264  1
  Si  Si13  1  0.337281  0.168640  0.499264  1
  Si  Si14  1  0.832482  0.167518  0.999679  1
  Si  Si15  1  0.832482  0.664964  0.999679  1
  Si  Si16  1  0.335036  0.167518  0.999679  1
  Si  Si17  1  0.167613  0.832387  0.000323  1
  Si  Si18  1  0.167613  0.335227  0.000323  1
  Si  Si19  1  0.664773  0.832387  0.000323  1
  Pt  Pt20  1  0.333333  0.666667  0.468330  1
  Rh  Rh21  1  0.666667  0.333333  0.536122  1
  Rh  Rh22  1  0.666667  0.333333  0.963978  1
  Rh  Rh23  1  0.333333  0.666667  0.033292  1
