# generated using pymatgen
data_HfTi3(PN3)4
_symmetry_space_group_name_H-M   'P 1'
_cell_length_a   6.64272585
_cell_length_b   6.64272497
_cell_length_c   5.37250189
_cell_angle_alpha   73.85898370
_cell_angle_beta   73.85898599
_cell_angle_gamma   80.37064681
_symmetry_Int_Tables_number   1
_chemical_formula_structural   HfTi3(PN3)4
_chemical_formula_sum   'Hf1 Ti3 P4 N12'
_cell_volume   217.70147732
_cell_formula_units_Z   1
loop_
 _symmetry_equiv_pos_site_id
 _symmetry_equiv_pos_as_xyz
  1  'x, y, z'
loop_
 _atom_site_type_symbol
 _atom_site_label
 _atom_site_symmetry_multiplicity
 _atom_site_fract_x
 _atom_site_fract_y
 _atom_site_fract_z
 _atom_site_occupancy
  Hf  Hf0  1  0.718590  0.281410  0.750000  1
  Ti  Ti1  1  0.891670  0.108330  0.250000  1
  Ti  Ti2  1  0.277689  0.722311  0.250000  1
  Ti  Ti3  1  0.111932  0.888068  0.750000  1
  P  P4  1  0.203660  0.376749  0.710597  1
  P  P5  1  0.374832  0.202654  0.214724  1
  P  P6  1  0.797346  0.625168  0.285276  1
  P  P7  1  0.623251  0.796340  0.789403  1
  N  N8  1  0.376084  0.315291  0.897208  1
  N  N9  1  0.020635  0.216037  0.844266  1
  N  N10  1  0.985922  0.781597  0.155635  1
  N  N11  1  0.312183  0.382540  0.391750  1
  N  N12  1  0.625450  0.129367  0.173996  1
  N  N13  1  0.370878  0.865289  0.842237  1
  N  N14  1  0.870633  0.374550  0.326004  1
  N  N15  1  0.617460  0.687817  0.108250  1
  N  N16  1  0.783963  0.979365  0.655734  1
  N  N17  1  0.134711  0.629122  0.657763  1
  N  N18  1  0.218403  0.014078  0.344365  1
  N  N19  1  0.684709  0.623916  0.602792  1
