# generated using pymatgen
data_Y7Sc(BBr6)2
_symmetry_space_group_name_H-M   'P 1'
_cell_length_a   3.94402800
_cell_length_b   13.09724401
_cell_length_c   13.56005753
_cell_angle_alpha   89.41739062
_cell_angle_beta   90.00000000
_cell_angle_gamma   90.00000000
_symmetry_Int_Tables_number   1
_chemical_formula_structural   Y7Sc(BBr6)2
_chemical_formula_sum   'Y7 Sc1 B2 Br12'
_cell_volume   700.42072432
_cell_formula_units_Z   1
loop_
 _symmetry_equiv_pos_site_id
 _symmetry_equiv_pos_as_xyz
  1  'x, y, z'
loop_
 _atom_site_type_symbol
 _atom_site_label
 _atom_site_symmetry_multiplicity
 _atom_site_fract_x
 _atom_site_fract_y
 _atom_site_fract_z
 _atom_site_occupancy
  Y  Y0  1  0.000000  0.102898  0.080903  1
  Y  Y1  1  0.000000  0.898015  0.918113  1
  Y  Y2  1  0.000000  0.599630  0.420525  1
  Y  Y3  1  0.500000  0.126108  0.852269  1
  Y  Y4  1  0.500000  0.876292  0.145140  1
  Y  Y5  1  0.500000  0.619279  0.645609  1
  Y  Y6  1  0.500000  0.375054  0.358892  1
  Sc  Sc7  1  0.000000  0.403084  0.577267  1
  B  B8  1  0.500000  0.000800  0.999082  1
  B  B9  1  0.500000  0.496747  0.502544  1
  Br  Br10  1  0.500000  0.276775  0.676445  1
  Br  Br11  1  0.500000  0.731604  0.318439  1
  Br  Br12  1  0.500000  0.766394  0.816871  1
  Br  Br13  1  0.500000  0.233167  0.183559  1
  Br  Br14  1  0.000000  0.264217  0.930450  1
  Br  Br15  1  0.000000  0.736563  0.069120  1
  Br  Br16  1  0.000000  0.480468  0.239839  1
  Br  Br17  1  0.000000  0.511277  0.757611  1
  Br  Br18  1  0.000000  0.980493  0.262848  1
  Br  Br19  1  0.000000  0.020366  0.736288  1
  Br  Br20  1  0.000000  0.240519  0.439862  1
  Br  Br21  1  0.000000  0.760251  0.568324  1
