# generated using pymatgen
data_CeLu(Tc2P)4
_symmetry_space_group_name_H-M   'P 1'
_cell_length_a   7.42932355
_cell_length_b   7.42932355
_cell_length_c   3.92899900
_cell_angle_alpha   90.00000000
_cell_angle_beta   90.00000000
_cell_angle_gamma   88.94552339
_symmetry_Int_Tables_number   1
_chemical_formula_structural   CeLu(Tc2P)4
_chemical_formula_sum   'Ce1 Lu1 Tc8 P4'
_cell_volume   216.82377858
_cell_formula_units_Z   1
loop_
 _symmetry_equiv_pos_site_id
 _symmetry_equiv_pos_as_xyz
  1  'x, y, z'
loop_
 _atom_site_type_symbol
 _atom_site_label
 _atom_site_symmetry_multiplicity
 _atom_site_fract_x
 _atom_site_fract_y
 _atom_site_fract_z
 _atom_site_occupancy
  Ce  Ce0  1  0.500000  0.500000  0.000000  1
  Lu  Lu1  1  0.000000  0.000000  0.500000  1
  Tc  Tc2  1  0.158773  0.584098  0.500000  1
  Tc  Tc3  1  0.841227  0.415902  0.500000  1
  Tc  Tc4  1  0.337338  0.080063  0.000000  1
  Tc  Tc5  1  0.662662  0.919937  0.000000  1
  Tc  Tc6  1  0.584098  0.158773  0.500000  1
  Tc  Tc7  1  0.415902  0.841227  0.500000  1
  Tc  Tc8  1  0.080063  0.337338  0.000000  1
  Tc  Tc9  1  0.919937  0.662662  0.000000  1
  P  P10  1  0.716404  0.716404  0.500000  1
  P  P11  1  0.283596  0.283596  0.500000  1
  P  P12  1  0.791561  0.208439  0.000000  1
  P  P13  1  0.208439  0.791561  0.000000  1
