# generated using pymatgen
data_Nd5Ho11Cd2Hg2Ir3Pd
_symmetry_space_group_name_H-M   'P 1'
_cell_length_a   9.71166135
_cell_length_b   9.70722169
_cell_length_c   9.70722200
_cell_angle_alpha   60.15573354
_cell_angle_beta   60.12890647
_cell_angle_gamma   60.12892314
_symmetry_Int_Tables_number   1
_chemical_formula_structural   Nd5Ho11Cd2Hg2Ir3Pd
_chemical_formula_sum   'Nd5 Ho11 Cd2 Hg2 Ir3 Pd1'
_cell_volume   649.11623287
_cell_formula_units_Z   1
loop_
 _symmetry_equiv_pos_site_id
 _symmetry_equiv_pos_as_xyz
  1  'x, y, z'
loop_
 _atom_site_type_symbol
 _atom_site_label
 _atom_site_symmetry_multiplicity
 _atom_site_fract_x
 _atom_site_fract_y
 _atom_site_fract_z
 _atom_site_occupancy
  Nd  Nd0  1  0.559014  0.940586  0.942863  1
  Nd  Nd1  1  0.563597  0.938069  0.561000  1
  Nd  Nd2  1  0.939678  0.562362  0.936696  1
  Nd  Nd3  1  0.563218  0.560604  0.938794  1
  Nd  Nd4  1  0.940287  0.935604  0.562729  1
  Ho  Ho5  1  0.347155  0.346804  0.346553  1
  Ho  Ho6  1  0.352383  0.355198  0.950786  1
  Ho  Ho7  1  0.352628  0.949755  0.355497  1
  Ho  Ho8  1  0.946262  0.354016  0.353919  1
  Ho  Ho9  1  0.806362  0.187756  0.188344  1
  Ho  Ho10  1  0.185159  0.812966  0.813370  1
  Ho  Ho11  1  0.187336  0.805691  0.190358  1
  Ho  Ho12  1  0.812631  0.186036  0.811617  1
  Ho  Ho13  1  0.187349  0.189537  0.806111  1
  Ho  Ho14  1  0.812391  0.811000  0.187091  1
  Ho  Ho15  1  0.943203  0.556502  0.556399  1
  Cd  Cd16  1  0.578037  0.262138  0.579163  1
  Cd  Cd17  1  0.259698  0.578324  0.578757  1
  Hg  Hg18  1  0.586184  0.581215  0.582961  1
  Hg  Hg19  1  0.581144  0.581933  0.252786  1
  Ir  Ir20  1  0.139180  0.145495  0.574381  1
  Ir  Ir21  1  0.139160  0.574295  0.145591  1
  Ir  Ir22  1  0.574541  0.141204  0.141342  1
  Pd  Pd23  1  0.143403  0.142904  0.142886  1
