# generated using pymatgen
data_Er3Tm5Sc11Si16Hg
_symmetry_space_group_name_H-M   'P 1'
_cell_length_a   7.00092916
_cell_length_b   7.35101529
_cell_length_c   13.92889556
_cell_angle_alpha   90.02185639
_cell_angle_beta   90.02405446
_cell_angle_gamma   89.90299916
_symmetry_Int_Tables_number   1
_chemical_formula_structural   Er3Tm5Sc11Si16Hg
_chemical_formula_sum   'Er3 Tm5 Sc11 Si16 Hg1'
_cell_volume   716.83466462
_cell_formula_units_Z   1
loop_
 _symmetry_equiv_pos_site_id
 _symmetry_equiv_pos_as_xyz
  1  'x, y, z'
loop_
 _atom_site_type_symbol
 _atom_site_label
 _atom_site_symmetry_multiplicity
 _atom_site_fract_x
 _atom_site_fract_y
 _atom_site_fract_z
 _atom_site_occupancy
  Er  Er0  1  0.010206  0.175333  0.096394  1
  Er  Er1  1  0.990316  0.816095  0.902630  1
  Er  Er2  1  0.485756  0.673875  0.902921  1
  Tm  Tm3  1  0.990152  0.816100  0.597373  1
  Tm  Tm4  1  0.510670  0.323181  0.096768  1
  Tm  Tm5  1  0.010268  0.175510  0.403563  1
  Tm  Tm6  1  0.510679  0.323087  0.403421  1
  Tm  Tm7  1  0.485721  0.674047  0.597062  1
  Sc  Sc8  1  0.837799  0.496811  0.250090  1
  Sc  Sc9  1  0.339999  0.004451  0.250067  1
  Sc  Sc10  1  0.656897  0.996642  0.749886  1
  Sc  Sc11  1  0.324901  0.182659  0.626182  1
  Sc  Sc12  1  0.671402  0.824144  0.374958  1
  Sc  Sc13  1  0.169311  0.680614  0.373202  1
  Sc  Sc14  1  0.671342  0.824058  0.125218  1
  Sc  Sc15  1  0.838656  0.325335  0.626067  1
  Sc  Sc16  1  0.324953  0.182682  0.873669  1
  Sc  Sc17  1  0.838720  0.325372  0.873777  1
  Sc  Sc18  1  0.169471  0.680428  0.126933  1
  Si  Si19  1  0.026011  0.090754  0.749798  1
  Si  Si20  1  0.968663  0.890818  0.250152  1
  Si  Si21  1  0.467463  0.614755  0.250063  1
  Si  Si22  1  0.543199  0.381338  0.749878  1
  Si  Si23  1  0.290667  0.883207  0.749695  1
  Si  Si24  1  0.713416  0.131192  0.250194  1
  Si  Si25  1  0.213137  0.370992  0.250181  1
  Si  Si26  1  0.769215  0.633469  0.749632  1
  Si  Si27  1  0.164650  0.459728  0.528318  1
  Si  Si28  1  0.840840  0.535696  0.461958  1
  Si  Si29  1  0.343015  0.966895  0.462221  1
  Si  Si30  1  0.840653  0.535625  0.038087  1
  Si  Si31  1  0.658545  0.032975  0.540331  1
  Si  Si32  1  0.164425  0.459483  0.971831  1
  Si  Si33  1  0.658246  0.033497  0.959743  1
  Si  Si34  1  0.343407  0.966937  0.037841  1
  Hg  Hg35  1  0.157235  0.512218  0.749897  1
