# generated using pymatgen
data_Y4U(FeB3)2
_symmetry_space_group_name_H-M   'P 1'
_cell_length_a   5.44799629
_cell_length_b   5.44799487
_cell_length_c   7.84739316
_cell_angle_alpha   69.68866147
_cell_angle_beta   69.68865195
_cell_angle_gamma   59.99999333
_symmetry_Int_Tables_number   1
_chemical_formula_structural   Y4U(FeB3)2
_chemical_formula_sum   'Y4 U1 Fe2 B6'
_cell_volume   184.79877398
_cell_formula_units_Z   1
loop_
 _symmetry_equiv_pos_site_id
 _symmetry_equiv_pos_as_xyz
  1  'x, y, z'
loop_
 _atom_site_type_symbol
 _atom_site_label
 _atom_site_symmetry_multiplicity
 _atom_site_fract_x
 _atom_site_fract_y
 _atom_site_fract_z
 _atom_site_occupancy
  Y  Y0  1  0.744204  0.744204  0.767388  1
  Y  Y1  1  0.255796  0.255796  0.232612  1
  Y  Y2  1  0.588381  0.588381  0.234858  1
  Y  Y3  1  0.411619  0.411619  0.765142  1
  U  U4  1  0.000000  0.000000  0.000000  1
  Fe  Fe5  1  0.894266  0.894266  0.317200  1
  Fe  Fe6  1  0.105734  0.105734  0.682800  1
  B  B7  1  0.500000  0.166415  0.500000  1
  B  B8  1  0.833585  0.500000  0.500000  1
  B  B9  1  0.166415  0.833585  0.500000  1
  B  B10  1  0.166415  0.500000  0.500000  1
  B  B11  1  0.833585  0.166415  0.500000  1
  B  B12  1  0.500000  0.833585  0.500000  1
