# generated using pymatgen
data_YbCrNi(Sb6Os)2
_symmetry_space_group_name_H-M   'P 1'
_cell_length_a   8.09846536
_cell_length_b   8.14095932
_cell_length_c   8.18299450
_cell_angle_alpha   109.61423458
_cell_angle_beta   109.55116374
_cell_angle_gamma   109.39641554
_symmetry_Int_Tables_number   1
_chemical_formula_structural   YbCrNi(Sb6Os)2
_chemical_formula_sum   'Yb1 Cr1 Ni1 Sb12 Os2'
_cell_volume   414.54418473
_cell_formula_units_Z   1
loop_
 _symmetry_equiv_pos_site_id
 _symmetry_equiv_pos_as_xyz
  1  'x, y, z'
loop_
 _atom_site_type_symbol
 _atom_site_label
 _atom_site_symmetry_multiplicity
 _atom_site_fract_x
 _atom_site_fract_y
 _atom_site_fract_z
 _atom_site_occupancy
  Yb  Yb0  1  0.000000  0.000000  0.000000  1
  Cr  Cr1  1  0.500000  0.000000  0.000000  1
  Ni  Ni2  1  0.000000  0.000000  0.500000  1
  Sb  Sb3  1  0.846305  0.663792  0.504442  1
  Sb  Sb4  1  0.153695  0.336208  0.495558  1
  Sb  Sb5  1  0.155876  0.660697  0.818405  1
  Sb  Sb6  1  0.844124  0.339303  0.181595  1
  Sb  Sb7  1  0.660010  0.504718  0.842351  1
  Sb  Sb8  1  0.339990  0.495282  0.157649  1
  Sb  Sb9  1  0.666136  0.818031  0.160069  1
  Sb  Sb10  1  0.333864  0.181969  0.839931  1
  Sb  Sb11  1  0.504106  0.842943  0.661017  1
  Sb  Sb12  1  0.495894  0.157057  0.338983  1
  Sb  Sb13  1  0.181984  0.845048  0.340369  1
  Sb  Sb14  1  0.818016  0.154952  0.659631  1
  Os  Os15  1  0.500000  0.500000  0.500000  1
  Os  Os16  1  0.000000  0.500000  0.000000  1
