# generated using pymatgen
data_DyPaZn5Sn
_symmetry_space_group_name_H-M   'P 1'
_cell_length_a   8.36342720
_cell_length_b   8.36342704
_cell_length_c   8.93390600
_cell_angle_alpha   90.00000000
_cell_angle_beta   90.00000000
_cell_angle_gamma   149.38605300
_symmetry_Int_Tables_number   1
_chemical_formula_structural   DyPaZn5Sn
_chemical_formula_sum   'Dy2 Pa2 Zn10 Sn2'
_cell_volume   318.23046808
_cell_formula_units_Z   2
loop_
 _symmetry_equiv_pos_site_id
 _symmetry_equiv_pos_as_xyz
  1  'x, y, z'
loop_
 _atom_site_type_symbol
 _atom_site_label
 _atom_site_symmetry_multiplicity
 _atom_site_fract_x
 _atom_site_fract_y
 _atom_site_fract_z
 _atom_site_occupancy
  Dy  Dy0  1  0.000000  0.000000  0.500000  1
  Dy  Dy1  1  0.000000  0.000000  0.000000  1
  Pa  Pa2  1  0.204478  0.795522  0.250000  1
  Pa  Pa3  1  0.795522  0.204478  0.750000  1
  Zn  Zn4  1  0.814795  0.185205  0.392348  1
  Zn  Zn5  1  0.185205  0.814795  0.607652  1
  Zn  Zn6  1  0.814795  0.185205  0.107652  1
  Zn  Zn7  1  0.185205  0.814795  0.892348  1
  Zn  Zn8  1  0.658426  0.341574  0.480120  1
  Zn  Zn9  1  0.341574  0.658426  0.519880  1
  Zn  Zn10  1  0.658426  0.341574  0.019880  1
  Zn  Zn11  1  0.341574  0.658426  0.980120  1
  Zn  Zn12  1  0.392154  0.607846  0.250000  1
  Zn  Zn13  1  0.607846  0.392154  0.750000  1
  Sn  Sn14  1  0.554269  0.445731  0.250000  1
  Sn  Sn15  1  0.445731  0.554269  0.750000  1
