# generated using pymatgen
data_Zr10ZnSi(Bi2Pb)2
_symmetry_space_group_name_H-M   'P 1'
_cell_length_a   8.85214589
_cell_length_b   8.85214587
_cell_length_c   5.95540689
_cell_angle_alpha   89.96880903
_cell_angle_beta   89.96880641
_cell_angle_gamma   119.95925377
_symmetry_Int_Tables_number   1
_chemical_formula_structural   Zr10ZnSi(Bi2Pb)2
_chemical_formula_sum   'Zr10 Zn1 Si1 Bi4 Pb2'
_cell_volume   404.31244255
_cell_formula_units_Z   1
loop_
 _symmetry_equiv_pos_site_id
 _symmetry_equiv_pos_as_xyz
  1  'x, y, z'
loop_
 _atom_site_type_symbol
 _atom_site_label
 _atom_site_symmetry_multiplicity
 _atom_site_fract_x
 _atom_site_fract_y
 _atom_site_fract_z
 _atom_site_occupancy
  Zr  Zr0  1  0.666728  0.333433  0.500920  1
  Zr  Zr1  1  0.333433  0.666728  0.500920  1
  Zr  Zr2  1  0.332648  0.666737  0.998873  1
  Zr  Zr3  1  0.666737  0.332648  0.998873  1
  Zr  Zr4  1  0.740463  0.740463  0.241881  1
  Zr  Zr5  1  0.259856  0.000335  0.242004  1
  Zr  Zr6  1  0.000335  0.259856  0.242004  1
  Zr  Zr7  1  0.259714  0.259714  0.758566  1
  Zr  Zr8  1  0.740289  0.000534  0.758243  1
  Zr  Zr9  1  0.000534  0.740289  0.758243  1
  Zn  Zn10  1  0.000273  0.000273  0.500085  1
  Si  Si11  1  0.000101  0.000101  0.999874  1
  Bi  Bi12  1  0.390340  0.390340  0.252667  1
  Bi  Bi13  1  0.609239  0.000842  0.253057  1
  Bi  Bi14  1  0.000842  0.609239  0.253057  1
  Bi  Bi15  1  0.609545  0.609545  0.746766  1
  Pb  Pb16  1  0.388986  0.999935  0.746982  1
  Pb  Pb17  1  0.999935  0.388986  0.746982  1
