# generated using pymatgen
data_Li3Tb4ZnPt4
_symmetry_space_group_name_H-M   'P 1'
_cell_length_a   4.03207400
_cell_length_b   7.05875099
_cell_length_c   8.40625870
_cell_angle_alpha   89.75990495
_cell_angle_beta   90.00000000
_cell_angle_gamma   90.00000000
_symmetry_Int_Tables_number   1
_chemical_formula_structural   Li3Tb4ZnPt4
_chemical_formula_sum   'Li3 Tb4 Zn1 Pt4'
_cell_volume   239.25184403
_cell_formula_units_Z   1
loop_
 _symmetry_equiv_pos_site_id
 _symmetry_equiv_pos_as_xyz
  1  'x, y, z'
loop_
 _atom_site_type_symbol
 _atom_site_label
 _atom_site_symmetry_multiplicity
 _atom_site_fract_x
 _atom_site_fract_y
 _atom_site_fract_z
 _atom_site_occupancy
  Li  Li0  1  0.250000  0.629582  0.560735  1
  Li  Li1  1  0.250000  0.126676  0.942830  1
  Li  Li2  1  0.750000  0.371238  0.440439  1
  Tb  Tb3  1  0.250000  0.042181  0.313602  1
  Tb  Tb4  1  0.250000  0.549814  0.181323  1
  Tb  Tb5  1  0.750000  0.952402  0.687420  1
  Tb  Tb6  1  0.750000  0.455852  0.814870  1
  Zn  Zn7  1  0.750000  0.872354  0.061162  1
  Pt  Pt8  1  0.250000  0.244930  0.620419  1
  Pt  Pt9  1  0.250000  0.750919  0.880436  1
  Pt  Pt10  1  0.750000  0.752781  0.377081  1
  Pt  Pt11  1  0.750000  0.251274  0.119683  1
