# generated using pymatgen
data_Nd3LuScPt3O14
_symmetry_space_group_name_H-M   'P 1'
_cell_length_a   7.38107076
_cell_length_b   7.42334080
_cell_length_c   7.38107200
_cell_angle_alpha   60.18818813
_cell_angle_beta   60.00000339
_cell_angle_gamma   60.18819215
_symmetry_Int_Tables_number   1
_chemical_formula_structural   Nd3LuScPt3O14
_chemical_formula_sum   'Nd3 Lu1 Sc1 Pt3 O14'
_cell_volume   286.78255609
_cell_formula_units_Z   1
loop_
 _symmetry_equiv_pos_site_id
 _symmetry_equiv_pos_as_xyz
  1  'x, y, z'
loop_
 _atom_site_type_symbol
 _atom_site_label
 _atom_site_symmetry_multiplicity
 _atom_site_fract_x
 _atom_site_fract_y
 _atom_site_fract_z
 _atom_site_occupancy
  Nd  Nd0  1  0.625000  0.625000  0.125000  1
  Nd  Nd1  1  0.125000  0.625000  0.625000  1
  Nd  Nd2  1  0.625000  0.625000  0.625000  1
  Lu  Lu3  1  0.625000  0.125000  0.625000  1
  Sc  Sc4  1  0.125000  0.625000  0.125000  1
  Pt  Pt5  1  0.125000  0.125000  0.625000  1
  Pt  Pt6  1  0.625000  0.125000  0.125000  1
  Pt  Pt7  1  0.125000  0.125000  0.125000  1
  O  O8  1  0.508398  0.474806  0.508398  1
  O  O9  1  0.741602  0.775194  0.741602  1
  O  O10  1  0.459249  0.056184  0.459249  1
  O  O11  1  0.214365  0.794219  0.214365  1
  O  O12  1  0.472951  0.455781  0.035635  1
  O  O13  1  0.035635  0.455781  0.472951  1
  O  O14  1  0.459249  0.056184  0.025320  1
  O  O15  1  0.025320  0.056184  0.459249  1
  O  O16  1  0.035635  0.455781  0.035635  1
  O  O17  1  0.790751  0.193816  0.224680  1
  O  O18  1  0.214365  0.794219  0.777049  1
  O  O19  1  0.790751  0.193816  0.790751  1
  O  O20  1  0.224680  0.193816  0.790751  1
  O  O21  1  0.777049  0.794219  0.214365  1
