# generated using pymatgen
data_TbHoMn3Fe9P7
_symmetry_space_group_name_H-M   'P 1'
_cell_length_a   9.04492700
_cell_length_b   9.04492850
_cell_length_c   3.63329000
_cell_angle_alpha   90.00000000
_cell_angle_beta   90.00000000
_cell_angle_gamma   119.99999817
_symmetry_Int_Tables_number   1
_chemical_formula_structural   TbHoMn3Fe9P7
_chemical_formula_sum   'Tb1 Ho1 Mn3 Fe9 P7'
_cell_volume   257.41918288
_cell_formula_units_Z   1
loop_
 _symmetry_equiv_pos_site_id
 _symmetry_equiv_pos_as_xyz
  1  'x, y, z'
loop_
 _atom_site_type_symbol
 _atom_site_label
 _atom_site_symmetry_multiplicity
 _atom_site_fract_x
 _atom_site_fract_y
 _atom_site_fract_z
 _atom_site_occupancy
  Tb  Tb0  1  0.333333  0.666667  0.500000  1
  Ho  Ho1  1  0.666667  0.333333  0.000000  1
  Mn  Mn2  1  0.101769  0.884521  0.500000  1
  Mn  Mn3  1  0.782751  0.898231  0.500000  1
  Mn  Mn4  1  0.115479  0.217249  0.500000  1
  Fe  Fe5  1  0.054473  0.629611  0.000000  1
  Fe  Fe6  1  0.575138  0.945527  0.000000  1
  Fe  Fe7  1  0.370389  0.424862  0.000000  1
  Fe  Fe8  1  0.275614  0.119874  0.000000  1
  Fe  Fe9  1  0.844258  0.724386  0.000000  1
  Fe  Fe10  1  0.880126  0.155742  0.000000  1
  Fe  Fe11  1  0.433357  0.048982  0.500000  1
  Fe  Fe12  1  0.615625  0.566643  0.500000  1
  Fe  Fe13  1  0.951018  0.384375  0.500000  1
  P  P14  1  0.300864  0.887833  0.000000  1
  P  P15  1  0.586970  0.699136  0.000000  1
  P  P16  1  0.112167  0.413030  0.000000  1
  P  P17  1  0.407384  0.289884  0.500000  1
  P  P18  1  0.882500  0.592616  0.500000  1
  P  P19  1  0.710116  0.117500  0.500000  1
  P  P20  1  0.000000  0.000000  0.000000  1
