# generated using pymatgen
data_Tm16Lu4Bi11Sb
_symmetry_space_group_name_H-M   'P 1'
_cell_length_a   8.12838892
_cell_length_b   9.43668900
_cell_length_c   11.85428006
_cell_angle_alpha   90.00000000
_cell_angle_beta   89.95491373
_cell_angle_gamma   90.00000000
_symmetry_Int_Tables_number   1
_chemical_formula_structural   Tm16Lu4Bi11Sb
_chemical_formula_sum   'Tm16 Lu4 Bi11 Sb1'
_cell_volume   909.28319915
_cell_formula_units_Z   1
loop_
 _symmetry_equiv_pos_site_id
 _symmetry_equiv_pos_as_xyz
  1  'x, y, z'
loop_
 _atom_site_type_symbol
 _atom_site_label
 _atom_site_symmetry_multiplicity
 _atom_site_fract_x
 _atom_site_fract_y
 _atom_site_fract_z
 _atom_site_occupancy
  Tm  Tm0  1  0.355986  0.250000  0.285913  1
  Tm  Tm1  1  0.645157  0.750000  0.717174  1
  Tm  Tm2  1  0.144925  0.750000  0.782059  1
  Tm  Tm3  1  0.855173  0.250000  0.217511  1
  Tm  Tm4  1  0.189446  0.250000  0.780016  1
  Tm  Tm5  1  0.812130  0.750000  0.217836  1
  Tm  Tm6  1  0.312625  0.750000  0.282230  1
  Tm  Tm7  1  0.682526  0.250000  0.714900  1
  Tm  Tm8  1  0.193551  0.066141  0.059858  1
  Tm  Tm9  1  0.806522  0.934358  0.940491  1
  Tm  Tm10  1  0.307914  0.938028  0.559217  1
  Tm  Tm11  1  0.806522  0.565642  0.940491  1
  Tm  Tm12  1  0.690641  0.068130  0.442170  1
  Tm  Tm13  1  0.193551  0.433859  0.059858  1
  Tm  Tm14  1  0.690641  0.431870  0.442170  1
  Tm  Tm15  1  0.307914  0.561972  0.559217  1
  Lu  Lu16  1  0.027451  0.250000  0.511128  1
  Lu  Lu17  1  0.977134  0.750000  0.489435  1
  Lu  Lu18  1  0.475952  0.750000  0.011222  1
  Lu  Lu19  1  0.524753  0.250000  0.988665  1
  Bi  Bi20  1  0.595518  0.750000  0.457180  1
  Bi  Bi21  1  0.094905  0.750000  0.042553  1
  Bi  Bi22  1  0.905933  0.250000  0.956453  1
  Bi  Bi23  1  0.066024  0.003404  0.326324  1
  Bi  Bi24  1  0.933280  0.997030  0.673828  1
  Bi  Bi25  1  0.433662  0.996235  0.826276  1
  Bi  Bi26  1  0.933280  0.502970  0.673828  1
  Bi  Bi27  1  0.566290  0.003885  0.173968  1
  Bi  Bi28  1  0.066024  0.496596  0.326324  1
  Bi  Bi29  1  0.566290  0.496115  0.173968  1
  Bi  Bi30  1  0.433662  0.503765  0.826276  1
  Sb  Sb31  1  0.404620  0.250000  0.541463  1
