# generated using pymatgen
data_Ho2Tm2MoOs7
_symmetry_space_group_name_H-M   'P 1'
_cell_length_a   5.45015101
_cell_length_b   5.26580981
_cell_length_c   8.85160701
_cell_angle_alpha   90.00516516
_cell_angle_beta   89.99955934
_cell_angle_gamma   121.06207536
_symmetry_Int_Tables_number   1
_chemical_formula_structural   Ho2Tm2MoOs7
_chemical_formula_sum   'Ho2 Tm2 Mo1 Os7'
_cell_volume   217.60975302
_cell_formula_units_Z   1
loop_
 _symmetry_equiv_pos_site_id
 _symmetry_equiv_pos_as_xyz
  1  'x, y, z'
loop_
 _atom_site_type_symbol
 _atom_site_label
 _atom_site_symmetry_multiplicity
 _atom_site_fract_x
 _atom_site_fract_y
 _atom_site_fract_z
 _atom_site_occupancy
  Ho  Ho0  1  0.669971  0.339572  0.563145  1
  Ho  Ho1  1  0.332995  0.666941  0.433612  1
  Tm  Tm2  1  0.332813  0.666610  0.066038  1
  Tm  Tm3  1  0.670180  0.339996  0.937185  1
  Mo  Mo4  1  0.167453  0.333618  0.750931  1
  Os  Os5  1  0.003724  0.009161  0.497722  1
  Os  Os6  1  0.003746  0.009192  0.002295  1
  Os  Os7  1  0.173267  0.826204  0.751179  1
  Os  Os8  1  0.653705  0.826784  0.751153  1
  Os  Os9  1  0.823712  0.647644  0.248812  1
  Os  Os10  1  0.827528  0.166678  0.248991  1
  Os  Os11  1  0.340907  0.167599  0.248937  1
