# generated using pymatgen
data_Y6V2Ni17P13Ir
_symmetry_space_group_name_H-M   'P 1'
_cell_length_a   12.77102569
_cell_length_b   12.76104400
_cell_length_c   3.75286500
_cell_angle_alpha   90.00000000
_cell_angle_beta   90.00000000
_cell_angle_gamma   119.96712795
_symmetry_Int_Tables_number   1
_chemical_formula_structural   Y6V2Ni17P13Ir
_chemical_formula_sum   'Y6 V2 Ni17 P13 Ir1'
_cell_volume   529.84558402
_cell_formula_units_Z   1
loop_
 _symmetry_equiv_pos_site_id
 _symmetry_equiv_pos_as_xyz
  1  'x, y, z'
loop_
 _atom_site_type_symbol
 _atom_site_label
 _atom_site_symmetry_multiplicity
 _atom_site_fract_x
 _atom_site_fract_y
 _atom_site_fract_z
 _atom_site_occupancy
  Y  Y0  1  0.465441  0.185049  0.000000  1
  Y  Y1  1  0.717239  0.531644  0.000000  1
  Y  Y2  1  0.814145  0.281193  0.000000  1
  Y  Y3  1  0.530187  0.813088  0.500000  1
  Y  Y4  1  0.282083  0.469781  0.500000  1
  Y  Y5  1  0.187158  0.717256  0.500000  1
  V  V6  1  0.848497  0.930660  0.500000  1
  V  V7  1  0.082628  0.150726  0.500000  1
  Ni  Ni8  1  0.332982  0.666811  0.000000  1
  Ni  Ni9  1  0.196964  0.090054  0.000000  1
  Ni  Ni10  1  0.894465  0.801126  0.000000  1
  Ni  Ni11  1  0.907885  0.107767  0.000000  1
  Ni  Ni12  1  0.071404  0.920046  0.500000  1
  Ni  Ni13  1  0.437346  0.419360  0.000000  1
  Ni  Ni14  1  0.979798  0.564173  0.000000  1
  Ni  Ni15  1  0.579666  0.018124  0.000000  1
  Ni  Ni16  1  0.563510  0.589798  0.500000  1
  Ni  Ni17  1  0.025488  0.434566  0.500000  1
  Ni  Ni18  1  0.412167  0.976392  0.500000  1
  Ni  Ni19  1  0.079413  0.318296  0.000000  1
  Ni  Ni20  1  0.242305  0.920320  0.000000  1
  Ni  Ni21  1  0.681082  0.758607  0.000000  1
  Ni  Ni22  1  0.932892  0.685972  0.500000  1
  Ni  Ni23  1  0.753027  0.070808  0.500000  1
  Ni  Ni24  1  0.317274  0.245537  0.500000  1
  P  P25  1  0.234193  0.281253  0.000000  1
  P  P26  1  0.049800  0.767921  0.000000  1
  P  P27  1  0.717936  0.951254  0.000000  1
  P  P28  1  0.767797  0.719998  0.500000  1
  P  P29  1  0.952681  0.231489  0.500000  1
  P  P30  1  0.276055  0.045256  0.500000  1
  P  P31  1  0.476891  0.616636  0.000000  1
  P  P32  1  0.138351  0.523101  0.000000  1
  P  P33  1  0.383011  0.860582  0.000000  1
  P  P34  1  0.517750  0.388351  0.500000  1
  P  P35  1  0.872044  0.482339  0.500000  1
  P  P36  1  0.611348  0.130614  0.500000  1
  P  P37  1  0.998988  0.999168  0.000000  1
  Ir  Ir38  1  0.668113  0.334880  0.500000  1
