# generated using pymatgen
data_CaNdGa3SiIr4
_symmetry_space_group_name_H-M   'P 1'
_cell_length_a   4.24918600
_cell_length_b   4.24918600
_cell_length_c   10.19619700
_cell_angle_alpha   90.00000000
_cell_angle_beta   90.00000000
_cell_angle_gamma   90.00000000
_symmetry_Int_Tables_number   1
_chemical_formula_structural   CaNdGa3SiIr4
_chemical_formula_sum   'Ca1 Nd1 Ga3 Si1 Ir4'
_cell_volume   184.09826758
_cell_formula_units_Z   1
loop_
 _symmetry_equiv_pos_site_id
 _symmetry_equiv_pos_as_xyz
  1  'x, y, z'
loop_
 _atom_site_type_symbol
 _atom_site_label
 _atom_site_symmetry_multiplicity
 _atom_site_fract_x
 _atom_site_fract_y
 _atom_site_fract_z
 _atom_site_occupancy
  Ca  Ca0  1  0.500000  0.000000  0.754759  1
  Nd  Nd1  1  0.000000  0.500000  0.246141  1
  Ga  Ga2  1  0.000000  0.000000  0.497841  1
  Ga  Ga3  1  0.500000  0.500000  0.497841  1
  Ga  Ga4  1  0.000000  0.500000  0.873774  1
  Si  Si5  1  0.500000  0.000000  0.121684  1
  Ir  Ir6  1  0.000000  0.000000  0.010638  1
  Ir  Ir7  1  0.500000  0.500000  0.010638  1
  Ir  Ir8  1  0.000000  0.500000  0.629994  1
  Ir  Ir9  1  0.500000  0.000000  0.356690  1
