# generated using pymatgen
data_Dy2Y2InRu
_symmetry_space_group_name_H-M   'P 1'
_cell_length_a   9.67228940
_cell_length_b   9.65457260
_cell_length_c   9.66889917
_cell_angle_alpha   59.80438149
_cell_angle_beta   59.98836737
_cell_angle_gamma   59.93925288
_symmetry_Int_Tables_number   1
_chemical_formula_structural   Dy2Y2InRu
_chemical_formula_sum   'Dy8 Y8 In4 Ru4'
_cell_volume   637.14892981
_cell_formula_units_Z   4
loop_
 _symmetry_equiv_pos_site_id
 _symmetry_equiv_pos_as_xyz
  1  'x, y, z'
loop_
 _atom_site_type_symbol
 _atom_site_label
 _atom_site_symmetry_multiplicity
 _atom_site_fract_x
 _atom_site_fract_y
 _atom_site_fract_z
 _atom_site_occupancy
  Dy  Dy0  1  0.807686  0.191610  0.193019  1
  Dy  Dy1  1  0.192235  0.191627  0.809775  1
  Dy  Dy2  1  0.806365  0.191626  0.809775  1
  Dy  Dy3  1  0.191714  0.808178  0.808392  1
  Dy  Dy4  1  0.653271  0.652574  0.040885  1
  Dy  Dy5  1  0.652284  0.042918  0.652513  1
  Dy  Dy6  1  0.043491  0.650918  0.652310  1
  Dy  Dy7  1  0.653281  0.650918  0.652308  1
  Y  Y8  1  0.442824  0.441896  0.058241  1
  Y  Y9  1  0.057041  0.441893  0.058242  1
  Y  Y10  1  0.442573  0.058015  0.056842  1
  Y  Y11  1  0.056578  0.058701  0.442590  1
  Y  Y12  1  0.442131  0.058701  0.442589  1
  Y  Y13  1  0.058703  0.440691  0.441903  1
  Y  Y14  1  0.805816  0.809099  0.193001  1
  Y  Y15  1  0.192085  0.809098  0.193001  1
  In  In16  1  0.417022  0.417702  0.748254  1
  In  In17  1  0.417412  0.748392  0.416780  1
  In  In18  1  0.747315  0.418463  0.417373  1
  In  In19  1  0.416848  0.418463  0.417374  1
  Ru  Ru20  1  0.859088  0.860793  0.421032  1
  Ru  Ru21  1  0.861963  0.416152  0.859922  1
  Ru  Ru22  1  0.417765  0.860783  0.856941  1
  Ru  Ru23  1  0.864507  0.860787  0.856941  1
