# generated using pymatgen
data_Y2MgAs3(PRh4)3
_symmetry_space_group_name_H-M   'P 1'
_cell_length_a   9.84025100
_cell_length_b   9.84025095
_cell_length_c   3.94028900
_cell_angle_alpha   90.00000000
_cell_angle_beta   90.00000000
_cell_angle_gamma   119.99999188
_symmetry_Int_Tables_number   1
_chemical_formula_structural   Y2MgAs3(PRh4)3
_chemical_formula_sum   'Y2 Mg1 As3 P3 Rh12'
_cell_volume   330.42362693
_cell_formula_units_Z   1
loop_
 _symmetry_equiv_pos_site_id
 _symmetry_equiv_pos_as_xyz
  1  'x, y, z'
loop_
 _atom_site_type_symbol
 _atom_site_label
 _atom_site_symmetry_multiplicity
 _atom_site_fract_x
 _atom_site_fract_y
 _atom_site_fract_z
 _atom_site_occupancy
  Y  Y0  1  0.333333  0.666667  0.740185  1
  Y  Y1  1  0.666667  0.333333  0.238610  1
  Mg  Mg2  1  0.000000  0.000000  0.713429  1
  As  As3  1  0.397296  0.280139  0.738952  1
  As  As4  1  0.719861  0.117157  0.738952  1
  As  As5  1  0.882843  0.602704  0.738952  1
  P  P6  1  0.594448  0.711483  0.239996  1
  P  P7  1  0.288517  0.882965  0.239996  1
  P  P8  1  0.117035  0.405552  0.239996  1
  Rh  Rh9  1  0.449546  0.060197  0.738983  1
  Rh  Rh10  1  0.939803  0.389348  0.738983  1
  Rh  Rh11  1  0.610652  0.550454  0.738983  1
  Rh  Rh12  1  0.544456  0.929111  0.239519  1
  Rh  Rh13  1  0.070889  0.615345  0.239519  1
  Rh  Rh14  1  0.384655  0.455544  0.239519  1
  Rh  Rh15  1  0.160098  0.300283  0.739957  1
  Rh  Rh16  1  0.699717  0.859815  0.739957  1
  Rh  Rh17  1  0.140185  0.839902  0.739957  1
  Rh  Rh18  1  0.841498  0.733361  0.238517  1
  Rh  Rh19  1  0.266639  0.108137  0.238517  1
  Rh  Rh20  1  0.891863  0.158502  0.238517  1
