# generated using pymatgen
data_Er4TmPtPb3
_symmetry_space_group_name_H-M   'P 1'
_cell_length_a   9.14244101
_cell_length_b   9.14243949
_cell_length_c   6.77557900
_cell_angle_alpha   90.00000000
_cell_angle_beta   90.00000000
_cell_angle_gamma   119.99470864
_symmetry_Int_Tables_number   1
_chemical_formula_structural   Er4TmPtPb3
_chemical_formula_sum   'Er8 Tm2 Pt2 Pb6'
_cell_volume   490.48356539
_cell_formula_units_Z   2
loop_
 _symmetry_equiv_pos_site_id
 _symmetry_equiv_pos_as_xyz
  1  'x, y, z'
loop_
 _atom_site_type_symbol
 _atom_site_label
 _atom_site_symmetry_multiplicity
 _atom_site_fract_x
 _atom_site_fract_y
 _atom_site_fract_z
 _atom_site_occupancy
  Er  Er0  1  0.755592  0.755601  0.250000  1
  Er  Er1  1  0.999997  0.755509  0.750000  1
  Er  Er2  1  0.333345  0.666655  0.500000  1
  Er  Er3  1  0.244491  0.000003  0.250000  1
  Er  Er4  1  0.244399  0.244408  0.750000  1
  Er  Er5  1  0.666700  0.333300  0.500000  1
  Er  Er6  1  0.333345  0.666655  0.000000  1
  Er  Er7  1  0.666700  0.333300  0.000000  1
  Tm  Tm8  1  0.999985  0.244122  0.250000  1
  Tm  Tm9  1  0.755878  0.000015  0.750000  1
  Pt  Pt10  1  0.999735  0.000265  0.000000  1
  Pt  Pt11  1  0.999735  0.000265  0.500000  1
  Pb  Pb12  1  0.401569  0.999975  0.750000  1
  Pb  Pb13  1  0.598667  0.000087  0.250000  1
  Pb  Pb14  1  0.401317  0.401393  0.250000  1
  Pb  Pb15  1  0.000025  0.598431  0.250000  1
  Pb  Pb16  1  0.999913  0.401333  0.750000  1
  Pb  Pb17  1  0.598607  0.598683  0.750000  1
