# generated using pymatgen
data_Yb3Y(Al3Pd)6
_symmetry_space_group_name_H-M   'P 1'
_cell_length_a   7.64239847
_cell_length_b   7.63765728
_cell_length_c   9.46947400
_cell_angle_alpha   90.00000000
_cell_angle_beta   90.00000000
_cell_angle_gamma   119.53227948
_symmetry_Int_Tables_number   1
_chemical_formula_structural   Yb3Y(Al3Pd)6
_chemical_formula_sum   'Yb3 Y1 Al18 Pd6'
_cell_volume   480.92123659
_cell_formula_units_Z   1
loop_
 _symmetry_equiv_pos_site_id
 _symmetry_equiv_pos_as_xyz
  1  'x, y, z'
loop_
 _atom_site_type_symbol
 _atom_site_label
 _atom_site_symmetry_multiplicity
 _atom_site_fract_x
 _atom_site_fract_y
 _atom_site_fract_z
 _atom_site_occupancy
  Yb  Yb0  1  0.994813  0.669693  0.250000  1
  Yb  Yb1  1  0.003518  0.329967  0.750000  1
  Yb  Yb2  1  0.672168  0.996891  0.250000  1
  Y  Y3  1  0.330155  0.002984  0.750000  1
  Al  Al4  1  0.132587  0.132523  0.250000  1
  Al  Al5  1  0.870905  0.869402  0.750000  1
  Al  Al6  1  0.001234  0.335104  0.075719  1
  Al  Al7  1  0.998730  0.664140  0.922227  1
  Al  Al8  1  0.998730  0.664140  0.577773  1
  Al  Al9  1  0.334830  0.000216  0.423436  1
  Al  Al10  1  0.001234  0.335104  0.424281  1
  Al  Al11  1  0.665951  0.999891  0.577434  1
  Al  Al12  1  0.665951  0.999891  0.922566  1
  Al  Al13  1  0.334830  0.000216  0.076564  1
  Al  Al14  1  0.332399  0.332430  0.558200  1
  Al  Al15  1  0.666384  0.666498  0.446034  1
  Al  Al16  1  0.666384  0.666498  0.053966  1
  Al  Al17  1  0.332399  0.332430  0.941800  1
  Al  Al18  1  0.340409  0.547170  0.250000  1
  Al  Al19  1  0.657275  0.452762  0.750000  1
  Al  Al20  1  0.544645  0.340559  0.250000  1
  Al  Al21  1  0.455310  0.662581  0.750000  1
  Pd  Pd22  1  0.671501  0.327608  0.999659  1
  Pd  Pd23  1  0.327806  0.671871  0.999154  1
  Pd  Pd24  1  0.327806  0.671871  0.500846  1
  Pd  Pd25  1  0.671501  0.327608  0.500341  1
  Pd  Pd26  1  0.000273  0.999979  0.999608  1
  Pd  Pd27  1  0.000273  0.999979  0.500392  1
