# generated using pymatgen
data_Zr4Co2(IrOs)3
_symmetry_space_group_name_H-M   'P 1'
_cell_length_a   5.18731997
_cell_length_b   5.19140170
_cell_length_c   8.44168200
_cell_angle_alpha   90.00000000
_cell_angle_beta   90.00000000
_cell_angle_gamma   121.22848411
_symmetry_Int_Tables_number   1
_chemical_formula_structural   Zr4Co2(IrOs)3
_chemical_formula_sum   'Zr4 Co2 Ir3 Os3'
_cell_volume   194.39134734
_cell_formula_units_Z   1
loop_
 _symmetry_equiv_pos_site_id
 _symmetry_equiv_pos_as_xyz
  1  'x, y, z'
loop_
 _atom_site_type_symbol
 _atom_site_label
 _atom_site_symmetry_multiplicity
 _atom_site_fract_x
 _atom_site_fract_y
 _atom_site_fract_z
 _atom_site_occupancy
  Zr  Zr0  1  0.329572  0.661776  0.433366  1
  Zr  Zr1  1  0.659964  0.330299  0.565558  1
  Zr  Zr2  1  0.659964  0.330299  0.934442  1
  Zr  Zr3  1  0.329572  0.661776  0.066634  1
  Co  Co4  1  0.335468  0.168731  0.250000  1
  Co  Co5  1  0.182435  0.343017  0.750000  1
  Ir  Ir6  1  0.823931  0.169378  0.250000  1
  Ir  Ir7  1  0.824828  0.658766  0.250000  1
  Ir  Ir8  1  0.176812  0.826138  0.750000  1
  Os  Os9  1  0.005721  0.008686  0.501211  1
  Os  Os10  1  0.005721  0.008686  0.998789  1
  Os  Os11  1  0.666010  0.832449  0.750000  1
