# generated using pymatgen
data_Th2Tc3Os
_symmetry_space_group_name_H-M   'P 1'
_cell_length_a   5.28607100
_cell_length_b   5.28607145
_cell_length_c   9.68614200
_cell_angle_alpha   90.00000000
_cell_angle_beta   90.00000000
_cell_angle_gamma   120.00000346
_symmetry_Int_Tables_number   1
_chemical_formula_structural   Th2Tc3Os
_chemical_formula_sum   'Th4 Tc6 Os2'
_cell_volume   234.39452814
_cell_formula_units_Z   2
loop_
 _symmetry_equiv_pos_site_id
 _symmetry_equiv_pos_as_xyz
  1  'x, y, z'
loop_
 _atom_site_type_symbol
 _atom_site_label
 _atom_site_symmetry_multiplicity
 _atom_site_fract_x
 _atom_site_fract_y
 _atom_site_fract_z
 _atom_site_occupancy
  Th  Th0  1  0.333333  0.666667  0.435461  1
  Th  Th1  1  0.666667  0.333333  0.564539  1
  Th  Th2  1  0.666667  0.333333  0.935461  1
  Th  Th3  1  0.333333  0.666667  0.064539  1
  Tc  Tc4  1  0.830566  0.169434  0.250000  1
  Tc  Tc5  1  0.830566  0.661133  0.250000  1
  Tc  Tc6  1  0.338867  0.169434  0.250000  1
  Tc  Tc7  1  0.169434  0.830566  0.750000  1
  Tc  Tc8  1  0.169434  0.338867  0.750000  1
  Tc  Tc9  1  0.661133  0.830566  0.750000  1
  Os  Os10  1  0.000000  0.000000  0.500000  1
  Os  Os11  1  0.000000  0.000000  0.000000  1
