# generated using pymatgen
data_Na5CuSe12
_symmetry_space_group_name_H-M   'P 1'
_cell_length_a   17.14232600
_cell_length_b   7.16201720
_cell_length_c   8.42006932
_cell_angle_alpha   73.49800882
_cell_angle_beta   90.00000000
_cell_angle_gamma   90.00000000
_symmetry_Int_Tables_number   1
_chemical_formula_structural   Na5CuSe12
_chemical_formula_sum   'Na10 Cu2 Se24'
_cell_volume   991.18168697
_cell_formula_units_Z   2
loop_
 _symmetry_equiv_pos_site_id
 _symmetry_equiv_pos_as_xyz
  1  'x, y, z'
loop_
 _atom_site_type_symbol
 _atom_site_label
 _atom_site_symmetry_multiplicity
 _atom_site_fract_x
 _atom_site_fract_y
 _atom_site_fract_z
 _atom_site_occupancy
  Na  Na0  1  0.353219  0.777789  0.347833  1
  Na  Na1  1  0.853219  0.222211  0.652167  1
  Na  Na2  1  0.937208  0.777711  0.017411  1
  Na  Na3  1  0.437208  0.222289  0.982589  1
  Na  Na4  1  0.070638  0.290854  0.441036  1
  Na  Na5  1  0.570638  0.709146  0.558964  1
  Na  Na6  1  0.761341  0.664340  0.286540  1
  Na  Na7  1  0.261341  0.335660  0.713460  1
  Na  Na8  1  0.137728  0.878139  0.101847  1
  Na  Na9  1  0.637728  0.121861  0.898153  1
  Cu  Cu10  1  0.851224  0.216176  0.160266  1
  Cu  Cu11  1  0.351224  0.783824  0.839734  1
  Se  Se12  1  0.791155  0.020233  0.410925  1
  Se  Se13  1  0.545584  0.952937  0.212675  1
  Se  Se14  1  0.728110  0.378804  0.084423  1
  Se  Se15  1  0.228110  0.621196  0.915577  1
  Se  Se16  1  0.974469  0.053356  0.242827  1
  Se  Se17  1  0.474469  0.946644  0.757173  1
  Se  Se18  1  0.908938  0.412226  0.907571  1
  Se  Se19  1  0.291155  0.979767  0.589075  1
  Se  Se20  1  0.447644  0.215164  0.518325  1
  Se  Se21  1  0.408938  0.587774  0.092429  1
  Se  Se22  1  0.753375  0.630024  0.832158  1
  Se  Se23  1  0.253375  0.369976  0.167842  1
  Se  Se24  1  0.947644  0.784836  0.481675  1
  Se  Se25  1  0.187360  0.606025  0.421948  1
  Se  Se26  1  0.663851  0.155357  0.431892  1
  Se  Se27  1  0.163851  0.844643  0.568108  1
  Se  Se28  1  0.042673  0.311757  0.906234  1
  Se  Se29  1  0.542673  0.688243  0.093766  1
  Se  Se30  1  0.779478  0.904028  0.933084  1
  Se  Se31  1  0.279478  0.095972  0.066916  1
  Se  Se32  1  0.927882  0.522582  0.363623  1
  Se  Se33  1  0.427882  0.477418  0.636377  1
  Se  Se34  1  0.687360  0.393975  0.578052  1
  Se  Se35  1  0.045584  0.047063  0.787325  1
