# generated using pymatgen
data_Ca7Ce(Si3Pd)4
_symmetry_space_group_name_H-M   'P 1'
_cell_length_a   8.25087800
_cell_length_b   8.25087754
_cell_length_c   8.40132500
_cell_angle_alpha   90.00000000
_cell_angle_beta   90.00000000
_cell_angle_gamma   119.99999382
_symmetry_Int_Tables_number   1
_chemical_formula_structural   Ca7Ce(Si3Pd)4
_chemical_formula_sum   'Ca7 Ce1 Si12 Pd4'
_cell_volume   495.31188750
_cell_formula_units_Z   1
loop_
 _symmetry_equiv_pos_site_id
 _symmetry_equiv_pos_as_xyz
  1  'x, y, z'
loop_
 _atom_site_type_symbol
 _atom_site_label
 _atom_site_symmetry_multiplicity
 _atom_site_fract_x
 _atom_site_fract_y
 _atom_site_fract_z
 _atom_site_occupancy
  Ca  Ca0  1  0.501241  0.002483  0.250000  1
  Ca  Ca1  1  0.498733  0.997467  0.750000  1
  Ca  Ca2  1  0.997517  0.498759  0.250000  1
  Ca  Ca3  1  0.002533  0.501267  0.750000  1
  Ca  Ca4  1  0.501241  0.498759  0.250000  1
  Ca  Ca5  1  0.498733  0.501267  0.750000  1
  Ca  Ca6  1  0.000000  0.000000  0.250000  1
  Ce  Ce7  1  0.000000  0.000000  0.750000  1
  Si  Si8  1  0.164964  0.329929  0.997197  1
  Si  Si9  1  0.835084  0.670168  0.995316  1
  Si  Si10  1  0.670071  0.835036  0.997197  1
  Si  Si11  1  0.835084  0.670168  0.504684  1
  Si  Si12  1  0.329832  0.164916  0.995316  1
  Si  Si13  1  0.164964  0.329929  0.502803  1
  Si  Si14  1  0.164964  0.835036  0.997197  1
  Si  Si15  1  0.329832  0.164916  0.504684  1
  Si  Si16  1  0.835084  0.164916  0.995316  1
  Si  Si17  1  0.670071  0.835036  0.502803  1
  Si  Si18  1  0.835084  0.164916  0.504684  1
  Si  Si19  1  0.164964  0.835036  0.502803  1
  Pd  Pd20  1  0.333333  0.666667  0.004187  1
  Pd  Pd21  1  0.666667  0.333333  0.001831  1
  Pd  Pd22  1  0.666667  0.333333  0.498169  1
  Pd  Pd23  1  0.333333  0.666667  0.495813  1
