# generated using pymatgen
data_Sc3U2Co16Si7W
_symmetry_space_group_name_H-M   'P 1'
_cell_length_a   8.06157199
_cell_length_b   8.06157134
_cell_length_c   8.02965702
_cell_angle_alpha   59.90806043
_cell_angle_beta   59.90806398
_cell_angle_gamma   59.62280739
_symmetry_Int_Tables_number   1
_chemical_formula_structural   Sc3U2Co16Si7W
_chemical_formula_sum   'Sc3 U2 Co16 Si7 W1'
_cell_volume   367.42324270
_cell_formula_units_Z   1
loop_
 _symmetry_equiv_pos_site_id
 _symmetry_equiv_pos_as_xyz
  1  'x, y, z'
loop_
 _atom_site_type_symbol
 _atom_site_label
 _atom_site_symmetry_multiplicity
 _atom_site_fract_x
 _atom_site_fract_y
 _atom_site_fract_z
 _atom_site_occupancy
  Sc  Sc0  1  0.286170  0.286170  0.719706  1
  Sc  Sc1  1  0.700927  0.301134  0.705881  1
  Sc  Sc2  1  0.301134  0.700927  0.705881  1
  U  U3  1  0.287518  0.713919  0.292997  1
  U  U4  1  0.713919  0.287518  0.292997  1
  Co  Co5  1  0.878614  0.878614  0.351666  1
  Co  Co6  1  0.876193  0.363913  0.882192  1
  Co  Co7  1  0.363913  0.876193  0.882192  1
  Co  Co8  1  0.877712  0.877712  0.887265  1
  Co  Co9  1  0.122800  0.122800  0.633999  1
  Co  Co10  1  0.112291  0.643378  0.123085  1
  Co  Co11  1  0.643378  0.112291  0.123085  1
  Co  Co12  1  0.116539  0.116539  0.126786  1
  Co  Co13  1  0.660687  0.660687  0.015541  1
  Co  Co14  1  0.673268  0.995711  0.655872  1
  Co  Co15  1  0.995711  0.673268  0.655872  1
  Co  Co16  1  0.674390  0.674390  0.663728  1
  Co  Co17  1  0.323330  0.323330  0.023498  1
  Co  Co18  1  0.336642  0.993942  0.326200  1
  Co  Co19  1  0.993942  0.336642  0.326200  1
  Co  Co20  1  0.339852  0.339852  0.327831  1
  Si  Si21  1  0.004854  0.004854  0.989718  1
  Si  Si22  1  0.001622  0.001622  0.521104  1
  Si  Si23  1  0.488710  0.997463  0.502084  1
  Si  Si24  1  0.997463  0.488710  0.502084  1
  Si  Si25  1  0.500522  0.500522  0.985125  1
  Si  Si26  1  0.003886  0.515882  0.987516  1
  Si  Si27  1  0.515882  0.003886  0.987516  1
  W  W28  1  0.708134  0.708134  0.302378  1
