# generated using pymatgen
data_Y10InBi4Pb
_symmetry_space_group_name_H-M   'P 1'
_cell_length_a   9.11160100
_cell_length_b   9.09598182
_cell_length_c   6.48456600
_cell_angle_alpha   90.00000000
_cell_angle_beta   90.00000000
_cell_angle_gamma   120.05682285
_symmetry_Int_Tables_number   1
_chemical_formula_structural   Y10InBi4Pb
_chemical_formula_sum   'Y10 In1 Bi4 Pb1'
_cell_volume   465.16482677
_cell_formula_units_Z   1
loop_
 _symmetry_equiv_pos_site_id
 _symmetry_equiv_pos_as_xyz
  1  'x, y, z'
loop_
 _atom_site_type_symbol
 _atom_site_label
 _atom_site_symmetry_multiplicity
 _atom_site_fract_x
 _atom_site_fract_y
 _atom_site_fract_z
 _atom_site_occupancy
  Y  Y0  1  0.337812  0.673619  0.001025  1
  Y  Y1  1  0.664193  0.326381  0.498975  1
  Y  Y2  1  0.664193  0.326381  0.001025  1
  Y  Y3  1  0.337812  0.673619  0.498975  1
  Y  Y4  1  0.241779  0.000000  0.250000  1
  Y  Y5  1  0.241920  0.237907  0.750000  1
  Y  Y6  1  0.004013  0.762093  0.750000  1
  Y  Y7  1  0.992080  0.234791  0.250000  1
  Y  Y8  1  0.757289  0.765209  0.250000  1
  Y  Y9  1  0.760012  0.000000  0.750000  1
  In  In10  1  0.603220  0.000000  0.250000  1
  Bi  Bi11  1  0.610007  0.606273  0.750000  1
  Bi  Bi12  1  0.003734  0.393727  0.750000  1
  Bi  Bi13  1  0.997420  0.607691  0.250000  1
  Bi  Bi14  1  0.389729  0.392309  0.250000  1
  Pb  Pb15  1  0.394788  0.000000  0.750000  1
