# generated using pymatgen
data_Ca2Dy2HgPb11
_symmetry_space_group_name_H-M   'P 1'
_cell_length_a   9.97657100
_cell_length_b   6.95787217
_cell_length_c   6.95777900
_cell_angle_alpha   89.62607746
_cell_angle_beta   90.00000000
_cell_angle_gamma   90.00000000
_symmetry_Int_Tables_number   1
_chemical_formula_structural   Ca2Dy2HgPb11
_chemical_formula_sum   'Ca2 Dy2 Hg1 Pb11'
_cell_volume   482.96885429
_cell_formula_units_Z   1
loop_
 _symmetry_equiv_pos_site_id
 _symmetry_equiv_pos_as_xyz
  1  'x, y, z'
loop_
 _atom_site_type_symbol
 _atom_site_label
 _atom_site_symmetry_multiplicity
 _atom_site_fract_x
 _atom_site_fract_y
 _atom_site_fract_z
 _atom_site_occupancy
  Ca  Ca0  1  0.750000  0.997220  0.999373  1
  Ca  Ca1  1  0.750000  0.503939  0.498734  1
  Dy  Dy2  1  0.250000  0.003299  0.001137  1
  Dy  Dy3  1  0.250000  0.499265  0.502439  1
  Hg  Hg4  1  0.750000  0.495581  0.997751  1
  Pb  Pb5  1  0.003253  0.247781  0.747700  1
  Pb  Pb6  1  0.497184  0.251580  0.249425  1
  Pb  Pb7  1  0.496179  0.750424  0.249956  1
  Pb  Pb8  1  0.003362  0.748345  0.752192  1
  Pb  Pb9  1  0.003821  0.750424  0.249956  1
  Pb  Pb10  1  0.496638  0.748345  0.752192  1
  Pb  Pb11  1  0.496747  0.247781  0.747700  1
  Pb  Pb12  1  0.002816  0.251580  0.249425  1
  Pb  Pb13  1  0.250000  0.999060  0.500752  1
  Pb  Pb14  1  0.250000  0.502458  0.001899  1
  Pb  Pb15  1  0.750000  0.002918  0.499368  1
