# generated using pymatgen
data_Tb8TiNb(Si8W5)2
_symmetry_space_group_name_H-M   'P 1'
_cell_length_a   6.91143589
_cell_length_b   6.91143494
_cell_length_c   12.85708917
_cell_angle_alpha   89.94801376
_cell_angle_beta   90.05198633
_cell_angle_gamma   90.33705691
_symmetry_Int_Tables_number   1
_chemical_formula_structural   Tb8TiNb(Si8W5)2
_chemical_formula_sum   'Tb8 Ti1 Nb1 Si16 W10'
_cell_volume   614.14552758
_cell_formula_units_Z   1
loop_
 _symmetry_equiv_pos_site_id
 _symmetry_equiv_pos_as_xyz
  1  'x, y, z'
loop_
 _atom_site_type_symbol
 _atom_site_label
 _atom_site_symmetry_multiplicity
 _atom_site_fract_x
 _atom_site_fract_y
 _atom_site_fract_z
 _atom_site_occupancy
  Tb  Tb0  1  0.335258  0.999891  0.469063  1
  Tb  Tb1  1  0.500021  0.837707  0.718457  1
  Tb  Tb2  1  0.498908  0.161834  0.218842  1
  Tb  Tb3  1  0.837707  0.500021  0.281543  1
  Tb  Tb4  1  0.161834  0.498908  0.781158  1
  Tb  Tb5  1  0.664471  0.000176  0.968839  1
  Tb  Tb6  1  0.999891  0.335258  0.530937  1
  Tb  Tb7  1  0.000176  0.664471  0.031161  1
  Ti  Ti8  1  0.668648  0.668648  0.500000  1
  Nb  Nb9  1  0.331937  0.331937  0.000000  1
  Si  Si10  1  0.198587  0.124967  0.684072  1
  Si  Si11  1  0.374465  0.705167  0.933421  1
  Si  Si12  1  0.626712  0.296428  0.434425  1
  Si  Si13  1  0.705167  0.374465  0.066579  1
  Si  Si14  1  0.296428  0.626712  0.565575  1
  Si  Si15  1  0.800491  0.874976  0.185005  1
  Si  Si16  1  0.124967  0.198587  0.315928  1
  Si  Si17  1  0.874976  0.800491  0.814995  1
  Si  Si18  1  0.289385  0.960345  0.065072  1
  Si  Si19  1  0.535478  0.789683  0.312845  1
  Si  Si20  1  0.465580  0.209694  0.810549  1
  Si  Si21  1  0.789683  0.535478  0.687155  1
  Si  Si22  1  0.209694  0.465580  0.189451  1
  Si  Si23  1  0.709119  0.038860  0.565044  1
  Si  Si24  1  0.960345  0.289385  0.934928  1
  Si  Si25  1  0.038860  0.709119  0.434956  1
  W  W26  1  0.166423  0.834149  0.249293  1
  W  W27  1  0.834149  0.166423  0.750707  1
  W  W28  1  0.166728  0.001926  0.874499  1
  W  W29  1  0.496708  0.661155  0.124240  1
  W  W30  1  0.502501  0.341641  0.622931  1
  W  W31  1  0.661155  0.496708  0.875760  1
  W  W32  1  0.341641  0.502501  0.377069  1
  W  W33  1  0.833692  0.996294  0.376091  1
  W  W34  1  0.001926  0.166728  0.125501  1
  W  W35  1  0.996294  0.833692  0.623909  1
