# generated using pymatgen
data_Dy5HoIrO12
_symmetry_space_group_name_H-M   'P 1'
_cell_length_a   6.47386344
_cell_length_b   6.47657548
_cell_length_c   6.47759430
_cell_angle_alpha   98.67537371
_cell_angle_beta   98.69875271
_cell_angle_gamma   98.64844460
_symmetry_Int_Tables_number   1
_chemical_formula_structural   Dy5HoIrO12
_chemical_formula_sum   'Dy5 Ho1 Ir1 O12'
_cell_volume   261.19857919
_cell_formula_units_Z   1
loop_
 _symmetry_equiv_pos_site_id
 _symmetry_equiv_pos_as_xyz
  1  'x, y, z'
loop_
 _atom_site_type_symbol
 _atom_site_label
 _atom_site_symmetry_multiplicity
 _atom_site_fract_x
 _atom_site_fract_y
 _atom_site_fract_z
 _atom_site_occupancy
  Dy  Dy0  1  0.143860  0.314536  0.611214  1
  Dy  Dy1  1  0.388679  0.855963  0.685399  1
  Dy  Dy2  1  0.685657  0.388865  0.856079  1
  Dy  Dy3  1  0.314483  0.611342  0.144078  1
  Dy  Dy4  1  0.611403  0.143981  0.314504  1
  Ho  Ho5  1  0.855725  0.684883  0.388920  1
  Ir  Ir6  1  0.999893  0.999814  0.999940  1
  O  O7  1  0.071832  0.298064  0.964310  1
  O  O8  1  0.035284  0.927734  0.701435  1
  O  O9  1  0.409219  0.566627  0.822514  1
  O  O10  1  0.176491  0.591120  0.433109  1
  O  O11  1  0.701841  0.035699  0.928161  1
  O  O12  1  0.433400  0.177412  0.590681  1
  O  O13  1  0.567715  0.822078  0.409290  1
  O  O14  1  0.298190  0.964355  0.071817  1
  O  O15  1  0.822508  0.410036  0.566352  1
  O  O16  1  0.591399  0.433904  0.177865  1
  O  O17  1  0.964337  0.071595  0.298080  1
  O  O18  1  0.928082  0.701989  0.036252  1
