# generated using pymatgen
data_Tb5Dy3(Lu3Pb4)4
_symmetry_space_group_name_H-M   'P 1'
_cell_length_a   8.13130904
_cell_length_b   8.20500602
_cell_length_c   15.45890208
_cell_angle_alpha   90.00563078
_cell_angle_beta   89.98997922
_cell_angle_gamma   89.99561617
_symmetry_Int_Tables_number   1
_chemical_formula_structural   Tb5Dy3(Lu3Pb4)4
_chemical_formula_sum   'Tb5 Dy3 Lu12 Pb16'
_cell_volume   1031.37834136
_cell_formula_units_Z   1
loop_
 _symmetry_equiv_pos_site_id
 _symmetry_equiv_pos_as_xyz
  1  'x, y, z'
loop_
 _atom_site_type_symbol
 _atom_site_label
 _atom_site_symmetry_multiplicity
 _atom_site_fract_x
 _atom_site_fract_y
 _atom_site_fract_z
 _atom_site_occupancy
  Tb  Tb0  1  0.964720  0.822679  0.099672  1
  Tb  Tb1  1  0.464706  0.677309  0.099639  1
  Tb  Tb2  1  0.964705  0.822653  0.400351  1
  Tb  Tb3  1  0.535297  0.322677  0.599637  1
  Tb  Tb4  1  0.035292  0.177333  0.900353  1
  Dy  Dy5  1  0.535313  0.322673  0.900305  1
  Dy  Dy6  1  0.035335  0.177313  0.599700  1
  Dy  Dy7  1  0.464673  0.677303  0.400309  1
  Lu  Lu8  1  0.376142  0.840963  0.878773  1
  Lu  Lu9  1  0.876155  0.659049  0.621233  1
  Lu  Lu10  1  0.623843  0.159054  0.378767  1
  Lu  Lu11  1  0.123864  0.340937  0.121228  1
  Lu  Lu12  1  0.623847  0.159074  0.121206  1
  Lu  Lu13  1  0.123879  0.340960  0.378797  1
  Lu  Lu14  1  0.376128  0.840961  0.621207  1
  Lu  Lu15  1  0.876126  0.659021  0.878759  1
  Lu  Lu16  1  0.207321  0.505307  0.750006  1
  Lu  Lu17  1  0.707322  0.994697  0.749986  1
  Lu  Lu18  1  0.792649  0.494669  0.250030  1
  Lu  Lu19  1  0.292701  0.005344  0.250010  1
  Pb  Pb20  1  0.283370  0.034545  0.042872  1
  Pb  Pb21  1  0.783240  0.465549  0.457111  1
  Pb  Pb22  1  0.716738  0.965541  0.542900  1
  Pb  Pb23  1  0.216744  0.534442  0.957100  1
  Pb  Pb24  1  0.716581  0.965538  0.957123  1
  Pb  Pb25  1  0.216666  0.534530  0.542826  1
  Pb  Pb26  1  0.283344  0.034523  0.457188  1
  Pb  Pb27  1  0.783291  0.465406  0.042808  1
  Pb  Pb28  1  0.570165  0.628930  0.750006  1
  Pb  Pb29  1  0.070156  0.871059  0.749996  1
  Pb  Pb30  1  0.429829  0.371071  0.250006  1
  Pb  Pb31  1  0.929817  0.128969  0.250003  1
  Pb  Pb32  1  0.345903  0.152339  0.750049  1
  Pb  Pb33  1  0.845906  0.347660  0.749950  1
  Pb  Pb34  1  0.654051  0.847688  0.250074  1
  Pb  Pb35  1  0.154181  0.652235  0.250021  1
