# generated using pymatgen
data_Dy7Sn23(IrRu2)2
_symmetry_space_group_name_H-M   'P 1'
_cell_length_a   9.86819504
_cell_length_b   9.86819553
_cell_length_c   10.13971352
_cell_angle_alpha   90.05454273
_cell_angle_beta   89.94545776
_cell_angle_gamma   120.11436216
_symmetry_Int_Tables_number   1
_chemical_formula_structural   Dy7Sn23(IrRu2)2
_chemical_formula_sum   'Dy7 Sn23 Ir2 Ru4'
_cell_volume   854.14164010
_cell_formula_units_Z   1
loop_
 _symmetry_equiv_pos_site_id
 _symmetry_equiv_pos_as_xyz
  1  'x, y, z'
loop_
 _atom_site_type_symbol
 _atom_site_label
 _atom_site_symmetry_multiplicity
 _atom_site_fract_x
 _atom_site_fract_y
 _atom_site_fract_z
 _atom_site_occupancy
  Dy  Dy0  1  0.000000  0.000000  0.000000  1
  Dy  Dy1  1  0.483536  0.516464  0.304600  1
  Dy  Dy2  1  0.516464  0.483536  0.695400  1
  Dy  Dy3  1  0.483501  0.967582  0.304748  1
  Dy  Dy4  1  0.516499  0.032418  0.695252  1
  Dy  Dy5  1  0.032418  0.516499  0.304748  1
  Dy  Dy6  1  0.967582  0.483501  0.695252  1
  Sn  Sn7  1  0.351996  0.002732  0.000839  1
  Sn  Sn8  1  0.648004  0.997268  0.999161  1
  Sn  Sn9  1  0.002732  0.351996  0.999161  1
  Sn  Sn10  1  0.997268  0.648004  0.000839  1
  Sn  Sn11  1  0.650848  0.650848  0.000000  1
  Sn  Sn12  1  0.349152  0.349152  0.000000  1
  Sn  Sn13  1  0.334647  0.665353  0.821223  1
  Sn  Sn14  1  0.665353  0.334647  0.178777  1
  Sn  Sn15  1  0.000000  0.000000  0.500000  1
  Sn  Sn16  1  0.780012  0.219988  0.461777  1
  Sn  Sn17  1  0.219988  0.780012  0.538223  1
  Sn  Sn18  1  0.781063  0.560887  0.460261  1
  Sn  Sn19  1  0.218937  0.439113  0.539739  1
  Sn  Sn20  1  0.439113  0.218937  0.460261  1
  Sn  Sn21  1  0.560887  0.781063  0.539739  1
  Sn  Sn22  1  0.333301  0.666699  0.125030  1
  Sn  Sn23  1  0.666699  0.333301  0.874970  1
  Sn  Sn24  1  0.118947  0.881053  0.271137  1
  Sn  Sn25  1  0.881053  0.118947  0.728863  1
  Sn  Sn26  1  0.118972  0.236801  0.275897  1
  Sn  Sn27  1  0.881028  0.763199  0.724103  1
  Sn  Sn28  1  0.763199  0.881028  0.275897  1
  Sn  Sn29  1  0.236801  0.118972  0.724103  1
  Ir  Ir30  1  0.829388  0.170612  0.199945  1
  Ir  Ir31  1  0.170612  0.829388  0.800055  1
  Ru  Ru32  1  0.830380  0.661236  0.200768  1
  Ru  Ru33  1  0.169620  0.338764  0.799232  1
  Ru  Ru34  1  0.338764  0.169620  0.200768  1
  Ru  Ru35  1  0.661236  0.830380  0.799232  1
