# generated using pymatgen
data_LiHg2OF3
_symmetry_space_group_name_H-M   'P 1'
_cell_length_a   5.55298800
_cell_length_b   11.52304500
_cell_length_c   6.87756300
_cell_angle_alpha   90.00002246
_cell_angle_beta   89.99956351
_cell_angle_gamma   90.00177813
_symmetry_Int_Tables_number   1
_chemical_formula_structural   LiHg2OF3
_chemical_formula_sum   'Li4 Hg8 O4 F12'
_cell_volume   440.07689735
_cell_formula_units_Z   4
loop_
 _symmetry_equiv_pos_site_id
 _symmetry_equiv_pos_as_xyz
  1  'x, y, z'
loop_
 _atom_site_type_symbol
 _atom_site_label
 _atom_site_symmetry_multiplicity
 _atom_site_fract_x
 _atom_site_fract_y
 _atom_site_fract_z
 _atom_site_occupancy
  Li  Li0  1  0.482948  0.090312  0.250000  1
  Li  Li1  1  0.982979  0.409690  0.749999  1
  Li  Li2  1  0.017029  0.590353  0.250001  1
  Li  Li3  1  0.517019  0.909647  0.750002  1
  Hg  Hg4  1  0.506118  0.238500  0.750004  1
  Hg  Hg5  1  0.006092  0.261495  0.249997  1
  Hg  Hg6  1  0.993890  0.738503  0.749997  1
  Hg  Hg7  1  0.493897  0.761497  0.250001  1
  Hg  Hg8  1  0.999977  0.000017  0.000076  1
  Hg  Hg9  1  0.999980  0.000015  0.499945  1
  Hg  Hg10  1  0.499998  0.499994  0.999952  1
  Hg  Hg11  1  0.499992  0.499987  0.500053  1
  O  O12  1  0.847878  0.080045  0.249999  1
  O  O13  1  0.347851  0.419951  0.749987  1
  O  O14  1  0.652242  0.580064  0.249994  1
  O  O15  1  0.152263  0.919939  0.750002  1
  F  F16  1  0.660251  0.059667  0.750000  1
  F  F17  1  0.160260  0.440330  0.249996  1
  F  F18  1  0.839703  0.559650  0.750002  1
  F  F19  1  0.339693  0.940357  0.249992  1
  F  F20  1  0.325515  0.169681  0.456685  1
  F  F21  1  0.325513  0.169680  0.043314  1
  F  F22  1  0.825521  0.330327  0.956689  1
  F  F23  1  0.825523  0.330320  0.543313  1
  F  F24  1  0.174469  0.669692  0.043336  1
  F  F25  1  0.174479  0.669689  0.456659  1
  F  F26  1  0.674461  0.830299  0.543336  1
  F  F27  1  0.674459  0.830298  0.956668  1
