# generated using pymatgen
data_Ca3Er(Al3Pd)6
_symmetry_space_group_name_H-M   'P 1'
_cell_length_a   7.66190998
_cell_length_b   7.66003032
_cell_length_c   9.51556700
_cell_angle_alpha   90.00000000
_cell_angle_beta   90.00000000
_cell_angle_gamma   119.59100160
_symmetry_Int_Tables_number   1
_chemical_formula_structural   Ca3Er(Al3Pd)6
_chemical_formula_sum   'Ca3 Er1 Al18 Pd6'
_cell_volume   485.63278531
_cell_formula_units_Z   1
loop_
 _symmetry_equiv_pos_site_id
 _symmetry_equiv_pos_as_xyz
  1  'x, y, z'
loop_
 _atom_site_type_symbol
 _atom_site_label
 _atom_site_symmetry_multiplicity
 _atom_site_fract_x
 _atom_site_fract_y
 _atom_site_fract_z
 _atom_site_occupancy
  Ca  Ca0  1  0.995018  0.669440  0.250000  1
  Ca  Ca1  1  0.003934  0.330267  0.750000  1
  Ca  Ca2  1  0.670817  0.996270  0.250000  1
  Er  Er3  1  0.330548  0.003382  0.750000  1
  Al  Al4  1  0.132383  0.131839  0.250000  1
  Al  Al5  1  0.872189  0.869565  0.750000  1
  Al  Al6  1  0.001353  0.334808  0.074649  1
  Al  Al7  1  0.999941  0.665547  0.921927  1
  Al  Al8  1  0.999941  0.665547  0.578073  1
  Al  Al9  1  0.334561  0.000548  0.426052  1
  Al  Al10  1  0.001353  0.334808  0.425351  1
  Al  Al11  1  0.664993  0.999766  0.577829  1
  Al  Al12  1  0.664993  0.999766  0.922171  1
  Al  Al13  1  0.334561  0.000548  0.073948  1
  Al  Al14  1  0.332834  0.331919  0.559130  1
  Al  Al15  1  0.666205  0.666218  0.446021  1
  Al  Al16  1  0.666205  0.666218  0.053979  1
  Al  Al17  1  0.332834  0.331919  0.940870  1
  Al  Al18  1  0.339528  0.545914  0.250000  1
  Al  Al19  1  0.656079  0.451806  0.750000  1
  Al  Al20  1  0.543773  0.339281  0.250000  1
  Al  Al21  1  0.455868  0.664628  0.750000  1
  Pd  Pd22  1  0.671157  0.328086  0.999359  1
  Pd  Pd23  1  0.328327  0.671697  0.999008  1
  Pd  Pd24  1  0.328327  0.671697  0.500992  1
  Pd  Pd25  1  0.671157  0.328086  0.500641  1
  Pd  Pd26  1  0.000559  0.000216  0.999153  1
  Pd  Pd27  1  0.000559  0.000216  0.500847  1
