# generated using pymatgen
data_Pa4Mn7As6
_symmetry_space_group_name_H-M   'P 1'
_cell_length_a   7.06647368
_cell_length_b   7.06647362
_cell_length_c   7.06647400
_cell_angle_alpha   109.47122746
_cell_angle_beta   109.47122730
_cell_angle_gamma   109.47121819
_symmetry_Int_Tables_number   1
_chemical_formula_structural   Pa4Mn7As6
_chemical_formula_sum   'Pa4 Mn7 As6'
_cell_volume   271.63535969
_cell_formula_units_Z   1
loop_
 _symmetry_equiv_pos_site_id
 _symmetry_equiv_pos_as_xyz
  1  'x, y, z'
loop_
 _atom_site_type_symbol
 _atom_site_label
 _atom_site_symmetry_multiplicity
 _atom_site_fract_x
 _atom_site_fract_y
 _atom_site_fract_z
 _atom_site_occupancy
  Pa  Pa0  1  0.000000  0.000000  0.500000  1
  Pa  Pa1  1  0.500000  0.000000  0.000000  1
  Pa  Pa2  1  0.000000  0.500000  0.000000  1
  Pa  Pa3  1  0.500000  0.500000  0.500000  1
  Mn  Mn4  1  0.750000  0.500000  0.250000  1
  Mn  Mn5  1  0.500000  0.750000  0.250000  1
  Mn  Mn6  1  0.500000  0.250000  0.750000  1
  Mn  Mn7  1  0.750000  0.250000  0.500000  1
  Mn  Mn8  1  0.250000  0.750000  0.500000  1
  Mn  Mn9  1  0.250000  0.500000  0.750000  1
  Mn  Mn10  1  0.000000  0.000000  0.000000  1
  As  As11  1  0.319227  0.000000  0.319227  1
  As  As12  1  0.000000  0.319227  0.319227  1
  As  As13  1  0.000000  0.680773  0.680773  1
  As  As14  1  0.319227  0.319227  0.000000  1
  As  As15  1  0.680773  0.680773  0.000000  1
  As  As16  1  0.680773  0.000000  0.680773  1
