# generated using pymatgen
data_Dy4Ho6IrRu3
_symmetry_space_group_name_H-M   'P 1'
_cell_length_a   6.33814925
_cell_length_b   7.29224979
_cell_length_c   8.45463813
_cell_angle_alpha   96.79713840
_cell_angle_beta   112.07634826
_cell_angle_gamma   90.01798531
_symmetry_Int_Tables_number   1
_chemical_formula_structural   Dy4Ho6IrRu3
_chemical_formula_sum   'Dy4 Ho6 Ir1 Ru3'
_cell_volume   359.14689628
_cell_formula_units_Z   1
loop_
 _symmetry_equiv_pos_site_id
 _symmetry_equiv_pos_as_xyz
  1  'x, y, z'
loop_
 _atom_site_type_symbol
 _atom_site_label
 _atom_site_symmetry_multiplicity
 _atom_site_fract_x
 _atom_site_fract_y
 _atom_site_fract_z
 _atom_site_occupancy
  Dy  Dy0  1  0.978512  0.917540  0.185878  1
  Dy  Dy1  1  0.791342  0.584979  0.812558  1
  Dy  Dy2  1  0.021706  0.084681  0.813577  1
  Dy  Dy3  1  0.209513  0.414551  0.185756  1
  Ho  Ho4  1  0.641129  0.815830  0.435365  1
  Ho  Ho5  1  0.207427  0.684799  0.566017  1
  Ho  Ho6  1  0.358355  0.185178  0.565367  1
  Ho  Ho7  1  0.793321  0.313969  0.435955  1
  Ho  Ho8  1  0.420506  0.750157  0.000080  1
  Ho  Ho9  1  0.578519  0.248699  0.998829  1
  Ir  Ir10  1  0.822218  0.575986  0.221579  1
  Ru  Ru11  1  0.603870  0.923205  0.779466  1
  Ru  Ru12  1  0.175664  0.424666  0.778853  1
  Ru  Ru13  1  0.397919  0.075762  0.220721  1
