# generated using pymatgen
data_Tb6Ce2Hf11ZrSi16
_symmetry_space_group_name_H-M   'P 1'
_cell_length_a   7.30897754
_cell_length_b   7.31242080
_cell_length_c   13.45384580
_cell_angle_alpha   90.02994860
_cell_angle_beta   89.97417542
_cell_angle_gamma   90.03995664
_symmetry_Int_Tables_number   1
_chemical_formula_structural   Tb6Ce2Hf11ZrSi16
_chemical_formula_sum   'Tb6 Ce2 Hf11 Zr1 Si16'
_cell_volume   719.05819322
_cell_formula_units_Z   1
loop_
 _symmetry_equiv_pos_site_id
 _symmetry_equiv_pos_as_xyz
  1  'x, y, z'
loop_
 _atom_site_type_symbol
 _atom_site_label
 _atom_site_symmetry_multiplicity
 _atom_site_fract_x
 _atom_site_fract_y
 _atom_site_fract_z
 _atom_site_occupancy
  Tb  Tb0  1  0.155751  0.495927  0.465873  1
  Tb  Tb1  1  0.503358  0.844661  0.034857  1
  Tb  Tb2  1  0.844346  0.504032  0.965907  1
  Tb  Tb3  1  0.496617  0.155464  0.534824  1
  Tb  Tb4  1  0.344027  0.994386  0.785091  1
  Tb  Tb5  1  0.656055  0.005551  0.285173  1
  Ce  Ce6  1  0.994451  0.343813  0.213615  1
  Ce  Ce7  1  0.005440  0.656123  0.713499  1
  Hf  Hf8  1  0.825550  0.825155  0.500880  1
  Hf  Hf9  1  0.323606  0.674121  0.250223  1
  Hf  Hf10  1  0.676454  0.326072  0.749953  1
  Hf  Hf11  1  0.150304  0.998012  0.374578  1
  Hf  Hf12  1  0.849601  0.001851  0.874560  1
  Hf  Hf13  1  0.504465  0.648755  0.624227  1
  Hf  Hf14  1  0.350290  0.495720  0.874947  1
  Hf  Hf15  1  0.495351  0.351188  0.124279  1
  Hf  Hf16  1  0.649848  0.504241  0.374989  1
  Hf  Hf17  1  0.995590  0.149044  0.625402  1
  Hf  Hf18  1  0.004281  0.850827  0.125522  1
  Zr  Zr19  1  0.174389  0.174906  0.000893  1
  Si  Si20  1  0.362854  0.296361  0.317030  1
  Si  Si21  1  0.637121  0.703558  0.816974  1
  Si  Si22  1  0.205574  0.863543  0.565712  1
  Si  Si23  1  0.137447  0.794759  0.933829  1
  Si  Si24  1  0.793454  0.136369  0.065819  1
  Si  Si25  1  0.862408  0.204172  0.433876  1
  Si  Si26  1  0.296445  0.361217  0.683245  1
  Si  Si27  1  0.703601  0.638724  0.183269  1
  Si  Si28  1  0.295915  0.047956  0.186956  1
  Si  Si29  1  0.704403  0.951690  0.686131  1
  Si  Si30  1  0.452022  0.795405  0.435163  1
  Si  Si31  1  0.206192  0.550984  0.063848  1
  Si  Si32  1  0.549204  0.204767  0.935029  1
  Si  Si33  1  0.793884  0.450276  0.563670  1
  Si  Si34  1  0.047796  0.294488  0.814669  1
  Si  Si35  1  0.951904  0.705882  0.315488  1
