# generated using pymatgen
data_Dy9Er3InCo4Ir
_symmetry_space_group_name_H-M   'P 1'
_cell_length_a   8.28980735
_cell_length_b   8.29359403
_cell_length_c   8.29369532
_cell_angle_alpha   111.07171070
_cell_angle_beta   110.78319567
_cell_angle_gamma   106.61056421
_symmetry_Int_Tables_number   1
_chemical_formula_structural   Dy9Er3InCo4Ir
_chemical_formula_sum   'Dy9 Er3 In1 Co4 Ir1'
_cell_volume   438.05019226
_cell_formula_units_Z   1
loop_
 _symmetry_equiv_pos_site_id
 _symmetry_equiv_pos_as_xyz
  1  'x, y, z'
loop_
 _atom_site_type_symbol
 _atom_site_label
 _atom_site_symmetry_multiplicity
 _atom_site_fract_x
 _atom_site_fract_y
 _atom_site_fract_z
 _atom_site_occupancy
  Dy  Dy0  1  0.977945  0.784628  0.193336  1
  Dy  Dy1  1  0.184598  0.287837  0.472012  1
  Dy  Dy2  1  0.815821  0.713123  0.529352  1
  Dy  Dy3  1  0.184597  0.712620  0.896785  1
  Dy  Dy4  1  0.815823  0.286478  0.102725  1
  Dy  Dy5  1  0.315311  0.620439  0.306068  1
  Dy  Dy6  1  0.684436  0.378880  0.693488  1
  Dy  Dy7  1  0.315302  0.009254  0.694881  1
  Dy  Dy8  1  0.684439  0.990960  0.305576  1
  Er  Er9  1  0.408477  0.215294  0.193155  1
  Er  Er10  1  0.590710  0.784785  0.805945  1
  Er  Er11  1  0.021603  0.215446  0.806175  1
  In  In12  1  0.499418  0.499571  0.999586  1
  Co  Co13  1  0.378832  0.000267  0.378576  1
  Co  Co14  1  0.622393  0.999789  0.622621  1
  Co  Co15  1  0.112368  0.611545  0.500838  1
  Co  Co16  1  0.888340  0.388294  0.500055  1
  Ir  Ir17  1  0.999587  0.000791  0.998824  1
