# generated using pymatgen
data_Tb3Ho3(AlC3)2
_symmetry_space_group_name_H-M   'P 1'
_cell_length_a   3.57530900
_cell_length_b   7.06577634
_cell_length_c   9.97852114
_cell_angle_alpha   89.90223130
_cell_angle_beta   90.00000000
_cell_angle_gamma   90.00000000
_symmetry_Int_Tables_number   1
_chemical_formula_structural   Tb3Ho3(AlC3)2
_chemical_formula_sum   'Tb3 Ho3 Al2 C6'
_cell_volume   252.08036437
_cell_formula_units_Z   1
loop_
 _symmetry_equiv_pos_site_id
 _symmetry_equiv_pos_as_xyz
  1  'x, y, z'
loop_
 _atom_site_type_symbol
 _atom_site_label
 _atom_site_symmetry_multiplicity
 _atom_site_fract_x
 _atom_site_fract_y
 _atom_site_fract_z
 _atom_site_occupancy
  Tb  Tb0  1  0.500000  0.509144  0.199178  1
  Tb  Tb1  1  0.000000  0.750350  0.459439  1
  Tb  Tb2  1  0.000000  0.250063  0.540807  1
  Ho  Ho3  1  0.500000  0.487907  0.800277  1
  Ho  Ho4  1  0.500000  0.988467  0.200123  1
  Ho  Ho5  1  0.500000  0.011684  0.799594  1
  Al  Al6  1  0.000000  0.751686  0.004762  1
  Al  Al7  1  0.000000  0.248097  0.994136  1
  C  C8  1  0.500000  0.509323  0.567307  1
  C  C9  1  0.500000  0.491208  0.435066  1
  C  C10  1  0.500000  0.991170  0.566079  1
  C  C11  1  0.500000  0.009141  0.433831  1
  C  C12  1  0.000000  0.752019  0.207989  1
  C  C13  1  0.000000  0.249739  0.791414  1
