# generated using pymatgen
data_Y3HoAl16(GaIr3)2
_symmetry_space_group_name_H-M   'P 1'
_cell_length_a   7.53794612
_cell_length_b   7.53749445
_cell_length_c   9.51969800
_cell_angle_alpha   90.00000000
_cell_angle_beta   90.00000000
_cell_angle_gamma   119.39793362
_symmetry_Int_Tables_number   1
_chemical_formula_structural   Y3HoAl16(GaIr3)2
_chemical_formula_sum   'Y3 Ho1 Al16 Ga2 Ir6'
_cell_volume   471.23417842
_cell_formula_units_Z   1
loop_
 _symmetry_equiv_pos_site_id
 _symmetry_equiv_pos_as_xyz
  1  'x, y, z'
loop_
 _atom_site_type_symbol
 _atom_site_label
 _atom_site_symmetry_multiplicity
 _atom_site_fract_x
 _atom_site_fract_y
 _atom_site_fract_z
 _atom_site_occupancy
  Y  Y0  1  0.005914  0.325745  0.750000  1
  Y  Y1  1  0.674269  0.994067  0.250000  1
  Y  Y2  1  0.325754  0.005921  0.750000  1
  Ho  Ho3  1  0.994086  0.674348  0.250000  1
  Al  Al4  1  0.001556  0.335970  0.072893  1
  Al  Al5  1  0.998439  0.664157  0.927310  1
  Al  Al6  1  0.998439  0.664157  0.572690  1
  Al  Al7  1  0.335715  0.001430  0.427111  1
  Al  Al8  1  0.001556  0.335970  0.427107  1
  Al  Al9  1  0.664154  0.998443  0.572811  1
  Al  Al10  1  0.664154  0.998443  0.927189  1
  Al  Al11  1  0.335715  0.001430  0.072889  1
  Al  Al12  1  0.334227  0.334225  0.552936  1
  Al  Al13  1  0.665902  0.665779  0.446971  1
  Al  Al14  1  0.665902  0.665779  0.053029  1
  Al  Al15  1  0.334227  0.334225  0.947064  1
  Al  Al16  1  0.337782  0.548966  0.250000  1
  Al  Al17  1  0.662100  0.451055  0.750000  1
  Al  Al18  1  0.549118  0.338060  0.250000  1
  Al  Al19  1  0.451061  0.662094  0.750000  1
  Ga  Ga20  1  0.134740  0.134599  0.250000  1
  Ga  Ga21  1  0.865218  0.865219  0.750000  1
  Ir  Ir22  1  0.671576  0.328590  0.000061  1
  Ir  Ir23  1  0.328421  0.671498  0.000068  1
  Ir  Ir24  1  0.328421  0.671498  0.499932  1
  Ir  Ir25  1  0.671576  0.328590  0.499939  1
  Ir  Ir26  1  0.999990  0.999872  0.000083  1
  Ir  Ir27  1  0.999990  0.999872  0.499917  1
