# generated using pymatgen
data_Zr2TaCo2Ir
_symmetry_space_group_name_H-M   'P 1'
_cell_length_a   5.31344553
_cell_length_b   5.31344474
_cell_length_c   5.19287308
_cell_angle_alpha   56.90866823
_cell_angle_beta   56.90867861
_cell_angle_gamma   59.00300845
_symmetry_Int_Tables_number   1
_chemical_formula_structural   Zr2TaCo2Ir
_chemical_formula_sum   'Zr2 Ta1 Co2 Ir1'
_cell_volume   97.86968818
_cell_formula_units_Z   1
loop_
 _symmetry_equiv_pos_site_id
 _symmetry_equiv_pos_as_xyz
  1  'x, y, z'
loop_
 _atom_site_type_symbol
 _atom_site_label
 _atom_site_symmetry_multiplicity
 _atom_site_fract_x
 _atom_site_fract_y
 _atom_site_fract_z
 _atom_site_occupancy
  Zr  Zr0  1  0.502042  0.502042  0.503981  1
  Zr  Zr1  1  0.747958  0.747958  0.746019  1
  Ta  Ta2  1  0.125000  0.125000  0.625000  1
  Co  Co3  1  0.625000  0.125000  0.125000  1
  Co  Co4  1  0.125000  0.625000  0.125000  1
  Ir  Ir5  1  0.125000  0.125000  0.125000  1
