# generated using pymatgen
data_Rb4Ti6SiCl18
_symmetry_space_group_name_H-M   'P 1'
_cell_length_a   9.95217570
_cell_length_b   10.19831561
_cell_length_c   10.30657500
_cell_angle_alpha   118.35424319
_cell_angle_beta   100.39505841
_cell_angle_gamma   104.20531575
_symmetry_Int_Tables_number   1
_chemical_formula_structural   Rb4Ti6SiCl18
_chemical_formula_sum   'Rb4 Ti6 Si1 Cl18'
_cell_volume   836.60501985
_cell_formula_units_Z   1
loop_
 _symmetry_equiv_pos_site_id
 _symmetry_equiv_pos_as_xyz
  1  'x, y, z'
loop_
 _atom_site_type_symbol
 _atom_site_label
 _atom_site_symmetry_multiplicity
 _atom_site_fract_x
 _atom_site_fract_y
 _atom_site_fract_z
 _atom_site_occupancy
  Rb  Rb0  1  0.661258  0.537476  0.230819  1
  Rb  Rb1  1  0.338742  0.462524  0.769181  1
  Rb  Rb2  1  0.697080  0.229229  0.565298  1
  Rb  Rb3  1  0.302920  0.770771  0.434702  1
  Ti  Ti4  1  0.156634  0.058105  0.235940  1
  Ti  Ti5  1  0.843366  0.941895  0.764060  1
  Ti  Ti6  1  0.856153  0.127376  0.133811  1
  Ti  Ti7  1  0.143847  0.872624  0.866189  1
  Ti  Ti8  1  0.151113  0.245403  0.046617  1
  Ti  Ti9  1  0.848887  0.754597  0.953383  1
  Si  Si10  1  0.000000  0.000000  0.000000  1
  Cl  Cl11  1  0.008441  0.390170  0.187363  1
  Cl  Cl12  1  0.991559  0.609830  0.812637  1
  Cl  Cl13  1  0.319358  0.319697  0.297621  1
  Cl  Cl14  1  0.680642  0.680303  0.702379  1
  Cl  Cl15  1  0.313424  0.504435  0.097716  1
  Cl  Cl16  1  0.686576  0.495565  0.902284  1
  Cl  Cl17  1  0.004509  0.804753  0.199353  1
  Cl  Cl18  1  0.995491  0.195247  0.800647  1
  Cl  Cl19  1  0.710281  0.259781  0.272891  1
  Cl  Cl20  1  0.289719  0.740219  0.727109  1
  Cl  Cl21  1  0.305994  0.124471  0.909800  1
  Cl  Cl22  1  0.694006  0.875529  0.090200  1
  Cl  Cl23  1  0.015244  0.194575  0.388494  1
  Cl  Cl24  1  0.984756  0.805425  0.611506  1
  Cl  Cl25  1  0.309860  0.928311  0.107164  1
  Cl  Cl26  1  0.690140  0.071689  0.892836  1
  Cl  Cl27  1  0.325660  0.119256  0.484502  1
  Cl  Cl28  1  0.674340  0.880744  0.515498  1
