# generated using pymatgen
data_La13Tb3Cd4(OsRu)2
_symmetry_space_group_name_H-M   'P 1'
_cell_length_a   10.00973763
_cell_length_b   10.00973762
_cell_length_c   10.09237539
_cell_angle_alpha   59.43024501
_cell_angle_beta   59.43024617
_cell_angle_gamma   60.04027569
_symmetry_Int_Tables_number   1
_chemical_formula_structural   La13Tb3Cd4(OsRu)2
_chemical_formula_sum   'La13 Tb3 Cd4 Os2 Ru2'
_cell_volume   709.02119443
_cell_formula_units_Z   1
loop_
 _symmetry_equiv_pos_site_id
 _symmetry_equiv_pos_as_xyz
  1  'x, y, z'
loop_
 _atom_site_type_symbol
 _atom_site_label
 _atom_site_symmetry_multiplicity
 _atom_site_fract_x
 _atom_site_fract_y
 _atom_site_fract_z
 _atom_site_occupancy
  La  La0  1  0.439998  0.061720  0.062088  1
  La  La1  1  0.308398  0.693373  0.307555  1
  La  La2  1  0.692872  0.692872  0.306505  1
  La  La3  1  0.693373  0.308398  0.307555  1
  La  La4  1  0.287142  0.900125  0.906002  1
  La  La5  1  0.900125  0.287142  0.906002  1
  La  La6  1  0.308766  0.693416  0.690231  1
  La  La7  1  0.906110  0.906110  0.286952  1
  La  La8  1  0.061720  0.439998  0.062088  1
  La  La9  1  0.304609  0.304609  0.695153  1
  La  La10  1  0.062184  0.437909  0.434581  1
  La  La11  1  0.437909  0.062184  0.434581  1
  La  La12  1  0.693416  0.308766  0.690231  1
  Tb  Tb13  1  0.906564  0.906564  0.901685  1
  Tb  Tb14  1  0.441602  0.441602  0.056654  1
  Tb  Tb15  1  0.057469  0.057469  0.444468  1
  Cd  Cd16  1  0.671753  0.671753  0.986472  1
  Cd  Cd17  1  0.986401  0.676077  0.671318  1
  Cd  Cd18  1  0.676077  0.986401  0.671318  1
  Cd  Cd19  1  0.670311  0.670311  0.673922  1
  Os  Os20  1  0.112752  0.112752  0.665357  1
  Os  Os21  1  0.112898  0.112898  0.110343  1
  Ru  Ru22  1  0.107704  0.659845  0.114467  1
  Ru  Ru23  1  0.659845  0.107704  0.114467  1
