# generated using pymatgen
data_Th4Zn2SiRh10
_symmetry_space_group_name_H-M   'P 1'
_cell_length_a   7.27876278
_cell_length_b   7.38215978
_cell_length_c   7.38215913
_cell_angle_alpha   107.50112876
_cell_angle_beta   110.76919415
_cell_angle_gamma   110.76919410
_symmetry_Int_Tables_number   1
_chemical_formula_structural   Th4Zn2SiRh10
_chemical_formula_sum   'Th4 Zn2 Si1 Rh10'
_cell_volume   302.72816534
_cell_formula_units_Z   1
loop_
 _symmetry_equiv_pos_site_id
 _symmetry_equiv_pos_as_xyz
  1  'x, y, z'
loop_
 _atom_site_type_symbol
 _atom_site_label
 _atom_site_symmetry_multiplicity
 _atom_site_fract_x
 _atom_site_fract_y
 _atom_site_fract_z
 _atom_site_occupancy
  Th  Th0  1  0.023947  0.011973  0.511973  1
  Th  Th1  1  0.023947  0.511973  0.011973  1
  Th  Th2  1  0.477496  0.968561  0.968561  1
  Th  Th3  1  0.477496  0.508935  0.508935  1
  Zn  Zn4  1  0.746637  0.248820  0.497817  1
  Zn  Zn5  1  0.746637  0.497817  0.248820  1
  Si  Si6  1  0.001504  0.000752  0.000752  1
  Rh  Rh7  1  0.518038  0.259019  0.759019  1
  Rh  Rh8  1  0.232641  0.488145  0.744497  1
  Rh  Rh9  1  0.232641  0.744497  0.488145  1
  Rh  Rh10  1  0.518038  0.759019  0.259019  1
  Rh  Rh11  1  0.737852  0.723580  0.014272  1
  Rh  Rh12  1  0.294547  0.014610  0.279937  1
  Rh  Rh13  1  0.968088  0.259317  0.259317  1
  Rh  Rh14  1  0.294547  0.279937  0.014610  1
  Rh  Rh15  1  0.737852  0.014272  0.723580  1
  Rh  Rh16  1  0.968088  0.708771  0.708771  1
