# generated using pymatgen
data_Ba2NaHoPb2
_symmetry_space_group_name_H-M   'P 1'
_cell_length_a   11.22447243
_cell_length_b   11.22453535
_cell_length_c   7.42036100
_cell_angle_alpha   90.00000000
_cell_angle_beta   90.00000000
_cell_angle_gamma   97.90944121
_symmetry_Int_Tables_number   1
_chemical_formula_structural   Ba2NaHoPb2
_chemical_formula_sum   'Ba8 Na4 Ho4 Pb8'
_cell_volume   925.99370945
_cell_formula_units_Z   4
loop_
 _symmetry_equiv_pos_site_id
 _symmetry_equiv_pos_as_xyz
  1  'x, y, z'
loop_
 _atom_site_type_symbol
 _atom_site_label
 _atom_site_symmetry_multiplicity
 _atom_site_fract_x
 _atom_site_fract_y
 _atom_site_fract_z
 _atom_site_occupancy
  Ba  Ba0  1  0.075659  0.424339  0.249998  1
  Ba  Ba1  1  0.424342  0.075659  0.749997  1
  Ba  Ba2  1  0.924342  0.575659  0.750003  1
  Ba  Ba3  1  0.575659  0.924339  0.250002  1
  Ba  Ba4  1  0.671890  0.328111  0.220175  1
  Ba  Ba5  1  0.828112  0.171888  0.720179  1
  Ba  Ba6  1  0.328112  0.671888  0.779821  1
  Ba  Ba7  1  0.171890  0.828111  0.279825  1
  Na  Na8  1  0.379822  0.379821  0.999999  1
  Na  Na9  1  0.120178  0.120179  0.500001  1
  Na  Na10  1  0.620178  0.620179  0.999999  1
  Na  Na11  1  0.879822  0.879821  0.500001  1
  Ho  Ho12  1  0.127758  0.127759  0.000001  1
  Ho  Ho13  1  0.372242  0.372243  0.500001  1
  Ho  Ho14  1  0.872242  0.872243  0.999999  1
  Ho  Ho15  1  0.627758  0.627759  0.499999  1
  Pb  Pb16  1  0.860324  0.639674  0.249999  1
  Pb  Pb17  1  0.639674  0.860327  0.750001  1
  Pb  Pb18  1  0.139674  0.360327  0.749999  1
  Pb  Pb19  1  0.360324  0.139674  0.250001  1
  Pb  Pb20  1  0.886149  0.113849  0.222386  1
  Pb  Pb21  1  0.613850  0.386151  0.722384  1
  Pb  Pb22  1  0.113850  0.886151  0.777616  1
  Pb  Pb23  1  0.386149  0.613849  0.277614  1
