# generated using pymatgen
data_Zr6Be7Ni16
_symmetry_space_group_name_H-M   'P 1'
_cell_length_a   7.96595937
_cell_length_b   7.96596004
_cell_length_c   7.96596000
_cell_angle_alpha   60.00000016
_cell_angle_beta   59.99999739
_cell_angle_gamma   59.99999623
_symmetry_Int_Tables_number   1
_chemical_formula_structural   Zr6Be7Ni16
_chemical_formula_sum   'Zr6 Be7 Ni16'
_cell_volume   357.43684129
_cell_formula_units_Z   1
loop_
 _symmetry_equiv_pos_site_id
 _symmetry_equiv_pos_as_xyz
  1  'x, y, z'
loop_
 _atom_site_type_symbol
 _atom_site_label
 _atom_site_symmetry_multiplicity
 _atom_site_fract_x
 _atom_site_fract_y
 _atom_site_fract_z
 _atom_site_occupancy
  Zr  Zr0  1  0.791260  0.208740  0.791260  1
  Zr  Zr1  1  0.791260  0.791260  0.208740  1
  Zr  Zr2  1  0.208740  0.791260  0.791260  1
  Zr  Zr3  1  0.208740  0.208740  0.791260  1
  Zr  Zr4  1  0.791260  0.208740  0.208740  1
  Zr  Zr5  1  0.208740  0.791260  0.208740  1
  Be  Be6  1  0.000000  0.500000  0.000000  1
  Be  Be7  1  0.500000  0.500000  0.500000  1
  Be  Be8  1  0.500000  0.500000  0.000000  1
  Be  Be9  1  0.500000  0.000000  0.500000  1
  Be  Be10  1  0.000000  0.500000  0.500000  1
  Be  Be11  1  0.000000  0.000000  0.500000  1
  Be  Be12  1  0.500000  0.000000  0.000000  1
  Ni  Ni13  1  0.169684  0.169684  0.169684  1
  Ni  Ni14  1  0.619800  0.619800  0.140600  1
  Ni  Ni15  1  0.380200  0.380200  0.380200  1
  Ni  Ni16  1  0.169684  0.490948  0.169684  1
  Ni  Ni17  1  0.169684  0.169684  0.490948  1
  Ni  Ni18  1  0.140600  0.619800  0.619800  1
  Ni  Ni19  1  0.619800  0.140600  0.619800  1
  Ni  Ni20  1  0.830316  0.830316  0.830316  1
  Ni  Ni21  1  0.859400  0.380200  0.380200  1
  Ni  Ni22  1  0.380200  0.380200  0.859400  1
  Ni  Ni23  1  0.380200  0.859400  0.380200  1
  Ni  Ni24  1  0.509052  0.830316  0.830316  1
  Ni  Ni25  1  0.619800  0.619800  0.619800  1
  Ni  Ni26  1  0.830316  0.830316  0.509052  1
  Ni  Ni27  1  0.490948  0.169684  0.169684  1
  Ni  Ni28  1  0.830316  0.509052  0.830316  1
