# generated using pymatgen
data_U4Pa4B24MoW3
_symmetry_space_group_name_H-M   'P 1'
_cell_length_a   3.73525000
_cell_length_b   9.30386324
_cell_length_c   11.39812429
_cell_angle_alpha   89.97423829
_cell_angle_beta   90.00000000
_cell_angle_gamma   90.00000000
_symmetry_Int_Tables_number   1
_chemical_formula_structural   U4Pa4B24MoW3
_chemical_formula_sum   'U4 Pa4 B24 Mo1 W3'
_cell_volume   396.11048344
_cell_formula_units_Z   1
loop_
 _symmetry_equiv_pos_site_id
 _symmetry_equiv_pos_as_xyz
  1  'x, y, z'
loop_
 _atom_site_type_symbol
 _atom_site_label
 _atom_site_symmetry_multiplicity
 _atom_site_fract_x
 _atom_site_fract_y
 _atom_site_fract_z
 _atom_site_occupancy
  U  U0  1  0.000000  0.956266  0.395328  1
  U  U1  1  0.000000  0.043713  0.604972  1
  U  U2  1  0.000000  0.456279  0.104402  1
  U  U3  1  0.000000  0.543947  0.895134  1
  Pa  Pa4  1  0.000000  0.333991  0.407878  1
  Pa  Pa5  1  0.000000  0.665944  0.592132  1
  Pa  Pa6  1  0.000000  0.834060  0.092154  1
  Pa  Pa7  1  0.000000  0.165807  0.907827  1
  B  B8  1  0.500000  0.550865  0.432091  1
  B  B9  1  0.500000  0.449241  0.567934  1
  B  B10  1  0.500000  0.050793  0.067895  1
  B  B11  1  0.500000  0.949071  0.932014  1
  B  B12  1  0.500000  0.744211  0.423488  1
  B  B13  1  0.500000  0.255692  0.576612  1
  B  B14  1  0.500000  0.244206  0.076559  1
  B  B15  1  0.500000  0.755861  0.923347  1
  B  B16  1  0.500000  0.803098  0.273756  1
  B  B17  1  0.500000  0.196837  0.726266  1
  B  B18  1  0.500000  0.303108  0.226233  1
  B  B19  1  0.500000  0.696919  0.773754  1
  B  B20  1  0.500000  0.643781  0.187659  1
  B  B21  1  0.500000  0.356280  0.812378  1
  B  B22  1  0.500000  0.143745  0.312333  1
  B  B23  1  0.500000  0.856184  0.687765  1
  B  B24  1  0.500000  0.986916  0.219312  1
  B  B25  1  0.500000  0.012994  0.780675  1
  B  B26  1  0.500000  0.486936  0.280661  1
  B  B27  1  0.500000  0.513180  0.719348  1
  B  B28  1  0.500000  0.639622  0.038423  1
  B  B29  1  0.500000  0.360564  0.961395  1
  B  B30  1  0.500000  0.139428  0.461534  1
  B  B31  1  0.500000  0.860389  0.538675  1
  Mo  Mo32  1  0.000000  0.854311  0.819444  1
  W  W33  1  0.000000  0.645724  0.319509  1
  W  W34  1  0.000000  0.354335  0.680609  1
  W  W35  1  0.000000  0.145702  0.180503  1
