# generated using pymatgen
data_RbLi6OsO6
_symmetry_space_group_name_H-M   'P 1'
_cell_length_a   5.37100265
_cell_length_b   5.37099994
_cell_length_c   5.37100360
_cell_angle_alpha   101.24649578
_cell_angle_beta   101.24639727
_cell_angle_gamma   101.24662693
_symmetry_Int_Tables_number   1
_chemical_formula_structural   RbLi6OsO6
_chemical_formula_sum   'Rb1 Li6 Os1 O6'
_cell_volume   144.60660851
_cell_formula_units_Z   1
loop_
 _symmetry_equiv_pos_site_id
 _symmetry_equiv_pos_as_xyz
  1  'x, y, z'
loop_
 _atom_site_type_symbol
 _atom_site_label
 _atom_site_symmetry_multiplicity
 _atom_site_fract_x
 _atom_site_fract_y
 _atom_site_fract_z
 _atom_site_occupancy
  Rb  Rb0  1  0.500000  0.500000  0.500000  1
  Li  Li1  1  0.660219  0.339778  0.999999  1
  Li  Li2  1  0.339780  0.660221  0.000001  1
  Li  Li3  1  0.660220  0.000000  0.339780  1
  Li  Li4  1  0.000000  0.660219  0.339780  1
  Li  Li5  1  0.339780  0.000000  0.660220  1
  Li  Li6  1  0.000000  0.339781  0.660220  1
  Os  Os7  1  0.000000  0.000000  0.000000  1
  O  O8  1  0.728837  0.728840  0.082395  1
  O  O9  1  0.917607  0.271163  0.271163  1
  O  O10  1  0.271163  0.917604  0.271162  1
  O  O11  1  0.728838  0.082397  0.728839  1
  O  O12  1  0.082394  0.728838  0.728838  1
  O  O13  1  0.271164  0.271161  0.917606  1
