# generated using pymatgen
data_Tb6Lu4Si5Ge
_symmetry_space_group_name_H-M   'P 1'
_cell_length_a   8.41693300
_cell_length_b   8.41754917
_cell_length_c   6.27602800
_cell_angle_alpha   90.00000000
_cell_angle_beta   90.00000000
_cell_angle_gamma   119.99758248
_symmetry_Int_Tables_number   1
_chemical_formula_structural   Tb6Lu4Si5Ge
_chemical_formula_sum   'Tb6 Lu4 Si5 Ge1'
_cell_volume   385.09299228
_cell_formula_units_Z   1
loop_
 _symmetry_equiv_pos_site_id
 _symmetry_equiv_pos_as_xyz
  1  'x, y, z'
loop_
 _atom_site_type_symbol
 _atom_site_label
 _atom_site_symmetry_multiplicity
 _atom_site_fract_x
 _atom_site_fract_y
 _atom_site_fract_z
 _atom_site_occupancy
  Tb  Tb0  1  0.999032  0.754669  0.750000  1
  Tb  Tb1  1  0.999954  0.244595  0.250000  1
  Tb  Tb2  1  0.755359  0.755405  0.250000  1
  Tb  Tb3  1  0.756122  0.000000  0.750000  1
  Tb  Tb4  1  0.244363  0.245331  0.750000  1
  Tb  Tb5  1  0.244285  0.000000  0.250000  1
  Lu  Lu6  1  0.333202  0.665904  0.499397  1
  Lu  Lu7  1  0.667299  0.334096  0.000603  1
  Lu  Lu8  1  0.667299  0.334096  0.499397  1
  Lu  Lu9  1  0.333202  0.665904  0.000603  1
  Si  Si10  1  0.395667  0.395649  0.250000  1
  Si  Si11  1  0.000018  0.604351  0.250000  1
  Si  Si12  1  0.000002  0.395685  0.750000  1
  Si  Si13  1  0.604317  0.604315  0.750000  1
  Si  Si14  1  0.604482  0.000000  0.250000  1
  Ge  Ge15  1  0.395397  0.000000  0.750000  1
