# generated using pymatgen
data_Tb2Yb5Lu(Si4Mo3)4
_symmetry_space_group_name_H-M   'P 1'
_cell_length_a   6.72988628
_cell_length_b   6.94331614
_cell_length_c   12.99337202
_cell_angle_alpha   89.88862967
_cell_angle_beta   89.98321988
_cell_angle_gamma   89.93621560
_symmetry_Int_Tables_number   1
_chemical_formula_structural   Tb2Yb5Lu(Si4Mo3)4
_chemical_formula_sum   'Tb2 Yb5 Lu1 Si16 Mo12'
_cell_volume   607.14920491
_cell_formula_units_Z   1
loop_
 _symmetry_equiv_pos_site_id
 _symmetry_equiv_pos_as_xyz
  1  'x, y, z'
loop_
 _atom_site_type_symbol
 _atom_site_label
 _atom_site_symmetry_multiplicity
 _atom_site_fract_x
 _atom_site_fract_y
 _atom_site_fract_z
 _atom_site_occupancy
  Tb  Tb0  1  0.999960  0.830804  0.594136  1
  Tb  Tb1  1  0.499762  0.332170  0.406050  1
  Yb  Yb2  1  0.498165  0.335197  0.090404  1
  Yb  Yb3  1  0.997847  0.166592  0.407878  1
  Yb  Yb4  1  0.501570  0.666903  0.592256  1
  Yb  Yb5  1  0.001441  0.831871  0.908127  1
  Yb  Yb6  1  0.501216  0.666393  0.910242  1
  Lu  Lu7  1  0.998484  0.169733  0.093505  1
  Si  Si8  1  0.658483  0.042585  0.545398  1
  Si  Si9  1  0.158448  0.456570  0.955160  1
  Si  Si10  1  0.338762  0.959469  0.045983  1
  Si  Si11  1  0.841911  0.542863  0.454018  1
  Si  Si12  1  0.340106  0.956080  0.454104  1
  Si  Si13  1  0.841879  0.541988  0.045760  1
  Si  Si14  1  0.660186  0.042058  0.955210  1
  Si  Si15  1  0.160003  0.455747  0.545228  1
  Si  Si16  1  0.534088  0.371896  0.750462  1
  Si  Si17  1  0.034768  0.127991  0.750137  1
  Si  Si18  1  0.465297  0.632361  0.248536  1
  Si  Si19  1  0.966147  0.871375  0.249267  1
  Si  Si20  1  0.799672  0.628046  0.751796  1
  Si  Si21  1  0.303829  0.869515  0.751823  1
  Si  Si22  1  0.197059  0.369386  0.248593  1
  Si  Si23  1  0.698658  0.130084  0.248543  1
  Mo  Mo24  1  0.833088  0.333197  0.626348  1
  Mo  Mo25  1  0.333045  0.168011  0.873470  1
  Mo  Mo26  1  0.166685  0.666610  0.126142  1
  Mo  Mo27  1  0.667632  0.833871  0.373663  1
  Mo  Mo28  1  0.167264  0.666519  0.372755  1
  Mo  Mo29  1  0.668505  0.834983  0.126583  1
  Mo  Mo30  1  0.835263  0.330157  0.873403  1
  Mo  Mo31  1  0.333531  0.167017  0.626531  1
  Mo  Mo32  1  0.662167  0.007286  0.749991  1
  Mo  Mo33  1  0.162010  0.492275  0.749318  1
  Mo  Mo34  1  0.335753  0.996827  0.249914  1
  Mo  Mo35  1  0.837317  0.505569  0.249268  1
