# generated using pymatgen
data_Er16Co3Ag4Rh
_symmetry_space_group_name_H-M   'P 1'
_cell_length_a   9.36930745
_cell_length_b   9.36930646
_cell_length_c   9.36930683
_cell_angle_alpha   59.66548902
_cell_angle_beta   59.66548914
_cell_angle_gamma   59.66549088
_symmetry_Int_Tables_number   1
_chemical_formula_structural   Er16Co3Ag4Rh
_chemical_formula_sum   'Er16 Co3 Ag4 Rh1'
_cell_volume   577.15725994
_cell_formula_units_Z   1
loop_
 _symmetry_equiv_pos_site_id
 _symmetry_equiv_pos_as_xyz
  1  'x, y, z'
loop_
 _atom_site_type_symbol
 _atom_site_label
 _atom_site_symmetry_multiplicity
 _atom_site_fract_x
 _atom_site_fract_y
 _atom_site_fract_z
 _atom_site_occupancy
  Er  Er0  1  0.187824  0.187824  0.811738  1
  Er  Er1  1  0.437371  0.062469  0.062469  1
  Er  Er2  1  0.435933  0.063132  0.435933  1
  Er  Er3  1  0.062469  0.437371  0.062469  1
  Er  Er4  1  0.645936  0.050471  0.645936  1
  Er  Er5  1  0.193949  0.811687  0.811687  1
  Er  Er6  1  0.062469  0.062469  0.437371  1
  Er  Er7  1  0.811738  0.187824  0.187824  1
  Er  Er8  1  0.811687  0.811687  0.193949  1
  Er  Er9  1  0.645936  0.645936  0.050471  1
  Er  Er10  1  0.653647  0.653647  0.653647  1
  Er  Er11  1  0.063132  0.435933  0.435933  1
  Er  Er12  1  0.050471  0.645936  0.645936  1
  Er  Er13  1  0.811687  0.193949  0.811687  1
  Er  Er14  1  0.435933  0.435933  0.063132  1
  Er  Er15  1  0.187824  0.811738  0.187824  1
  Co  Co16  1  0.859216  0.424879  0.859216  1
  Co  Co17  1  0.859216  0.859216  0.424879  1
  Co  Co18  1  0.424879  0.859216  0.859216  1
  Ag  Ag19  1  0.418993  0.745211  0.418993  1
  Ag  Ag20  1  0.418993  0.418993  0.745211  1
  Ag  Ag21  1  0.745211  0.418993  0.418993  1
  Ag  Ag22  1  0.417914  0.417914  0.417914  1
  Rh  Rh23  1  0.857573  0.857573  0.857573  1
