# generated using pymatgen
data_Pa3Ga3IrPd2
_symmetry_space_group_name_H-M   'P 1'
_cell_length_a   7.04507800
_cell_length_b   7.04507618
_cell_length_c   8.29488900
_cell_angle_alpha   90.00000000
_cell_angle_beta   90.00000000
_cell_angle_gamma   119.99999914
_symmetry_Int_Tables_number   1
_chemical_formula_structural   Pa3Ga3IrPd2
_chemical_formula_sum   'Pa6 Ga6 Ir2 Pd4'
_cell_volume   356.54365638
_cell_formula_units_Z   2
loop_
 _symmetry_equiv_pos_site_id
 _symmetry_equiv_pos_as_xyz
  1  'x, y, z'
loop_
 _atom_site_type_symbol
 _atom_site_label
 _atom_site_symmetry_multiplicity
 _atom_site_fract_x
 _atom_site_fract_y
 _atom_site_fract_z
 _atom_site_occupancy
  Pa  Pa0  1  0.762466  0.085986  0.000000  1
  Pa  Pa1  1  0.323519  0.237534  0.000000  1
  Pa  Pa2  1  0.914014  0.676481  0.000000  1
  Pa  Pa3  1  0.325303  0.238382  0.500000  1
  Pa  Pa4  1  0.761618  0.086921  0.500000  1
  Pa  Pa5  1  0.913079  0.674697  0.500000  1
  Ga  Ga6  1  0.575445  0.664948  0.750101  1
  Ga  Ga7  1  0.089503  0.424555  0.750101  1
  Ga  Ga8  1  0.335052  0.910497  0.750101  1
  Ga  Ga9  1  0.575445  0.664948  0.249899  1
  Ga  Ga10  1  0.089503  0.424555  0.249899  1
  Ga  Ga11  1  0.335052  0.910497  0.249899  1
  Ir  Ir12  1  0.000000  0.000000  0.250285  1
  Ir  Ir13  1  0.000000  0.000000  0.749715  1
  Pd  Pd14  1  0.333333  0.666667  0.000000  1
  Pd  Pd15  1  0.333333  0.666667  0.500000  1
  Pd  Pd16  1  0.666667  0.333333  0.751565  1
  Pd  Pd17  1  0.666667  0.333333  0.248435  1
