# generated using pymatgen
data_HoEr2In4CoPt
_symmetry_space_group_name_H-M   'P 1'
_cell_length_a   7.91620546
_cell_length_b   7.91287241
_cell_length_c   3.69804500
_cell_angle_alpha   90.00000000
_cell_angle_beta   90.00000000
_cell_angle_gamma   119.97486068
_symmetry_Int_Tables_number   1
_chemical_formula_structural   HoEr2In4CoPt
_chemical_formula_sum   'Ho1 Er2 In4 Co1 Pt1'
_cell_volume   200.66147662
_cell_formula_units_Z   1
loop_
 _symmetry_equiv_pos_site_id
 _symmetry_equiv_pos_as_xyz
  1  'x, y, z'
loop_
 _atom_site_type_symbol
 _atom_site_label
 _atom_site_symmetry_multiplicity
 _atom_site_fract_x
 _atom_site_fract_y
 _atom_site_fract_z
 _atom_site_occupancy
  Ho  Ho0  1  0.699206  0.957626  0.500000  1
  Er  Er1  1  0.258266  0.300255  0.500000  1
  Er  Er2  1  0.042016  0.741745  0.500000  1
  In  In3  1  0.918546  0.340501  0.000000  1
  In  In4  1  0.421579  0.081805  0.000000  1
  In  In5  1  0.660056  0.578163  0.000000  1
  In  In6  1  0.332996  0.666442  0.000000  1
  Co  Co7  1  0.666533  0.333358  0.500000  1
  Pt  Pt8  1  0.000803  0.000106  0.000000  1
