# generated using pymatgen
data_Cs16Si15Ge
_symmetry_space_group_name_H-M   'P 1'
_cell_length_a   12.36377790
_cell_length_b   12.38892550
_cell_length_c   12.37011400
_cell_angle_alpha   124.73420052
_cell_angle_beta   124.63651117
_cell_angle_gamma   82.10624858
_symmetry_Int_Tables_number   1
_chemical_formula_structural   Cs16Si15Ge
_chemical_formula_sum   'Cs16 Si15 Ge1'
_cell_volume   1231.47242718
_cell_formula_units_Z   1
loop_
 _symmetry_equiv_pos_site_id
 _symmetry_equiv_pos_as_xyz
  1  'x, y, z'
loop_
 _atom_site_type_symbol
 _atom_site_label
 _atom_site_symmetry_multiplicity
 _atom_site_fract_x
 _atom_site_fract_y
 _atom_site_fract_z
 _atom_site_occupancy
  Cs  Cs0  1  0.265195  0.875162  0.890311  1
  Cs  Cs1  1  0.984695  0.374990  0.109676  1
  Cs  Cs2  1  0.625044  0.234568  0.109703  1
  Cs  Cs3  1  0.124726  0.515178  0.890276  1
  Cs  Cs4  1  0.624993  0.734674  0.609662  1
  Cs  Cs5  1  0.125000  0.015316  0.390328  1
  Cs  Cs6  1  0.765680  0.875240  0.390792  1
  Cs  Cs7  1  0.484710  0.374761  0.609410  1
  Cs  Cs8  1  0.371018  0.370996  0.242057  1
  Cs  Cs9  1  0.128977  0.128984  0.757980  1
  Cs  Cs10  1  0.879008  0.621003  0.499993  1
  Cs  Cs11  1  0.120752  0.378768  0.499632  1
  Cs  Cs12  1  0.378900  0.879247  0.258280  1
  Cs  Cs13  1  0.621022  0.120961  0.741992  1
  Cs  Cs14  1  0.871013  0.628960  0.000021  1
  Cs  Cs15  1  0.629206  0.871276  0.000063  1
  Si  Si16  1  0.636670  0.487374  0.033597  1
  Si  Si17  1  0.794042  0.261114  0.646974  1
  Si  Si18  1  0.613984  0.147014  0.352927  1
  Si  Si19  1  0.897087  0.044031  0.033066  1
  Si  Si20  1  0.010999  0.864192  0.966929  1
  Si  Si21  1  0.238998  0.705855  0.353012  1
  Si  Si22  1  0.352983  0.885941  0.647093  1
  Si  Si23  1  0.294006  0.647260  0.533040  1
  Si  Si24  1  0.114024  0.761001  0.466992  1
  Si  Si25  1  0.955981  0.988845  0.853019  1
  Si  Si26  1  0.136032  0.102931  0.147067  1
  Si  Si27  1  0.852942  0.205922  0.466937  1
  Si  Si28  1  0.739021  0.385757  0.533064  1
  Si  Si29  1  0.511719  0.542540  0.147634  1
  Si  Si30  1  0.397701  0.362381  0.853411  1
  Ge  Ge31  1  0.453871  0.607758  0.965059  1
