# generated using pymatgen
data_Dy3Mg2Hg3C
_symmetry_space_group_name_H-M   'P 1'
_cell_length_a   8.80505700
_cell_length_b   8.80505721
_cell_length_c   6.05169000
_cell_angle_alpha   90.00000000
_cell_angle_beta   90.00000000
_cell_angle_gamma   120.00000296
_symmetry_Int_Tables_number   1
_chemical_formula_structural   Dy3Mg2Hg3C
_chemical_formula_sum   'Dy6 Mg4 Hg6 C2'
_cell_volume   406.32322394
_cell_formula_units_Z   2
loop_
 _symmetry_equiv_pos_site_id
 _symmetry_equiv_pos_as_xyz
  1  'x, y, z'
loop_
 _atom_site_type_symbol
 _atom_site_label
 _atom_site_symmetry_multiplicity
 _atom_site_fract_x
 _atom_site_fract_y
 _atom_site_fract_z
 _atom_site_occupancy
  Dy  Dy0  1  0.782583  0.782583  0.750000  1
  Dy  Dy1  1  0.217417  0.000000  0.750000  1
  Dy  Dy2  1  0.000000  0.217417  0.750000  1
  Dy  Dy3  1  0.217417  0.217417  0.250000  1
  Dy  Dy4  1  0.782583  0.000000  0.250000  1
  Dy  Dy5  1  0.000000  0.782583  0.250000  1
  Mg  Mg6  1  0.666667  0.333333  0.000000  1
  Mg  Mg7  1  0.333333  0.666667  0.000000  1
  Mg  Mg8  1  0.333333  0.666667  0.500000  1
  Mg  Mg9  1  0.666667  0.333333  0.500000  1
  Hg  Hg10  1  0.411361  0.411361  0.750000  1
  Hg  Hg11  1  0.588639  0.000000  0.750000  1
  Hg  Hg12  1  0.000000  0.588639  0.750000  1
  Hg  Hg13  1  0.588639  0.588639  0.250000  1
  Hg  Hg14  1  0.411361  0.000000  0.250000  1
  Hg  Hg15  1  0.000000  0.411361  0.250000  1
  C  C16  1  0.000000  0.000000  0.000000  1
  C  C17  1  0.000000  0.000000  0.500000  1
