# generated using pymatgen
data_Y3Si3P3Pd20
_symmetry_space_group_name_H-M   'P 1'
_cell_length_a   8.69688728
_cell_length_b   8.69366865
_cell_length_c   8.69012808
_cell_angle_alpha   60.03796530
_cell_angle_beta   60.00119794
_cell_angle_gamma   59.96082858
_symmetry_Int_Tables_number   1
_chemical_formula_structural   Y3Si3P3Pd20
_chemical_formula_sum   'Y3 Si3 P3 Pd20'
_cell_volume   464.59837195
_cell_formula_units_Z   1
loop_
 _symmetry_equiv_pos_site_id
 _symmetry_equiv_pos_as_xyz
  1  'x, y, z'
loop_
 _atom_site_type_symbol
 _atom_site_label
 _atom_site_symmetry_multiplicity
 _atom_site_fract_x
 _atom_site_fract_y
 _atom_site_fract_z
 _atom_site_occupancy
  Y  Y0  1  0.249327  0.250673  0.249327  1
  Y  Y1  1  0.749327  0.750673  0.749327  1
  Y  Y2  1  0.000494  0.999506  0.000494  1
  Si  Si3  1  0.733767  0.266233  0.264798  1
  Si  Si4  1  0.264798  0.735202  0.733767  1
  Si  Si5  1  0.266217  0.733783  0.266217  1
  P  P6  1  0.735854  0.264146  0.735854  1
  P  P7  1  0.263121  0.265000  0.735000  1
  P  P8  1  0.735000  0.736879  0.263121  1
  Pd  Pd9  1  0.383547  0.383327  0.386122  1
  Pd  Pd10  1  0.616601  0.614575  0.614421  1
  Pd  Pd11  1  0.385425  0.383399  0.845598  1
  Pd  Pd12  1  0.386122  0.847005  0.383547  1
  Pd  Pd13  1  0.616673  0.616453  0.152995  1
  Pd  Pd14  1  0.614421  0.154402  0.616601  1
  Pd  Pd15  1  0.845598  0.385579  0.385425  1
  Pd  Pd16  1  0.152995  0.613878  0.616673  1
  Pd  Pd17  1  0.345312  0.000878  0.999122  1
  Pd  Pd18  1  0.654954  0.000644  0.999356  1
  Pd  Pd19  1  0.999356  0.345046  0.654954  1
  Pd  Pd20  1  0.999122  0.654688  0.345312  1
  Pd  Pd21  1  0.001899  0.344763  0.000130  1
  Pd  Pd22  1  0.655237  0.998101  0.346792  1
  Pd  Pd23  1  0.000130  0.653208  0.001899  1
  Pd  Pd24  1  0.346792  0.999870  0.655237  1
  Pd  Pd25  1  0.999928  0.000072  0.346318  1
  Pd  Pd26  1  0.998496  0.001504  0.653170  1
  Pd  Pd27  1  0.653170  0.346830  0.998496  1
  Pd  Pd28  1  0.346318  0.653682  0.999928  1
