# generated using pymatgen
data_TmPtF7
_symmetry_space_group_name_H-M   'P 1'
_cell_length_a   5.47408000
_cell_length_b   8.80102645
_cell_length_c   11.89081084
_cell_angle_alpha   62.48264004
_cell_angle_beta   90.00000000
_cell_angle_gamma   90.00000000
_symmetry_Int_Tables_number   1
_chemical_formula_structural   TmPtF7
_chemical_formula_sum   'Tm4 Pt4 F28'
_cell_volume   508.06155802
_cell_formula_units_Z   4
loop_
 _symmetry_equiv_pos_site_id
 _symmetry_equiv_pos_as_xyz
  1  'x, y, z'
loop_
 _atom_site_type_symbol
 _atom_site_label
 _atom_site_symmetry_multiplicity
 _atom_site_fract_x
 _atom_site_fract_y
 _atom_site_fract_z
 _atom_site_occupancy
  Tm  Tm0  1  0.262075  0.816045  0.263186  1
  Tm  Tm1  1  0.737925  0.183955  0.736814  1
  Tm  Tm2  1  0.762075  0.183955  0.236814  1
  Tm  Tm3  1  0.237925  0.816045  0.763186  1
  Pt  Pt4  1  0.759247  0.727321  0.042231  1
  Pt  Pt5  1  0.240753  0.272679  0.957769  1
  Pt  Pt6  1  0.259247  0.272679  0.457769  1
  Pt  Pt7  1  0.740753  0.727321  0.542231  1
  F  F8  1  0.940071  0.706647  0.412578  1
  F  F9  1  0.059929  0.293353  0.587422  1
  F  F10  1  0.440071  0.293353  0.087422  1
  F  F11  1  0.559929  0.706647  0.912578  1
  F  F12  1  0.463605  0.727921  0.135871  1
  F  F13  1  0.536395  0.272079  0.864129  1
  F  F14  1  0.963605  0.272079  0.364129  1
  F  F15  1  0.036395  0.727921  0.635871  1
  F  F16  1  0.953495  0.742199  0.176297  1
  F  F17  1  0.046505  0.257801  0.823703  1
  F  F18  1  0.453495  0.257801  0.323703  1
  F  F19  1  0.546505  0.742199  0.676297  1
  F  F20  1  0.769226  0.476222  0.141429  1
  F  F21  1  0.230774  0.523778  0.858571  1
  F  F22  1  0.269226  0.523778  0.358571  1
  F  F23  1  0.730774  0.476222  0.641429  1
  F  F24  1  0.938151  0.280209  0.044914  1
  F  F25  1  0.061849  0.719791  0.955086  1
  F  F26  1  0.438151  0.719791  0.455086  1
  F  F27  1  0.561849  0.280209  0.544914  1
  F  F28  1  0.739185  0.978392  0.447704  1
  F  F29  1  0.260815  0.021608  0.552296  1
  F  F30  1  0.239185  0.021608  0.052296  1
  F  F31  1  0.760815  0.978392  0.947704  1
  F  F32  1  0.588862  0.968986  0.231789  1
  F  F33  1  0.411138  0.031014  0.768211  1
  F  F34  1  0.088862  0.031014  0.268211  1
  F  F35  1  0.911138  0.968986  0.731789  1
