# generated using pymatgen
data_Tb7Nd(LuSn4)2
_symmetry_space_group_name_H-M   'P 1'
_cell_length_a   8.02769944
_cell_length_b   8.19198900
_cell_length_c   15.51222438
_cell_angle_alpha   90.00000000
_cell_angle_beta   89.83362172
_cell_angle_gamma   90.00000000
_symmetry_Int_Tables_number   1
_chemical_formula_structural   Tb7Nd(LuSn4)2
_chemical_formula_sum   'Tb14 Nd2 Lu4 Sn16'
_cell_volume   1020.12340491
_cell_formula_units_Z   2
loop_
 _symmetry_equiv_pos_site_id
 _symmetry_equiv_pos_as_xyz
  1  'x, y, z'
loop_
 _atom_site_type_symbol
 _atom_site_label
 _atom_site_symmetry_multiplicity
 _atom_site_fract_x
 _atom_site_fract_y
 _atom_site_fract_z
 _atom_site_occupancy
  Tb  Tb0  1  0.018885  0.180167  0.402365  1
  Tb  Tb1  1  0.365725  0.837854  0.121533  1
  Tb  Tb2  1  0.134969  0.337928  0.622096  1
  Tb  Tb3  1  0.480869  0.680044  0.902932  1
  Tb  Tb4  1  0.865761  0.662252  0.121714  1
  Tb  Tb5  1  0.134275  0.337854  0.878467  1
  Tb  Tb6  1  0.481115  0.680167  0.597635  1
  Tb  Tb7  1  0.634814  0.162102  0.622323  1
  Tb  Tb8  1  0.865186  0.662102  0.377677  1
  Tb  Tb9  1  0.019131  0.180044  0.097068  1
  Tb  Tb10  1  0.980743  0.819783  0.902325  1
  Tb  Tb11  1  0.634239  0.162252  0.878286  1
  Tb  Tb12  1  0.519257  0.319783  0.097675  1
  Tb  Tb13  1  0.365031  0.837928  0.377904  1
  Nd  Nd14  1  0.981795  0.819571  0.596995  1
  Nd  Nd15  1  0.518205  0.319571  0.403005  1
  Lu  Lu16  1  0.196705  0.503533  0.249461  1
  Lu  Lu17  1  0.697223  0.996538  0.249599  1
  Lu  Lu18  1  0.303295  0.003533  0.750539  1
  Lu  Lu19  1  0.802777  0.496538  0.750401  1
  Sn  Sn20  1  0.794495  0.463666  0.543970  1
  Sn  Sn21  1  0.705505  0.963666  0.456030  1
  Sn  Sn22  1  0.671780  0.851073  0.750672  1
  Sn  Sn23  1  0.204026  0.537316  0.457070  1
  Sn  Sn24  1  0.292969  0.035296  0.956759  1
  Sn  Sn25  1  0.828220  0.351073  0.249328  1
  Sn  Sn26  1  0.793228  0.464660  0.956816  1
  Sn  Sn27  1  0.562067  0.619512  0.249575  1
  Sn  Sn28  1  0.207031  0.535296  0.043241  1
  Sn  Sn29  1  0.438064  0.381395  0.750148  1
  Sn  Sn30  1  0.175220  0.647311  0.751439  1
  Sn  Sn31  1  0.937933  0.119512  0.750425  1
  Sn  Sn32  1  0.295974  0.037316  0.542930  1
  Sn  Sn33  1  0.706772  0.964660  0.043184  1
  Sn  Sn34  1  0.324780  0.147311  0.248561  1
  Sn  Sn35  1  0.061936  0.881395  0.249852  1
