# generated using pymatgen
data_Tb7DyY12(CoSb2)4
_symmetry_space_group_name_H-M   'P 1'
_cell_length_a   7.94242868
_cell_length_b   8.72605468
_cell_length_c   12.24280696
_cell_angle_alpha   90.03068935
_cell_angle_beta   89.96647287
_cell_angle_gamma   89.96670268
_symmetry_Int_Tables_number   1
_chemical_formula_structural   Tb7DyY12(CoSb2)4
_chemical_formula_sum   'Tb7 Dy1 Y12 Co4 Sb8'
_cell_volume   848.50038834
_cell_formula_units_Z   1
loop_
 _symmetry_equiv_pos_site_id
 _symmetry_equiv_pos_as_xyz
  1  'x, y, z'
loop_
 _atom_site_type_symbol
 _atom_site_label
 _atom_site_symmetry_multiplicity
 _atom_site_fract_x
 _atom_site_fract_y
 _atom_site_fract_z
 _atom_site_occupancy
  Tb  Tb0  1  0.321011  0.034363  0.435054  1
  Tb  Tb1  1  0.178962  0.465756  0.935106  1
  Tb  Tb2  1  0.678980  0.534317  0.564924  1
  Tb  Tb3  1  0.178430  0.034154  0.935271  1
  Tb  Tb4  1  0.678994  0.965692  0.564960  1
  Tb  Tb5  1  0.821078  0.534517  0.064969  1
  Tb  Tb6  1  0.321007  0.465653  0.435062  1
  Dy  Dy7  1  0.822401  0.965512  0.064882  1
  Y  Y8  1  0.155004  0.750169  0.204022  1
  Y  Y9  1  0.655461  0.249912  0.295790  1
  Y  Y10  1  0.844649  0.249902  0.796062  1
  Y  Y11  1  0.344584  0.750042  0.704168  1
  Y  Y12  1  0.457555  0.750137  0.998525  1
  Y  Y13  1  0.957268  0.250020  0.501473  1
  Y  Y14  1  0.543056  0.249823  0.001512  1
  Y  Y15  1  0.042727  0.750013  0.498505  1
  Y  Y16  1  0.623642  0.750014  0.304101  1
  Y  Y17  1  0.123208  0.249817  0.195599  1
  Y  Y18  1  0.376437  0.249982  0.695780  1
  Y  Y19  1  0.876278  0.750261  0.804457  1
  Co  Co20  1  0.435470  0.749979  0.489869  1
  Co  Co21  1  0.935205  0.249650  0.010091  1
  Co  Co22  1  0.564518  0.250014  0.510145  1
  Co  Co23  1  0.063828  0.750498  0.990043  1
  Sb  Sb24  1  0.927821  0.991465  0.326543  1
  Sb  Sb25  1  0.428480  0.008412  0.173024  1
  Sb  Sb26  1  0.071990  0.491480  0.673221  1
  Sb  Sb27  1  0.572052  0.508504  0.826805  1
  Sb  Sb28  1  0.072014  0.008473  0.673200  1
  Sb  Sb29  1  0.571932  0.991488  0.826848  1
  Sb  Sb30  1  0.928009  0.508497  0.326816  1
  Sb  Sb31  1  0.427948  0.491482  0.173174  1
