# generated using pymatgen
data_PaTl3Se4
_symmetry_space_group_name_H-M   'P 1'
_cell_length_a   9.08776300
_cell_length_b   7.55033415
_cell_length_c   8.10752237
_cell_angle_alpha   70.29131800
_cell_angle_beta   90.00000000
_cell_angle_gamma   90.00000000
_symmetry_Int_Tables_number   1
_chemical_formula_structural   PaTl3Se4
_chemical_formula_sum   'Pa2 Tl6 Se8'
_cell_volume   523.71436814
_cell_formula_units_Z   2
loop_
 _symmetry_equiv_pos_site_id
 _symmetry_equiv_pos_as_xyz
  1  'x, y, z'
loop_
 _atom_site_type_symbol
 _atom_site_label
 _atom_site_symmetry_multiplicity
 _atom_site_fract_x
 _atom_site_fract_y
 _atom_site_fract_z
 _atom_site_occupancy
  Pa  Pa0  1  0.120464  0.250000  0.000000  1
  Pa  Pa1  1  0.879536  0.750000  0.000000  1
  Tl  Tl2  1  0.616687  0.250000  0.000000  1
  Tl  Tl3  1  0.383313  0.750000  0.000000  1
  Tl  Tl4  1  0.386123  0.250000  0.500000  1
  Tl  Tl5  1  0.870822  0.250000  0.500000  1
  Tl  Tl6  1  0.613877  0.750000  0.500000  1
  Tl  Tl7  1  0.129178  0.750000  0.500000  1
  Se  Se8  1  0.332032  0.044314  0.218884  1
  Se  Se9  1  0.099002  0.497388  0.199624  1
  Se  Se10  1  0.667968  0.544314  0.218884  1
  Se  Se11  1  0.900998  0.997388  0.199624  1
  Se  Se12  1  0.099002  0.002612  0.800376  1
  Se  Se13  1  0.332032  0.455686  0.781116  1
  Se  Se14  1  0.900998  0.502612  0.800376  1
  Se  Se15  1  0.667968  0.955686  0.781116  1
