# generated using pymatgen
data_Er4Tm(In2Ir)2
_symmetry_space_group_name_H-M   'P 1'
_cell_length_a   3.56974000
_cell_length_b   8.02892730
_cell_length_c   18.23320686
_cell_angle_alpha   90.06474601
_cell_angle_beta   90.00000000
_cell_angle_gamma   90.00000000
_symmetry_Int_Tables_number   1
_chemical_formula_structural   Er4Tm(In2Ir)2
_chemical_formula_sum   'Er8 Tm2 In8 Ir4'
_cell_volume   522.58494399
_cell_formula_units_Z   2
loop_
 _symmetry_equiv_pos_site_id
 _symmetry_equiv_pos_as_xyz
  1  'x, y, z'
loop_
 _atom_site_type_symbol
 _atom_site_label
 _atom_site_symmetry_multiplicity
 _atom_site_fract_x
 _atom_site_fract_y
 _atom_site_fract_z
 _atom_site_occupancy
  Er  Er0  1  0.000000  0.500000  0.500000  1
  Er  Er1  1  0.000000  0.000000  0.000000  1
  Er  Er2  1  0.000000  0.753659  0.777896  1
  Er  Er3  1  0.000000  0.246341  0.222104  1
  Er  Er4  1  0.000000  0.618174  0.087720  1
  Er  Er5  1  0.000000  0.381826  0.912280  1
  Er  Er6  1  0.000000  0.882553  0.587763  1
  Er  Er7  1  0.000000  0.117447  0.412237  1
  Tm  Tm8  1  0.000000  0.745995  0.277882  1
  Tm  Tm9  1  0.000000  0.254005  0.722118  1
  In  In10  1  0.500000  0.706285  0.932821  1
  In  In11  1  0.500000  0.293715  0.067179  1
  In  In12  1  0.500000  0.792506  0.432661  1
  In  In13  1  0.500000  0.207494  0.567339  1
  In  In14  1  0.500000  0.567813  0.648443  1
  In  In15  1  0.500000  0.432187  0.351557  1
  In  In16  1  0.500000  0.931783  0.148532  1
  In  In17  1  0.500000  0.068217  0.851468  1
  Ir  Ir18  1  0.500000  0.524239  0.196742  1
  Ir  Ir19  1  0.500000  0.475761  0.803258  1
  Ir  Ir20  1  0.500000  0.978069  0.696542  1
  Ir  Ir21  1  0.500000  0.021931  0.303458  1
