# generated using pymatgen
data_Tb4As6Ir4Ru3
_symmetry_space_group_name_H-M   'P 1'
_cell_length_a   7.28025744
_cell_length_b   7.28219675
_cell_length_c   7.28219759
_cell_angle_alpha   109.50389821
_cell_angle_beta   109.46028564
_cell_angle_gamma   109.46026939
_symmetry_Int_Tables_number   1
_chemical_formula_structural   Tb4As6Ir4Ru3
_chemical_formula_sum   'Tb4 As6 Ir4 Ru3'
_cell_volume   297.16099051
_cell_formula_units_Z   1
loop_
 _symmetry_equiv_pos_site_id
 _symmetry_equiv_pos_as_xyz
  1  'x, y, z'
loop_
 _atom_site_type_symbol
 _atom_site_label
 _atom_site_symmetry_multiplicity
 _atom_site_fract_x
 _atom_site_fract_y
 _atom_site_fract_z
 _atom_site_occupancy
  Tb  Tb0  1  0.000000  0.000077  0.499894  1
  Tb  Tb1  1  0.500000  0.999906  0.000094  1
  Tb  Tb2  1  0.000000  0.500106  0.999923  1
  Tb  Tb3  1  0.500000  0.499906  0.500094  1
  As  As4  1  0.678548  0.681546  0.997002  1
  As  As5  1  0.315392  0.318259  0.997133  1
  As  As6  1  0.000000  0.677358  0.683215  1
  As  As7  1  0.000000  0.316785  0.322642  1
  As  As8  1  0.684608  0.002867  0.681741  1
  As  As9  1  0.321452  0.002998  0.318454  1
  Ir  Ir10  1  0.500000  0.250728  0.749272  1
  Ir  Ir11  1  0.500000  0.750728  0.249272  1
  Ir  Ir12  1  0.748425  0.498935  0.249490  1
  Ir  Ir13  1  0.251575  0.750510  0.501065  1
  Ru  Ru14  1  0.000000  0.999868  0.000132  1
  Ru  Ru15  1  0.250705  0.500065  0.750641  1
  Ru  Ru16  1  0.749295  0.249359  0.499935  1
