# generated using pymatgen
data_Yb3Mg(BrO3)8
_symmetry_space_group_name_H-M   'P 1'
_cell_length_a   5.81249737
_cell_length_b   11.09414685
_cell_length_c   11.17062100
_cell_angle_alpha   119.38874148
_cell_angle_beta   90.27790916
_cell_angle_gamma   90.05887363
_symmetry_Int_Tables_number   1
_chemical_formula_structural   Yb3Mg(BrO3)8
_chemical_formula_sum   'Yb3 Mg1 Br8 O24'
_cell_volume   627.62233856
_cell_formula_units_Z   1
loop_
 _symmetry_equiv_pos_site_id
 _symmetry_equiv_pos_as_xyz
  1  'x, y, z'
loop_
 _atom_site_type_symbol
 _atom_site_label
 _atom_site_symmetry_multiplicity
 _atom_site_fract_x
 _atom_site_fract_y
 _atom_site_fract_z
 _atom_site_occupancy
  Yb  Yb0  1  0.640953  0.237196  0.491965  1
  Yb  Yb1  1  0.139337  0.266998  0.008084  1
  Yb  Yb2  1  0.632593  0.732518  0.993456  1
  Mg  Mg3  1  0.149154  0.761928  0.508933  1
  Br  Br4  1  0.265557  0.428241  0.357342  1
  Br  Br5  1  0.778674  0.591682  0.646792  1
  Br  Br6  1  0.264793  0.913047  0.838873  1
  Br  Br7  1  0.762298  0.082988  0.144044  1
  Br  Br8  1  0.792887  0.068872  0.677982  1
  Br  Br9  1  0.275977  0.906545  0.318672  1
  Br  Br10  1  0.279923  0.412829  0.801681  1
  Br  Br11  1  0.790299  0.593951  0.209990  1
  O  O12  1  0.424661  0.873936  0.940620  1
  O  O13  1  0.927112  0.111055  0.037230  1
  O  O14  1  0.367848  0.808643  0.678922  1
  O  O15  1  0.860314  0.195505  0.302413  1
  O  O16  1  0.372048  0.322480  0.199433  1
  O  O17  1  0.873492  0.697121  0.808246  1
  O  O18  1  0.919814  0.203865  0.813297  1
  O  O19  1  0.413305  0.778765  0.183780  1
  O  O20  1  0.942754  0.927961  0.652241  1
  O  O21  1  0.414085  0.051798  0.347872  1
  O  O22  1  0.362842  0.071623  0.878575  1
  O  O23  1  0.853018  0.928550  0.119893  1
  O  O24  1  0.417969  0.276661  0.676535  1
  O  O25  1  0.939718  0.724942  0.337657  1
  O  O26  1  0.341000  0.404762  0.944984  1
  O  O27  1  0.848164  0.610222  0.071033  1
  O  O28  1  0.425897  0.552927  0.822667  1
  O  O29  1  0.925622  0.446998  0.177903  1
  O  O30  1  0.358150  0.587022  0.391484  1
  O  O31  1  0.866831  0.433414  0.614433  1
  O  O32  1  0.426535  0.394098  0.462317  1
  O  O33  1  0.947012  0.623412  0.543002  1
  O  O34  1  0.856761  0.093319  0.544544  1
  O  O35  1  0.352196  0.884132  0.453103  1
