# generated using pymatgen
data_BaLiBiSe3
_symmetry_space_group_name_H-M   'P 1'
_cell_length_a   7.37366300
_cell_length_b   7.37366318
_cell_length_c   10.96306000
_cell_angle_alpha   90.00000000
_cell_angle_beta   90.00000000
_cell_angle_gamma   145.92832589
_symmetry_Int_Tables_number   1
_chemical_formula_structural   BaLiBiSe3
_chemical_formula_sum   'Ba2 Li2 Bi2 Se6'
_cell_volume   333.93687883
_cell_formula_units_Z   2
loop_
 _symmetry_equiv_pos_site_id
 _symmetry_equiv_pos_as_xyz
  1  'x, y, z'
loop_
 _atom_site_type_symbol
 _atom_site_label
 _atom_site_symmetry_multiplicity
 _atom_site_fract_x
 _atom_site_fract_y
 _atom_site_fract_z
 _atom_site_occupancy
  Ba  Ba0  1  0.748760  0.251241  0.250000  1
  Ba  Ba1  1  0.251241  0.748760  0.750000  1
  Li  Li2  1  0.470985  0.529016  0.250000  1
  Li  Li3  1  0.529016  0.470985  0.750000  1
  Bi  Bi4  1  0.000000  0.000000  0.000000  1
  Bi  Bi5  1  0.000000  0.000000  0.500000  1
  Se  Se6  1  0.361754  0.638248  0.060063  1
  Se  Se7  1  0.071331  0.928670  0.250000  1
  Se  Se8  1  0.361754  0.638248  0.439936  1
  Se  Se9  1  0.638248  0.361754  0.560064  1
  Se  Se10  1  0.928670  0.071331  0.750000  1
  Se  Se11  1  0.638248  0.361754  0.939936  1
