# generated using pymatgen
data_Yb3Tl2PdPt2Pb
_symmetry_space_group_name_H-M   'P 1'
_cell_length_a   7.87660301
_cell_length_b   7.87591398
_cell_length_c   3.83929500
_cell_angle_alpha   90.00000000
_cell_angle_beta   90.00000000
_cell_angle_gamma   119.99710609
_symmetry_Int_Tables_number   1
_chemical_formula_structural   Yb3Tl2PdPt2Pb
_chemical_formula_sum   'Yb3 Tl2 Pd1 Pt2 Pb1'
_cell_volume   206.26934991
_cell_formula_units_Z   1
loop_
 _symmetry_equiv_pos_site_id
 _symmetry_equiv_pos_as_xyz
  1  'x, y, z'
loop_
 _atom_site_type_symbol
 _atom_site_label
 _atom_site_symmetry_multiplicity
 _atom_site_fract_x
 _atom_site_fract_y
 _atom_site_fract_z
 _atom_site_occupancy
  Yb  Yb0  1  0.405908  0.404937  0.500000  1
  Yb  Yb1  1  0.594092  0.999029  0.500000  1
  Yb  Yb2  1  0.000000  0.599816  0.500000  1
  Tl  Tl3  1  0.728521  0.730624  0.000000  1
  Tl  Tl4  1  0.271479  0.002103  0.000000  1
  Pd  Pd5  1  0.000000  0.000562  0.500000  1
  Pt  Pt6  1  0.669936  0.332948  0.000000  1
  Pt  Pt7  1  0.330064  0.663013  0.000000  1
  Pb  Pb8  1  0.000000  0.266968  0.000000  1
