# generated using pymatgen
data_Ba5SrOs3O16
_symmetry_space_group_name_H-M   'P 1'
_cell_length_a   6.08915926
_cell_length_b   6.11385029
_cell_length_c   10.88721733
_cell_angle_alpha   93.73084812
_cell_angle_beta   93.47766206
_cell_angle_gamma   90.00418771
_symmetry_Int_Tables_number   1
_chemical_formula_structural   Ba5SrOs3O16
_chemical_formula_sum   'Ba5 Sr1 Os3 O16'
_cell_volume   403.70454903
_cell_formula_units_Z   1
loop_
 _symmetry_equiv_pos_site_id
 _symmetry_equiv_pos_as_xyz
  1  'x, y, z'
loop_
 _atom_site_type_symbol
 _atom_site_label
 _atom_site_symmetry_multiplicity
 _atom_site_fract_x
 _atom_site_fract_y
 _atom_site_fract_z
 _atom_site_occupancy
  Ba  Ba0  1  0.511204  0.027192  0.205476  1
  Ba  Ba1  1  0.029370  0.503979  0.208087  1
  Ba  Ba2  1  0.999998  0.999996  0.500008  1
  Ba  Ba3  1  0.970637  0.496003  0.791884  1
  Ba  Ba4  1  0.488784  0.972810  0.794491  1
  Sr  Sr5  1  0.500003  0.500002  0.999991  1
  Os  Os6  1  0.000001  0.000001  0.000032  1
  Os  Os7  1  0.558209  0.557722  0.393153  1
  Os  Os8  1  0.441797  0.442299  0.606842  1
  O  O9  1  0.739852  0.181804  0.002824  1
  O  O10  1  0.822587  0.745982  0.021176  1
  O  O11  1  0.045997  0.048112  0.171236  1
  O  O12  1  0.471552  0.468287  0.217661  1
  O  O13  1  0.756847  0.757308  0.332780  1
  O  O14  1  0.321126  0.747111  0.380855  1
  O  O15  1  0.752394  0.324327  0.381620  1
  O  O16  1  0.330248  0.327062  0.440575  1
  O  O17  1  0.669750  0.672944  0.559433  1
  O  O18  1  0.247627  0.675640  0.618384  1
  O  O19  1  0.678848  0.252903  0.619145  1
  O  O20  1  0.243171  0.242712  0.667201  1
  O  O21  1  0.528447  0.531711  0.782323  1
  O  O22  1  0.953990  0.951870  0.828775  1
  O  O23  1  0.177409  0.254011  0.978855  1
  O  O24  1  0.260151  0.818201  0.997206  1
