# generated using pymatgen
data_Th5P12Ir8Ru11
_symmetry_space_group_name_H-M   'P 1'
_cell_length_a   12.76987505
_cell_length_b   12.68993072
_cell_length_c   4.01607600
_cell_angle_alpha   90.00000000
_cell_angle_beta   90.00000000
_cell_angle_gamma   119.74839545
_symmetry_Int_Tables_number   1
_chemical_formula_structural   Th5P12Ir8Ru11
_chemical_formula_sum   'Th5 P12 Ir8 Ru11'
_cell_volume   565.03319302
_cell_formula_units_Z   1
loop_
 _symmetry_equiv_pos_site_id
 _symmetry_equiv_pos_as_xyz
  1  'x, y, z'
loop_
 _atom_site_type_symbol
 _atom_site_label
 _atom_site_symmetry_multiplicity
 _atom_site_fract_x
 _atom_site_fract_y
 _atom_site_fract_z
 _atom_site_occupancy
  Th  Th0  1  0.666638  0.329723  0.000000  1
  Th  Th1  1  0.334134  0.667632  0.000000  1
  Th  Th2  1  0.812475  0.001289  0.500000  1
  Th  Th3  1  0.183982  0.186820  0.500000  1
  Th  Th4  1  0.000188  0.815452  0.500000  1
  P  P5  1  0.630027  0.001917  0.000000  1
  P  P6  1  0.367081  0.372705  0.000000  1
  P  P7  1  0.006075  0.633582  0.000000  1
  P  P8  1  0.690133  0.520723  0.500000  1
  P  P9  1  0.827627  0.302704  0.500000  1
  P  P10  1  0.312383  0.832272  0.500000  1
  P  P11  1  0.519447  0.687560  0.500000  1
  P  P12  1  0.182366  0.002067  0.000000  1
  P  P13  1  0.816927  0.817511  0.000000  1
  P  P14  1  0.997500  0.183370  0.000000  1
  P  P15  1  0.480382  0.163604  0.500000  1
  P  P16  1  0.169567  0.482350  0.500000  1
  Ir  Ir17  1  0.624112  0.804339  0.000000  1
  Ir  Ir18  1  0.180678  0.377831  0.000000  1
  Ir  Ir19  1  0.374096  0.184081  0.000000  1
  Ir  Ir20  1  0.196165  0.821730  0.000000  1
  Ir  Ir21  1  0.808126  0.623493  0.000000  1
  Ir  Ir22  1  0.870173  0.504861  0.500000  1
  Ir  Ir23  1  0.494073  0.361471  0.500000  1
  Ir  Ir24  1  0.999332  0.000023  0.000000  1
  Ru  Ru25  1  0.635954  0.123605  0.500000  1
  Ru  Ru26  1  0.125721  0.638877  0.500000  1
  Ru  Ru27  1  0.363296  0.487478  0.500000  1
  Ru  Ru28  1  0.508586  0.870823  0.500000  1
  Ru  Ru29  1  0.712719  0.711542  0.500000  1
  Ru  Ru30  1  0.002014  0.290736  0.500000  1
  Ru  Ru31  1  0.448855  0.000803  0.000000  1
  Ru  Ru32  1  0.550158  0.546476  0.000000  1
  Ru  Ru33  1  0.000485  0.451196  0.000000  1
  Ru  Ru34  1  0.820606  0.197448  0.000000  1
  Ru  Ru35  1  0.287919  0.001907  0.500000  1
