# generated using pymatgen
data_Y3Er5(CoAg)2
_symmetry_space_group_name_H-M   'P 1'
_cell_length_a   9.34647580
_cell_length_b   9.34647568
_cell_length_c   9.34647700
_cell_angle_alpha   60.00000596
_cell_angle_beta   60.00000638
_cell_angle_gamma   60.00000588
_symmetry_Int_Tables_number   1
_chemical_formula_structural   Y3Er5(CoAg)2
_chemical_formula_sum   'Y6 Er10 Co4 Ag4'
_cell_volume   577.33617409
_cell_formula_units_Z   2
loop_
 _symmetry_equiv_pos_site_id
 _symmetry_equiv_pos_as_xyz
  1  'x, y, z'
loop_
 _atom_site_type_symbol
 _atom_site_label
 _atom_site_symmetry_multiplicity
 _atom_site_fract_x
 _atom_site_fract_y
 _atom_site_fract_z
 _atom_site_occupancy
  Y  Y0  1  0.938135  0.561865  0.561865  1
  Y  Y1  1  0.561865  0.938135  0.938135  1
  Y  Y2  1  0.561865  0.938135  0.561865  1
  Y  Y3  1  0.938135  0.561865  0.938135  1
  Y  Y4  1  0.561865  0.561865  0.938135  1
  Y  Y5  1  0.938135  0.938135  0.561865  1
  Er  Er6  1  0.347649  0.347649  0.347649  1
  Er  Er7  1  0.347649  0.347649  0.957054  1
  Er  Er8  1  0.347649  0.957054  0.347649  1
  Er  Er9  1  0.957054  0.347649  0.347649  1
  Er  Er10  1  0.811835  0.188165  0.188165  1
  Er  Er11  1  0.188165  0.811835  0.811835  1
  Er  Er12  1  0.188165  0.811835  0.188165  1
  Er  Er13  1  0.811835  0.188165  0.811835  1
  Er  Er14  1  0.188165  0.188165  0.811835  1
  Er  Er15  1  0.811835  0.811835  0.188165  1
  Co  Co16  1  0.141161  0.141161  0.141161  1
  Co  Co17  1  0.141161  0.141161  0.576517  1
  Co  Co18  1  0.141161  0.576517  0.141161  1
  Co  Co19  1  0.576517  0.141161  0.141161  1
  Ag  Ag20  1  0.580820  0.580820  0.580820  1
  Ag  Ag21  1  0.580820  0.580820  0.257541  1
  Ag  Ag22  1  0.580820  0.257541  0.580820  1
  Ag  Ag23  1  0.257541  0.580820  0.580820  1
