# generated using pymatgen
data_Tm6Co4Si3P
_symmetry_space_group_name_H-M   'P 1'
_cell_length_a   5.42925680
_cell_length_b   7.47843351
_cell_length_c   12.39665600
_cell_angle_alpha   90.00000000
_cell_angle_beta   90.00000000
_cell_angle_gamma   90.09368073
_symmetry_Int_Tables_number   1
_chemical_formula_structural   Tm6Co4Si3P
_chemical_formula_sum   'Tm12 Co8 Si6 P2'
_cell_volume   503.33251983
_cell_formula_units_Z   2
loop_
 _symmetry_equiv_pos_site_id
 _symmetry_equiv_pos_as_xyz
  1  'x, y, z'
loop_
 _atom_site_type_symbol
 _atom_site_label
 _atom_site_symmetry_multiplicity
 _atom_site_fract_x
 _atom_site_fract_y
 _atom_site_fract_z
 _atom_site_occupancy
  Tm  Tm0  1  0.628099  0.251575  0.250000  1
  Tm  Tm1  1  0.371901  0.748425  0.750000  1
  Tm  Tm2  1  0.372969  0.753264  0.250000  1
  Tm  Tm3  1  0.627031  0.246736  0.750000  1
  Tm  Tm4  1  0.142452  0.393203  0.101356  1
  Tm  Tm5  1  0.857548  0.606797  0.898644  1
  Tm  Tm6  1  0.857548  0.606797  0.601356  1
  Tm  Tm7  1  0.861849  0.897710  0.397217  1
  Tm  Tm8  1  0.142452  0.393203  0.398644  1
  Tm  Tm9  1  0.138151  0.102290  0.602783  1
  Tm  Tm10  1  0.138151  0.102290  0.897217  1
  Tm  Tm11  1  0.861849  0.897710  0.102783  1
  Co  Co12  1  0.369252  0.031720  0.089420  1
  Co  Co13  1  0.630748  0.968280  0.910580  1
  Co  Co14  1  0.630748  0.968280  0.589420  1
  Co  Co15  1  0.630833  0.531301  0.411649  1
  Co  Co16  1  0.369252  0.031720  0.410580  1
  Co  Co17  1  0.369167  0.468699  0.588351  1
  Co  Co18  1  0.369167  0.468699  0.911649  1
  Co  Co19  1  0.630833  0.531301  0.088351  1
  Si  Si20  1  0.852879  0.600689  0.250000  1
  Si  Si21  1  0.147121  0.399311  0.750000  1
  Si  Si22  1  0.620337  0.249606  0.999849  1
  Si  Si23  1  0.379663  0.750394  0.000151  1
  Si  Si24  1  0.379663  0.750394  0.499849  1
  Si  Si25  1  0.620337  0.249606  0.500151  1
  P  P26  1  0.154677  0.101067  0.250000  1
  P  P27  1  0.845323  0.898933  0.750000  1
