# generated using pymatgen
data_Nd12Ga11SiAg12
_symmetry_space_group_name_H-M   'P 1'
_cell_length_a   4.69663600
_cell_length_b   7.90501976
_cell_length_c   22.27965600
_cell_angle_alpha   90.12145524
_cell_angle_beta   90.00000000
_cell_angle_gamma   90.00000000
_symmetry_Int_Tables_number   1
_chemical_formula_structural   Nd12Ga11SiAg12
_chemical_formula_sum   'Nd12 Ga11 Si1 Ag12'
_cell_volume   827.17493851
_cell_formula_units_Z   1
loop_
 _symmetry_equiv_pos_site_id
 _symmetry_equiv_pos_as_xyz
  1  'x, y, z'
loop_
 _atom_site_type_symbol
 _atom_site_label
 _atom_site_symmetry_multiplicity
 _atom_site_fract_x
 _atom_site_fract_y
 _atom_site_fract_z
 _atom_site_occupancy
  Nd  Nd0  1  0.250000  0.217525  0.998980  1
  Nd  Nd1  1  0.250000  0.273816  0.499675  1
  Nd  Nd2  1  0.750000  0.781443  0.000890  1
  Nd  Nd3  1  0.750000  0.722654  0.500135  1
  Nd  Nd4  1  0.250000  0.212066  0.333840  1
  Nd  Nd5  1  0.250000  0.285207  0.833673  1
  Nd  Nd6  1  0.750000  0.789343  0.665846  1
  Nd  Nd7  1  0.750000  0.714723  0.166869  1
  Nd  Nd8  1  0.250000  0.211562  0.666786  1
  Nd  Nd9  1  0.250000  0.287563  0.166289  1
  Nd  Nd10  1  0.750000  0.787379  0.332931  1
  Nd  Nd11  1  0.750000  0.713109  0.833788  1
  Ga  Ga12  1  0.250000  0.581215  0.729784  1
  Ga  Ga13  1  0.250000  0.919254  0.230176  1
  Ga  Ga14  1  0.750000  0.418483  0.270455  1
  Ga  Ga15  1  0.750000  0.082040  0.769610  1
  Ga  Ga16  1  0.250000  0.916309  0.103522  1
  Ga  Ga17  1  0.250000  0.584386  0.602818  1
  Ga  Ga18  1  0.750000  0.083329  0.896475  1
  Ga  Ga19  1  0.750000  0.416024  0.396845  1
  Ga  Ga20  1  0.250000  0.584111  0.930946  1
  Ga  Ga21  1  0.250000  0.911308  0.429589  1
  Ga  Ga22  1  0.750000  0.416107  0.069337  1
  Si  Si23  1  0.750000  0.090605  0.572121  1
  Ag  Ag24  1  0.250000  0.914427  0.762923  1
  Ag  Ag25  1  0.250000  0.585731  0.263260  1
  Ag  Ag26  1  0.750000  0.086287  0.236728  1
  Ag  Ag27  1  0.750000  0.415133  0.737031  1
  Ag  Ag28  1  0.250000  0.915577  0.904628  1
  Ag  Ag29  1  0.250000  0.580311  0.404855  1
  Ag  Ag30  1  0.750000  0.084056  0.095391  1
  Ag  Ag31  1  0.750000  0.417496  0.595356  1
  Ag  Ag32  1  0.250000  0.918119  0.564740  1
  Ag  Ag33  1  0.250000  0.584214  0.065751  1
  Ag  Ag34  1  0.750000  0.083394  0.433677  1
  Ag  Ag35  1  0.750000  0.415696  0.934279  1
