# generated using pymatgen
data_Dy3TmFeOs7
_symmetry_space_group_name_H-M   'P 1'
_cell_length_a   5.26962887
_cell_length_b   5.27013334
_cell_length_c   8.84944874
_cell_angle_alpha   89.94174811
_cell_angle_beta   89.94264943
_cell_angle_gamma   60.65831510
_symmetry_Int_Tables_number   1
_chemical_formula_structural   Dy3TmFeOs7
_chemical_formula_sum   'Dy3 Tm1 Fe1 Os7'
_cell_volume   214.23532183
_cell_formula_units_Z   1
loop_
 _symmetry_equiv_pos_site_id
 _symmetry_equiv_pos_as_xyz
  1  'x, y, z'
loop_
 _atom_site_type_symbol
 _atom_site_label
 _atom_site_symmetry_multiplicity
 _atom_site_fract_x
 _atom_site_fract_y
 _atom_site_fract_z
 _atom_site_occupancy
  Dy  Dy0  1  0.667193  0.667787  0.434424  1
  Dy  Dy1  1  0.667307  0.667537  0.065801  1
  Dy  Dy2  1  0.331311  0.331786  0.936189  1
  Tm  Tm3  1  0.331052  0.331927  0.563777  1
  Fe  Fe4  1  0.167584  0.167730  0.250844  1
  Os  Os5  1  0.997312  0.998298  0.498786  1
  Os  Os6  1  0.997176  0.997892  0.001599  1
  Os  Os7  1  0.827483  0.345165  0.748945  1
  Os  Os8  1  0.347859  0.826022  0.748939  1
  Os  Os9  1  0.831743  0.831582  0.749078  1
  Os  Os10  1  0.177756  0.656380  0.250803  1
  Os  Os11  1  0.656226  0.177891  0.250810  1
