# generated using pymatgen
data_Ho5Er15Sn16
_symmetry_space_group_name_H-M   'P 1'
_cell_length_a   7.99602961
_cell_length_b   8.11093716
_cell_length_c   15.34714265
_cell_angle_alpha   90.01396447
_cell_angle_beta   89.91380404
_cell_angle_gamma   89.94477117
_symmetry_Int_Tables_number   1
_chemical_formula_structural   Ho5Er15Sn16
_chemical_formula_sum   'Ho5 Er15 Sn16'
_cell_volume   995.34182632
_cell_formula_units_Z   1
loop_
 _symmetry_equiv_pos_site_id
 _symmetry_equiv_pos_as_xyz
  1  'x, y, z'
loop_
 _atom_site_type_symbol
 _atom_site_label
 _atom_site_symmetry_multiplicity
 _atom_site_fract_x
 _atom_site_fract_y
 _atom_site_fract_z
 _atom_site_occupancy
  Ho  Ho0  1  0.979605  0.821044  0.096616  1
  Ho  Ho1  1  0.479278  0.678142  0.096350  1
  Ho  Ho2  1  0.978741  0.821420  0.403448  1
  Ho  Ho3  1  0.521122  0.321650  0.596678  1
  Ho  Ho4  1  0.020044  0.178776  0.903623  1
  Er  Er5  1  0.366518  0.837473  0.876922  1
  Er  Er6  1  0.867388  0.661999  0.622415  1
  Er  Er7  1  0.632091  0.162107  0.377390  1
  Er  Er8  1  0.132924  0.337817  0.122856  1
  Er  Er9  1  0.632369  0.162706  0.123000  1
  Er  Er10  1  0.131637  0.337652  0.377705  1
  Er  Er11  1  0.368547  0.837730  0.622651  1
  Er  Er12  1  0.867506  0.662294  0.877135  1
  Er  Er13  1  0.521883  0.321472  0.902763  1
  Er  Er14  1  0.022149  0.178676  0.597174  1
  Er  Er15  1  0.477698  0.678420  0.402886  1
  Er  Er16  1  0.198955  0.503999  0.749759  1
  Er  Er17  1  0.698819  0.996312  0.749918  1
  Er  Er18  1  0.801141  0.495911  0.250160  1
  Er  Er19  1  0.301180  0.003890  0.250347  1
  Sn  Sn20  1  0.294456  0.038504  0.041460  1
  Sn  Sn21  1  0.792026  0.462921  0.458229  1
  Sn  Sn22  1  0.708012  0.963541  0.541948  1
  Sn  Sn23  1  0.207267  0.536972  0.958188  1
  Sn  Sn24  1  0.704815  0.961925  0.958399  1
  Sn  Sn25  1  0.206583  0.538397  0.541323  1
  Sn  Sn26  1  0.293086  0.038090  0.458821  1
  Sn  Sn27  1  0.793896  0.460989  0.041001  1
  Sn  Sn28  1  0.565285  0.618123  0.749933  1
  Sn  Sn29  1  0.064558  0.881565  0.749435  1
  Sn  Sn30  1  0.434929  0.381210  0.250578  1
  Sn  Sn31  1  0.935166  0.118773  0.250168  1
  Sn  Sn32  1  0.331884  0.149248  0.750413  1
  Sn  Sn33  1  0.832252  0.350857  0.749688  1
  Sn  Sn34  1  0.667431  0.850722  0.250290  1
  Sn  Sn35  1  0.168758  0.648674  0.250331  1
