# generated using pymatgen
data_NdTm2Mn(Co4P3)2
_symmetry_space_group_name_H-M   'P 1'
_cell_length_a   3.69205800
_cell_length_b   10.53348300
_cell_length_c   12.20285800
_cell_angle_alpha   90.00000000
_cell_angle_beta   90.00000000
_cell_angle_gamma   90.00000000
_symmetry_Int_Tables_number   1
_chemical_formula_structural   NdTm2Mn(Co4P3)2
_chemical_formula_sum   'Nd2 Tm4 Mn2 Co16 P12'
_cell_volume   474.57195645
_cell_formula_units_Z   2
loop_
 _symmetry_equiv_pos_site_id
 _symmetry_equiv_pos_as_xyz
  1  'x, y, z'
loop_
 _atom_site_type_symbol
 _atom_site_label
 _atom_site_symmetry_multiplicity
 _atom_site_fract_x
 _atom_site_fract_y
 _atom_site_fract_z
 _atom_site_occupancy
  Nd  Nd0  1  0.000000  0.500000  0.522955  1
  Nd  Nd1  1  0.500000  0.000000  0.477045  1
  Tm  Tm2  1  0.500000  0.818278  0.203778  1
  Tm  Tm3  1  0.500000  0.181722  0.203778  1
  Tm  Tm4  1  0.000000  0.681722  0.796222  1
  Tm  Tm5  1  0.000000  0.318278  0.796222  1
  Mn  Mn6  1  0.500000  0.500000  0.156203  1
  Mn  Mn7  1  0.000000  0.000000  0.843797  1
  Co  Co8  1  0.500000  0.500000  0.706616  1
  Co  Co9  1  0.000000  0.000000  0.293384  1
  Co  Co10  1  0.000000  0.500000  0.986434  1
  Co  Co11  1  0.500000  0.000000  0.013566  1
  Co  Co12  1  0.500000  0.332786  0.993637  1
  Co  Co13  1  0.500000  0.667214  0.993637  1
  Co  Co14  1  0.000000  0.167214  0.006363  1
  Co  Co15  1  0.000000  0.832786  0.006363  1
  Co  Co16  1  0.500000  0.295748  0.428650  1
  Co  Co17  1  0.500000  0.704252  0.428650  1
  Co  Co18  1  0.000000  0.204252  0.571350  1
  Co  Co19  1  0.000000  0.795748  0.571350  1
  Co  Co20  1  0.500000  0.879157  0.712437  1
  Co  Co21  1  0.500000  0.120843  0.712437  1
  Co  Co22  1  0.000000  0.620843  0.287563  1
  Co  Co23  1  0.000000  0.379157  0.287563  1
  P  P24  1  0.500000  0.500000  0.883350  1
  P  P25  1  0.000000  0.000000  0.116650  1
  P  P26  1  0.500000  0.500000  0.340295  1
  P  P27  1  0.000000  0.000000  0.659705  1
  P  P28  1  0.500000  0.308545  0.618894  1
  P  P29  1  0.500000  0.691455  0.618894  1
  P  P30  1  0.000000  0.191455  0.381106  1
  P  P31  1  0.000000  0.808545  0.381106  1
  P  P32  1  0.500000  0.846555  0.893279  1
  P  P33  1  0.500000  0.153445  0.893279  1
  P  P34  1  0.000000  0.653445  0.106721  1
  P  P35  1  0.000000  0.346555  0.106721  1
