# generated using pymatgen
data_Y2Tm4ScCo17P12
_symmetry_space_group_name_H-M   'P 1'
_cell_length_a   3.69246700
_cell_length_b   10.54684300
_cell_length_c   12.22529400
_cell_angle_alpha   90.00000000
_cell_angle_beta   90.00000000
_cell_angle_gamma   90.00000000
_symmetry_Int_Tables_number   1
_chemical_formula_structural   Y2Tm4ScCo17P12
_chemical_formula_sum   'Y2 Tm4 Sc1 Co17 P12'
_cell_volume   476.10025697
_cell_formula_units_Z   1
loop_
 _symmetry_equiv_pos_site_id
 _symmetry_equiv_pos_as_xyz
  1  'x, y, z'
loop_
 _atom_site_type_symbol
 _atom_site_label
 _atom_site_symmetry_multiplicity
 _atom_site_fract_x
 _atom_site_fract_y
 _atom_site_fract_z
 _atom_site_occupancy
  Y  Y0  1  0.000000  0.500000  0.527884  1
  Y  Y1  1  0.500000  0.000000  0.477409  1
  Tm  Tm2  1  0.500000  0.821924  0.207359  1
  Tm  Tm3  1  0.500000  0.178076  0.207359  1
  Tm  Tm4  1  0.000000  0.682325  0.795872  1
  Tm  Tm5  1  0.000000  0.317675  0.795872  1
  Sc  Sc6  1  0.500000  0.500000  0.152494  1
  Co  Co7  1  0.000000  0.000000  0.837093  1
  Co  Co8  1  0.500000  0.500000  0.704897  1
  Co  Co9  1  0.000000  0.000000  0.294542  1
  Co  Co10  1  0.000000  0.500000  0.984201  1
  Co  Co11  1  0.500000  0.000000  0.013497  1
  Co  Co12  1  0.500000  0.326522  0.989470  1
  Co  Co13  1  0.500000  0.673478  0.989470  1
  Co  Co14  1  0.000000  0.162311  0.001627  1
  Co  Co15  1  0.000000  0.837689  0.001627  1
  Co  Co16  1  0.500000  0.294522  0.434016  1
  Co  Co17  1  0.500000  0.705478  0.434016  1
  Co  Co18  1  0.000000  0.202187  0.570978  1
  Co  Co19  1  0.000000  0.797813  0.570978  1
  Co  Co20  1  0.500000  0.879796  0.708394  1
  Co  Co21  1  0.500000  0.120204  0.708394  1
  Co  Co22  1  0.000000  0.623347  0.295269  1
  Co  Co23  1  0.000000  0.376653  0.295269  1
  P  P24  1  0.500000  0.500000  0.882805  1
  P  P25  1  0.000000  0.000000  0.116400  1
  P  P26  1  0.500000  0.500000  0.357773  1
  P  P27  1  0.000000  0.000000  0.654851  1
  P  P28  1  0.500000  0.309402  0.619086  1
  P  P29  1  0.500000  0.690598  0.619086  1
  P  P30  1  0.000000  0.188605  0.385057  1
  P  P31  1  0.000000  0.811395  0.385057  1
  P  P32  1  0.500000  0.851149  0.888507  1
  P  P33  1  0.500000  0.148851  0.888507  1
  P  P34  1  0.000000  0.664150  0.102442  1
  P  P35  1  0.000000  0.335850  0.102442  1
