# generated using pymatgen
data_TaCo2B2W
_symmetry_space_group_name_H-M   'P 1'
_cell_length_a   3.28423400
_cell_length_b   5.78596800
_cell_length_c   6.71668700
_cell_angle_alpha   90.00000000
_cell_angle_beta   90.00000000
_cell_angle_gamma   90.00000000
_symmetry_Int_Tables_number   1
_chemical_formula_structural   TaCo2B2W
_chemical_formula_sum   'Ta2 Co4 B4 W2'
_cell_volume   127.63366222
_cell_formula_units_Z   2
loop_
 _symmetry_equiv_pos_site_id
 _symmetry_equiv_pos_as_xyz
  1  'x, y, z'
loop_
 _atom_site_type_symbol
 _atom_site_label
 _atom_site_symmetry_multiplicity
 _atom_site_fract_x
 _atom_site_fract_y
 _atom_site_fract_z
 _atom_site_occupancy
  Ta  Ta0  1  0.250000  0.027249  0.823748  1
  Ta  Ta1  1  0.250000  0.527249  0.676252  1
  Co  Co2  1  0.250000  0.143591  0.441513  1
  Co  Co3  1  0.250000  0.643591  0.058487  1
  Co  Co4  1  0.750000  0.856522  0.557438  1
  Co  Co5  1  0.750000  0.356522  0.942562  1
  B  B6  1  0.250000  0.269755  0.129285  1
  B  B7  1  0.250000  0.769755  0.370715  1
  B  B8  1  0.750000  0.729400  0.882844  1
  B  B9  1  0.750000  0.229400  0.617156  1
  W  W10  1  0.750000  0.973482  0.179473  1
  W  W11  1  0.750000  0.473482  0.320527  1
