# generated using pymatgen
data_La4NdSn15Ir3Rh5
_symmetry_space_group_name_H-M   'P 1'
_cell_length_a   4.56409500
_cell_length_b   7.33724317
_cell_length_c   18.81321967
_cell_angle_alpha   89.94724513
_cell_angle_beta   90.00000000
_cell_angle_gamma   90.00000000
_symmetry_Int_Tables_number   1
_chemical_formula_structural   La4NdSn15Ir3Rh5
_chemical_formula_sum   'La4 Nd1 Sn15 Ir3 Rh5'
_cell_volume   630.01447922
_cell_formula_units_Z   1
loop_
 _symmetry_equiv_pos_site_id
 _symmetry_equiv_pos_as_xyz
  1  'x, y, z'
loop_
 _atom_site_type_symbol
 _atom_site_label
 _atom_site_symmetry_multiplicity
 _atom_site_fract_x
 _atom_site_fract_y
 _atom_site_fract_z
 _atom_site_occupancy
  La  La0  1  0.500000  0.002591  0.856547  1
  La  La1  1  0.500000  0.500811  0.357457  1
  La  La2  1  0.000000  0.000593  0.143120  1
  La  La3  1  0.000000  0.500708  0.641351  1
  Nd  Nd4  1  0.500000  0.492910  0.930434  1
  Sn  Sn5  1  0.000000  0.716068  0.806447  1
  Sn  Sn6  1  0.000000  0.781540  0.305403  1
  Sn  Sn7  1  0.500000  0.278907  0.194126  1
  Sn  Sn8  1  0.500000  0.217450  0.693718  1
  Sn  Sn9  1  0.000000  0.853414  0.969983  1
  Sn  Sn10  1  0.000000  0.632591  0.468431  1
  Sn  Sn11  1  0.500000  0.136002  0.032140  1
  Sn  Sn12  1  0.500000  0.364001  0.530480  1
  Sn  Sn13  1  0.000000  0.306437  0.819111  1
  Sn  Sn14  1  0.000000  0.197146  0.317466  1
  Sn  Sn15  1  0.500000  0.695426  0.185743  1
  Sn  Sn16  1  0.500000  0.808986  0.679352  1
  Sn  Sn17  1  0.500000  0.018849  0.432878  1
  Sn  Sn18  1  0.000000  0.511163  0.067622  1
  Sn  Sn19  1  0.000000  0.982053  0.568270  1
  Ir  Ir20  1  0.000000  0.229985  0.965022  1
  Ir  Ir21  1  0.500000  0.764913  0.044697  1
  Ir  Ir22  1  0.500000  0.750445  0.533713  1
  Rh  Rh23  1  0.000000  0.248049  0.464554  1
  Rh  Rh24  1  0.000000  0.018336  0.715653  1
  Rh  Rh25  1  0.000000  0.482794  0.213231  1
  Rh  Rh26  1  0.500000  0.986407  0.288867  1
  Rh  Rh27  1  0.500000  0.521422  0.774186  1
