# generated using pymatgen
data_Tm7Pa(Ge4Mo3)4
_symmetry_space_group_name_H-M   'P 1'
_cell_length_a   6.91094386
_cell_length_b   7.02400972
_cell_length_c   13.12981507
_cell_angle_alpha   89.95806254
_cell_angle_beta   89.98057144
_cell_angle_gamma   90.07091814
_symmetry_Int_Tables_number   1
_chemical_formula_structural   Tm7Pa(Ge4Mo3)4
_chemical_formula_sum   'Tm7 Pa1 Ge16 Mo12'
_cell_volume   637.35383670
_cell_formula_units_Z   1
loop_
 _symmetry_equiv_pos_site_id
 _symmetry_equiv_pos_as_xyz
  1  'x, y, z'
loop_
 _atom_site_type_symbol
 _atom_site_label
 _atom_site_symmetry_multiplicity
 _atom_site_fract_x
 _atom_site_fract_y
 _atom_site_fract_z
 _atom_site_occupancy
  Tm  Tm0  1  0.487738  0.671003  0.591299  1
  Tm  Tm1  1  0.986064  0.830750  0.908033  1
  Tm  Tm2  1  0.511328  0.330355  0.092474  1
  Tm  Tm3  1  0.011303  0.168374  0.407240  1
  Tm  Tm4  1  0.510498  0.328926  0.406032  1
  Tm  Tm5  1  0.010810  0.171101  0.092097  1
  Tm  Tm6  1  0.487701  0.669266  0.910491  1
  Pa  Pa7  1  0.986388  0.828580  0.594435  1
  Ge  Ge8  1  0.668532  0.953104  0.450916  1
  Ge  Ge9  1  0.170619  0.545731  0.047389  1
  Ge  Ge10  1  0.327989  0.044844  0.952694  1
  Ge  Ge11  1  0.826305  0.447604  0.547167  1
  Ge  Ge12  1  0.330832  0.049172  0.546291  1
  Ge  Ge13  1  0.830158  0.455091  0.951990  1
  Ge  Ge14  1  0.670822  0.955572  0.046907  1
  Ge  Ge15  1  0.173013  0.544613  0.452242  1
  Ge  Ge16  1  0.471579  0.367659  0.747436  1
  Ge  Ge17  1  0.969344  0.137125  0.751376  1
  Ge  Ge18  1  0.531342  0.631473  0.249958  1
  Ge  Ge19  1  0.030608  0.868957  0.249160  1
  Ge  Ge20  1  0.682405  0.853672  0.753329  1
  Ge  Ge21  1  0.194071  0.644312  0.753642  1
  Ge  Ge22  1  0.310921  0.145741  0.249120  1
  Ge  Ge23  1  0.811486  0.354234  0.249806  1
  Mo  Mo24  1  0.673276  0.145069  0.626381  1
  Mo  Mo25  1  0.170963  0.344008  0.874500  1
  Mo  Mo26  1  0.331538  0.843807  0.126434  1
  Mo  Mo27  1  0.834120  0.656599  0.375056  1
  Mo  Mo28  1  0.331186  0.845229  0.372788  1
  Mo  Mo29  1  0.831541  0.656991  0.126337  1
  Mo  Mo30  1  0.665518  0.157568  0.873563  1
  Mo  Mo31  1  0.171198  0.348422  0.626687  1
  Mo  Mo32  1  0.835478  0.503256  0.748585  1
  Mo  Mo33  1  0.330276  0.002282  0.748777  1
  Mo  Mo34  1  0.166410  0.504196  0.250244  1
  Mo  Mo35  1  0.666638  0.995314  0.249125  1
