# generated using pymatgen
data_Nd9Ho10LuSi16
_symmetry_space_group_name_H-M   'P 1'
_cell_length_a   7.74880217
_cell_length_b   7.75523321
_cell_length_c   14.40527870
_cell_angle_alpha   89.86552302
_cell_angle_beta   90.23026380
_cell_angle_gamma   90.01756555
_symmetry_Int_Tables_number   1
_chemical_formula_structural   Nd9Ho10LuSi16
_chemical_formula_sum   'Nd9 Ho10 Lu1 Si16'
_cell_volume   865.65806116
_cell_formula_units_Z   1
loop_
 _symmetry_equiv_pos_site_id
 _symmetry_equiv_pos_as_xyz
  1  'x, y, z'
loop_
 _atom_site_type_symbol
 _atom_site_label
 _atom_site_symmetry_multiplicity
 _atom_site_fract_x
 _atom_site_fract_y
 _atom_site_fract_z
 _atom_site_occupancy
  Nd  Nd0  1  0.013297  0.862819  0.125672  1
  Nd  Nd1  1  0.638073  0.991566  0.459001  1
  Nd  Nd2  1  0.363628  0.007213  0.954169  1
  Nd  Nd3  1  0.989679  0.639637  0.542353  1
  Nd  Nd4  1  0.492137  0.862244  0.207006  1
  Nd  Nd5  1  0.509147  0.138294  0.707380  1
  Nd  Nd6  1  0.860833  0.489628  0.791222  1
  Nd  Nd7  1  0.136082  0.510764  0.294962  1
  Nd  Nd8  1  0.009900  0.362181  0.043033  1
  Ho  Ho9  1  0.488517  0.361496  0.123684  1
  Ho  Ho10  1  0.990954  0.136606  0.625149  1
  Ho  Ho11  1  0.863262  0.008391  0.873809  1
  Ho  Ho12  1  0.136736  0.991925  0.376119  1
  Ho  Ho13  1  0.508925  0.637008  0.624921  1
  Ho  Ho14  1  0.365095  0.489233  0.873169  1
  Ho  Ho15  1  0.636155  0.510012  0.377292  1
  Ho  Ho16  1  0.315159  0.316413  0.500792  1
  Ho  Ho17  1  0.183562  0.814908  0.748662  1
  Ho  Ho18  1  0.813743  0.185661  0.250748  1
  Lu  Lu19  1  0.685414  0.682266  0.999491  1
  Si  Si20  1  0.288561  0.934257  0.561643  1
  Si  Si21  1  0.709017  0.067323  0.059973  1
  Si  Si22  1  0.933146  0.289815  0.439368  1
  Si  Si23  1  0.434284  0.213554  0.312755  1
  Si  Si24  1  0.567887  0.786789  0.811794  1
  Si  Si25  1  0.211092  0.433484  0.687840  1
  Si  Si26  1  0.784289  0.563702  0.189450  1
  Si  Si27  1  0.066953  0.706561  0.934905  1
  Si  Si28  1  0.798171  0.844222  0.690036  1
  Si  Si29  1  0.201888  0.162503  0.195648  1
  Si  Si30  1  0.841320  0.798689  0.313062  1
  Si  Si31  1  0.343791  0.702917  0.441670  1
  Si  Si32  1  0.656670  0.297705  0.939948  1
  Si  Si33  1  0.701853  0.345253  0.560835  1
  Si  Si34  1  0.305175  0.654007  0.054325  1
  Si  Si35  1  0.155608  0.200946  0.808115  1
