# generated using pymatgen
data_Ca6Pr13YSn16
_symmetry_space_group_name_H-M   'P 1'
_cell_length_a   8.09782394
_cell_length_b   8.54615079
_cell_length_c   16.15234703
_cell_angle_alpha   90.06934881
_cell_angle_beta   90.11836914
_cell_angle_gamma   90.03120434
_symmetry_Int_Tables_number   1
_chemical_formula_structural   Ca6Pr13YSn16
_chemical_formula_sum   'Ca6 Pr13 Y1 Sn16'
_cell_volume   1117.82342997
_cell_formula_units_Z   1
loop_
 _symmetry_equiv_pos_site_id
 _symmetry_equiv_pos_as_xyz
  1  'x, y, z'
loop_
 _atom_site_type_symbol
 _atom_site_label
 _atom_site_symmetry_multiplicity
 _atom_site_fract_x
 _atom_site_fract_y
 _atom_site_fract_z
 _atom_site_occupancy
  Ca  Ca0  1  0.830312  0.670139  0.623323  1
  Ca  Ca1  1  0.669882  0.169412  0.377063  1
  Ca  Ca2  1  0.162572  0.497079  0.749438  1
  Ca  Ca3  1  0.663182  0.002592  0.749344  1
  Ca  Ca4  1  0.836644  0.502542  0.251493  1
  Ca  Ca5  1  0.337970  0.994802  0.250773  1
  Pr  Pr6  1  0.165412  0.326261  0.122504  1
  Pr  Pr7  1  0.665757  0.172550  0.124319  1
  Pr  Pr8  1  0.165639  0.326584  0.375811  1
  Pr  Pr9  1  0.335499  0.827743  0.625295  1
  Pr  Pr10  1  0.835374  0.674580  0.875300  1
  Pr  Pr11  1  0.491289  0.317585  0.904579  1
  Pr  Pr12  1  0.989728  0.185897  0.596374  1
  Pr  Pr13  1  0.511132  0.685089  0.404601  1
  Pr  Pr14  1  0.008755  0.815273  0.095136  1
  Pr  Pr15  1  0.508781  0.682259  0.095284  1
  Pr  Pr16  1  0.006746  0.817103  0.405215  1
  Pr  Pr17  1  0.493324  0.317262  0.595448  1
  Pr  Pr18  1  0.990187  0.184091  0.903311  1
  Y  Y19  1  0.332038  0.828246  0.875450  1
  Sn  Sn20  1  0.324587  0.032969  0.035382  1
  Sn  Sn21  1  0.828172  0.465766  0.460930  1
  Sn  Sn22  1  0.673514  0.965937  0.539455  1
  Sn  Sn23  1  0.179614  0.540171  0.960857  1
  Sn  Sn24  1  0.668259  0.962389  0.961215  1
  Sn  Sn25  1  0.173108  0.538056  0.537678  1
  Sn  Sn26  1  0.328481  0.036837  0.462637  1
  Sn  Sn27  1  0.823764  0.462809  0.036506  1
  Sn  Sn28  1  0.529668  0.607779  0.751703  1
  Sn  Sn29  1  0.033567  0.897985  0.752114  1
  Sn  Sn30  1  0.468684  0.397316  0.249752  1
  Sn  Sn31  1  0.968621  0.102767  0.250242  1
  Sn  Sn32  1  0.291305  0.138168  0.751214  1
  Sn  Sn33  1  0.789220  0.358790  0.751043  1
  Sn  Sn34  1  0.709563  0.857046  0.249369  1
  Sn  Sn35  1  0.209649  0.638123  0.249840  1
