# generated using pymatgen
data_TbYb2Sc(Ga2Ag)4
_symmetry_space_group_name_H-M   'P 1'
_cell_length_a   4.31036700
_cell_length_b   6.94862707
_cell_length_c   10.33538892
_cell_angle_alpha   90.63866201
_cell_angle_beta   90.00000000
_cell_angle_gamma   90.00000000
_symmetry_Int_Tables_number   1
_chemical_formula_structural   TbYb2Sc(Ga2Ag)4
_chemical_formula_sum   'Tb1 Yb2 Sc1 Ga8 Ag4'
_cell_volume   309.53737539
_cell_formula_units_Z   1
loop_
 _symmetry_equiv_pos_site_id
 _symmetry_equiv_pos_as_xyz
  1  'x, y, z'
loop_
 _atom_site_type_symbol
 _atom_site_label
 _atom_site_symmetry_multiplicity
 _atom_site_fract_x
 _atom_site_fract_y
 _atom_site_fract_z
 _atom_site_occupancy
  Tb  Tb0  1  0.250000  0.280009  0.674700  1
  Yb  Yb1  1  0.750000  0.225567  0.172860  1
  Yb  Yb2  1  0.750000  0.725605  0.325897  1
  Sc  Sc3  1  0.250000  0.778972  0.831016  1
  Ga  Ga4  1  0.250000  0.708627  0.539572  1
  Ga  Ga5  1  0.750000  0.299472  0.466817  1
  Ga  Ga6  1  0.750000  0.794156  0.029297  1
  Ga  Ga7  1  0.250000  0.195214  0.964883  1
  Ga  Ga8  1  0.250000  0.926495  0.148494  1
  Ga  Ga9  1  0.750000  0.063671  0.841650  1
  Ga  Ga10  1  0.750000  0.581093  0.660197  1
  Ga  Ga11  1  0.250000  0.430030  0.351921  1
  Ag  Ag12  1  0.250000  0.540490  0.096465  1
  Ag  Ag13  1  0.750000  0.453787  0.901070  1
  Ag  Ag14  1  0.750000  0.956387  0.596511  1
  Ag  Ag15  1  0.250000  0.040424  0.398650  1
