# generated using pymatgen
data_Nd5DyTaMoO14
_symmetry_space_group_name_H-M   'P 1'
_cell_length_a   6.68603473
_cell_length_b   6.59242582
_cell_length_c   7.70042896
_cell_angle_alpha   89.79069510
_cell_angle_beta   90.25816384
_cell_angle_gamma   108.85897866
_symmetry_Int_Tables_number   1
_chemical_formula_structural   Nd5DyTaMoO14
_chemical_formula_sum   'Nd5 Dy1 Ta1 Mo1 O14'
_cell_volume   321.18841634
_cell_formula_units_Z   1
loop_
 _symmetry_equiv_pos_site_id
 _symmetry_equiv_pos_as_xyz
  1  'x, y, z'
loop_
 _atom_site_type_symbol
 _atom_site_label
 _atom_site_symmetry_multiplicity
 _atom_site_fract_x
 _atom_site_fract_y
 _atom_site_fract_z
 _atom_site_occupancy
  Nd  Nd0  1  0.523952  0.520195  0.498421  1
  Nd  Nd1  1  0.532585  0.525525  0.000610  1
  Nd  Nd2  1  0.005761  0.459404  0.754695  1
  Nd  Nd3  1  0.531903  0.003308  0.747685  1
  Nd  Nd4  1  0.464588  0.003417  0.249664  1
  Dy  Dy5  1  0.003267  0.535851  0.247889  1
  Ta  Ta6  1  0.001080  0.000944  0.002051  1
  Mo  Mo7  1  0.001004  0.999587  0.498055  1
  O  O8  1  0.940181  0.059316  0.751412  1
  O  O9  1  0.062757  0.931047  0.248551  1
  O  O10  1  0.352290  0.630418  0.249449  1
  O  O11  1  0.643692  0.372301  0.749203  1
  O  O12  1  0.368772  0.629011  0.750243  1
  O  O13  1  0.646434  0.379713  0.251356  1
  O  O14  1  0.308914  0.073667  0.968297  1
  O  O15  1  0.675318  0.914602  0.473405  1
  O  O16  1  0.316319  0.080205  0.525732  1
  O  O17  1  0.678901  0.916782  0.026686  1
  O  O18  1  0.040757  0.298206  0.460635  1
  O  O19  1  0.931004  0.678256  0.976447  1
  O  O20  1  0.936121  0.687127  0.525901  1
  O  O21  1  0.034401  0.301120  0.043613  1
