# generated using pymatgen
data_YbY3ThPd15
_symmetry_space_group_name_H-M   'P 1'
_cell_length_a   4.15121100
_cell_length_b   4.15121100
_cell_length_c   20.70823500
_cell_angle_alpha   90.00000000
_cell_angle_beta   90.00000000
_cell_angle_gamma   90.00000000
_symmetry_Int_Tables_number   1
_chemical_formula_structural   YbY3ThPd15
_chemical_formula_sum   'Yb1 Y3 Th1 Pd15'
_cell_volume   356.85575234
_cell_formula_units_Z   1
loop_
 _symmetry_equiv_pos_site_id
 _symmetry_equiv_pos_as_xyz
  1  'x, y, z'
loop_
 _atom_site_type_symbol
 _atom_site_label
 _atom_site_symmetry_multiplicity
 _atom_site_fract_x
 _atom_site_fract_y
 _atom_site_fract_z
 _atom_site_occupancy
  Yb  Yb0  1  0.000000  0.000000  0.201821  1
  Y  Y1  1  0.000000  0.000000  0.399696  1
  Y  Y2  1  0.000000  0.000000  0.599988  1
  Y  Y3  1  0.000000  0.000000  0.797902  1
  Th  Th4  1  0.000000  0.000000  0.001090  1
  Pd  Pd5  1  0.500000  0.500000  0.999912  1
  Pd  Pd6  1  0.500000  0.500000  0.200466  1
  Pd  Pd7  1  0.500000  0.500000  0.400191  1
  Pd  Pd8  1  0.500000  0.500000  0.599484  1
  Pd  Pd9  1  0.500000  0.500000  0.799631  1
  Pd  Pd10  1  0.500000  0.000000  0.100809  1
  Pd  Pd11  1  0.500000  0.000000  0.300158  1
  Pd  Pd12  1  0.500000  0.000000  0.499992  1
  Pd  Pd13  1  0.500000  0.000000  0.699560  1
  Pd  Pd14  1  0.500000  0.000000  0.899391  1
  Pd  Pd15  1  0.000000  0.500000  0.100809  1
  Pd  Pd16  1  0.000000  0.500000  0.300158  1
  Pd  Pd17  1  0.000000  0.500000  0.499992  1
  Pd  Pd18  1  0.000000  0.500000  0.699560  1
  Pd  Pd19  1  0.000000  0.500000  0.899391  1
