# generated using pymatgen
data_Yb2Y2FeOs7
_symmetry_space_group_name_H-M   'P 1'
_cell_length_a   5.29306473
_cell_length_b   5.30551156
_cell_length_c   8.76838368
_cell_angle_alpha   90.00257542
_cell_angle_beta   89.60527290
_cell_angle_gamma   120.07759910
_symmetry_Int_Tables_number   1
_chemical_formula_structural   Yb2Y2FeOs7
_chemical_formula_sum   'Yb2 Y2 Fe1 Os7'
_cell_volume   213.07419128
_cell_formula_units_Z   1
loop_
 _symmetry_equiv_pos_site_id
 _symmetry_equiv_pos_as_xyz
  1  'x, y, z'
loop_
 _atom_site_type_symbol
 _atom_site_label
 _atom_site_symmetry_multiplicity
 _atom_site_fract_x
 _atom_site_fract_y
 _atom_site_fract_z
 _atom_site_occupancy
  Yb  Yb0  1  0.331078  0.665533  0.060572  1
  Yb  Yb1  1  0.660079  0.330031  0.941175  1
  Y  Y2  1  0.664446  0.332217  0.569711  1
  Y  Y3  1  0.336916  0.668452  0.428514  1
  Fe  Fe4  1  0.340546  0.170277  0.250390  1
  Os  Os5  1  0.997403  0.998709  0.496228  1
  Os  Os6  1  0.986761  0.993361  0.004326  1
  Os  Os7  1  0.173178  0.347030  0.750069  1
  Os  Os8  1  0.173127  0.826177  0.750092  1
  Os  Os9  1  0.665073  0.832543  0.750818  1
  Os  Os10  1  0.835705  0.656300  0.249071  1
  Os  Os11  1  0.835689  0.179371  0.249034  1
