# generated using pymatgen
data_Gd5Tm3(CoAg)2
_symmetry_space_group_name_H-M   'P 1'
_cell_length_a   9.39632239
_cell_length_b   9.39632231
_cell_length_c   9.39632300
_cell_angle_alpha   60.00000110
_cell_angle_beta   60.00000136
_cell_angle_gamma   59.99999862
_symmetry_Int_Tables_number   1
_chemical_formula_structural   Gd5Tm3(CoAg)2
_chemical_formula_sum   'Gd10 Tm6 Co4 Ag4'
_cell_volume   586.62255555
_cell_formula_units_Z   2
loop_
 _symmetry_equiv_pos_site_id
 _symmetry_equiv_pos_as_xyz
  1  'x, y, z'
loop_
 _atom_site_type_symbol
 _atom_site_label
 _atom_site_symmetry_multiplicity
 _atom_site_fract_x
 _atom_site_fract_y
 _atom_site_fract_z
 _atom_site_occupancy
  Gd  Gd0  1  0.939179  0.560820  0.560821  1
  Gd  Gd1  1  0.560820  0.939179  0.939180  1
  Gd  Gd2  1  0.560821  0.939179  0.560821  1
  Gd  Gd3  1  0.939179  0.560820  0.939180  1
  Gd  Gd4  1  0.560821  0.560820  0.939180  1
  Gd  Gd5  1  0.939179  0.939179  0.560821  1
  Gd  Gd6  1  0.349695  0.349695  0.349695  1
  Gd  Gd7  1  0.349695  0.349695  0.950913  1
  Gd  Gd8  1  0.349695  0.950913  0.349695  1
  Gd  Gd9  1  0.950913  0.349695  0.349695  1
  Tm  Tm10  1  0.813721  0.186279  0.186279  1
  Tm  Tm11  1  0.186279  0.813721  0.813721  1
  Tm  Tm12  1  0.186279  0.813721  0.186279  1
  Tm  Tm13  1  0.813721  0.186279  0.813721  1
  Tm  Tm14  1  0.186279  0.186279  0.813721  1
  Tm  Tm15  1  0.813721  0.813721  0.186279  1
  Co  Co16  1  0.140674  0.140674  0.140674  1
  Co  Co17  1  0.140674  0.140674  0.577979  1
  Co  Co18  1  0.140674  0.577979  0.140674  1
  Co  Co19  1  0.577979  0.140674  0.140674  1
  Ag  Ag20  1  0.580807  0.580807  0.580807  1
  Ag  Ag21  1  0.580807  0.580807  0.257578  1
  Ag  Ag22  1  0.580807  0.257578  0.580807  1
  Ag  Ag23  1  0.257578  0.580807  0.580807  1
