# generated using pymatgen
data_LiBi4I3
_symmetry_space_group_name_H-M   'P 1'
_cell_length_a   23.54057546
_cell_length_b   23.54057559
_cell_length_c   6.68363922
_cell_angle_alpha   73.72405862
_cell_angle_beta   73.72405928
_cell_angle_gamma   14.53185081
_symmetry_Int_Tables_number   1
_chemical_formula_structural   LiBi4I3
_chemical_formula_sum   'Li3 Bi12 I9'
_cell_volume   891.48606806
_cell_formula_units_Z   3
loop_
 _symmetry_equiv_pos_site_id
 _symmetry_equiv_pos_as_xyz
  1  'x, y, z'
loop_
 _atom_site_type_symbol
 _atom_site_label
 _atom_site_symmetry_multiplicity
 _atom_site_fract_x
 _atom_site_fract_y
 _atom_site_fract_z
 _atom_site_occupancy
  Li  Li0  1  0.952883  0.952883  0.188631  1
  Li  Li1  1  0.468265  0.468265  0.773742  1
  Li  Li2  1  0.584445  0.584445  0.537576  1
  Bi  Bi3  1  0.082177  0.082177  0.017700  1
  Bi  Bi4  1  0.737247  0.737247  0.038897  1
  Bi  Bi5  1  0.248352  0.248352  0.529223  1
  Bi  Bi6  1  0.237512  0.237512  0.041330  1
  Bi  Bi7  1  0.748489  0.748489  0.520445  1
  Bi  Bi8  1  0.884667  0.884667  0.922718  1
  Bi  Bi9  1  0.305310  0.305310  0.078676  1
  Bi  Bi10  1  0.168598  0.168598  0.307504  1
  Bi  Bi11  1  0.677661  0.677661  0.790667  1
  Bi  Bi12  1  0.806086  0.806086  0.084539  1
  Bi  Bi13  1  0.176531  0.176531  0.785650  1
  Bi  Bi14  1  0.667504  0.667504  0.301511  1
  I  I15  1  0.086117  0.086117  0.523894  1
  I  I16  1  0.586356  0.586356  0.005345  1
  I  I17  1  0.887967  0.887967  0.352447  1
  I  I18  1  0.386961  0.386961  0.892850  1
  I  I19  1  0.452295  0.452295  0.201155  1
  I  I20  1  0.956296  0.956296  0.752792  1
  I  I21  1  0.527175  0.527175  0.596871  1
  I  I22  1  0.019800  0.019800  0.195410  1
  I  I23  1  0.319392  0.319392  0.560432  1
