# generated using pymatgen
data_Pr3Al12IrOs2Pt
_symmetry_space_group_name_H-M   'P 1'
_cell_length_a   8.94448057
_cell_length_b   8.92089227
_cell_length_c   9.68660186
_cell_angle_alpha   89.97549752
_cell_angle_beta   89.93286136
_cell_angle_gamma   119.86341980
_symmetry_Int_Tables_number   1
_chemical_formula_structural   Pr3Al12IrOs2Pt
_chemical_formula_sum   'Pr6 Al24 Ir2 Os4 Pt2'
_cell_volume   670.28727022
_cell_formula_units_Z   2
loop_
 _symmetry_equiv_pos_site_id
 _symmetry_equiv_pos_as_xyz
  1  'x, y, z'
loop_
 _atom_site_type_symbol
 _atom_site_label
 _atom_site_symmetry_multiplicity
 _atom_site_fract_x
 _atom_site_fract_y
 _atom_site_fract_z
 _atom_site_occupancy
  Pr  Pr0  1  0.191173  0.381631  0.248911  1
  Pr  Pr1  1  0.808827  0.618369  0.751089  1
  Pr  Pr2  1  0.619847  0.808083  0.250385  1
  Pr  Pr3  1  0.380153  0.191917  0.749615  1
  Pr  Pr4  1  0.188465  0.807476  0.251798  1
  Pr  Pr5  1  0.811535  0.192524  0.748202  1
  Al  Al6  1  0.331537  0.669171  0.022236  1
  Al  Al7  1  0.668463  0.330829  0.977764  1
  Al  Al8  1  0.669219  0.338403  0.521701  1
  Al  Al9  1  0.330781  0.661597  0.478299  1
  Al  Al10  1  0.164943  0.329705  0.572745  1
  Al  Al11  1  0.835057  0.670295  0.427255  1
  Al  Al12  1  0.673262  0.831535  0.573840  1
  Al  Al13  1  0.840013  0.673618  0.076208  1
  Al  Al14  1  0.326738  0.168465  0.426160  1
  Al  Al15  1  0.159987  0.326382  0.923792  1
  Al  Al16  1  0.157789  0.831698  0.577063  1
  Al  Al17  1  0.325984  0.159151  0.075094  1
  Al  Al18  1  0.842211  0.168302  0.422937  1
  Al  Al19  1  0.674016  0.840849  0.924906  1
  Al  Al20  1  0.836131  0.163239  0.076293  1
  Al  Al21  1  0.163869  0.836761  0.923707  1
  Al  Al22  1  0.563914  0.127082  0.246944  1
  Al  Al23  1  0.436086  0.872918  0.753056  1
  Al  Al24  1  0.873887  0.436458  0.250513  1
  Al  Al25  1  0.126113  0.563542  0.749487  1
  Al  Al26  1  0.564086  0.436390  0.253123  1
  Al  Al27  1  0.435914  0.563610  0.746877  1
  Al  Al28  1  0.998355  0.998795  0.250183  1
  Al  Al29  1  0.001645  0.001205  0.749817  1
  Ir  Ir30  1  0.500000  0.000000  0.000000  1
  Ir  Ir31  1  0.000000  0.500000  0.000000  1
  Os  Os32  1  0.000000  0.500000  0.500000  1
  Os  Os33  1  0.500000  0.500000  0.500000  1
  Os  Os34  1  0.000000  0.000000  0.000000  1
  Os  Os35  1  0.000000  0.000000  0.500000  1
  Pt  Pt36  1  0.500000  0.000000  0.500000  1
  Pt  Pt37  1  0.500000  0.500000  0.000000  1
