# generated using pymatgen
data_Al7(Ag3Au8)2
_symmetry_space_group_name_H-M   'P 1'
_cell_length_a   9.01668948
_cell_length_b   9.01668949
_cell_length_c   9.01668900
_cell_angle_alpha   59.99999812
_cell_angle_beta   59.99999810
_cell_angle_gamma   59.99999876
_symmetry_Int_Tables_number   1
_chemical_formula_structural   Al7(Ag3Au8)2
_chemical_formula_sum   'Al7 Ag6 Au16'
_cell_volume   518.35382034
_cell_formula_units_Z   1
loop_
 _symmetry_equiv_pos_site_id
 _symmetry_equiv_pos_as_xyz
  1  'x, y, z'
loop_
 _atom_site_type_symbol
 _atom_site_label
 _atom_site_symmetry_multiplicity
 _atom_site_fract_x
 _atom_site_fract_y
 _atom_site_fract_z
 _atom_site_occupancy
  Al  Al0  1  0.500000  0.000000  0.000000  1
  Al  Al1  1  0.000000  0.500000  0.500000  1
  Al  Al2  1  0.000000  0.500000  0.000000  1
  Al  Al3  1  0.000000  0.000000  0.500000  1
  Al  Al4  1  0.500000  0.000000  0.500000  1
  Al  Al5  1  0.500000  0.500000  0.000000  1
  Al  Al6  1  0.000000  0.000000  0.000000  1
  Ag  Ag7  1  0.710232  0.289768  0.289768  1
  Ag  Ag8  1  0.289768  0.710232  0.710232  1
  Ag  Ag9  1  0.289768  0.710232  0.289768  1
  Ag  Ag10  1  0.289768  0.289768  0.710232  1
  Ag  Ag11  1  0.710232  0.289768  0.710232  1
  Ag  Ag12  1  0.710232  0.710232  0.289768  1
  Au  Au13  1  0.345314  0.345314  0.345314  1
  Au  Au14  1  0.345314  0.345314  0.964057  1
  Au  Au15  1  0.964057  0.345314  0.345314  1
  Au  Au16  1  0.345314  0.964057  0.345314  1
  Au  Au17  1  0.654686  0.654686  0.654686  1
  Au  Au18  1  0.654686  0.654686  0.035943  1
  Au  Au19  1  0.654686  0.035943  0.654686  1
  Au  Au20  1  0.035943  0.654686  0.654686  1
  Au  Au21  1  0.118532  0.118532  0.118532  1
  Au  Au22  1  0.118532  0.118532  0.644402  1
  Au  Au23  1  0.644402  0.118532  0.118532  1
  Au  Au24  1  0.118532  0.644402  0.118532  1
  Au  Au25  1  0.881468  0.881468  0.881468  1
  Au  Au26  1  0.881468  0.881468  0.355598  1
  Au  Au27  1  0.881468  0.355598  0.881468  1
  Au  Au28  1  0.355598  0.881468  0.881468  1
