# generated using pymatgen
data_Mg3(AsO3)2
_symmetry_space_group_name_H-M   'P 1'
_cell_length_a   6.26716400
_cell_length_b   7.96645600
_cell_length_c   14.58860800
_cell_angle_alpha   90.00000000
_cell_angle_beta   90.00000000
_cell_angle_gamma   90.00000000
_symmetry_Int_Tables_number   1
_chemical_formula_structural   Mg3(AsO3)2
_chemical_formula_sum   'Mg12 As8 O24'
_cell_volume   728.36668989
_cell_formula_units_Z   4
loop_
 _symmetry_equiv_pos_site_id
 _symmetry_equiv_pos_as_xyz
  1  'x, y, z'
loop_
 _atom_site_type_symbol
 _atom_site_label
 _atom_site_symmetry_multiplicity
 _atom_site_fract_x
 _atom_site_fract_y
 _atom_site_fract_z
 _atom_site_occupancy
  Mg  Mg0  1  0.000000  0.316399  0.500000  1
  Mg  Mg1  1  0.500000  0.683601  0.000000  1
  Mg  Mg2  1  0.000000  0.683601  0.500000  1
  Mg  Mg3  1  0.500000  0.316399  0.000000  1
  Mg  Mg4  1  0.437239  0.785440  0.222030  1
  Mg  Mg5  1  0.937239  0.214560  0.277970  1
  Mg  Mg6  1  0.562761  0.785440  0.777970  1
  Mg  Mg7  1  0.062761  0.214560  0.722030  1
  Mg  Mg8  1  0.937239  0.785440  0.277970  1
  Mg  Mg9  1  0.437239  0.214560  0.222030  1
  Mg  Mg10  1  0.062761  0.785440  0.722030  1
  Mg  Mg11  1  0.562761  0.214560  0.777970  1
  As  As12  1  0.093361  0.500000  0.126836  1
  As  As13  1  0.593361  0.500000  0.373164  1
  As  As14  1  0.906639  0.500000  0.873164  1
  As  As15  1  0.406639  0.500000  0.626836  1
  As  As16  1  0.770894  0.000000  0.098315  1
  As  As17  1  0.270894  0.000000  0.401685  1
  As  As18  1  0.229106  0.000000  0.901685  1
  As  As19  1  0.729106  0.000000  0.598315  1
  O  O20  1  0.414840  0.173214  0.896578  1
  O  O21  1  0.914840  0.826786  0.603422  1
  O  O22  1  0.585160  0.173214  0.103422  1
  O  O23  1  0.085160  0.826786  0.396578  1
  O  O24  1  0.585160  0.826786  0.103422  1
  O  O25  1  0.085160  0.173214  0.396578  1
  O  O26  1  0.414840  0.826786  0.896578  1
  O  O27  1  0.914840  0.173214  0.603422  1
  O  O28  1  0.342648  0.325994  0.701311  1
  O  O29  1  0.842648  0.674006  0.798689  1
  O  O30  1  0.657352  0.325994  0.298689  1
  O  O31  1  0.157352  0.674006  0.201311  1
  O  O32  1  0.657352  0.674006  0.298689  1
  O  O33  1  0.157352  0.325994  0.201311  1
  O  O34  1  0.342648  0.674006  0.701311  1
  O  O35  1  0.842648  0.325994  0.798689  1
  O  O36  1  0.838506  0.000000  0.219064  1
  O  O37  1  0.338506  0.000000  0.280936  1
  O  O38  1  0.161494  0.000000  0.780936  1
  O  O39  1  0.661494  0.000000  0.719064  1
  O  O40  1  0.666827  0.500000  0.940760  1
  O  O41  1  0.166827  0.500000  0.559240  1
  O  O42  1  0.333173  0.500000  0.059240  1
  O  O43  1  0.833173  0.500000  0.440760  1
