# generated using pymatgen
data_YbYB4Ir5
_symmetry_space_group_name_H-M   'P 1'
_cell_length_a   7.50950732
_cell_length_b   6.33359798
_cell_length_c   5.61363174
_cell_angle_alpha   77.62885822
_cell_angle_beta   55.46973987
_cell_angle_gamma   46.90141548
_symmetry_Int_Tables_number   1
_chemical_formula_structural   YbYB4Ir5
_chemical_formula_sum   'Yb1 Y1 B4 Ir5'
_cell_volume   153.81977346
_cell_formula_units_Z   1
loop_
 _symmetry_equiv_pos_site_id
 _symmetry_equiv_pos_as_xyz
  1  'x, y, z'
loop_
 _atom_site_type_symbol
 _atom_site_label
 _atom_site_symmetry_multiplicity
 _atom_site_fract_x
 _atom_site_fract_y
 _atom_site_fract_z
 _atom_site_occupancy
  Yb  Yb0  1  0.357341  0.357342  0.642659  1
  Y  Y1  1  0.634432  0.634433  0.365568  1
  B  B2  1  0.291025  0.974902  0.025098  1
  B  B3  1  0.026265  0.712135  0.287865  1
  B  B4  1  0.974902  0.291025  0.708975  1
  B  B5  1  0.712135  0.026265  0.973735  1
  Ir  Ir6  1  0.002433  0.002433  0.997567  1
  Ir  Ir7  1  0.499833  0.499833  0.000167  1
  Ir  Ir8  1  0.250901  0.250901  0.249100  1
  Ir  Ir9  1  0.999833  0.999833  0.500167  1
  Ir  Ir10  1  0.750900  0.750901  0.749100  1
