# generated using pymatgen
data_Dy6Ho(TmGa4)5
_symmetry_space_group_name_H-M   'P 1'
_cell_length_a   6.07404967
_cell_length_b   9.58618439
_cell_length_c   11.49970907
_cell_angle_alpha   90.01379024
_cell_angle_beta   89.95103683
_cell_angle_gamma   89.98115581
_symmetry_Int_Tables_number   1
_chemical_formula_structural   Dy6Ho(TmGa4)5
_chemical_formula_sum   'Dy6 Ho1 Tm5 Ga20'
_cell_volume   669.59280164
_cell_formula_units_Z   1
loop_
 _symmetry_equiv_pos_site_id
 _symmetry_equiv_pos_as_xyz
  1  'x, y, z'
loop_
 _atom_site_type_symbol
 _atom_site_label
 _atom_site_symmetry_multiplicity
 _atom_site_fract_x
 _atom_site_fract_y
 _atom_site_fract_z
 _atom_site_occupancy
  Dy  Dy0  1  0.609364  0.990601  0.851310  1
  Dy  Dy1  1  0.109128  0.009081  0.648804  1
  Dy  Dy2  1  0.390946  0.490861  0.148011  1
  Dy  Dy3  1  0.108974  0.490951  0.648866  1
  Dy  Dy4  1  0.390888  0.009235  0.148397  1
  Dy  Dy5  1  0.890631  0.991121  0.351431  1
  Ho  Ho6  1  0.890649  0.509129  0.351391  1
  Tm  Tm7  1  0.848619  0.749765  0.074281  1
  Tm  Tm8  1  0.651143  0.749959  0.574707  1
  Tm  Tm9  1  0.152246  0.249782  0.925385  1
  Tm  Tm10  1  0.348533  0.250103  0.425658  1
  Tm  Tm11  1  0.608997  0.509344  0.851265  1
  Ga  Ga12  1  0.875798  0.053290  0.089593  1
  Ga  Ga13  1  0.623838  0.447381  0.590621  1
  Ga  Ga14  1  0.125413  0.552656  0.910076  1
  Ga  Ga15  1  0.375903  0.946956  0.410302  1
  Ga  Ga16  1  0.124044  0.946489  0.910197  1
  Ga  Ga17  1  0.375806  0.552988  0.410204  1
  Ga  Ga18  1  0.876088  0.447014  0.089532  1
  Ga  Ga19  1  0.623947  0.053100  0.589683  1
  Ga  Ga20  1  0.170422  0.749863  0.251960  1
  Ga  Ga21  1  0.329484  0.749264  0.752582  1
  Ga  Ga22  1  0.828292  0.250927  0.748980  1
  Ga  Ga23  1  0.670881  0.250322  0.247857  1
  Ga  Ga24  1  0.375292  0.749784  0.003719  1
  Ga  Ga25  1  0.125382  0.749934  0.503920  1
  Ga  Ga26  1  0.625973  0.250916  0.994687  1
  Ga  Ga27  1  0.874274  0.250416  0.496172  1
  Ga  Ga28  1  0.602792  0.749814  0.299032  1
  Ga  Ga29  1  0.896202  0.748792  0.799363  1
  Ga  Ga30  1  0.397431  0.250055  0.700965  1
  Ga  Ga31  1  0.102618  0.250111  0.201052  1
