# generated using pymatgen
data_Lu5Al2BiTe
_symmetry_space_group_name_H-M   'P 1'
_cell_length_a   8.60699400
_cell_length_b   8.60699494
_cell_length_c   7.87129300
_cell_angle_alpha   90.00000000
_cell_angle_beta   90.00000000
_cell_angle_gamma   125.73091979
_symmetry_Int_Tables_number   1
_chemical_formula_structural   Lu5Al2BiTe
_chemical_formula_sum   'Lu10 Al4 Bi2 Te2'
_cell_volume   473.34884455
_cell_formula_units_Z   2
loop_
 _symmetry_equiv_pos_site_id
 _symmetry_equiv_pos_as_xyz
  1  'x, y, z'
loop_
 _atom_site_type_symbol
 _atom_site_label
 _atom_site_symmetry_multiplicity
 _atom_site_fract_x
 _atom_site_fract_y
 _atom_site_fract_z
 _atom_site_occupancy
  Lu  Lu0  1  0.000644  0.999356  0.000000  1
  Lu  Lu1  1  0.500644  0.499356  0.500000  1
  Lu  Lu2  1  0.790737  0.540050  0.166944  1
  Lu  Lu3  1  0.459950  0.209263  0.833056  1
  Lu  Lu4  1  0.959950  0.709263  0.666944  1
  Lu  Lu5  1  0.290737  0.040050  0.333056  1
  Lu  Lu6  1  0.203901  0.457284  0.831526  1
  Lu  Lu7  1  0.542716  0.796099  0.168474  1
  Lu  Lu8  1  0.042716  0.296099  0.331526  1
  Lu  Lu9  1  0.703901  0.957284  0.668474  1
  Al  Al10  1  0.872497  0.875330  0.374435  1
  Al  Al11  1  0.124670  0.127503  0.625565  1
  Al  Al12  1  0.624670  0.627503  0.874435  1
  Al  Al13  1  0.372497  0.375330  0.125565  1
  Bi  Bi14  1  0.209458  0.790542  0.000000  1
  Bi  Bi15  1  0.709458  0.290542  0.500000  1
  Te  Te16  1  0.795427  0.204573  0.000000  1
  Te  Te17  1  0.295427  0.704573  0.500000  1
