# generated using pymatgen
data_Ho15Tm5Ir11Rh
_symmetry_space_group_name_H-M   'P 1'
_cell_length_a   10.80427812
_cell_length_b   10.80423842
_cell_length_c   6.36050300
_cell_angle_alpha   89.98744760
_cell_angle_beta   89.99149919
_cell_angle_gamma   90.00973460
_symmetry_Int_Tables_number   1
_chemical_formula_structural   Ho15Tm5Ir11Rh
_chemical_formula_sum   'Ho15 Tm5 Ir11 Rh1'
_cell_volume   742.47417851
_cell_formula_units_Z   1
loop_
 _symmetry_equiv_pos_site_id
 _symmetry_equiv_pos_as_xyz
  1  'x, y, z'
loop_
 _atom_site_type_symbol
 _atom_site_label
 _atom_site_symmetry_multiplicity
 _atom_site_fract_x
 _atom_site_fract_y
 _atom_site_fract_z
 _atom_site_occupancy
  Ho  Ho0  1  0.290528  0.912481  0.878148  1
  Ho  Ho1  1  0.709117  0.087836  0.878109  1
  Ho  Ho2  1  0.709359  0.912625  0.379572  1
  Ho  Ho3  1  0.587659  0.790826  0.878146  1
  Ho  Ho4  1  0.586997  0.209367  0.379757  1
  Ho  Ho5  1  0.412312  0.790878  0.379727  1
  Ho  Ho6  1  0.411755  0.209157  0.878124  1
  Ho  Ho7  1  0.209066  0.411854  0.621510  1
  Ho  Ho8  1  0.209144  0.587993  0.121712  1
  Ho  Ho9  1  0.790967  0.411903  0.121565  1
  Ho  Ho10  1  0.790911  0.588155  0.621806  1
  Ho  Ho11  1  0.912019  0.709144  0.121537  1
  Ho  Ho12  1  0.911905  0.290926  0.621836  1
  Ho  Ho13  1  0.088186  0.709166  0.621431  1
  Ho  Ho14  1  0.088522  0.290433  0.121973  1
  Tm  Tm15  1  0.291351  0.087253  0.381127  1
  Tm  Tm16  1  0.000534  0.000272  0.498732  1
  Tm  Tm17  1  0.000027  0.000059  0.998921  1
  Tm  Tm18  1  0.499946  0.499821  0.999396  1
  Tm  Tm19  1  0.499859  0.500020  0.499165  1
  Ir  Ir20  1  0.847079  0.152356  0.249155  1
  Ir  Ir21  1  0.847088  0.847830  0.749400  1
  Ir  Ir22  1  0.153340  0.152065  0.748144  1
  Ir  Ir23  1  0.153454  0.848446  0.249807  1
  Ir  Ir24  1  0.652185  0.347050  0.749512  1
  Ir  Ir25  1  0.652464  0.652878  0.249201  1
  Ir  Ir26  1  0.347630  0.346059  0.249984  1
  Ir  Ir27  1  0.347751  0.652909  0.749653  1
  Ir  Ir28  1  0.499419  0.000212  0.624134  1
  Ir  Ir29  1  0.000174  0.499928  0.876339  1
  Ir  Ir30  1  0.000098  0.499879  0.376339  1
  Rh  Rh31  1  0.499154  0.000220  0.126032  1
