# generated using pymatgen
data_Hf2Zr8Al2Sn5Bi
_symmetry_space_group_name_H-M   'P 1'
_cell_length_a   8.77378300
_cell_length_b   8.76260949
_cell_length_c   5.88662900
_cell_angle_alpha   89.96780309
_cell_angle_beta   90.00000000
_cell_angle_gamma   120.04218632
_symmetry_Int_Tables_number   1
_chemical_formula_structural   Hf2Zr8Al2Sn5Bi
_chemical_formula_sum   'Hf2 Zr8 Al2 Sn5 Bi1'
_cell_volume   391.77144465
_cell_formula_units_Z   1
loop_
 _symmetry_equiv_pos_site_id
 _symmetry_equiv_pos_as_xyz
  1  'x, y, z'
loop_
 _atom_site_type_symbol
 _atom_site_label
 _atom_site_symmetry_multiplicity
 _atom_site_fract_x
 _atom_site_fract_y
 _atom_site_fract_z
 _atom_site_occupancy
  Hf  Hf0  1  0.330449  0.663156  0.998086  1
  Hf  Hf1  1  0.667293  0.336844  0.501914  1
  Zr  Zr2  1  0.667242  0.336122  0.998511  1
  Zr  Zr3  1  0.331119  0.663878  0.501489  1
  Zr  Zr4  1  0.266984  0.000000  0.250000  1
  Zr  Zr5  1  0.270741  0.270782  0.750011  1
  Zr  Zr6  1  0.999960  0.729218  0.749989  1
  Zr  Zr7  1  0.004931  0.272577  0.249929  1
  Zr  Zr8  1  0.732355  0.727423  0.250071  1
  Zr  Zr9  1  0.730278  0.000000  0.750000  1
  Al  Al10  1  0.999982  0.999993  0.998596  1
  Al  Al11  1  0.999989  0.000007  0.501404  1
  Sn  Sn12  1  0.613592  0.614300  0.750134  1
  Sn  Sn13  1  0.999292  0.385700  0.749866  1
  Sn  Sn14  1  0.000610  0.613108  0.250012  1
  Sn  Sn15  1  0.387500  0.386892  0.249988  1
  Sn  Sn16  1  0.385173  0.000000  0.750000  1
  Bi  Bi17  1  0.612508  0.000000  0.250000  1
