# generated using pymatgen
data_Tb8GaGeI12
_symmetry_space_group_name_H-M   'P 1'
_cell_length_a   4.27344300
_cell_length_b   14.09031190
_cell_length_c   14.83686649
_cell_angle_alpha   90.27348223
_cell_angle_beta   90.00000000
_cell_angle_gamma   90.00000000
_symmetry_Int_Tables_number   1
_chemical_formula_structural   Tb8GaGeI12
_chemical_formula_sum   'Tb8 Ga1 Ge1 I12'
_cell_volume   893.37904974
_cell_formula_units_Z   1
loop_
 _symmetry_equiv_pos_site_id
 _symmetry_equiv_pos_as_xyz
  1  'x, y, z'
loop_
 _atom_site_type_symbol
 _atom_site_label
 _atom_site_symmetry_multiplicity
 _atom_site_fract_x
 _atom_site_fract_y
 _atom_site_fract_z
 _atom_site_occupancy
  Tb  Tb0  1  0.500000  0.114941  0.346456  1
  Tb  Tb1  1  0.500000  0.885059  0.653544  1
  Tb  Tb2  1  0.500000  0.615523  0.154763  1
  Tb  Tb3  1  0.500000  0.384477  0.845237  1
  Tb  Tb4  1  0.000000  0.111978  0.575653  1
  Tb  Tb5  1  0.000000  0.888022  0.424347  1
  Tb  Tb6  1  0.000000  0.612102  0.924714  1
  Tb  Tb7  1  0.000000  0.387898  0.075286  1
  Ga  Ga8  1  0.500000  0.000000  0.500000  1
  Ge  Ge9  1  0.500000  0.500000  0.000000  1
  I  I10  1  0.500000  0.249070  0.163818  1
  I  I11  1  0.500000  0.750930  0.836182  1
  I  I12  1  0.500000  0.747407  0.333893  1
  I  I13  1  0.500000  0.252593  0.666107  1
  I  I14  1  0.000000  0.259735  0.415607  1
  I  I15  1  0.000000  0.740265  0.584393  1
  I  I16  1  0.000000  0.757894  0.084954  1
  I  I17  1  0.000000  0.242106  0.915046  1
  I  I18  1  0.000000  0.999471  0.238994  1
  I  I19  1  0.000000  0.000529  0.761006  1
  I  I20  1  0.000000  0.499564  0.259130  1
  I  I21  1  0.000000  0.500436  0.740870  1
