# generated using pymatgen
data_Nd20Si15Pd
_symmetry_space_group_name_H-M   'P 1'
_cell_length_a   7.81746767
_cell_length_b   7.95189896
_cell_length_c   15.14675932
_cell_angle_alpha   89.68449296
_cell_angle_beta   89.46101984
_cell_angle_gamma   90.05139969
_symmetry_Int_Tables_number   1
_chemical_formula_structural   Nd20Si15Pd
_chemical_formula_sum   'Nd20 Si15 Pd1'
_cell_volume   941.52244122
_cell_formula_units_Z   1
loop_
 _symmetry_equiv_pos_site_id
 _symmetry_equiv_pos_as_xyz
  1  'x, y, z'
loop_
 _atom_site_type_symbol
 _atom_site_label
 _atom_site_symmetry_multiplicity
 _atom_site_fract_x
 _atom_site_fract_y
 _atom_site_fract_z
 _atom_site_occupancy
  Nd  Nd0  1  0.135857  0.511981  0.748100  1
  Nd  Nd1  1  0.813266  0.327273  0.617971  1
  Nd  Nd2  1  0.457539  0.686562  0.898439  1
  Nd  Nd3  1  0.957342  0.813425  0.897746  1
  Nd  Nd4  1  0.186488  0.683089  0.120679  1
  Nd  Nd5  1  0.691486  0.819286  0.120764  1
  Nd  Nd6  1  0.309534  0.180094  0.878323  1
  Nd  Nd7  1  0.188858  0.678058  0.379762  1
  Nd  Nd8  1  0.042643  0.186910  0.102747  1
  Nd  Nd9  1  0.314039  0.180010  0.622034  1
  Nd  Nd10  1  0.856282  0.490373  0.256099  1
  Nd  Nd11  1  0.363104  0.008544  0.251668  1
  Nd  Nd12  1  0.532991  0.313248  0.396859  1
  Nd  Nd13  1  0.810755  0.317699  0.878817  1
  Nd  Nd14  1  0.963911  0.817427  0.601504  1
  Nd  Nd15  1  0.461141  0.687206  0.603171  1
  Nd  Nd16  1  0.043353  0.182006  0.397588  1
  Nd  Nd17  1  0.688455  0.818381  0.381555  1
  Nd  Nd18  1  0.638498  0.992642  0.749060  1
  Nd  Nd19  1  0.542438  0.312824  0.101961  1
  Si  Si20  1  0.478973  0.602544  0.246596  1
  Si  Si21  1  0.249012  0.379139  0.247308  1
  Si  Si22  1  0.518129  0.400011  0.751216  1
  Si  Si23  1  0.632217  0.025757  0.958544  1
  Si  Si24  1  0.017087  0.102415  0.749666  1
  Si  Si25  1  0.747164  0.621959  0.750552  1
  Si  Si26  1  0.751225  0.120580  0.248766  1
  Si  Si27  1  0.364866  0.971016  0.460426  1
  Si  Si28  1  0.981317  0.899107  0.249175  1
  Si  Si29  1  0.366200  0.974406  0.041139  1
  Si  Si30  1  0.635967  0.026101  0.541615  1
  Si  Si31  1  0.134829  0.473359  0.958970  1
  Si  Si32  1  0.147183  0.473335  0.542306  1
  Si  Si33  1  0.867411  0.525119  0.039956  1
  Si  Si34  1  0.247506  0.878637  0.751248  1
  Pd  Pd35  1  0.862933  0.519477  0.457671  1
