# generated using pymatgen
data_Pr2Nd2CdRu
_symmetry_space_group_name_H-M   'P 1'
_cell_length_a   9.97010951
_cell_length_b   9.97010943
_cell_length_c   9.96926700
_cell_angle_alpha   60.00279174
_cell_angle_beta   60.00279201
_cell_angle_gamma   59.99440740
_symmetry_Int_Tables_number   1
_chemical_formula_structural   Pr2Nd2CdRu
_chemical_formula_sum   'Pr8 Nd8 Cd4 Ru4'
_cell_volume   700.72570354
_cell_formula_units_Z   4
loop_
 _symmetry_equiv_pos_site_id
 _symmetry_equiv_pos_as_xyz
  1  'x, y, z'
loop_
 _atom_site_type_symbol
 _atom_site_label
 _atom_site_symmetry_multiplicity
 _atom_site_fract_x
 _atom_site_fract_y
 _atom_site_fract_z
 _atom_site_occupancy
  Pr  Pr0  1  0.189784  0.189784  0.810216  1
  Pr  Pr1  1  0.810216  0.810216  0.189784  1
  Pr  Pr2  1  0.939280  0.560720  0.560720  1
  Pr  Pr3  1  0.560720  0.939280  0.939280  1
  Pr  Pr4  1  0.560720  0.939280  0.560720  1
  Pr  Pr5  1  0.939280  0.560720  0.939280  1
  Pr  Pr6  1  0.560650  0.560650  0.939350  1
  Pr  Pr7  1  0.939350  0.939350  0.560650  1
  Nd  Nd8  1  0.345771  0.345771  0.345091  1
  Nd  Nd9  1  0.345771  0.345771  0.963365  1
  Nd  Nd10  1  0.345091  0.963365  0.345771  1
  Nd  Nd11  1  0.963365  0.345091  0.345771  1
  Nd  Nd12  1  0.810011  0.189989  0.189989  1
  Nd  Nd13  1  0.189989  0.810011  0.810011  1
  Nd  Nd14  1  0.189989  0.810011  0.189989  1
  Nd  Nd15  1  0.810011  0.189989  0.810011  1
  Cd  Cd16  1  0.578840  0.578840  0.579303  1
  Cd  Cd17  1  0.578840  0.578840  0.263015  1
  Cd  Cd18  1  0.579303  0.263015  0.578840  1
  Cd  Cd19  1  0.263015  0.579303  0.578840  1
  Ru  Ru20  1  0.137938  0.137938  0.138715  1
  Ru  Ru21  1  0.137938  0.137938  0.585407  1
  Ru  Ru22  1  0.138715  0.585407  0.137938  1
  Ru  Ru23  1  0.585407  0.138715  0.137938  1
