# generated using pymatgen
data_Rb2Hf(SiO3)3
_symmetry_space_group_name_H-M   'P 1'
_cell_length_a   7.13053500
_cell_length_b   7.13053486
_cell_length_c   10.30152200
_cell_angle_alpha   90.00000000
_cell_angle_beta   90.00000000
_cell_angle_gamma   120.00000530
_symmetry_Int_Tables_number   1
_chemical_formula_structural   Rb2Hf(SiO3)3
_chemical_formula_sum   'Rb4 Hf2 Si6 O18'
_cell_volume   453.60332160
_cell_formula_units_Z   2
loop_
 _symmetry_equiv_pos_site_id
 _symmetry_equiv_pos_as_xyz
  1  'x, y, z'
loop_
 _atom_site_type_symbol
 _atom_site_label
 _atom_site_symmetry_multiplicity
 _atom_site_fract_x
 _atom_site_fract_y
 _atom_site_fract_z
 _atom_site_occupancy
  Rb  Rb0  1  0.333333  0.666667  0.060597  1
  Rb  Rb1  1  0.666667  0.333333  0.560597  1
  Rb  Rb2  1  0.333333  0.666667  0.439403  1
  Rb  Rb3  1  0.666667  0.333333  0.939403  1
  Hf  Hf4  1  0.000000  0.000000  0.000000  1
  Hf  Hf5  1  0.000000  0.000000  0.500000  1
  Si  Si6  1  0.613806  0.751802  0.750000  1
  Si  Si7  1  0.862004  0.613806  0.250000  1
  Si  Si8  1  0.751802  0.137996  0.250000  1
  Si  Si9  1  0.248198  0.862004  0.750000  1
  Si  Si10  1  0.137996  0.386194  0.750000  1
  Si  Si11  1  0.386194  0.248198  0.250000  1
  O  O12  1  0.255663  0.218297  0.383746  1
  O  O13  1  0.037366  0.255663  0.883746  1
  O  O14  1  0.218297  0.962634  0.883746  1
  O  O15  1  0.781703  0.037366  0.383746  1
  O  O16  1  0.962634  0.744337  0.383746  1
  O  O17  1  0.744337  0.781703  0.883746  1
  O  O18  1  0.744337  0.781703  0.616254  1
  O  O19  1  0.962634  0.744337  0.116254  1
  O  O20  1  0.781703  0.037366  0.116254  1
  O  O21  1  0.218297  0.962634  0.616254  1
  O  O22  1  0.037366  0.255663  0.616254  1
  O  O23  1  0.255663  0.218297  0.116254  1
  O  O24  1  0.496482  0.090123  0.250000  1
  O  O25  1  0.406359  0.496482  0.750000  1
  O  O26  1  0.090123  0.593641  0.750000  1
  O  O27  1  0.909877  0.406359  0.250000  1
  O  O28  1  0.593641  0.503518  0.250000  1
  O  O29  1  0.503518  0.909877  0.750000  1
