# generated using pymatgen
data_Li2Pr2Si2Sn
_symmetry_space_group_name_H-M   'P 1'
_cell_length_a   9.85260785
_cell_length_b   9.85260849
_cell_length_c   6.90402600
_cell_angle_alpha   90.00000000
_cell_angle_beta   90.00000000
_cell_angle_gamma   153.23677208
_symmetry_Int_Tables_number   1
_chemical_formula_structural   Li2Pr2Si2Sn
_chemical_formula_sum   'Li4 Pr4 Si4 Sn2'
_cell_volume   301.79442792
_cell_formula_units_Z   2
loop_
 _symmetry_equiv_pos_site_id
 _symmetry_equiv_pos_as_xyz
  1  'x, y, z'
loop_
 _atom_site_type_symbol
 _atom_site_label
 _atom_site_symmetry_multiplicity
 _atom_site_fract_x
 _atom_site_fract_y
 _atom_site_fract_z
 _atom_site_occupancy
  Li  Li0  1  0.815628  0.184372  0.555042  1
  Li  Li1  1  0.184372  0.815628  0.444958  1
  Li  Li2  1  0.184372  0.815628  0.055042  1
  Li  Li3  1  0.815628  0.184372  0.944958  1
  Pr  Pr4  1  0.548576  0.451424  0.250000  1
  Pr  Pr5  1  0.451424  0.548576  0.750000  1
  Pr  Pr6  1  0.349549  0.650451  0.250000  1
  Pr  Pr7  1  0.650451  0.349549  0.750000  1
  Si  Si8  1  0.943339  0.056661  0.075176  1
  Si  Si9  1  0.056661  0.943339  0.924824  1
  Si  Si10  1  0.056661  0.943339  0.575176  1
  Si  Si11  1  0.943339  0.056661  0.424824  1
  Sn  Sn12  1  0.718923  0.281077  0.250000  1
  Sn  Sn13  1  0.281077  0.718923  0.750000  1
