# generated using pymatgen
data_EuSnPd4
_symmetry_space_group_name_H-M   'P 1'
_cell_length_a   8.37699400
_cell_length_b   9.03181031
_cell_length_c   12.80883800
_cell_angle_alpha   69.35592227
_cell_angle_beta   90.00000000
_cell_angle_gamma   90.00000000
_symmetry_Int_Tables_number   1
_chemical_formula_structural   EuSnPd4
_chemical_formula_sum   'Eu8 Sn8 Pd32'
_cell_volume   906.88138784
_cell_formula_units_Z   8
loop_
 _symmetry_equiv_pos_site_id
 _symmetry_equiv_pos_as_xyz
  1  'x, y, z'
loop_
 _atom_site_type_symbol
 _atom_site_label
 _atom_site_symmetry_multiplicity
 _atom_site_fract_x
 _atom_site_fract_y
 _atom_site_fract_z
 _atom_site_occupancy
  Eu  Eu0  1  0.073743  0.193517  0.612967  1
  Eu  Eu1  1  0.926257  0.806483  0.387033  1
  Eu  Eu2  1  0.573743  0.306483  0.387033  1
  Eu  Eu3  1  0.426257  0.693517  0.612967  1
  Eu  Eu4  1  0.228711  0.464153  0.071693  1
  Eu  Eu5  1  0.771289  0.535847  0.928307  1
  Eu  Eu6  1  0.728711  0.035847  0.928307  1
  Eu  Eu7  1  0.271289  0.964153  0.071693  1
  Sn  Sn8  1  0.250000  0.838823  0.822354  1
  Sn  Sn9  1  0.750000  0.661177  0.177646  1
  Sn  Sn10  1  0.750000  0.161177  0.177646  1
  Sn  Sn11  1  0.250000  0.338823  0.822354  1
  Sn  Sn12  1  0.250000  0.037358  0.425284  1
  Sn  Sn13  1  0.750000  0.462642  0.574716  1
  Sn  Sn14  1  0.750000  0.962642  0.574716  1
  Sn  Sn15  1  0.250000  0.537358  0.425284  1
  Pd  Pd16  1  0.088128  0.115832  0.222132  1
  Pd  Pd17  1  0.911872  0.337965  0.777868  1
  Pd  Pd18  1  0.588128  0.837965  0.777868  1
  Pd  Pd19  1  0.411872  0.615832  0.222132  1
  Pd  Pd20  1  0.911872  0.884168  0.777868  1
  Pd  Pd21  1  0.088128  0.662035  0.222132  1
  Pd  Pd22  1  0.411872  0.162035  0.222132  1
  Pd  Pd23  1  0.588128  0.384168  0.777868  1
  Pd  Pd24  1  0.092215  0.857510  0.604401  1
  Pd  Pd25  1  0.907785  0.461913  0.395599  1
  Pd  Pd26  1  0.592215  0.961913  0.395599  1
  Pd  Pd27  1  0.407785  0.357510  0.604401  1
  Pd  Pd28  1  0.907785  0.142490  0.395599  1
  Pd  Pd29  1  0.092215  0.538087  0.604401  1
  Pd  Pd30  1  0.407785  0.038087  0.604401  1
  Pd  Pd31  1  0.592215  0.642490  0.395599  1
  Pd  Pd32  1  0.079906  0.062563  0.874873  1
  Pd  Pd33  1  0.920094  0.937437  0.125127  1
  Pd  Pd34  1  0.579906  0.437437  0.125127  1
  Pd  Pd35  1  0.420094  0.562563  0.874873  1
  Pd  Pd36  1  0.417040  0.091979  0.816043  1
  Pd  Pd37  1  0.582960  0.908021  0.183957  1
  Pd  Pd38  1  0.917040  0.408021  0.183957  1
  Pd  Pd39  1  0.082960  0.591979  0.816043  1
  Pd  Pd40  1  0.190536  0.339537  0.320927  1
  Pd  Pd41  1  0.809464  0.660463  0.679073  1
  Pd  Pd42  1  0.690536  0.160463  0.679073  1
  Pd  Pd43  1  0.309464  0.839537  0.320927  1
  Pd  Pd44  1  0.000000  0.742086  0.000000  1
  Pd  Pd45  1  0.500000  0.242086  0.000000  1
  Pd  Pd46  1  0.000000  0.257914  0.000000  1
  Pd  Pd47  1  0.500000  0.757914  0.000000  1
