# generated using pymatgen
data_Yb2SmTm5(B6Ru)4
_symmetry_space_group_name_H-M   'P 1'
_cell_length_a   3.63369700
_cell_length_b   9.10787677
_cell_length_c   11.50562201
_cell_angle_alpha   90.01029973
_cell_angle_beta   90.00000000
_cell_angle_gamma   90.00000000
_symmetry_Int_Tables_number   1
_chemical_formula_structural   Yb2SmTm5(B6Ru)4
_chemical_formula_sum   'Yb2 Sm1 Tm5 B24 Ru4'
_cell_volume   380.78159754
_cell_formula_units_Z   1
loop_
 _symmetry_equiv_pos_site_id
 _symmetry_equiv_pos_as_xyz
  1  'x, y, z'
loop_
 _atom_site_type_symbol
 _atom_site_label
 _atom_site_symmetry_multiplicity
 _atom_site_fract_x
 _atom_site_fract_y
 _atom_site_fract_z
 _atom_site_occupancy
  Yb  Yb0  1  0.000000  0.677058  0.585840  1
  Yb  Yb1  1  0.000000  0.822992  0.085175  1
  Sm  Sm2  1  0.000000  0.324024  0.414780  1
  Tm  Tm3  1  0.000000  0.175723  0.914947  1
  Tm  Tm4  1  0.000000  0.940733  0.368450  1
  Tm  Tm5  1  0.000000  0.056065  0.630849  1
  Tm  Tm6  1  0.000000  0.443658  0.129565  1
  Tm  Tm7  1  0.000000  0.559145  0.869528  1
  B  B8  1  0.500000  0.555713  0.432869  1
  B  B9  1  0.500000  0.445968  0.569478  1
  B  B10  1  0.500000  0.054195  0.066705  1
  B  B11  1  0.500000  0.946286  0.933092  1
  B  B12  1  0.500000  0.749081  0.417781  1
  B  B13  1  0.500000  0.250345  0.583901  1
  B  B14  1  0.500000  0.249246  0.080610  1
  B  B15  1  0.500000  0.751825  0.917922  1
  B  B16  1  0.500000  0.790515  0.264310  1
  B  B17  1  0.500000  0.207929  0.736650  1
  B  B18  1  0.500000  0.290877  0.233445  1
  B  B19  1  0.500000  0.710013  0.765099  1
  B  B20  1  0.500000  0.630856  0.184632  1
  B  B21  1  0.500000  0.368924  0.815898  1
  B  B22  1  0.500000  0.129695  0.313386  1
  B  B23  1  0.500000  0.869605  0.685404  1
  B  B24  1  0.500000  0.982778  0.211015  1
  B  B25  1  0.500000  0.017285  0.788750  1
  B  B26  1  0.500000  0.484565  0.287316  1
  B  B27  1  0.500000  0.516863  0.712864  1
  B  B28  1  0.500000  0.600304  0.027138  1
  B  B29  1  0.500000  0.398565  0.971906  1
  B  B30  1  0.500000  0.098288  0.472714  1
  B  B31  1  0.500000  0.900370  0.527010  1
  Ru  Ru32  1  0.000000  0.638725  0.319531  1
  Ru  Ru33  1  0.000000  0.359540  0.682037  1
  Ru  Ru34  1  0.000000  0.139244  0.178911  1
  Ru  Ru35  1  0.000000  0.863007  0.820488  1
