# generated using pymatgen
data_Ta4Mo
_symmetry_space_group_name_H-M   'P 1'
_cell_length_a   3.26934008
_cell_length_b   5.46395103
_cell_length_c   5.46395211
_cell_angle_alpha   95.13512822
_cell_angle_beta   72.59202476
_cell_angle_gamma   107.40797314
_symmetry_Int_Tables_number   1
_chemical_formula_structural   Ta4Mo
_chemical_formula_sum   'Ta4 Mo1'
_cell_volume   88.86923108
_cell_formula_units_Z   1
loop_
 _symmetry_equiv_pos_site_id
 _symmetry_equiv_pos_as_xyz
  1  'x, y, z'
loop_
 _atom_site_type_symbol
 _atom_site_label
 _atom_site_symmetry_multiplicity
 _atom_site_fract_x
 _atom_site_fract_y
 _atom_site_fract_z
 _atom_site_occupancy
  Ta  Ta0  1  0.592513  0.384007  0.198981  1
  Ta  Ta1  1  0.208507  0.801020  0.384005  1
  Ta  Ta2  1  0.791494  0.198981  0.615996  1
  Ta  Ta3  1  0.407488  0.615994  0.801020  1
  Mo  Mo4  1  0.000000  0.000000  0.000000  1
