# generated using pymatgen
data_Yb7Er(Si3Pt)4
_symmetry_space_group_name_H-M   'P 1'
_cell_length_a   8.20420300
_cell_length_b   8.20420343
_cell_length_c   8.24628100
_cell_angle_alpha   90.00000000
_cell_angle_beta   90.00000000
_cell_angle_gamma   119.99999424
_symmetry_Int_Tables_number   1
_chemical_formula_structural   Yb7Er(Si3Pt)4
_chemical_formula_sum   'Yb7 Er1 Si12 Pt4'
_cell_volume   480.68614544
_cell_formula_units_Z   1
loop_
 _symmetry_equiv_pos_site_id
 _symmetry_equiv_pos_as_xyz
  1  'x, y, z'
loop_
 _atom_site_type_symbol
 _atom_site_label
 _atom_site_symmetry_multiplicity
 _atom_site_fract_x
 _atom_site_fract_y
 _atom_site_fract_z
 _atom_site_occupancy
  Yb  Yb0  1  0.503270  0.006542  0.250000  1
  Yb  Yb1  1  0.496549  0.993098  0.750000  1
  Yb  Yb2  1  0.993458  0.496730  0.250000  1
  Yb  Yb3  1  0.006902  0.503451  0.750000  1
  Yb  Yb4  1  0.503270  0.496730  0.250000  1
  Yb  Yb5  1  0.496549  0.503451  0.750000  1
  Yb  Yb6  1  0.000000  0.000000  0.250000  1
  Er  Er7  1  0.000000  0.000000  0.750000  1
  Si  Si8  1  0.164981  0.329962  0.999061  1
  Si  Si9  1  0.835046  0.670094  0.994541  1
  Si  Si10  1  0.670038  0.835019  0.999061  1
  Si  Si11  1  0.835046  0.670094  0.505459  1
  Si  Si12  1  0.329906  0.164954  0.994541  1
  Si  Si13  1  0.164981  0.329962  0.500939  1
  Si  Si14  1  0.164981  0.835019  0.999061  1
  Si  Si15  1  0.329906  0.164954  0.505459  1
  Si  Si16  1  0.835046  0.164954  0.994541  1
  Si  Si17  1  0.670038  0.835019  0.500939  1
  Si  Si18  1  0.835046  0.164954  0.505459  1
  Si  Si19  1  0.164981  0.835019  0.500939  1
  Pt  Pt20  1  0.333333  0.666667  0.006033  1
  Pt  Pt21  1  0.666667  0.333333  0.992460  1
  Pt  Pt22  1  0.666667  0.333333  0.507540  1
  Pt  Pt23  1  0.333333  0.666667  0.493967  1
