# generated using pymatgen
data_Tb15Tm4LuSn16
_symmetry_space_group_name_H-M   'P 1'
_cell_length_a   8.01949205
_cell_length_b   8.17344982
_cell_length_c   15.47798002
_cell_angle_alpha   90.02652941
_cell_angle_beta   89.95740556
_cell_angle_gamma   90.06143049
_symmetry_Int_Tables_number   1
_chemical_formula_structural   Tb15Tm4LuSn16
_chemical_formula_sum   'Tb15 Tm4 Lu1 Sn16'
_cell_volume   1014.53288204
_cell_formula_units_Z   1
loop_
 _symmetry_equiv_pos_site_id
 _symmetry_equiv_pos_as_xyz
  1  'x, y, z'
loop_
 _atom_site_type_symbol
 _atom_site_label
 _atom_site_symmetry_multiplicity
 _atom_site_fract_x
 _atom_site_fract_y
 _atom_site_fract_z
 _atom_site_occupancy
  Tb  Tb0  1  0.865211  0.662410  0.623181  1
  Tb  Tb1  1  0.634366  0.162076  0.377573  1
  Tb  Tb2  1  0.135665  0.337508  0.120968  1
  Tb  Tb3  1  0.634308  0.162871  0.122726  1
  Tb  Tb4  1  0.134233  0.337264  0.377638  1
  Tb  Tb5  1  0.365907  0.837598  0.622875  1
  Tb  Tb6  1  0.865999  0.662163  0.878086  1
  Tb  Tb7  1  0.518839  0.320195  0.903466  1
  Tb  Tb8  1  0.019846  0.178984  0.597429  1
  Tb  Tb9  1  0.480890  0.679706  0.403651  1
  Tb  Tb10  1  0.980197  0.820421  0.096532  1
  Tb  Tb11  1  0.481383  0.680404  0.095177  1
  Tb  Tb12  1  0.981012  0.820639  0.403270  1
  Tb  Tb13  1  0.519213  0.320820  0.597442  1
  Tb  Tb14  1  0.018832  0.178503  0.903020  1
  Tm  Tm15  1  0.364508  0.838519  0.876052  1
  Tm  Tm16  1  0.197266  0.503445  0.750730  1
  Tm  Tm17  1  0.696360  0.996429  0.750476  1
  Tm  Tm18  1  0.803739  0.496734  0.250075  1
  Lu  Lu19  1  0.303282  0.002917  0.249470  1
  Sn  Sn20  1  0.295210  0.035187  0.040627  1
  Sn  Sn21  1  0.794127  0.463559  0.457752  1
  Sn  Sn22  1  0.706369  0.963602  0.542772  1
  Sn  Sn23  1  0.207869  0.539838  0.956642  1
  Sn  Sn24  1  0.701171  0.962476  0.957218  1
  Sn  Sn25  1  0.205671  0.536288  0.543073  1
  Sn  Sn26  1  0.293943  0.036269  0.457278  1
  Sn  Sn27  1  0.794118  0.463410  0.042789  1
  Sn  Sn28  1  0.561600  0.618648  0.750969  1
  Sn  Sn29  1  0.062886  0.882123  0.750948  1
  Sn  Sn30  1  0.437569  0.383169  0.250102  1
  Sn  Sn31  1  0.938415  0.117164  0.249356  1
  Sn  Sn32  1  0.328659  0.149046  0.750608  1
  Sn  Sn33  1  0.828273  0.350099  0.750489  1
  Sn  Sn34  1  0.671482  0.849970  0.249858  1
  Sn  Sn35  1  0.171582  0.649550  0.249678  1
