# generated using pymatgen
data_PrPaZn5Sn
_symmetry_space_group_name_H-M   'P 1'
_cell_length_a   8.49053259
_cell_length_b   8.49053335
_cell_length_c   8.98816100
_cell_angle_alpha   90.00000000
_cell_angle_beta   90.00000000
_cell_angle_gamma   149.37708378
_symmetry_Int_Tables_number   1
_chemical_formula_structural   PrPaZn5Sn
_chemical_formula_sum   'Pr2 Pa2 Zn10 Sn2'
_cell_volume   330.05585890
_cell_formula_units_Z   2
loop_
 _symmetry_equiv_pos_site_id
 _symmetry_equiv_pos_as_xyz
  1  'x, y, z'
loop_
 _atom_site_type_symbol
 _atom_site_label
 _atom_site_symmetry_multiplicity
 _atom_site_fract_x
 _atom_site_fract_y
 _atom_site_fract_z
 _atom_site_occupancy
  Pr  Pr0  1  0.000000  0.000000  0.500000  1
  Pr  Pr1  1  0.000000  0.000000  0.000000  1
  Pa  Pa2  1  0.206783  0.793217  0.250000  1
  Pa  Pa3  1  0.793217  0.206783  0.750000  1
  Zn  Zn4  1  0.811926  0.188074  0.392904  1
  Zn  Zn5  1  0.188074  0.811926  0.607096  1
  Zn  Zn6  1  0.811926  0.188074  0.107096  1
  Zn  Zn7  1  0.188074  0.811926  0.892904  1
  Zn  Zn8  1  0.659200  0.340800  0.481291  1
  Zn  Zn9  1  0.340800  0.659200  0.518709  1
  Zn  Zn10  1  0.659200  0.340800  0.018709  1
  Zn  Zn11  1  0.340800  0.659200  0.981291  1
  Zn  Zn12  1  0.393811  0.606189  0.250000  1
  Zn  Zn13  1  0.606189  0.393811  0.750000  1
  Sn  Sn14  1  0.557546  0.442454  0.250000  1
  Sn  Sn15  1  0.442454  0.557546  0.750000  1
