# generated using pymatgen
data_Tb2LuMg3SiHg2
_symmetry_space_group_name_H-M   'P 1'
_cell_length_a   7.45342695
_cell_length_b   7.42300262
_cell_length_c   4.34814700
_cell_angle_alpha   90.00000000
_cell_angle_beta   90.00000000
_cell_angle_gamma   119.58367450
_symmetry_Int_Tables_number   1
_chemical_formula_structural   Tb2LuMg3SiHg2
_chemical_formula_sum   'Tb2 Lu1 Mg3 Si1 Hg2'
_cell_volume   209.20745597
_cell_formula_units_Z   1
loop_
 _symmetry_equiv_pos_site_id
 _symmetry_equiv_pos_as_xyz
  1  'x, y, z'
loop_
 _atom_site_type_symbol
 _atom_site_label
 _atom_site_symmetry_multiplicity
 _atom_site_fract_x
 _atom_site_fract_y
 _atom_site_fract_z
 _atom_site_occupancy
  Tb  Tb0  1  0.579473  0.008877  0.000000  1
  Tb  Tb1  1  0.990690  0.570420  0.000000  1
  Lu  Lu2  1  0.428678  0.420006  0.000000  1
  Mg  Mg3  1  0.250889  0.002599  0.500000  1
  Mg  Mg4  1  0.999369  0.248945  0.500000  1
  Mg  Mg5  1  0.749512  0.748440  0.500000  1
  Si  Si6  1  0.664555  0.334241  0.500000  1
  Hg  Hg7  1  0.334091  0.663471  0.500000  1
  Hg  Hg8  1  0.002746  0.002999  0.000000  1
