# generated using pymatgen
data_Th6IrRhAu6
_symmetry_space_group_name_H-M   'P 1'
_cell_length_a   8.27936078
_cell_length_b   8.27936080
_cell_length_c   8.27936087
_cell_angle_alpha   114.20500663
_cell_angle_beta   114.20500595
_cell_angle_gamma   114.20499649
_symmetry_Int_Tables_number   1
_chemical_formula_structural   Th6IrRhAu6
_chemical_formula_sum   'Th6 Ir1 Rh1 Au6'
_cell_volume   339.50029669
_cell_formula_units_Z   1
loop_
 _symmetry_equiv_pos_site_id
 _symmetry_equiv_pos_as_xyz
  1  'x, y, z'
loop_
 _atom_site_type_symbol
 _atom_site_label
 _atom_site_symmetry_multiplicity
 _atom_site_fract_x
 _atom_site_fract_y
 _atom_site_fract_z
 _atom_site_occupancy
  Th  Th0  1  0.041403  0.394167  0.283997  1
  Th  Th1  1  0.394167  0.283997  0.041403  1
  Th  Th2  1  0.716003  0.958597  0.605833  1
  Th  Th3  1  0.283997  0.041403  0.394167  1
  Th  Th4  1  0.605833  0.716003  0.958597  1
  Th  Th5  1  0.958597  0.605833  0.716003  1
  Ir  Ir6  1  0.000000  0.000000  0.000000  1
  Rh  Rh7  1  0.500000  0.500000  0.500000  1
  Au  Au8  1  0.431190  0.937992  0.771822  1
  Au  Au9  1  0.937992  0.771822  0.431190  1
  Au  Au10  1  0.228178  0.568810  0.062008  1
  Au  Au11  1  0.771822  0.431190  0.937992  1
  Au  Au12  1  0.062008  0.228178  0.568810  1
  Au  Au13  1  0.568810  0.062008  0.228178  1
