# generated using pymatgen
data_Er5Lu3Cd2IrRu
_symmetry_space_group_name_H-M   'P 1'
_cell_length_a   9.49757877
_cell_length_b   9.50479931
_cell_length_c   9.54762782
_cell_angle_alpha   59.81014565
_cell_angle_beta   59.88537748
_cell_angle_gamma   59.74366964
_symmetry_Int_Tables_number   1
_chemical_formula_structural   Er5Lu3Cd2IrRu
_chemical_formula_sum   'Er10 Lu6 Cd4 Ir2 Ru2'
_cell_volume   606.85964267
_cell_formula_units_Z   2
loop_
 _symmetry_equiv_pos_site_id
 _symmetry_equiv_pos_as_xyz
  1  'x, y, z'
loop_
 _atom_site_type_symbol
 _atom_site_label
 _atom_site_symmetry_multiplicity
 _atom_site_fract_x
 _atom_site_fract_y
 _atom_site_fract_z
 _atom_site_occupancy
  Er  Er0  1  0.437981  0.062010  0.440079  1
  Er  Er1  1  0.062039  0.437945  0.059938  1
  Er  Er2  1  0.438009  0.437977  0.061979  1
  Er  Er3  1  0.059393  0.059432  0.440583  1
  Er  Er4  1  0.188416  0.809745  0.813084  1
  Er  Er5  1  0.809740  0.188398  0.188806  1
  Er  Er6  1  0.809462  0.188609  0.812933  1
  Er  Er7  1  0.188619  0.809539  0.188937  1
  Er  Er8  1  0.810963  0.810927  0.189074  1
  Er  Er9  1  0.188631  0.188686  0.811348  1
  Lu  Lu10  1  0.598215  0.597759  0.597436  1
  Lu  Lu11  1  0.597770  0.598218  0.206599  1
  Lu  Lu12  1  0.596386  0.210332  0.597023  1
  Lu  Lu13  1  0.210272  0.596431  0.596264  1
  Lu  Lu14  1  0.061533  0.438179  0.440170  1
  Lu  Lu15  1  0.438135  0.061602  0.060136  1
  Cd  Cd16  1  0.830227  0.830489  0.830520  1
  Cd  Cd17  1  0.830478  0.830255  0.508764  1
  Cd  Cd18  1  0.830903  0.507642  0.830651  1
  Cd  Cd19  1  0.507608  0.830918  0.830829  1
  Ir  Ir20  1  0.394626  0.825532  0.389283  1
  Ir  Ir21  1  0.825494  0.394644  0.390599  1
  Ru  Ru22  1  0.392059  0.392706  0.388528  1
  Ru  Ru23  1  0.393040  0.392023  0.826434  1
