# generated using pymatgen
data_NiPd2PtO6
_symmetry_space_group_name_H-M   'P 1'
_cell_length_a   3.17989900
_cell_length_b   7.21608986
_cell_length_c   9.98918025
_cell_angle_alpha   90.05666566
_cell_angle_beta   90.00000000
_cell_angle_gamma   90.00000000
_symmetry_Int_Tables_number   1
_chemical_formula_structural   NiPd2PtO6
_chemical_formula_sum   'Ni2 Pd4 Pt2 O12'
_cell_volume   229.21598254
_cell_formula_units_Z   2
loop_
 _symmetry_equiv_pos_site_id
 _symmetry_equiv_pos_as_xyz
  1  'x, y, z'
loop_
 _atom_site_type_symbol
 _atom_site_label
 _atom_site_symmetry_multiplicity
 _atom_site_fract_x
 _atom_site_fract_y
 _atom_site_fract_z
 _atom_site_occupancy
  Ni  Ni0  1  0.000000  0.000000  0.000000  1
  Ni  Ni1  1  0.000000  0.500000  0.500000  1
  Pd  Pd2  1  0.000000  0.000000  0.500000  1
  Pd  Pd3  1  0.000000  0.500000  0.000000  1
  Pd  Pd4  1  0.500000  0.242323  0.246061  1
  Pd  Pd5  1  0.500000  0.757677  0.753939  1
  Pt  Pt6  1  0.500000  0.257198  0.746093  1
  Pt  Pt7  1  0.500000  0.742802  0.253907  1
  O  O8  1  0.500000  0.989472  0.146455  1
  O  O9  1  0.500000  0.010528  0.853545  1
  O  O10  1  0.500000  0.506167  0.645900  1
  O  O11  1  0.500000  0.493833  0.354100  1
  O  O12  1  0.000000  0.201693  0.368533  1
  O  O13  1  0.000000  0.798307  0.631467  1
  O  O14  1  0.000000  0.296402  0.867354  1
  O  O15  1  0.000000  0.703598  0.132646  1
  O  O16  1  0.000000  0.282029  0.120418  1
  O  O17  1  0.000000  0.717971  0.879582  1
  O  O18  1  0.000000  0.219091  0.621850  1
  O  O19  1  0.000000  0.780909  0.378150  1
