# generated using pymatgen
data_Dy3Tm5Cd2NiRu
_symmetry_space_group_name_H-M   'P 1'
_cell_length_a   9.49010133
_cell_length_b   9.49010207
_cell_length_c   9.55264300
_cell_angle_alpha   59.78175652
_cell_angle_beta   59.78175394
_cell_angle_gamma   59.52824971
_symmetry_Int_Tables_number   1
_chemical_formula_structural   Dy3Tm5Cd2NiRu
_chemical_formula_sum   'Dy6 Tm10 Cd4 Ni2 Ru2'
_cell_volume   604.15395632
_cell_formula_units_Z   2
loop_
 _symmetry_equiv_pos_site_id
 _symmetry_equiv_pos_as_xyz
  1  'x, y, z'
loop_
 _atom_site_type_symbol
 _atom_site_label
 _atom_site_symmetry_multiplicity
 _atom_site_fract_x
 _atom_site_fract_y
 _atom_site_fract_z
 _atom_site_occupancy
  Dy  Dy0  1  0.189006  0.808012  0.815293  1
  Dy  Dy1  1  0.808012  0.189006  0.187689  1
  Dy  Dy2  1  0.808012  0.189006  0.815293  1
  Dy  Dy3  1  0.189006  0.808012  0.187689  1
  Dy  Dy4  1  0.814186  0.814186  0.185814  1
  Dy  Dy5  1  0.191445  0.191445  0.808555  1
  Tm  Tm6  1  0.599271  0.599271  0.592745  1
  Tm  Tm7  1  0.599271  0.599271  0.208713  1
  Tm  Tm8  1  0.602104  0.206780  0.595559  1
  Tm  Tm9  1  0.206780  0.602104  0.595559  1
  Tm  Tm10  1  0.062600  0.435217  0.438347  1
  Tm  Tm11  1  0.435217  0.062600  0.063835  1
  Tm  Tm12  1  0.435217  0.062600  0.438347  1
  Tm  Tm13  1  0.062600  0.435217  0.063835  1
  Tm  Tm14  1  0.436432  0.436432  0.063568  1
  Tm  Tm15  1  0.061926  0.061926  0.438074  1
  Cd  Cd16  1  0.829049  0.829049  0.832173  1
  Cd  Cd17  1  0.829049  0.829049  0.509729  1
  Cd  Cd18  1  0.829204  0.507331  0.831732  1
  Cd  Cd19  1  0.507331  0.829204  0.831732  1
  Ni  Ni20  1  0.392512  0.825114  0.391186  1
  Ni  Ni21  1  0.825114  0.392512  0.391186  1
  Ru  Ru22  1  0.393326  0.393326  0.389907  1
  Ru  Ru23  1  0.393326  0.393326  0.823439  1
