# generated using pymatgen
data_Tm8Al2PdRu
_symmetry_space_group_name_H-M   'P 1'
_cell_length_a   9.41849503
_cell_length_b   9.41849663
_cell_length_c   9.45218700
_cell_angle_alpha   59.88160518
_cell_angle_beta   59.88159953
_cell_angle_gamma   59.56847321
_symmetry_Int_Tables_number   1
_chemical_formula_structural   Tm8Al2PdRu
_chemical_formula_sum   'Tm16 Al4 Pd2 Ru2'
_cell_volume   589.88796810
_cell_formula_units_Z   2
loop_
 _symmetry_equiv_pos_site_id
 _symmetry_equiv_pos_as_xyz
  1  'x, y, z'
loop_
 _atom_site_type_symbol
 _atom_site_label
 _atom_site_symmetry_multiplicity
 _atom_site_fract_x
 _atom_site_fract_y
 _atom_site_fract_z
 _atom_site_occupancy
  Tm  Tm0  1  0.352268  0.352268  0.360735  1
  Tm  Tm1  1  0.352268  0.352268  0.934728  1
  Tm  Tm2  1  0.349441  0.942948  0.353805  1
  Tm  Tm3  1  0.942948  0.349441  0.353805  1
  Tm  Tm4  1  0.812324  0.192321  0.194299  1
  Tm  Tm5  1  0.192321  0.812324  0.801057  1
  Tm  Tm6  1  0.192321  0.812324  0.194299  1
  Tm  Tm7  1  0.812324  0.192321  0.801057  1
  Tm  Tm8  1  0.191864  0.191864  0.808136  1
  Tm  Tm9  1  0.805014  0.805014  0.194986  1
  Tm  Tm10  1  0.935988  0.559617  0.566996  1
  Tm  Tm11  1  0.559617  0.935988  0.937397  1
  Tm  Tm12  1  0.559617  0.935988  0.566996  1
  Tm  Tm13  1  0.935988  0.559617  0.937397  1
  Tm  Tm14  1  0.564222  0.564222  0.935778  1
  Tm  Tm15  1  0.937608  0.937608  0.562392  1
  Al  Al16  1  0.578277  0.578277  0.578078  1
  Al  Al17  1  0.578277  0.578277  0.265368  1
  Al  Al18  1  0.578318  0.264473  0.578605  1
  Al  Al19  1  0.264473  0.578318  0.578605  1
  Pd  Pd20  1  0.146433  0.569564  0.142002  1
  Pd  Pd21  1  0.569564  0.146433  0.142002  1
  Ru  Ru22  1  0.144264  0.144264  0.140475  1
  Ru  Ru23  1  0.144264  0.144264  0.570999  1
