# generated using pymatgen
data_Nd19DySi15Ag
_symmetry_space_group_name_H-M   'P 1'
_cell_length_a   7.78548435
_cell_length_b   7.94938604
_cell_length_c   15.19504425
_cell_angle_alpha   89.79805929
_cell_angle_beta   89.47685063
_cell_angle_gamma   90.09134792
_symmetry_Int_Tables_number   1
_chemical_formula_structural   Nd19DySi15Ag
_chemical_formula_sum   'Nd19 Dy1 Si15 Ag1'
_cell_volume   940.37227638
_cell_formula_units_Z   1
loop_
 _symmetry_equiv_pos_site_id
 _symmetry_equiv_pos_as_xyz
  1  'x, y, z'
loop_
 _atom_site_type_symbol
 _atom_site_label
 _atom_site_symmetry_multiplicity
 _atom_site_fract_x
 _atom_site_fract_y
 _atom_site_fract_z
 _atom_site_occupancy
  Nd  Nd0  1  0.815279  0.321502  0.623155  1
  Nd  Nd1  1  0.458290  0.686643  0.898773  1
  Nd  Nd2  1  0.957907  0.813089  0.897871  1
  Nd  Nd3  1  0.188215  0.681959  0.120276  1
  Nd  Nd4  1  0.690969  0.819745  0.120795  1
  Nd  Nd5  1  0.309283  0.179606  0.878676  1
  Nd  Nd6  1  0.190824  0.677579  0.379921  1
  Nd  Nd7  1  0.042180  0.185846  0.101321  1
  Nd  Nd8  1  0.313207  0.178918  0.622493  1
  Nd  Nd9  1  0.858284  0.490453  0.249101  1
  Nd  Nd10  1  0.361832  0.010143  0.250052  1
  Nd  Nd11  1  0.530393  0.310548  0.395729  1
  Nd  Nd12  1  0.810978  0.318998  0.878685  1
  Nd  Nd13  1  0.964871  0.820125  0.603214  1
  Nd  Nd14  1  0.462680  0.685933  0.603273  1
  Nd  Nd15  1  0.042916  0.179404  0.396460  1
  Nd  Nd16  1  0.682883  0.825872  0.376993  1
  Nd  Nd17  1  0.637051  0.991089  0.749932  1
  Nd  Nd18  1  0.541194  0.312463  0.100906  1
  Dy  Dy19  1  0.139987  0.513475  0.748530  1
  Si  Si20  1  0.480205  0.601101  0.247699  1
  Si  Si21  1  0.247645  0.379703  0.248057  1
  Si  Si22  1  0.515675  0.401407  0.751421  1
  Si  Si23  1  0.633450  0.025502  0.958800  1
  Si  Si24  1  0.017348  0.101506  0.751150  1
  Si  Si25  1  0.752471  0.621176  0.750670  1
  Si  Si26  1  0.751897  0.121863  0.248712  1
  Si  Si27  1  0.363711  0.972082  0.460644  1
  Si  Si28  1  0.982472  0.897359  0.249042  1
  Si  Si29  1  0.366185  0.973810  0.040899  1
  Si  Si30  1  0.637105  0.026697  0.541142  1
  Si  Si31  1  0.135016  0.474558  0.957265  1
  Si  Si32  1  0.149342  0.475344  0.546407  1
  Si  Si33  1  0.867497  0.525399  0.039658  1
  Si  Si34  1  0.247104  0.873794  0.751435  1
  Ag  Ag35  1  0.853655  0.525311  0.460844  1
