# generated using pymatgen
data_Ho3Ga7Co8
_symmetry_space_group_name_H-M   'P 1'
_cell_length_a   8.89068100
_cell_length_b   8.97576576
_cell_length_c   3.88709400
_cell_angle_alpha   90.00000000
_cell_angle_beta   90.00000000
_cell_angle_gamma   119.68692038
_symmetry_Int_Tables_number   1
_chemical_formula_structural   Ho3Ga7Co8
_chemical_formula_sum   'Ho3 Ga7 Co8'
_cell_volume   269.47823705
_cell_formula_units_Z   1
loop_
 _symmetry_equiv_pos_site_id
 _symmetry_equiv_pos_as_xyz
  1  'x, y, z'
loop_
 _atom_site_type_symbol
 _atom_site_label
 _atom_site_symmetry_multiplicity
 _atom_site_fract_x
 _atom_site_fract_y
 _atom_site_fract_z
 _atom_site_occupancy
  Ho  Ho0  1  0.000000  0.000000  0.000000  1
  Ho  Ho1  1  0.669076  0.338151  0.500000  1
  Ho  Ho2  1  0.330924  0.661849  0.500000  1
  Ga  Ga3  1  0.500000  0.000000  0.000000  1
  Ga  Ga4  1  0.680043  0.679228  0.500000  1
  Ga  Ga5  1  0.283757  0.000000  0.500000  1
  Ga  Ga6  1  0.000815  0.320772  0.500000  1
  Ga  Ga7  1  0.319957  0.320772  0.500000  1
  Ga  Ga8  1  0.716243  0.000000  0.500000  1
  Ga  Ga9  1  0.999185  0.679228  0.500000  1
  Co  Co10  1  0.500000  0.500000  0.000000  1
  Co  Co11  1  0.000000  0.500000  0.000000  1
  Co  Co12  1  0.817077  0.181510  0.000000  1
  Co  Co13  1  0.818852  0.637704  0.000000  1
  Co  Co14  1  0.364433  0.181510  0.000000  1
  Co  Co15  1  0.182923  0.818490  0.000000  1
  Co  Co16  1  0.635567  0.818490  0.000000  1
  Co  Co17  1  0.181148  0.362296  0.000000  1
