# generated using pymatgen
data_Y2Tm6Sc12Si9Ge7
_symmetry_space_group_name_H-M   'P 1'
_cell_length_a   7.13406252
_cell_length_b   7.38463733
_cell_length_c   14.00143975
_cell_angle_alpha   90.02169687
_cell_angle_beta   89.75582123
_cell_angle_gamma   90.14101895
_symmetry_Int_Tables_number   1
_chemical_formula_structural   Y2Tm6Sc12Si9Ge7
_chemical_formula_sum   'Y2 Tm6 Sc12 Si9 Ge7'
_cell_volume   737.62136811
_cell_formula_units_Z   1
loop_
 _symmetry_equiv_pos_site_id
 _symmetry_equiv_pos_as_xyz
  1  'x, y, z'
loop_
 _atom_site_type_symbol
 _atom_site_label
 _atom_site_symmetry_multiplicity
 _atom_site_fract_x
 _atom_site_fract_y
 _atom_site_fract_z
 _atom_site_occupancy
  Y  Y0  1  0.009612  0.175733  0.097803  1
  Y  Y1  1  0.993562  0.823634  0.902585  1
  Tm  Tm2  1  0.492670  0.677489  0.901557  1
  Tm  Tm3  1  0.994096  0.821635  0.598745  1
  Tm  Tm4  1  0.505886  0.322078  0.098904  1
  Tm  Tm5  1  0.006190  0.178117  0.401189  1
  Tm  Tm6  1  0.505910  0.321943  0.401750  1
  Tm  Tm7  1  0.494247  0.677862  0.598201  1
  Sc  Sc8  1  0.167049  0.501678  0.749218  1
  Sc  Sc9  1  0.832983  0.498297  0.250617  1
  Sc  Sc10  1  0.333405  0.001760  0.249440  1
  Sc  Sc11  1  0.666498  0.998256  0.749189  1
  Sc  Sc12  1  0.337983  0.172242  0.626459  1
  Sc  Sc13  1  0.661767  0.827537  0.373567  1
  Sc  Sc14  1  0.162153  0.672527  0.373754  1
  Sc  Sc15  1  0.661947  0.825928  0.127258  1
  Sc  Sc16  1  0.837802  0.327924  0.626377  1
  Sc  Sc17  1  0.335853  0.173096  0.873109  1
  Sc  Sc18  1  0.835330  0.327492  0.873658  1
  Sc  Sc19  1  0.165934  0.674705  0.125882  1
  Si  Si20  1  0.037545  0.116311  0.750088  1
  Si  Si21  1  0.961619  0.883526  0.250021  1
  Si  Si22  1  0.461541  0.614394  0.250134  1
  Si  Si23  1  0.538183  0.384755  0.750193  1
  Si  Si24  1  0.291493  0.869647  0.749435  1
  Si  Si25  1  0.709050  0.129996  0.250504  1
  Si  Si26  1  0.210165  0.371061  0.250413  1
  Si  Si27  1  0.789929  0.629701  0.749735  1
  Si  Si28  1  0.336607  0.962457  0.040048  1
  Ge  Ge29  1  0.174194  0.461108  0.540673  1
  Ge  Ge30  1  0.825565  0.538739  0.459344  1
  Ge  Ge31  1  0.325610  0.961491  0.459272  1
  Ge  Ge32  1  0.826756  0.538374  0.040875  1
  Ge  Ge33  1  0.674298  0.038758  0.540594  1
  Ge  Ge34  1  0.173090  0.461384  0.959253  1
  Ge  Ge35  1  0.663483  0.038362  0.960152  1
