# generated using pymatgen
data_YbY2Se3
_symmetry_space_group_name_H-M   'P 1'
_cell_length_a   4.10224700
_cell_length_b   4.10224665
_cell_length_c   10.09763900
_cell_angle_alpha   90.00000000
_cell_angle_beta   90.00000000
_cell_angle_gamma   119.99999475
_symmetry_Int_Tables_number   1
_chemical_formula_structural   YbY2Se3
_chemical_formula_sum   'Yb1 Y2 Se3'
_cell_volume   147.16145397
_cell_formula_units_Z   1
loop_
 _symmetry_equiv_pos_site_id
 _symmetry_equiv_pos_as_xyz
  1  'x, y, z'
loop_
 _atom_site_type_symbol
 _atom_site_label
 _atom_site_symmetry_multiplicity
 _atom_site_fract_x
 _atom_site_fract_y
 _atom_site_fract_z
 _atom_site_occupancy
  Yb  Yb0  1  0.000000  0.000000  0.000000  1
  Y  Y1  1  0.333333  0.666667  0.657180  1
  Y  Y2  1  0.666667  0.333333  0.342820  1
  Se  Se3  1  0.333333  0.666667  0.169518  1
  Se  Se4  1  0.666667  0.333333  0.830482  1
  Se  Se5  1  0.000000  0.000000  0.500000  1
