# generated using pymatgen
data_YTm3(Si2Tc)2
_symmetry_space_group_name_H-M   'P 1'
_cell_length_a   5.71572376
_cell_length_b   5.71572472
_cell_length_c   9.95922700
_cell_angle_alpha   63.98820846
_cell_angle_beta   63.98821492
_cell_angle_gamma   42.60995983
_symmetry_Int_Tables_number   1
_chemical_formula_structural   YTm3(Si2Tc)2
_chemical_formula_sum   'Y1 Tm3 Si4 Tc2'
_cell_volume   194.34152871
_cell_formula_units_Z   1
loop_
 _symmetry_equiv_pos_site_id
 _symmetry_equiv_pos_as_xyz
  1  'x, y, z'
loop_
 _atom_site_type_symbol
 _atom_site_label
 _atom_site_symmetry_multiplicity
 _atom_site_fract_x
 _atom_site_fract_y
 _atom_site_fract_z
 _atom_site_occupancy
  Y  Y0  1  0.810441  0.810441  0.108279  1
  Tm  Tm1  1  0.004134  0.004134  0.323713  1
  Tm  Tm2  1  0.187360  0.187360  0.888310  1
  Tm  Tm3  1  0.995368  0.995368  0.676960  1
  Si  Si4  1  0.361259  0.361259  0.560273  1
  Si  Si5  1  0.496838  0.496838  0.877888  1
  Si  Si6  1  0.639741  0.639741  0.441129  1
  Si  Si7  1  0.503876  0.503876  0.121398  1
  Tc  Tc8  1  0.728773  0.728773  0.630835  1
  Tc  Tc9  1  0.272212  0.272212  0.371215  1
