# generated using pymatgen
data_LaTb2MoO7
_symmetry_space_group_name_H-M   'P 1'
_cell_length_a   6.53343809
_cell_length_b   6.53343825
_cell_length_c   7.65953800
_cell_angle_alpha   90.00000000
_cell_angle_beta   90.00000000
_cell_angle_gamma   108.97385982
_symmetry_Int_Tables_number   1
_chemical_formula_structural   LaTb2MoO7
_chemical_formula_sum   'La2 Tb4 Mo2 O14'
_cell_volume   309.18925022
_cell_formula_units_Z   2
loop_
 _symmetry_equiv_pos_site_id
 _symmetry_equiv_pos_as_xyz
  1  'x, y, z'
loop_
 _atom_site_type_symbol
 _atom_site_label
 _atom_site_symmetry_multiplicity
 _atom_site_fract_x
 _atom_site_fract_y
 _atom_site_fract_z
 _atom_site_occupancy
  La  La0  1  0.500000  0.500000  0.500000  1
  La  La1  1  0.500000  0.500000  0.000000  1
  Tb  Tb2  1  0.534621  0.001043  0.750000  1
  Tb  Tb3  1  0.001043  0.534621  0.250000  1
  Tb  Tb4  1  0.465379  0.998957  0.250000  1
  Tb  Tb5  1  0.998957  0.465379  0.750000  1
  Mo  Mo6  1  0.000000  0.000000  0.500000  1
  Mo  Mo7  1  0.000000  0.000000  0.000000  1
  O  O8  1  0.681542  0.931320  0.470502  1
  O  O9  1  0.931320  0.681542  0.529498  1
  O  O10  1  0.681542  0.931320  0.029498  1
  O  O11  1  0.931320  0.681542  0.970502  1
  O  O12  1  0.318458  0.068680  0.529498  1
  O  O13  1  0.068680  0.318458  0.470502  1
  O  O14  1  0.318458  0.068680  0.970502  1
  O  O15  1  0.068680  0.318458  0.029498  1
  O  O16  1  0.930723  0.069277  0.750000  1
  O  O17  1  0.069277  0.930723  0.250000  1
  O  O18  1  0.362973  0.637027  0.750000  1
  O  O19  1  0.637027  0.362973  0.250000  1
  O  O20  1  0.641582  0.358418  0.750000  1
  O  O21  1  0.358418  0.641582  0.250000  1
