# generated using pymatgen
data_Dy8Ta9Ti2NbSi16
_symmetry_space_group_name_H-M   'P 1'
_cell_length_a   7.04693017
_cell_length_b   7.04642102
_cell_length_c   12.98210230
_cell_angle_alpha   89.93526395
_cell_angle_beta   90.03311392
_cell_angle_gamma   90.00347059
_symmetry_Int_Tables_number   1
_chemical_formula_structural   Dy8Ta9Ti2NbSi16
_chemical_formula_sum   'Dy8 Ta9 Ti2 Nb1 Si16'
_cell_volume   644.63403719
_cell_formula_units_Z   1
loop_
 _symmetry_equiv_pos_site_id
 _symmetry_equiv_pos_as_xyz
  1  'x, y, z'
loop_
 _atom_site_type_symbol
 _atom_site_label
 _atom_site_symmetry_multiplicity
 _atom_site_fract_x
 _atom_site_fract_y
 _atom_site_fract_z
 _atom_site_occupancy
  Dy  Dy0  1  0.998431  0.658066  0.032573  1
  Dy  Dy1  1  0.002070  0.341152  0.532023  1
  Dy  Dy2  1  0.658066  0.998388  0.967454  1
  Dy  Dy3  1  0.159485  0.503083  0.782303  1
  Dy  Dy4  1  0.841515  0.497826  0.281970  1
  Dy  Dy5  1  0.503112  0.159456  0.217694  1
  Dy  Dy6  1  0.497798  0.841342  0.717994  1
  Dy  Dy7  1  0.341153  0.001878  0.467991  1
  Ta  Ta8  1  0.847352  0.992355  0.374640  1
  Ta  Ta9  1  0.008093  0.152950  0.126287  1
  Ta  Ta10  1  0.992378  0.847263  0.625345  1
  Ta  Ta11  1  0.508756  0.346341  0.624096  1
  Ta  Ta12  1  0.153096  0.008134  0.873700  1
  Ta  Ta13  1  0.672462  0.672269  0.500131  1
  Ta  Ta14  1  0.829280  0.170431  0.750121  1
  Ta  Ta15  1  0.170222  0.829648  0.249764  1
  Ta  Ta16  1  0.326215  0.326215  0.999986  1
  Ti  Ti17  1  0.492617  0.653141  0.124064  1
  Ti  Ti18  1  0.653055  0.492682  0.875870  1
  Nb  Nb19  1  0.346208  0.508282  0.375975  1
  Si  Si20  1  0.045376  0.705650  0.435998  1
  Si  Si21  1  0.952631  0.295163  0.935770  1
  Si  Si22  1  0.705585  0.045699  0.564025  1
  Si  Si23  1  0.207936  0.455315  0.185202  1
  Si  Si24  1  0.793632  0.545253  0.687275  1
  Si  Si25  1  0.455296  0.207973  0.814708  1
  Si  Si26  1  0.545350  0.793680  0.312608  1
  Si  Si27  1  0.295197  0.952559  0.064216  1
  Si  Si28  1  0.795040  0.865281  0.181816  1
  Si  Si29  1  0.296768  0.633593  0.568497  1
  Si  Si30  1  0.700976  0.368562  0.066298  1
  Si  Si31  1  0.633586  0.296648  0.431793  1
  Si  Si32  1  0.368480  0.701092  0.933770  1
  Si  Si33  1  0.133534  0.203784  0.317658  1
  Si  Si34  1  0.204015  0.133747  0.682207  1
  Si  Si35  1  0.865236  0.795104  0.818181  1
