# generated using pymatgen
data_Ti8Si6MoWC2
_symmetry_space_group_name_H-M   'P 1'
_cell_length_a   7.45073400
_cell_length_b   7.45073407
_cell_length_c   5.15794700
_cell_angle_alpha   90.00000000
_cell_angle_beta   90.00000000
_cell_angle_gamma   119.99999970
_symmetry_Int_Tables_number   1
_chemical_formula_structural   Ti8Si6MoWC2
_chemical_formula_sum   'Ti8 Si6 Mo1 W1 C2'
_cell_volume   247.97370448
_cell_formula_units_Z   1
loop_
 _symmetry_equiv_pos_site_id
 _symmetry_equiv_pos_as_xyz
  1  'x, y, z'
loop_
 _atom_site_type_symbol
 _atom_site_label
 _atom_site_symmetry_multiplicity
 _atom_site_fract_x
 _atom_site_fract_y
 _atom_site_fract_z
 _atom_site_occupancy
  Ti  Ti0  1  0.666667  0.333333  0.500000  1
  Ti  Ti1  1  0.333333  0.666667  0.500000  1
  Ti  Ti2  1  0.231441  0.999822  0.251742  1
  Ti  Ti3  1  0.768381  0.999822  0.748258  1
  Ti  Ti4  1  0.000178  0.231619  0.251742  1
  Ti  Ti5  1  0.000178  0.768559  0.748258  1
  Ti  Ti6  1  0.768381  0.768559  0.251742  1
  Ti  Ti7  1  0.231441  0.231619  0.748258  1
  Si  Si8  1  0.593876  0.000040  0.245625  1
  Si  Si9  1  0.406164  0.000040  0.754375  1
  Si  Si10  1  0.999960  0.593836  0.245625  1
  Si  Si11  1  0.999960  0.406124  0.754375  1
  Si  Si12  1  0.406164  0.406124  0.245625  1
  Si  Si13  1  0.593876  0.593836  0.754375  1
  Mo  Mo14  1  0.666667  0.333333  0.000000  1
  W  W15  1  0.333333  0.666667  0.000000  1
  C  C16  1  0.000000  0.000000  0.000000  1
  C  C17  1  0.000000  0.000000  0.500000  1
