# generated using pymatgen
data_DyTh3(Al8Pt3)3
_symmetry_space_group_name_H-M   'P 1'
_cell_length_a   7.62254982
_cell_length_b   7.63418751
_cell_length_c   13.22655031
_cell_angle_alpha   84.50166432
_cell_angle_beta   78.94714630
_cell_angle_gamma   59.94867364
_symmetry_Int_Tables_number   1
_chemical_formula_structural   DyTh3(Al8Pt3)3
_chemical_formula_sum   'Dy1 Th3 Al24 Pt9'
_cell_volume   653.85878989
_cell_formula_units_Z   1
loop_
 _symmetry_equiv_pos_site_id
 _symmetry_equiv_pos_as_xyz
  1  'x, y, z'
loop_
 _atom_site_type_symbol
 _atom_site_label
 _atom_site_symmetry_multiplicity
 _atom_site_fract_x
 _atom_site_fract_y
 _atom_site_fract_z
 _atom_site_occupancy
  Dy  Dy0  1  0.266125  0.501068  0.193420  1
  Th  Th1  1  0.394608  0.168199  0.807068  1
  Th  Th2  1  0.604825  0.832218  0.193508  1
  Th  Th3  1  0.733691  0.498642  0.806973  1
  Al  Al4  1  0.687536  0.833674  0.946507  1
  Al  Al5  1  0.312070  0.169697  0.057238  1
  Al  Al6  1  0.146131  0.832856  0.560046  1
  Al  Al7  1  0.854568  0.166581  0.437484  1
  Al  Al8  1  0.481203  0.167336  0.556839  1
  Al  Al9  1  0.518870  0.833239  0.441698  1
  Al  Al10  1  0.212793  0.169081  0.333351  1
  Al  Al11  1  0.788679  0.834591  0.663795  1
  Al  Al12  1  0.435607  0.510594  0.664250  1
  Al  Al13  1  0.561131  0.490032  0.333176  1
  Al  Al14  1  0.112230  0.155464  0.662460  1
  Al  Al15  1  0.892607  0.839973  0.334456  1
  Al  Al16  1  0.347805  0.502968  0.948294  1
  Al  Al17  1  0.646573  0.497563  0.057194  1
  Al  Al18  1  0.014117  0.164547  0.957422  1
  Al  Al19  1  0.986823  0.832310  0.047668  1
  Al  Al20  1  0.186780  0.499828  0.440295  1
  Al  Al21  1  0.814579  0.500130  0.556694  1
  Al  Al22  1  0.734855  0.166657  0.184062  1
  Al  Al23  1  0.261430  0.835792  0.816568  1
  Al  Al24  1  0.062008  0.634865  0.815132  1
  Al  Al25  1  0.940819  0.365894  0.185303  1
  Al  Al26  1  0.860432  0.036873  0.816003  1
  Al  Al27  1  0.140625  0.958798  0.184203  1
  Pt  Pt28  1  0.120245  0.491123  0.638815  1
  Pt  Pt29  1  0.879219  0.508865  0.360978  1
  Pt  Pt30  1  0.656620  0.171907  0.999626  1
  Pt  Pt31  1  0.343606  0.828716  0.999767  1
  Pt  Pt32  1  0.537682  0.166118  0.361179  1
  Pt  Pt33  1  0.463114  0.833308  0.638856  1
  Pt  Pt34  1  0.778330  0.175681  0.637641  1
  Pt  Pt35  1  0.221810  0.824881  0.362164  1
  Pt  Pt36  1  0.999853  0.499931  0.999868  1
