# generated using pymatgen
data_HoMn6SiO12
_symmetry_space_group_name_H-M   'P 1'
_cell_length_a   11.76467684
_cell_length_b   11.76467662
_cell_length_c   11.76467600
_cell_angle_alpha   131.68061070
_cell_angle_beta   131.68060977
_cell_angle_gamma   70.73393789
_symmetry_Int_Tables_number   1
_chemical_formula_structural   HoMn6SiO12
_chemical_formula_sum   'Ho4 Mn24 Si4 O48'
_cell_volume   889.70755098
_cell_formula_units_Z   4
loop_
 _symmetry_equiv_pos_site_id
 _symmetry_equiv_pos_as_xyz
  1  'x, y, z'
loop_
 _atom_site_type_symbol
 _atom_site_label
 _atom_site_symmetry_multiplicity
 _atom_site_fract_x
 _atom_site_fract_y
 _atom_site_fract_z
 _atom_site_occupancy
  Ho  Ho0  1  0.250000  0.250000  0.000000  1
  Ho  Ho1  1  0.750000  0.750000  0.000000  1
  Ho  Ho2  1  0.500000  0.000000  0.500000  1
  Ho  Ho3  1  0.000000  0.500000  0.500000  1
  Mn  Mn4  1  0.125000  0.903999  0.278999  1
  Mn  Mn5  1  0.875000  0.125000  0.250000  1
  Mn  Mn6  1  0.596001  0.375000  0.721001  1
  Mn  Mn7  1  0.875000  0.625000  0.750000  1
  Mn  Mn8  1  0.096001  0.375000  0.221001  1
  Mn  Mn9  1  0.375000  0.625000  0.250000  1
  Mn  Mn10  1  0.875000  0.125000  0.750000  1
  Mn  Mn11  1  0.988297  0.511703  0.000000  1
  Mn  Mn12  1  0.261703  0.761703  0.023407  1
  Mn  Mn13  1  0.738297  0.238297  0.976593  1
  Mn  Mn14  1  0.125000  0.403999  0.778999  1
  Mn  Mn15  1  0.375000  0.125000  0.750000  1
  Mn  Mn16  1  0.653999  0.875000  0.278999  1
  Mn  Mn17  1  0.511703  0.988297  0.000000  1
  Mn  Mn18  1  0.761703  0.738297  0.500000  1
  Mn  Mn19  1  0.238297  0.261703  0.500000  1
  Mn  Mn20  1  0.375000  0.625000  0.750000  1
  Mn  Mn21  1  0.375000  0.125000  0.250000  1
  Mn  Mn22  1  0.488297  0.488297  0.476593  1
  Mn  Mn23  1  0.153999  0.875000  0.778999  1
  Mn  Mn24  1  0.625000  0.846001  0.721001  1
  Mn  Mn25  1  0.625000  0.346001  0.221001  1
  Mn  Mn26  1  0.011703  0.011703  0.523407  1
  Mn  Mn27  1  0.875000  0.625000  0.250000  1
  Si  Si28  1  0.750000  0.250000  0.500000  1
  Si  Si29  1  0.500000  0.500000  0.000000  1
  Si  Si30  1  0.000000  0.000000  0.000000  1
  Si  Si31  1  0.250000  0.750000  0.500000  1
  O  O32  1  0.938711  0.133333  0.973445  1
  O  O33  1  0.794333  0.267231  0.195655  1
  O  O34  1  0.571576  0.767231  0.472898  1
  O  O35  1  0.294333  0.098677  0.527102  1
  O  O36  1  0.848677  0.821576  0.304345  1
  O  O37  1  0.455667  0.151323  0.972898  1
  O  O38  1  0.278389  0.814283  0.236724  1
  O  O39  1  0.458335  0.922442  0.236724  1
  O  O40  1  0.471611  0.435717  0.263276  1
  O  O41  1  0.778389  0.541665  0.464107  1
  O  O42  1  0.971611  0.708335  0.035893  1
  O  O43  1  0.883333  0.409888  0.694622  1
  O  O44  1  0.291665  0.327558  0.263276  1
  O  O45  1  0.659888  0.633333  0.194622  1
  O  O46  1  0.383333  0.688711  0.473445  1
  O  O47  1  0.366667  0.561289  0.026555  1
  O  O48  1  0.590112  0.284735  0.473445  1
  O  O49  1  0.715265  0.188711  0.305378  1
  O  O50  1  0.534735  0.340112  0.973445  1
  O  O51  1  0.071576  0.598677  0.804345  1
  O  O52  1  0.034735  0.061289  0.194622  1
  O  O53  1  0.577558  0.041665  0.763276  1
  O  O54  1  0.811289  0.116667  0.526555  1
  O  O55  1  0.955667  0.982769  0.304345  1
  O  O56  1  0.017231  0.321576  0.972898  1
  O  O57  1  0.564283  0.827558  0.035893  1
  O  O58  1  0.064283  0.028389  0.736724  1
  O  O59  1  0.348677  0.044333  0.027102  1
  O  O60  1  0.178424  0.482769  0.027102  1
  O  O61  1  0.077558  0.314283  0.535893  1
  O  O62  1  0.685717  0.221611  0.763276  1
  O  O63  1  0.672442  0.935717  0.964107  1
  O  O64  1  0.678424  0.651323  0.695655  1
  O  O65  1  0.172442  0.208335  0.736724  1
  O  O66  1  0.159888  0.965265  0.026555  1
  O  O67  1  0.791665  0.528389  0.964107  1
  O  O68  1  0.958335  0.721611  0.535893  1
  O  O69  1  0.517231  0.544333  0.695655  1
  O  O70  1  0.866667  0.840112  0.805378  1
  O  O71  1  0.901323  0.428424  0.195655  1
  O  O72  1  0.185717  0.422442  0.464107  1
  O  O73  1  0.311289  0.784735  0.694622  1
  O  O74  1  0.090112  0.616667  0.305378  1
  O  O75  1  0.401323  0.205667  0.472898  1
  O  O76  1  0.215265  0.909888  0.526555  1
  O  O77  1  0.232769  0.705667  0.804345  1
  O  O78  1  0.438711  0.465265  0.805378  1
  O  O79  1  0.732769  0.928424  0.527102  1
