# generated using pymatgen
data_Ce6PrZr3Si8O3
_symmetry_space_group_name_H-M   'P 1'
_cell_length_a   10.36465600
_cell_length_b   10.36465789
_cell_length_c   4.36503200
_cell_angle_alpha   90.00000000
_cell_angle_beta   90.00000000
_cell_angle_gamma   120.00000036
_symmetry_Int_Tables_number   1
_chemical_formula_structural   Ce6PrZr3Si8O3
_chemical_formula_sum   'Ce6 Pr1 Zr3 Si8 O3'
_cell_volume   406.09526546
_cell_formula_units_Z   1
loop_
 _symmetry_equiv_pos_site_id
 _symmetry_equiv_pos_as_xyz
  1  'x, y, z'
loop_
 _atom_site_type_symbol
 _atom_site_label
 _atom_site_symmetry_multiplicity
 _atom_site_fract_x
 _atom_site_fract_y
 _atom_site_fract_z
 _atom_site_occupancy
  Ce  Ce0  1  0.215475  0.784525  0.000000  1
  Ce  Ce1  1  0.215475  0.430952  0.000000  1
  Ce  Ce2  1  0.784525  0.569048  0.000000  1
  Ce  Ce3  1  0.430952  0.215475  0.000000  1
  Ce  Ce4  1  0.569048  0.784525  0.000000  1
  Ce  Ce5  1  0.784525  0.215475  0.000000  1
  Pr  Pr6  1  0.000000  0.000000  0.000000  1
  Zr  Zr7  1  0.500000  0.000000  0.500000  1
  Zr  Zr8  1  0.000000  0.500000  0.500000  1
  Zr  Zr9  1  0.500000  0.500000  0.500000  1
  Si  Si10  1  0.666667  0.333333  0.500000  1
  Si  Si11  1  0.000000  0.768131  0.500000  1
  Si  Si12  1  0.333333  0.666667  0.500000  1
  Si  Si13  1  0.231869  0.231869  0.500000  1
  Si  Si14  1  0.768131  0.768131  0.500000  1
  Si  Si15  1  0.768131  0.000000  0.500000  1
  Si  Si16  1  0.231869  0.000000  0.500000  1
  Si  Si17  1  0.000000  0.231869  0.500000  1
  O  O18  1  0.500000  0.500000  0.000000  1
  O  O19  1  0.500000  0.000000  0.000000  1
  O  O20  1  0.000000  0.500000  0.000000  1
