# generated using pymatgen
data_Nd2TiCo16
_symmetry_space_group_name_H-M   'P 1'
_cell_length_a   6.34124485
_cell_length_b   6.34124449
_cell_length_c   6.34124354
_cell_angle_alpha   83.04767396
_cell_angle_beta   83.04768134
_cell_angle_gamma   83.04768117
_symmetry_Int_Tables_number   1
_chemical_formula_structural   Nd2TiCo16
_chemical_formula_sum   'Nd2 Ti1 Co16'
_cell_volume   249.78529371
_cell_formula_units_Z   1
loop_
 _symmetry_equiv_pos_site_id
 _symmetry_equiv_pos_as_xyz
  1  'x, y, z'
loop_
 _atom_site_type_symbol
 _atom_site_label
 _atom_site_symmetry_multiplicity
 _atom_site_fract_x
 _atom_site_fract_y
 _atom_site_fract_z
 _atom_site_occupancy
  Nd  Nd0  1  0.656004  0.656004  0.656004  1
  Nd  Nd1  1  0.350945  0.350945  0.350945  1
  Ti  Ti2  1  0.092160  0.092160  0.092160  1
  Co  Co3  1  0.288954  0.709873  0.997890  1
  Co  Co4  1  0.709873  0.997890  0.288954  1
  Co  Co5  1  0.997890  0.288954  0.709873  1
  Co  Co6  1  0.288954  0.997890  0.709873  1
  Co  Co7  1  0.997890  0.709873  0.288954  1
  Co  Co8  1  0.709873  0.288954  0.997890  1
  Co  Co9  1  0.998712  0.998712  0.504640  1
  Co  Co10  1  0.998712  0.504640  0.998712  1
  Co  Co11  1  0.504640  0.998712  0.998712  1
  Co  Co12  1  0.345483  0.345483  0.849891  1
  Co  Co13  1  0.345483  0.849891  0.345483  1
  Co  Co14  1  0.849891  0.345483  0.345483  1
  Co  Co15  1  0.657176  0.657176  0.148670  1
  Co  Co16  1  0.657176  0.148670  0.657176  1
  Co  Co17  1  0.148670  0.657176  0.657176  1
  Co  Co18  1  0.901512  0.901512  0.901512  1
