# generated using pymatgen
data_TbGd2AuO7
_symmetry_space_group_name_H-M   'P 1'
_cell_length_a   6.55394606
_cell_length_b   6.55394742
_cell_length_c   7.52001500
_cell_angle_alpha   90.00000000
_cell_angle_beta   90.00000000
_cell_angle_gamma   108.91509702
_symmetry_Int_Tables_number   1
_chemical_formula_structural   TbGd2AuO7
_chemical_formula_sum   'Tb2 Gd4 Au2 O14'
_cell_volume   305.57347098
_cell_formula_units_Z   2
loop_
 _symmetry_equiv_pos_site_id
 _symmetry_equiv_pos_as_xyz
  1  'x, y, z'
loop_
 _atom_site_type_symbol
 _atom_site_label
 _atom_site_symmetry_multiplicity
 _atom_site_fract_x
 _atom_site_fract_y
 _atom_site_fract_z
 _atom_site_occupancy
  Tb  Tb0  1  0.470767  0.002062  0.250000  1
  Tb  Tb1  1  0.002062  0.470767  0.750000  1
  Gd  Gd2  1  0.500020  0.500020  0.500000  1
  Gd  Gd3  1  0.500020  0.500020  0.000000  1
  Gd  Gd4  1  0.527690  0.997815  0.750000  1
  Gd  Gd5  1  0.997815  0.527690  0.250000  1
  Au  Au6  1  0.000017  0.000017  0.500000  1
  Au  Au7  1  0.000017  0.000017  0.000000  1
  O  O8  1  0.672345  0.920264  0.474328  1
  O  O9  1  0.920264  0.672345  0.525672  1
  O  O10  1  0.672345  0.920264  0.025672  1
  O  O11  1  0.920264  0.672345  0.974328  1
  O  O12  1  0.327805  0.079870  0.523396  1
  O  O13  1  0.079870  0.327805  0.476604  1
  O  O14  1  0.327805  0.079870  0.976604  1
  O  O15  1  0.079870  0.327805  0.023396  1
  O  O16  1  0.923200  0.078977  0.750000  1
  O  O17  1  0.078977  0.923200  0.250000  1
  O  O18  1  0.366835  0.630578  0.750000  1
  O  O19  1  0.630578  0.366835  0.250000  1
  O  O20  1  0.639469  0.361964  0.750000  1
  O  O21  1  0.361964  0.639469  0.250000  1
