# generated using pymatgen
data_ReIrOF10
_symmetry_space_group_name_H-M   'P 1'
_cell_length_a   6.75554700
_cell_length_b   8.18432920
_cell_length_c   8.20313779
_cell_angle_alpha   86.00167157
_cell_angle_beta   90.00000000
_cell_angle_gamma   90.00000000
_symmetry_Int_Tables_number   1
_chemical_formula_structural   ReIrOF10
_chemical_formula_sum   'Re2 Ir2 O2 F20'
_cell_volume   452.44447745
_cell_formula_units_Z   2
loop_
 _symmetry_equiv_pos_site_id
 _symmetry_equiv_pos_as_xyz
  1  'x, y, z'
loop_
 _atom_site_type_symbol
 _atom_site_label
 _atom_site_symmetry_multiplicity
 _atom_site_fract_x
 _atom_site_fract_y
 _atom_site_fract_z
 _atom_site_occupancy
  Re  Re0  1  0.010557  0.808850  0.189547  1
  Re  Re1  1  0.010557  0.191150  0.810453  1
  Ir  Ir2  1  0.513878  0.333677  0.330039  1
  Ir  Ir3  1  0.513878  0.666323  0.669961  1
  O  O4  1  0.023947  0.342217  0.660474  1
  O  O5  1  0.023947  0.657783  0.339526  1
  F  F6  1  0.286093  0.768518  0.572759  1
  F  F7  1  0.002077  0.013538  0.682558  1
  F  F8  1  0.993132  0.000000  0.000000  1
  F  F9  1  0.349280  0.473243  0.194582  1
  F  F10  1  0.015825  0.317480  0.988944  1
  F  F11  1  0.279186  0.153740  0.839710  1
  F  F12  1  0.506906  0.500000  0.500000  1
  F  F13  1  0.737957  0.820915  0.169489  1
  F  F14  1  0.002077  0.986462  0.317442  1
  F  F15  1  0.519355  0.178497  0.171420  1
  F  F16  1  0.741630  0.561900  0.764871  1
  F  F17  1  0.279186  0.846260  0.160290  1
  F  F18  1  0.678996  0.198682  0.469533  1
  F  F19  1  0.015825  0.682520  0.011056  1
  F  F20  1  0.737957  0.179085  0.830511  1
  F  F21  1  0.519355  0.821503  0.828580  1
  F  F22  1  0.678996  0.801318  0.530467  1
  F  F23  1  0.349280  0.526757  0.805418  1
  F  F24  1  0.741630  0.438100  0.235129  1
  F  F25  1  0.286093  0.231482  0.427241  1
