# generated using pymatgen
data_Cs6Y(NpBr6)3
_symmetry_space_group_name_H-M   'P 1'
_cell_length_a   10.60566185
_cell_length_b   10.60566069
_cell_length_c   10.60566147
_cell_angle_alpha   83.57242350
_cell_angle_beta   83.57242452
_cell_angle_gamma   83.57242371
_symmetry_Int_Tables_number   1
_chemical_formula_structural   Cs6Y(NpBr6)3
_chemical_formula_sum   'Cs6 Y1 Np3 Br18'
_cell_volume   1171.99032003
_cell_formula_units_Z   1
loop_
 _symmetry_equiv_pos_site_id
 _symmetry_equiv_pos_as_xyz
  1  'x, y, z'
loop_
 _atom_site_type_symbol
 _atom_site_label
 _atom_site_symmetry_multiplicity
 _atom_site_fract_x
 _atom_site_fract_y
 _atom_site_fract_z
 _atom_site_occupancy
  Cs  Cs0  1  0.089460  0.750883  0.410119  1
  Cs  Cs1  1  0.750883  0.410119  0.089460  1
  Cs  Cs2  1  0.249829  0.588929  0.910752  1
  Cs  Cs3  1  0.410119  0.089460  0.750883  1
  Cs  Cs4  1  0.910752  0.249829  0.588929  1
  Cs  Cs5  1  0.588929  0.910752  0.249829  1
  Y  Y6  1  0.152557  0.152557  0.152557  1
  Np  Np7  1  0.347709  0.347709  0.347709  1
  Np  Np8  1  0.651901  0.651901  0.651901  1
  Np  Np9  1  0.848313  0.848313  0.848313  1
  Br  Br10  1  0.263921  0.922657  0.082897  1
  Br  Br11  1  0.732851  0.085026  0.919949  1
  Br  Br12  1  0.907044  0.592767  0.750160  1
  Br  Br13  1  0.085026  0.919949  0.732851  1
  Br  Br14  1  0.592767  0.750160  0.907044  1
  Br  Br15  1  0.419766  0.585005  0.232749  1
  Br  Br16  1  0.247547  0.092983  0.401985  1
  Br  Br17  1  0.922657  0.082897  0.263921  1
  Br  Br18  1  0.580044  0.415064  0.767132  1
  Br  Br19  1  0.082897  0.263921  0.922657  1
  Br  Br20  1  0.919949  0.732851  0.085026  1
  Br  Br21  1  0.415064  0.767132  0.580044  1
  Br  Br22  1  0.232749  0.419766  0.585005  1
  Br  Br23  1  0.750160  0.907044  0.592767  1
  Br  Br24  1  0.092983  0.401985  0.247547  1
  Br  Br25  1  0.767132  0.580044  0.415064  1
  Br  Br26  1  0.401985  0.247547  0.092983  1
  Br  Br27  1  0.585005  0.232749  0.419766  1
