# generated using pymatgen
data_Dy5LuAl24(CoOs3)2
_symmetry_space_group_name_H-M   'P 1'
_cell_length_a   8.74626600
_cell_length_b   8.75763197
_cell_length_c   9.51042400
_cell_angle_alpha   90.00000000
_cell_angle_beta   90.00000000
_cell_angle_gamma   119.95707720
_symmetry_Int_Tables_number   1
_chemical_formula_structural   Dy5LuAl24(CoOs3)2
_chemical_formula_sum   'Dy5 Lu1 Al24 Co2 Os6'
_cell_volume   631.14269653
_cell_formula_units_Z   1
loop_
 _symmetry_equiv_pos_site_id
 _symmetry_equiv_pos_as_xyz
  1  'x, y, z'
loop_
 _atom_site_type_symbol
 _atom_site_label
 _atom_site_symmetry_multiplicity
 _atom_site_fract_x
 _atom_site_fract_y
 _atom_site_fract_z
 _atom_site_occupancy
  Dy  Dy0  1  0.805860  0.611719  0.750000  1
  Dy  Dy1  1  0.612134  0.806003  0.250000  1
  Dy  Dy2  1  0.387884  0.193704  0.750000  1
  Dy  Dy3  1  0.193868  0.806003  0.250000  1
  Dy  Dy4  1  0.805821  0.193704  0.750000  1
  Lu  Lu5  1  0.196603  0.393207  0.250000  1
  Al  Al6  1  0.333254  0.666510  0.016436  1
  Al  Al7  1  0.666478  0.332955  0.984409  1
  Al  Al8  1  0.666478  0.332955  0.515591  1
  Al  Al9  1  0.333254  0.666510  0.483564  1
  Al  Al10  1  0.159386  0.318774  0.574499  1
  Al  Al11  1  0.840402  0.680802  0.424159  1
  Al  Al12  1  0.680706  0.840225  0.575388  1
  Al  Al13  1  0.840402  0.680802  0.075841  1
  Al  Al14  1  0.318273  0.159751  0.423765  1
  Al  Al15  1  0.159386  0.318774  0.925501  1
  Al  Al16  1  0.159518  0.840225  0.575388  1
  Al  Al17  1  0.318273  0.159751  0.076235  1
  Al  Al18  1  0.841480  0.159751  0.423765  1
  Al  Al19  1  0.680706  0.840225  0.924612  1
  Al  Al20  1  0.841480  0.159751  0.076235  1
  Al  Al21  1  0.159518  0.840225  0.924612  1
  Al  Al22  1  0.561618  0.123235  0.250000  1
  Al  Al23  1  0.438211  0.876421  0.750000  1
  Al  Al24  1  0.877558  0.438092  0.250000  1
  Al  Al25  1  0.123200  0.561267  0.750000  1
  Al  Al26  1  0.560534  0.438092  0.250000  1
  Al  Al27  1  0.438067  0.561267  0.750000  1
  Al  Al28  1  0.001694  0.003388  0.250000  1
  Al  Al29  1  0.999820  0.999641  0.750000  1
  Co  Co30  1  0.999538  0.999076  0.999806  1
  Co  Co31  1  0.999538  0.999076  0.500194  1
  Os  Os32  1  0.499901  0.999802  0.000228  1
  Os  Os33  1  0.000236  0.499628  0.000640  1
  Os  Os34  1  0.499901  0.999802  0.499772  1
  Os  Os35  1  0.499392  0.499628  0.000640  1
  Os  Os36  1  0.000236  0.499628  0.499360  1
  Os  Os37  1  0.499392  0.499628  0.499360  1
