# generated using pymatgen
data_TbDyB4Ir5
_symmetry_space_group_name_H-M   'P 1'
_cell_length_a   7.52183553
_cell_length_b   6.34324123
_cell_length_c   5.61256700
_cell_angle_alpha   77.70738033
_cell_angle_beta   55.48477898
_cell_angle_gamma   46.80785605
_symmetry_Int_Tables_number   1
_chemical_formula_structural   TbDyB4Ir5
_chemical_formula_sum   'Tb1 Dy1 B4 Ir5'
_cell_volume   153.89947436
_cell_formula_units_Z   1
loop_
 _symmetry_equiv_pos_site_id
 _symmetry_equiv_pos_as_xyz
  1  'x, y, z'
loop_
 _atom_site_type_symbol
 _atom_site_label
 _atom_site_symmetry_multiplicity
 _atom_site_fract_x
 _atom_site_fract_y
 _atom_site_fract_z
 _atom_site_occupancy
  Tb  Tb0  1  0.859412  0.859413  0.140588  1
  Dy  Dy1  1  0.140611  0.140612  0.859389  1
  B  B2  1  0.478754  0.788368  0.211633  1
  B  B3  1  0.211602  0.521212  0.478789  1
  B  B4  1  0.788367  0.478755  0.521246  1
  B  B5  1  0.521211  0.211603  0.788398  1
  Ir  Ir6  1  0.500051  0.500052  0.999948  1
  Ir  Ir7  1  0.249929  0.249930  0.250071  1
  Ir  Ir8  1  0.000052  0.000052  0.499948  1
  Ir  Ir9  1  0.500076  0.500077  0.499924  1
  Ir  Ir10  1  0.749928  0.749930  0.750072  1
