# generated using pymatgen
data_Th3Al12Fe3Ru
_symmetry_space_group_name_H-M   'P 1'
_cell_length_a   8.88237773
_cell_length_b   8.89411615
_cell_length_c   9.44216021
_cell_angle_alpha   89.99999838
_cell_angle_beta   89.97924892
_cell_angle_gamma   120.04373427
_symmetry_Int_Tables_number   1
_chemical_formula_structural   Th3Al12Fe3Ru
_chemical_formula_sum   'Th6 Al24 Fe6 Ru2'
_cell_volume   645.71731634
_cell_formula_units_Z   2
loop_
 _symmetry_equiv_pos_site_id
 _symmetry_equiv_pos_as_xyz
  1  'x, y, z'
loop_
 _atom_site_type_symbol
 _atom_site_label
 _atom_site_symmetry_multiplicity
 _atom_site_fract_x
 _atom_site_fract_y
 _atom_site_fract_z
 _atom_site_occupancy
  Th  Th0  1  0.804644  0.195570  0.747562  1
  Th  Th1  1  0.195356  0.804430  0.252438  1
  Th  Th2  1  0.390663  0.195332  0.747602  1
  Th  Th3  1  0.609337  0.804668  0.252398  1
  Th  Th4  1  0.804644  0.609074  0.747562  1
  Th  Th5  1  0.195356  0.390926  0.252438  1
  Al  Al6  1  0.671440  0.335720  0.998016  1
  Al  Al7  1  0.328560  0.664280  0.001984  1
  Al  Al8  1  0.333339  0.666670  0.495226  1
  Al  Al9  1  0.666661  0.333330  0.504774  1
  Al  Al10  1  0.839249  0.160894  0.423470  1
  Al  Al11  1  0.160751  0.839106  0.576530  1
  Al  Al12  1  0.321228  0.160614  0.422973  1
  Al  Al13  1  0.157916  0.838824  0.923493  1
  Al  Al14  1  0.678772  0.839386  0.577027  1
  Al  Al15  1  0.842084  0.161176  0.076507  1
  Al  Al16  1  0.839249  0.678355  0.423470  1
  Al  Al17  1  0.680962  0.840481  0.922820  1
  Al  Al18  1  0.160751  0.321645  0.576530  1
  Al  Al19  1  0.319038  0.159519  0.077180  1
  Al  Al20  1  0.157916  0.319092  0.923493  1
  Al  Al21  1  0.842084  0.680908  0.076507  1
  Al  Al22  1  0.437074  0.562686  0.745643  1
  Al  Al23  1  0.562926  0.437314  0.254357  1
  Al  Al24  1  0.123458  0.561729  0.749308  1
  Al  Al25  1  0.876542  0.438271  0.250692  1
  Al  Al26  1  0.437074  0.874387  0.745643  1
  Al  Al27  1  0.562926  0.125613  0.254357  1
  Al  Al28  1  0.999171  0.999585  0.750016  1
  Al  Al29  1  0.000829  0.000415  0.249984  1
  Fe  Fe30  1  0.000000  0.500000  0.000000  1
  Fe  Fe31  1  0.500000  0.500000  0.500000  1
  Fe  Fe32  1  0.000000  0.500000  0.500000  1
  Fe  Fe33  1  0.500000  0.000000  0.500000  1
  Fe  Fe34  1  0.000000  0.000000  0.000000  1
  Fe  Fe35  1  0.000000  0.000000  0.500000  1
  Ru  Ru36  1  0.500000  0.500000  0.000000  1
  Ru  Ru37  1  0.500000  0.000000  0.000000  1
