# generated using pymatgen
data_YLuV2F14
_symmetry_space_group_name_H-M   'P 1'
_cell_length_a   5.50101142
_cell_length_b   8.74224333
_cell_length_c   11.72590970
_cell_angle_alpha   64.50688113
_cell_angle_beta   89.98514951
_cell_angle_gamma   90.02164219
_symmetry_Int_Tables_number   1
_chemical_formula_structural   YLuV2F14
_chemical_formula_sum   'Y2 Lu2 V4 F28'
_cell_volume   509.00849062
_cell_formula_units_Z   2
loop_
 _symmetry_equiv_pos_site_id
 _symmetry_equiv_pos_as_xyz
  1  'x, y, z'
loop_
 _atom_site_type_symbol
 _atom_site_label
 _atom_site_symmetry_multiplicity
 _atom_site_fract_x
 _atom_site_fract_y
 _atom_site_fract_z
 _atom_site_occupancy
  Y  Y0  1  0.256233  0.808121  0.275389  1
  Y  Y1  1  0.743767  0.191879  0.724611  1
  Lu  Lu2  1  0.757375  0.200431  0.222292  1
  Lu  Lu3  1  0.242625  0.799569  0.777708  1
  V  V4  1  0.751772  0.726185  0.046104  1
  V  V5  1  0.248228  0.273815  0.953896  1
  V  V6  1  0.253018  0.273066  0.448442  1
  V  V7  1  0.746982  0.726934  0.551558  1
  F  F8  1  0.959652  0.704840  0.431873  1
  F  F9  1  0.040348  0.295160  0.568127  1
  F  F10  1  0.462494  0.296339  0.072545  1
  F  F11  1  0.537506  0.703661  0.927455  1
  F  F12  1  0.482347  0.734350  0.144332  1
  F  F13  1  0.517653  0.265650  0.855668  1
  F  F14  1  0.980860  0.270413  0.347814  1
  F  F15  1  0.019140  0.729587  0.652186  1
  F  F16  1  0.959968  0.747926  0.168959  1
  F  F17  1  0.040032  0.252074  0.831041  1
  F  F18  1  0.467121  0.252116  0.326237  1
  F  F19  1  0.532879  0.747884  0.673763  1
  F  F20  1  0.762055  0.493536  0.137685  1
  F  F21  1  0.237945  0.506464  0.862315  1
  F  F22  1  0.265272  0.506145  0.358817  1
  F  F23  1  0.734728  0.493855  0.641183  1
  F  F24  1  0.968561  0.288458  0.046922  1
  F  F25  1  0.031439  0.711542  0.953078  1
  F  F26  1  0.470991  0.713513  0.456990  1
  F  F27  1  0.529009  0.286487  0.543010  1
  F  F28  1  0.748227  0.954172  0.465354  1
  F  F29  1  0.251773  0.045828  0.534646  1
  F  F30  1  0.245357  0.045462  0.043395  1
  F  F31  1  0.754643  0.954538  0.956605  1
  F  F32  1  0.567152  0.983610  0.237394  1
  F  F33  1  0.432848  0.016390  0.762606  1
  F  F34  1  0.054562  0.027576  0.264416  1
  F  F35  1  0.945438  0.972424  0.735584  1
