# generated using pymatgen
data_CeHoFeCo16
_symmetry_space_group_name_H-M   'P 1'
_cell_length_a   6.27409718
_cell_length_b   6.27409639
_cell_length_c   6.27409702
_cell_angle_alpha   83.03595412
_cell_angle_beta   83.03595993
_cell_angle_gamma   83.03594806
_symmetry_Int_Tables_number   1
_chemical_formula_structural   CeHoFeCo16
_chemical_formula_sum   'Ce1 Ho1 Fe1 Co16'
_cell_volume   241.91773270
_cell_formula_units_Z   1
loop_
 _symmetry_equiv_pos_site_id
 _symmetry_equiv_pos_as_xyz
  1  'x, y, z'
loop_
 _atom_site_type_symbol
 _atom_site_label
 _atom_site_symmetry_multiplicity
 _atom_site_fract_x
 _atom_site_fract_y
 _atom_site_fract_z
 _atom_site_occupancy
  Ce  Ce0  1  0.651768  0.651768  0.651768  1
  Ho  Ho1  1  0.344306  0.344306  0.344306  1
  Fe  Fe2  1  0.096070  0.096070  0.096070  1
  Co  Co3  1  0.348420  0.847316  0.348420  1
  Co  Co4  1  0.348420  0.348420  0.847316  1
  Co  Co5  1  0.847316  0.348420  0.348420  1
  Co  Co6  1  0.653968  0.143649  0.653968  1
  Co  Co7  1  0.653968  0.653968  0.143649  1
  Co  Co8  1  0.143649  0.653968  0.653968  1
  Co  Co9  1  0.713141  0.289087  0.999493  1
  Co  Co10  1  0.999493  0.713141  0.289087  1
  Co  Co11  1  0.289087  0.999493  0.713141  1
  Co  Co12  1  0.999493  0.289087  0.713141  1
  Co  Co13  1  0.713141  0.999493  0.289087  1
  Co  Co14  1  0.289087  0.713141  0.999493  1
  Co  Co15  1  0.003352  0.003352  0.500658  1
  Co  Co16  1  0.500658  0.003352  0.003352  1
  Co  Co17  1  0.003352  0.500658  0.003352  1
  Co  Co18  1  0.901312  0.901312  0.901312  1
