# generated using pymatgen
data_SrNd6FeI12
_symmetry_space_group_name_H-M   'P 1'
_cell_length_a   10.07775306
_cell_length_b   10.07775277
_cell_length_c   10.07775296
_cell_angle_alpha   106.60838762
_cell_angle_beta   106.60838812
_cell_angle_gamma   106.60837899
_symmetry_Int_Tables_number   1
_chemical_formula_structural   SrNd6FeI12
_chemical_formula_sum   'Sr1 Nd6 Fe1 I12'
_cell_volume   861.33070912
_cell_formula_units_Z   1
loop_
 _symmetry_equiv_pos_site_id
 _symmetry_equiv_pos_as_xyz
  1  'x, y, z'
loop_
 _atom_site_type_symbol
 _atom_site_label
 _atom_site_symmetry_multiplicity
 _atom_site_fract_x
 _atom_site_fract_y
 _atom_site_fract_z
 _atom_site_occupancy
  Sr  Sr0  1  0.500000  0.500000  0.500000  1
  Nd  Nd1  1  0.093757  0.293575  0.022373  1
  Nd  Nd2  1  0.022373  0.093757  0.293575  1
  Nd  Nd3  1  0.293575  0.022373  0.093757  1
  Nd  Nd4  1  0.906243  0.706425  0.977627  1
  Nd  Nd5  1  0.977627  0.906243  0.706425  1
  Nd  Nd6  1  0.706425  0.977627  0.906243  1
  Fe  Fe7  1  0.000000  0.000000  0.000000  1
  I  I8  1  0.451156  0.372448  0.143397  1
  I  I9  1  0.143397  0.451156  0.372448  1
  I  I10  1  0.372448  0.143397  0.451156  1
  I  I11  1  0.548844  0.627552  0.856603  1
  I  I12  1  0.856603  0.548844  0.627552  1
  I  I13  1  0.627552  0.856603  0.548844  1
  I  I14  1  0.775855  0.316840  0.927152  1
  I  I15  1  0.927152  0.775855  0.316840  1
  I  I16  1  0.316840  0.927152  0.775855  1
  I  I17  1  0.224145  0.683160  0.072848  1
  I  I18  1  0.072848  0.224145  0.683160  1
  I  I19  1  0.683160  0.072848  0.224145  1
