# generated using pymatgen
data_NdHo4Bi3O14
_symmetry_space_group_name_H-M   'P 1'
_cell_length_a   6.60293122
_cell_length_b   6.64231988
_cell_length_c   7.75951768
_cell_angle_alpha   106.87136630
_cell_angle_beta   89.64118589
_cell_angle_gamma   98.86286383
_symmetry_Int_Tables_number   1
_chemical_formula_structural   NdHo4Bi3O14
_chemical_formula_sum   'Nd1 Ho4 Bi3 O14'
_cell_volume   321.52027667
_cell_formula_units_Z   1
loop_
 _symmetry_equiv_pos_site_id
 _symmetry_equiv_pos_as_xyz
  1  'x, y, z'
loop_
 _atom_site_type_symbol
 _atom_site_label
 _atom_site_symmetry_multiplicity
 _atom_site_fract_x
 _atom_site_fract_y
 _atom_site_fract_z
 _atom_site_occupancy
  Nd  Nd0  1  0.750042  0.484317  0.620815  1
  Ho  Ho1  1  0.461403  0.008089  0.252815  1
  Ho  Ho2  1  0.535028  0.999009  0.751522  1
  Ho  Ho3  1  0.272908  0.534643  0.885100  1
  Ho  Ho4  1  0.736215  0.459306  0.111571  1
  Bi  Bi5  1  0.994869  0.998850  0.499700  1
  Bi  Bi6  1  0.999373  0.997075  0.998180  1
  Bi  Bi7  1  0.283070  0.534175  0.385763  1
  O  O8  1  0.453792  0.655771  0.165485  1
  O  O9  1  0.549165  0.350320  0.842318  1
  O  O10  1  0.301778  0.920236  0.951815  1
  O  O11  1  0.698552  0.076640  0.050346  1
  O  O12  1  0.298837  0.931906  0.515749  1
  O  O13  1  0.697127  0.079644  0.490301  1
  O  O14  1  0.546824  0.360525  0.335762  1
  O  O15  1  0.453711  0.642829  0.660437  1
  O  O16  1  0.927376  0.661002  0.951430  1
  O  O17  1  0.067785  0.326900  0.028304  1
  O  O18  1  0.076449  0.335077  0.631990  1
  O  O19  1  0.905019  0.664510  0.375697  1
  O  O20  1  0.868694  0.902367  0.725854  1
  O  O21  1  0.121982  0.076811  0.269045  1
