# generated using pymatgen
data_Sr4Al3(SiAu4)5
_symmetry_space_group_name_H-M   'P 1'
_cell_length_a   7.24153700
_cell_length_b   9.07463712
_cell_length_c   9.94165300
_cell_angle_alpha   89.63303729
_cell_angle_beta   90.00000000
_cell_angle_gamma   90.00000000
_symmetry_Int_Tables_number   1
_chemical_formula_structural   Sr4Al3(SiAu4)5
_chemical_formula_sum   'Sr4 Al3 Si5 Au20'
_cell_volume   653.29557190
_cell_formula_units_Z   1
loop_
 _symmetry_equiv_pos_site_id
 _symmetry_equiv_pos_as_xyz
  1  'x, y, z'
loop_
 _atom_site_type_symbol
 _atom_site_label
 _atom_site_symmetry_multiplicity
 _atom_site_fract_x
 _atom_site_fract_y
 _atom_site_fract_z
 _atom_site_occupancy
  Sr  Sr0  1  0.250000  0.246455  0.120312  1
  Sr  Sr1  1  0.250000  0.751129  0.378869  1
  Sr  Sr2  1  0.750000  0.749241  0.879376  1
  Sr  Sr3  1  0.750000  0.251596  0.621546  1
  Al  Al4  1  0.250000  0.050922  0.621239  1
  Al  Al5  1  0.250000  0.548188  0.876489  1
  Al  Al6  1  0.750000  0.952359  0.376222  1
  Si  Si7  1  0.750000  0.457164  0.126301  1
  Si  Si8  1  0.250000  0.332337  0.467588  1
  Si  Si9  1  0.250000  0.828234  0.036037  1
  Si  Si10  1  0.750000  0.666836  0.534664  1
  Si  Si11  1  0.750000  0.158561  0.962394  1
  Au  Au12  1  0.049973  0.103844  0.394221  1
  Au  Au13  1  0.449362  0.598652  0.105037  1
  Au  Au14  1  0.551277  0.897974  0.604221  1
  Au  Au15  1  0.947213  0.394444  0.897284  1
  Au  Au16  1  0.948723  0.897974  0.604221  1
  Au  Au17  1  0.552787  0.394444  0.897284  1
  Au  Au18  1  0.450027  0.103844  0.394221  1
  Au  Au19  1  0.050638  0.598652  0.105037  1
  Au  Au20  1  0.032849  0.066783  0.858621  1
  Au  Au21  1  0.468986  0.568523  0.639841  1
  Au  Au22  1  0.529574  0.934633  0.138438  1
  Au  Au23  1  0.972355  0.433017  0.362326  1
  Au  Au24  1  0.970426  0.934633  0.138438  1
  Au  Au25  1  0.527645  0.433017  0.362326  1
  Au  Au26  1  0.467151  0.066783  0.858621  1
  Au  Au27  1  0.031014  0.568523  0.639841  1
  Au  Au28  1  0.250000  0.309406  0.714801  1
  Au  Au29  1  0.250000  0.808633  0.787595  1
  Au  Au30  1  0.750000  0.693522  0.288313  1
  Au  Au31  1  0.750000  0.199676  0.208272  1
