# generated using pymatgen
data_Ba3LaBi3
_symmetry_space_group_name_H-M   'P 1'
_cell_length_a   9.20280855
_cell_length_b   9.07794210
_cell_length_c   9.12084817
_cell_angle_alpha   109.34809197
_cell_angle_beta   109.72291001
_cell_angle_gamma   109.71514720
_symmetry_Int_Tables_number   1
_chemical_formula_structural   Ba3LaBi3
_chemical_formula_sum   'Ba6 La2 Bi6'
_cell_volume   583.85359938
_cell_formula_units_Z   2
loop_
 _symmetry_equiv_pos_site_id
 _symmetry_equiv_pos_as_xyz
  1  'x, y, z'
loop_
 _atom_site_type_symbol
 _atom_site_label
 _atom_site_symmetry_multiplicity
 _atom_site_fract_x
 _atom_site_fract_y
 _atom_site_fract_z
 _atom_site_occupancy
  Ba  Ba0  1  0.142108  0.502585  0.002466  1
  Ba  Ba1  1  0.365314  0.363825  0.359404  1
  Ba  Ba2  1  0.639523  0.497415  0.999881  1
  Ba  Ba3  1  0.497175  0.000904  0.640969  1
  Ba  Ba4  1  0.496271  0.999096  0.140065  1
  Ba  Ba5  1  0.001489  0.636175  0.495580  1
  La  La6  1  0.863587  0.864713  0.862432  1
  La  La7  1  0.998875  0.135287  0.497719  1
  Bi  Bi8  1  0.224303  0.115898  0.860088  1
  Bi  Bi9  1  0.108405  0.884102  0.244190  1
  Bi  Bi10  1  0.759229  0.381892  0.629383  1
  Bi  Bi11  1  0.877002  0.227616  0.123974  1
  Bi  Bi12  1  0.649385  0.772384  0.396358  1
  Bi  Bi13  1  0.377337  0.618108  0.747491  1
