# generated using pymatgen
data_Hf16GaNi4Mo3
_symmetry_space_group_name_H-M   'P 1'
_cell_length_a   8.68080796
_cell_length_b   8.68080847
_cell_length_c   8.68080890
_cell_angle_alpha   60.25462932
_cell_angle_beta   60.25462317
_cell_angle_gamma   60.25462419
_symmetry_Int_Tables_number   1
_chemical_formula_structural   Hf16GaNi4Mo3
_chemical_formula_sum   'Hf16 Ga1 Ni4 Mo3'
_cell_volume   465.22330259
_cell_formula_units_Z   1
loop_
 _symmetry_equiv_pos_site_id
 _symmetry_equiv_pos_as_xyz
  1  'x, y, z'
loop_
 _atom_site_type_symbol
 _atom_site_label
 _atom_site_symmetry_multiplicity
 _atom_site_fract_x
 _atom_site_fract_y
 _atom_site_fract_z
 _atom_site_occupancy
  Hf  Hf0  1  0.692521  0.101375  0.101375  1
  Hf  Hf1  1  0.101375  0.692521  0.101375  1
  Hf  Hf2  1  0.101375  0.101375  0.692521  1
  Hf  Hf3  1  0.103358  0.103358  0.103358  1
  Hf  Hf4  1  0.315898  0.315898  0.693098  1
  Hf  Hf5  1  0.685927  0.685927  0.314975  1
  Hf  Hf6  1  0.315898  0.693098  0.315898  1
  Hf  Hf7  1  0.685927  0.314975  0.685927  1
  Hf  Hf8  1  0.693098  0.315898  0.315898  1
  Hf  Hf9  1  0.314975  0.685927  0.685927  1
  Hf  Hf10  1  0.953149  0.953149  0.545484  1
  Hf  Hf11  1  0.553383  0.553383  0.942077  1
  Hf  Hf12  1  0.953149  0.545484  0.953149  1
  Hf  Hf13  1  0.553383  0.942077  0.553383  1
  Hf  Hf14  1  0.545484  0.953149  0.953149  1
  Hf  Hf15  1  0.942077  0.553383  0.553383  1
  Ga  Ga16  1  0.328354  0.328354  0.328354  1
  Ni  Ni17  1  0.323097  0.890640  0.890640  1
  Ni  Ni18  1  0.890640  0.323097  0.890640  1
  Ni  Ni19  1  0.890640  0.890640  0.323097  1
  Ni  Ni20  1  0.891806  0.891806  0.891806  1
  Mo  Mo21  1  0.995893  0.334294  0.334294  1
  Mo  Mo22  1  0.334294  0.995893  0.334294  1
  Mo  Mo23  1  0.334294  0.334294  0.995893  1
