# generated using pymatgen
data_Gd4Ga(RhO4)3
_symmetry_space_group_name_H-M   'P 1'
_cell_length_a   5.37103024
_cell_length_b   5.77420349
_cell_length_c   7.72934714
_cell_angle_alpha   89.60395673
_cell_angle_beta   89.25568704
_cell_angle_gamma   90.07539136
_symmetry_Int_Tables_number   1
_chemical_formula_structural   Gd4Ga(RhO4)3
_chemical_formula_sum   'Gd4 Ga1 Rh3 O12'
_cell_volume   239.68731181
_cell_formula_units_Z   1
loop_
 _symmetry_equiv_pos_site_id
 _symmetry_equiv_pos_as_xyz
  1  'x, y, z'
loop_
 _atom_site_type_symbol
 _atom_site_label
 _atom_site_symmetry_multiplicity
 _atom_site_fract_x
 _atom_site_fract_y
 _atom_site_fract_z
 _atom_site_occupancy
  Gd  Gd0  1  0.969983  0.075405  0.750462  1
  Gd  Gd1  1  0.478922  0.423800  0.249329  1
  Gd  Gd2  1  0.521078  0.576200  0.750671  1
  Gd  Gd3  1  0.030017  0.924595  0.249538  1
  Ga  Ga4  1  0.000000  0.500000  0.000000  1
  Rh  Rh5  1  0.000000  0.500000  0.500000  1
  Rh  Rh6  1  0.500000  0.000000  0.500000  1
  Rh  Rh7  1  0.500000  0.000000  0.000000  1
  O  O8  1  0.682891  0.305094  0.563104  1
  O  O9  1  0.185502  0.194752  0.438182  1
  O  O10  1  0.813169  0.796081  0.940795  1
  O  O11  1  0.306963  0.690564  0.055864  1
  O  O12  1  0.317109  0.694906  0.436896  1
  O  O13  1  0.814498  0.805248  0.561818  1
  O  O14  1  0.186831  0.203919  0.059205  1
  O  O15  1  0.693037  0.309436  0.944136  1
  O  O16  1  0.884292  0.542911  0.245128  1
  O  O17  1  0.371422  0.953492  0.751171  1
  O  O18  1  0.628578  0.046508  0.248829  1
  O  O19  1  0.115708  0.457089  0.754872  1
