# generated using pymatgen
data_PrNd3Sn16(IrRh)4
_symmetry_space_group_name_H-M   'P 1'
_cell_length_a   4.53566200
_cell_length_b   7.24968301
_cell_length_c   18.67217301
_cell_angle_alpha   89.99569316
_cell_angle_beta   90.00000000
_cell_angle_gamma   90.00000000
_symmetry_Int_Tables_number   1
_chemical_formula_structural   PrNd3Sn16(IrRh)4
_chemical_formula_sum   'Pr1 Nd3 Sn16 Ir4 Rh4'
_cell_volume   613.98047731
_cell_formula_units_Z   1
loop_
 _symmetry_equiv_pos_site_id
 _symmetry_equiv_pos_as_xyz
  1  'x, y, z'
loop_
 _atom_site_type_symbol
 _atom_site_label
 _atom_site_symmetry_multiplicity
 _atom_site_fract_x
 _atom_site_fract_y
 _atom_site_fract_z
 _atom_site_occupancy
  Pr  Pr0  1  0.750000  0.498803  0.641631  1
  Nd  Nd1  1  0.250000  0.998862  0.858416  1
  Nd  Nd2  1  0.250000  0.501156  0.358401  1
  Nd  Nd3  1  0.750000  0.001150  0.141594  1
  Sn  Sn4  1  0.250000  0.302017  0.182129  1
  Sn  Sn5  1  0.250000  0.197399  0.682216  1
  Sn  Sn6  1  0.750000  0.698054  0.817898  1
  Sn  Sn7  1  0.750000  0.802010  0.317874  1
  Sn  Sn8  1  0.250000  0.722631  0.194734  1
  Sn  Sn9  1  0.250000  0.778051  0.694852  1
  Sn  Sn10  1  0.750000  0.277228  0.805346  1
  Sn  Sn11  1  0.750000  0.222634  0.305268  1
  Sn  Sn12  1  0.250000  0.865462  0.032044  1
  Sn  Sn13  1  0.250000  0.634849  0.531821  1
  Sn  Sn14  1  0.750000  0.134551  0.967943  1
  Sn  Sn15  1  0.750000  0.365376  0.467844  1
  Sn  Sn16  1  0.250000  0.519287  0.931761  1
  Sn  Sn17  1  0.250000  0.980701  0.431758  1
  Sn  Sn18  1  0.750000  0.480719  0.068238  1
  Sn  Sn19  1  0.750000  0.019227  0.568247  1
  Ir  Ir20  1  0.250000  0.250415  0.034927  1
  Ir  Ir21  1  0.250000  0.249347  0.534794  1
  Ir  Ir22  1  0.750000  0.749575  0.965071  1
  Ir  Ir23  1  0.750000  0.750448  0.465044  1
  Rh  Rh24  1  0.250000  0.017520  0.286777  1
  Rh  Rh25  1  0.250000  0.482491  0.786881  1
  Rh  Rh26  1  0.750000  0.982539  0.713237  1
  Rh  Rh27  1  0.750000  0.517497  0.213253  1
