# generated using pymatgen
data_CeDyNbB2Ru5
_symmetry_space_group_name_H-M   'P 1'
_cell_length_a   9.71049445
_cell_length_b   9.71049445
_cell_length_c   3.15050300
_cell_angle_alpha   90.00000000
_cell_angle_beta   90.00000000
_cell_angle_gamma   89.93740858
_symmetry_Int_Tables_number   1
_chemical_formula_structural   CeDyNbB2Ru5
_chemical_formula_sum   'Ce2 Dy2 Nb2 B4 Ru10'
_cell_volume   297.07241514
_cell_formula_units_Z   2
loop_
 _symmetry_equiv_pos_site_id
 _symmetry_equiv_pos_as_xyz
  1  'x, y, z'
loop_
 _atom_site_type_symbol
 _atom_site_label
 _atom_site_symmetry_multiplicity
 _atom_site_fract_x
 _atom_site_fract_y
 _atom_site_fract_z
 _atom_site_occupancy
  Ce  Ce0  1  0.323936  0.823936  0.000000  1
  Ce  Ce1  1  0.676064  0.176064  0.000000  1
  Dy  Dy2  1  0.825061  0.674939  0.000000  1
  Dy  Dy3  1  0.174939  0.325061  0.000000  1
  Nb  Nb4  1  0.500000  0.500000  0.000000  1
  Nb  Nb5  1  0.000000  0.000000  0.000000  1
  B  B6  1  0.622882  0.877118  0.000000  1
  B  B7  1  0.377118  0.122882  0.000000  1
  B  B8  1  0.118699  0.618699  0.000000  1
  B  B9  1  0.881301  0.381301  0.000000  1
  Ru  Ru10  1  0.569181  0.719388  0.500000  1
  Ru  Ru11  1  0.430819  0.280612  0.500000  1
  Ru  Ru12  1  0.071898  0.781115  0.500000  1
  Ru  Ru13  1  0.928102  0.218885  0.500000  1
  Ru  Ru14  1  0.281115  0.571898  0.500000  1
  Ru  Ru15  1  0.718885  0.428102  0.500000  1
  Ru  Ru16  1  0.219388  0.069181  0.500000  1
  Ru  Ru17  1  0.780612  0.930819  0.500000  1
  Ru  Ru18  1  0.500000  0.000000  0.500000  1
  Ru  Ru19  1  0.000000  0.500000  0.500000  1
