# generated using pymatgen
data_CaTb(Al5Os)4
_symmetry_space_group_name_H-M   'P 1'
_cell_length_a   6.88096007
_cell_length_b   6.88096037
_cell_length_c   9.16784200
_cell_angle_alpha   90.00000000
_cell_angle_beta   90.00000000
_cell_angle_gamma   96.52113388
_symmetry_Int_Tables_number   1
_chemical_formula_structural   CaTb(Al5Os)4
_chemical_formula_sum   'Ca1 Tb1 Al20 Os4'
_cell_volume   431.26698626
_cell_formula_units_Z   1
loop_
 _symmetry_equiv_pos_site_id
 _symmetry_equiv_pos_as_xyz
  1  'x, y, z'
loop_
 _atom_site_type_symbol
 _atom_site_label
 _atom_site_symmetry_multiplicity
 _atom_site_fract_x
 _atom_site_fract_y
 _atom_site_fract_z
 _atom_site_occupancy
  Ca  Ca0  1  0.872419  0.127581  0.750000  1
  Tb  Tb1  1  0.126960  0.873040  0.250000  1
  Al  Al2  1  0.523792  0.783562  0.750000  1
  Al  Al3  1  0.781778  0.520323  0.250000  1
  Al  Al4  1  0.479677  0.218222  0.250000  1
  Al  Al5  1  0.216438  0.476208  0.750000  1
  Al  Al6  1  0.623520  0.376480  0.960078  1
  Al  Al7  1  0.376750  0.623250  0.048541  1
  Al  Al8  1  0.623520  0.376480  0.539922  1
  Al  Al9  1  0.376750  0.623250  0.451459  1
  Al  Al10  1  0.412853  0.145316  0.750000  1
  Al  Al11  1  0.145286  0.416217  0.250000  1
  Al  Al12  1  0.583783  0.854714  0.250000  1
  Al  Al13  1  0.854684  0.587147  0.750000  1
  Al  Al14  1  0.846088  0.153912  0.399976  1
  Al  Al15  1  0.158262  0.841738  0.600750  1
  Al  Al16  1  0.846088  0.153912  0.100024  1
  Al  Al17  1  0.158262  0.841738  0.899250  1
  Al  Al18  1  0.775060  0.776258  0.000865  1
  Al  Al19  1  0.775060  0.776258  0.499135  1
  Al  Al20  1  0.223742  0.224940  0.000865  1
  Al  Al21  1  0.223742  0.224940  0.499135  1
  Os  Os22  1  0.498186  0.000445  0.000360  1
  Os  Os23  1  0.999555  0.501814  0.000360  1
  Os  Os24  1  0.498186  0.000445  0.499640  1
  Os  Os25  1  0.999555  0.501814  0.499640  1
