# generated using pymatgen
data_Pa6Sb8IrPt5
_symmetry_space_group_name_H-M   'P 1'
_cell_length_a   8.46062287
_cell_length_b   8.46062255
_cell_length_c   8.46062300
_cell_angle_alpha   109.53006684
_cell_angle_beta   109.35358035
_cell_angle_gamma   109.53007918
_symmetry_Int_Tables_number   1
_chemical_formula_structural   Pa6Sb8IrPt5
_chemical_formula_sum   'Pa6 Sb8 Ir1 Pt5'
_cell_volume   466.21230819
_cell_formula_units_Z   1
loop_
 _symmetry_equiv_pos_site_id
 _symmetry_equiv_pos_as_xyz
  1  'x, y, z'
loop_
 _atom_site_type_symbol
 _atom_site_label
 _atom_site_symmetry_multiplicity
 _atom_site_fract_x
 _atom_site_fract_y
 _atom_site_fract_z
 _atom_site_occupancy
  Pa  Pa0  1  0.875000  0.250000  0.125000  1
  Pa  Pa1  1  0.625000  0.750000  0.375000  1
  Pa  Pa2  1  0.251322  0.127574  0.871343  1
  Pa  Pa3  1  0.743767  0.372426  0.623747  1
  Pa  Pa4  1  0.128657  0.879980  0.256233  1
  Pa  Pa5  1  0.376253  0.620020  0.748678  1
  Sb  Sb6  1  0.677925  0.497876  0.997438  1
  Sb  Sb7  1  0.499562  0.002124  0.680049  1
  Sb  Sb8  1  0.999997  0.678176  0.500629  1
  Sb  Sb9  1  0.822453  0.821824  0.821821  1
  Sb  Sb10  1  0.499371  0.999368  0.177547  1
  Sb  Sb11  1  0.178179  0.500632  0.000003  1
  Sb  Sb12  1  0.002562  0.180487  0.500438  1
  Sb  Sb13  1  0.319951  0.319513  0.322075  1
  Ir  Ir14  1  0.375000  0.250000  0.625000  1
  Pt  Pt15  1  0.125000  0.750000  0.875000  1
  Pt  Pt16  1  0.251923  0.625774  0.376337  1
  Pt  Pt17  1  0.750562  0.874226  0.126149  1
  Pt  Pt18  1  0.623663  0.375587  0.249438  1
  Pt  Pt19  1  0.873851  0.124413  0.748077  1
