# generated using pymatgen
data_Dy8Re3OsC8
_symmetry_space_group_name_H-M   'P 1'
_cell_length_a   5.11763300
_cell_length_b   6.56330381
_cell_length_c   9.84809349
_cell_angle_alpha   89.85996001
_cell_angle_beta   90.00000000
_cell_angle_gamma   90.00000000
_symmetry_Int_Tables_number   1
_chemical_formula_structural   Dy8Re3OsC8
_chemical_formula_sum   'Dy8 Re3 Os1 C8'
_cell_volume   330.78248971
_cell_formula_units_Z   1
loop_
 _symmetry_equiv_pos_site_id
 _symmetry_equiv_pos_as_xyz
  1  'x, y, z'
loop_
 _atom_site_type_symbol
 _atom_site_label
 _atom_site_symmetry_multiplicity
 _atom_site_fract_x
 _atom_site_fract_y
 _atom_site_fract_z
 _atom_site_occupancy
  Dy  Dy0  1  0.250000  0.679035  0.554558  1
  Dy  Dy1  1  0.750000  0.318363  0.444560  1
  Dy  Dy2  1  0.750000  0.818737  0.055291  1
  Dy  Dy3  1  0.250000  0.181208  0.944555  1
  Dy  Dy4  1  0.250000  0.529823  0.216865  1
  Dy  Dy5  1  0.750000  0.468280  0.784342  1
  Dy  Dy6  1  0.750000  0.970363  0.713428  1
  Dy  Dy7  1  0.250000  0.029794  0.283782  1
  Re  Re8  1  0.250000  0.723480  0.864485  1
  Re  Re9  1  0.750000  0.276615  0.134353  1
  Re  Re10  1  0.750000  0.775843  0.365605  1
  Os  Os11  1  0.250000  0.223873  0.635396  1
  C  C12  1  0.250000  0.457533  0.759229  1
  C  C13  1  0.750000  0.543035  0.240762  1
  C  C14  1  0.750000  0.042907  0.259454  1
  C  C15  1  0.250000  0.958017  0.741840  1
  C  C16  1  0.250000  0.823102  0.049438  1
  C  C17  1  0.750000  0.177875  0.949474  1
  C  C18  1  0.750000  0.677935  0.551171  1
  C  C19  1  0.250000  0.324183  0.451410  1
