# generated using pymatgen
data_YEr4U(Co3P2)6
_symmetry_space_group_name_H-M   'P 1'
_cell_length_a   3.67517000
_cell_length_b   10.48633900
_cell_length_c   12.08301800
_cell_angle_alpha   90.00000000
_cell_angle_beta   90.00000000
_cell_angle_gamma   90.00000000
_symmetry_Int_Tables_number   1
_chemical_formula_structural   YEr4U(Co3P2)6
_chemical_formula_sum   'Y1 Er4 U1 Co18 P12'
_cell_volume   465.66837925
_cell_formula_units_Z   1
loop_
 _symmetry_equiv_pos_site_id
 _symmetry_equiv_pos_as_xyz
  1  'x, y, z'
loop_
 _atom_site_type_symbol
 _atom_site_label
 _atom_site_symmetry_multiplicity
 _atom_site_fract_x
 _atom_site_fract_y
 _atom_site_fract_z
 _atom_site_occupancy
  Y  Y0  1  0.750000  0.250000  0.477273  1
  Er  Er1  1  0.250000  0.933406  0.794523  1
  Er  Er2  1  0.250000  0.566594  0.794523  1
  Er  Er3  1  0.750000  0.066068  0.205873  1
  Er  Er4  1  0.750000  0.433932  0.205873  1
  U  U5  1  0.250000  0.750000  0.529435  1
  Co  Co6  1  0.250000  0.250000  0.842110  1
  Co  Co7  1  0.750000  0.750000  0.158784  1
  Co  Co8  1  0.250000  0.250000  0.296012  1
  Co  Co9  1  0.750000  0.750000  0.693271  1
  Co  Co10  1  0.750000  0.250000  0.014214  1
  Co  Co11  1  0.250000  0.750000  0.985047  1
  Co  Co12  1  0.250000  0.417003  0.005701  1
  Co  Co13  1  0.250000  0.082997  0.005701  1
  Co  Co14  1  0.750000  0.584260  0.993393  1
  Co  Co15  1  0.750000  0.915740  0.993393  1
  Co  Co16  1  0.250000  0.451684  0.569170  1
  Co  Co17  1  0.250000  0.048316  0.569170  1
  Co  Co18  1  0.750000  0.550545  0.431518  1
  Co  Co19  1  0.750000  0.949455  0.431518  1
  Co  Co20  1  0.250000  0.870123  0.291270  1
  Co  Co21  1  0.250000  0.629877  0.291270  1
  Co  Co22  1  0.750000  0.129407  0.711461  1
  Co  Co23  1  0.750000  0.370593  0.711461  1
  P  P24  1  0.250000  0.250000  0.118120  1
  P  P25  1  0.750000  0.750000  0.877961  1
  P  P26  1  0.250000  0.250000  0.656404  1
  P  P27  1  0.750000  0.750000  0.346381  1
  P  P28  1  0.250000  0.438828  0.382826  1
  P  P29  1  0.250000  0.061172  0.382826  1
  P  P30  1  0.750000  0.556528  0.616019  1
  P  P31  1  0.750000  0.943472  0.616019  1
  P  P32  1  0.250000  0.902232  0.106936  1
  P  P33  1  0.250000  0.597768  0.106936  1
  P  P34  1  0.750000  0.096669  0.893803  1
  P  P35  1  0.750000  0.403331  0.893803  1
