# generated using pymatgen
data_Tb2Co3As6Rh7
_symmetry_space_group_name_H-M   'P 1'
_cell_length_a   3.87385800
_cell_length_b   11.20661500
_cell_length_c   12.71803100
_cell_angle_alpha   90.00000000
_cell_angle_beta   90.00000000
_cell_angle_gamma   90.00000000
_symmetry_Int_Tables_number   1
_chemical_formula_structural   Tb2Co3As6Rh7
_chemical_formula_sum   'Tb4 Co6 As12 Rh14'
_cell_volume   552.12578350
_cell_formula_units_Z   2
loop_
 _symmetry_equiv_pos_site_id
 _symmetry_equiv_pos_as_xyz
  1  'x, y, z'
loop_
 _atom_site_type_symbol
 _atom_site_label
 _atom_site_symmetry_multiplicity
 _atom_site_fract_x
 _atom_site_fract_y
 _atom_site_fract_z
 _atom_site_occupancy
  Tb  Tb0  1  0.250000  0.582360  0.708349  1
  Tb  Tb1  1  0.250000  0.917640  0.208349  1
  Tb  Tb2  1  0.750000  0.416318  0.293754  1
  Tb  Tb3  1  0.750000  0.083682  0.793754  1
  Co  Co4  1  0.750000  0.116830  0.305595  1
  Co  Co5  1  0.750000  0.383170  0.805595  1
  Co  Co6  1  0.250000  0.464450  0.929926  1
  Co  Co7  1  0.250000  0.035550  0.429926  1
  Co  Co8  1  0.750000  0.533107  0.065247  1
  Co  Co9  1  0.750000  0.966893  0.565247  1
  As  As10  1  0.250000  0.418673  0.105962  1
  As  As11  1  0.250000  0.081327  0.605962  1
  As  As12  1  0.750000  0.571968  0.887441  1
  As  As13  1  0.750000  0.928032  0.387441  1
  As  As14  1  0.250000  0.273436  0.870759  1
  As  As15  1  0.250000  0.226564  0.370759  1
  As  As16  1  0.750000  0.727770  0.126096  1
  As  As17  1  0.750000  0.772230  0.626096  1
  As  As18  1  0.250000  0.600294  0.389198  1
  As  As19  1  0.250000  0.899706  0.889198  1
  As  As20  1  0.750000  0.400217  0.618684  1
  As  As21  1  0.750000  0.099783  0.118684  1
  Rh  Rh22  1  0.250000  0.710801  0.989227  1
  Rh  Rh23  1  0.250000  0.789199  0.489227  1
  Rh  Rh24  1  0.750000  0.287342  0.009749  1
  Rh  Rh25  1  0.750000  0.212658  0.509749  1
  Rh  Rh26  1  0.250000  0.406662  0.480111  1
  Rh  Rh27  1  0.250000  0.093338  0.980111  1
  Rh  Rh28  1  0.750000  0.590658  0.521193  1
  Rh  Rh29  1  0.750000  0.909342  0.021193  1
  Rh  Rh30  1  0.250000  0.220049  0.179671  1
  Rh  Rh31  1  0.250000  0.279951  0.679671  1
  Rh  Rh32  1  0.750000  0.774454  0.821768  1
  Rh  Rh33  1  0.750000  0.725546  0.321768  1
  Rh  Rh34  1  0.250000  0.889363  0.697270  1
  Rh  Rh35  1  0.250000  0.610637  0.197270  1
