# generated using pymatgen
data_Ho20Ru4Pt7Au
_symmetry_space_group_name_H-M   'P 1'
_cell_length_a   10.92323501
_cell_length_b   10.92323482
_cell_length_c   6.40744700
_cell_angle_alpha   89.97539948
_cell_angle_beta   89.97539948
_cell_angle_gamma   90.29399571
_symmetry_Int_Tables_number   1
_chemical_formula_structural   Ho20Ru4Pt7Au
_chemical_formula_sum   'Ho20 Ru4 Pt7 Au1'
_cell_volume   764.50753796
_cell_formula_units_Z   1
loop_
 _symmetry_equiv_pos_site_id
 _symmetry_equiv_pos_as_xyz
  1  'x, y, z'
loop_
 _atom_site_type_symbol
 _atom_site_label
 _atom_site_symmetry_multiplicity
 _atom_site_fract_x
 _atom_site_fract_y
 _atom_site_fract_z
 _atom_site_occupancy
  Ho  Ho0  1  0.296532  0.086313  0.373903  1
  Ho  Ho1  1  0.296022  0.916471  0.874597  1
  Ho  Ho2  1  0.703415  0.086745  0.873262  1
  Ho  Ho3  1  0.703102  0.913548  0.373680  1
  Ho  Ho4  1  0.588405  0.797731  0.874625  1
  Ho  Ho5  1  0.586583  0.203056  0.373163  1
  Ho  Ho6  1  0.414449  0.798544  0.368098  1
  Ho  Ho7  1  0.413429  0.203364  0.873159  1
  Ho  Ho8  1  0.202269  0.411595  0.625375  1
  Ho  Ho9  1  0.201456  0.585551  0.131902  1
  Ho  Ho10  1  0.796944  0.413417  0.126837  1
  Ho  Ho11  1  0.796636  0.586571  0.626841  1
  Ho  Ho12  1  0.913687  0.703468  0.126097  1
  Ho  Ho13  1  0.913255  0.296585  0.626738  1
  Ho  Ho14  1  0.083529  0.703978  0.625403  1
  Ho  Ho15  1  0.086452  0.296898  0.126320  1
  Ho  Ho16  1  0.999844  0.000094  0.499944  1
  Ho  Ho17  1  0.999906  0.000156  0.000056  1
  Ho  Ho18  1  0.502073  0.497708  0.001612  1
  Ho  Ho19  1  0.502292  0.497927  0.498388  1
  Ru  Ru20  1  0.499810  0.999743  0.125323  1
  Ru  Ru21  1  0.499887  0.999635  0.625592  1
  Ru  Ru22  1  0.000365  0.500113  0.874408  1
  Ru  Ru23  1  0.000257  0.500190  0.374677  1
  Pt  Pt24  1  0.846578  0.153422  0.250000  1
  Pt  Pt25  1  0.846222  0.846472  0.750150  1
  Pt  Pt26  1  0.153528  0.153778  0.749850  1
  Pt  Pt27  1  0.153076  0.846924  0.250000  1
  Pt  Pt28  1  0.653693  0.346307  0.750000  1
  Pt  Pt29  1  0.653988  0.653399  0.249812  1
  Pt  Pt30  1  0.346601  0.346012  0.250188  1
  Au  Au31  1  0.345715  0.654285  0.750000  1
