# generated using pymatgen
data_PrNd5HfCo17P12
_symmetry_space_group_name_H-M   'P 1'
_cell_length_a   3.77072600
_cell_length_b   10.74926400
_cell_length_c   12.51315500
_cell_angle_alpha   90.00000000
_cell_angle_beta   90.00000000
_cell_angle_gamma   90.00000000
_symmetry_Int_Tables_number   1
_chemical_formula_structural   PrNd5HfCo17P12
_chemical_formula_sum   'Pr1 Nd5 Hf1 Co17 P12'
_cell_volume   507.18982099
_cell_formula_units_Z   1
loop_
 _symmetry_equiv_pos_site_id
 _symmetry_equiv_pos_as_xyz
  1  'x, y, z'
loop_
 _atom_site_type_symbol
 _atom_site_label
 _atom_site_symmetry_multiplicity
 _atom_site_fract_x
 _atom_site_fract_y
 _atom_site_fract_z
 _atom_site_occupancy
  Pr  Pr0  1  0.500000  0.000000  0.478497  1
  Nd  Nd1  1  0.000000  0.500000  0.527631  1
  Nd  Nd2  1  0.500000  0.820528  0.207412  1
  Nd  Nd3  1  0.500000  0.179472  0.207412  1
  Nd  Nd4  1  0.000000  0.683235  0.795726  1
  Nd  Nd5  1  0.000000  0.316765  0.795726  1
  Hf  Hf6  1  0.500000  0.500000  0.151084  1
  Co  Co7  1  0.000000  0.000000  0.839463  1
  Co  Co8  1  0.500000  0.500000  0.704795  1
  Co  Co9  1  0.000000  0.000000  0.294228  1
  Co  Co10  1  0.000000  0.500000  0.985142  1
  Co  Co11  1  0.500000  0.000000  0.011948  1
  Co  Co12  1  0.500000  0.327859  0.990462  1
  Co  Co13  1  0.500000  0.672141  0.990462  1
  Co  Co14  1  0.000000  0.161971  0.001399  1
  Co  Co15  1  0.000000  0.838029  0.001399  1
  Co  Co16  1  0.500000  0.295829  0.433367  1
  Co  Co17  1  0.500000  0.704171  0.433367  1
  Co  Co18  1  0.000000  0.202873  0.570827  1
  Co  Co19  1  0.000000  0.797127  0.570827  1
  Co  Co20  1  0.500000  0.882211  0.709714  1
  Co  Co21  1  0.500000  0.117789  0.709714  1
  Co  Co22  1  0.000000  0.619737  0.295651  1
  Co  Co23  1  0.000000  0.380263  0.295651  1
  P  P24  1  0.500000  0.500000  0.884996  1
  P  P25  1  0.000000  0.000000  0.112563  1
  P  P26  1  0.500000  0.500000  0.355562  1
  P  P27  1  0.000000  0.000000  0.660508  1
  P  P28  1  0.500000  0.304786  0.615906  1
  P  P29  1  0.500000  0.695214  0.615906  1
  P  P30  1  0.000000  0.194281  0.387961  1
  P  P31  1  0.000000  0.805719  0.387961  1
  P  P32  1  0.500000  0.853291  0.891257  1
  P  P33  1  0.500000  0.146709  0.891257  1
  P  P34  1  0.000000  0.662287  0.097108  1
  P  P35  1  0.000000  0.337713  0.097108  1
