# generated using pymatgen
data_Ba6ZnFe(Ir2O9)2
_symmetry_space_group_name_H-M   'P 1'
_cell_length_a   5.82365400
_cell_length_b   5.82365387
_cell_length_c   14.36043200
_cell_angle_alpha   90.00000000
_cell_angle_beta   90.00000000
_cell_angle_gamma   120.00002347
_symmetry_Int_Tables_number   1
_chemical_formula_structural   Ba6ZnFe(Ir2O9)2
_chemical_formula_sum   'Ba6 Zn1 Fe1 Ir4 O18'
_cell_volume   421.78307896
_cell_formula_units_Z   1
loop_
 _symmetry_equiv_pos_site_id
 _symmetry_equiv_pos_as_xyz
  1  'x, y, z'
loop_
 _atom_site_type_symbol
 _atom_site_label
 _atom_site_symmetry_multiplicity
 _atom_site_fract_x
 _atom_site_fract_y
 _atom_site_fract_z
 _atom_site_occupancy
  Ba  Ba0  1  0.666668  0.333334  0.086388  1
  Ba  Ba1  1  0.000000  0.000000  0.252210  1
  Ba  Ba2  1  0.666668  0.333334  0.416973  1
  Ba  Ba3  1  0.333334  0.666668  0.583028  1
  Ba  Ba4  1  0.000000  0.000000  0.747790  1
  Ba  Ba5  1  0.333334  0.666668  0.913612  1
  Zn  Zn6  1  0.000000  0.000000  0.500000  1
  Fe  Fe7  1  0.000000  0.000000  0.000000  1
  Ir  Ir8  1  0.333334  0.666668  0.158693  1
  Ir  Ir9  1  0.333334  0.666668  0.337931  1
  Ir  Ir10  1  0.666668  0.333334  0.662070  1
  Ir  Ir11  1  0.666668  0.333334  0.841307  1
  O  O12  1  0.169003  0.338008  0.080405  1
  O  O13  1  0.169005  0.830997  0.080405  1
  O  O14  1  0.661992  0.830997  0.080405  1
  O  O15  1  0.018752  0.509378  0.247605  1
  O  O16  1  0.490624  0.509378  0.247605  1
  O  O17  1  0.490622  0.981248  0.247605  1
  O  O18  1  0.172795  0.827207  0.416010  1
  O  O19  1  0.172793  0.345589  0.416010  1
  O  O20  1  0.654411  0.827207  0.416010  1
  O  O21  1  0.345589  0.172793  0.583991  1
  O  O22  1  0.827207  0.172795  0.583991  1
  O  O23  1  0.827207  0.654411  0.583991  1
  O  O24  1  0.509378  0.018752  0.752395  1
  O  O25  1  0.981248  0.490622  0.752395  1
  O  O26  1  0.509378  0.490624  0.752395  1
  O  O27  1  0.830997  0.169005  0.919595  1
  O  O28  1  0.338008  0.169003  0.919595  1
  O  O29  1  0.830997  0.661992  0.919595  1
