# generated using pymatgen
data_Tb2Er2Al24Pt8Rh
_symmetry_space_group_name_H-M   'P 1'
_cell_length_a   7.52294835
_cell_length_b   7.52190092
_cell_length_c   13.16863713
_cell_angle_alpha   84.54943000
_cell_angle_beta   100.90175678
_cell_angle_gamma   119.81568070
_symmetry_Int_Tables_number   1
_chemical_formula_structural   Tb2Er2Al24Pt8Rh
_chemical_formula_sum   'Tb2 Er2 Al24 Pt8 Rh1'
_cell_volume   634.86469395
_cell_formula_units_Z   1
loop_
 _symmetry_equiv_pos_site_id
 _symmetry_equiv_pos_as_xyz
  1  'x, y, z'
loop_
 _atom_site_type_symbol
 _atom_site_label
 _atom_site_symmetry_multiplicity
 _atom_site_fract_x
 _atom_site_fract_y
 _atom_site_fract_z
 _atom_site_occupancy
  Tb  Tb0  1  0.731400  0.998330  0.191064  1
  Tb  Tb1  1  0.268600  0.001670  0.808936  1
  Er  Er2  1  0.062119  0.667801  0.191670  1
  Er  Er3  1  0.937881  0.332199  0.808330  1
  Al  Al4  1  0.810896  0.872253  0.818007  1
  Al  Al5  1  0.189104  0.127747  0.181993  1
  Al  Al6  1  0.982446  0.669311  0.945858  1
  Al  Al7  1  0.017554  0.330689  0.054142  1
  Al  Al8  1  0.398539  0.662962  0.817015  1
  Al  Al9  1  0.601461  0.337038  0.182985  1
  Al  Al10  1  0.882394  0.665143  0.671813  1
  Al  Al11  1  0.117606  0.334857  0.328187  1
  Al  Al12  1  0.603820  0.459356  0.816679  1
  Al  Al13  1  0.396180  0.540644  0.183321  1
  Al  Al14  1  0.229954  0.339711  0.669457  1
  Al  Al15  1  0.770046  0.660289  0.330543  1
  Al  Al16  1  0.853003  0.333320  0.558983  1
  Al  Al17  1  0.185743  0.999115  0.558900  1
  Al  Al18  1  0.814257  0.000885  0.441100  1
  Al  Al19  1  0.347784  0.998735  0.054581  1
  Al  Al20  1  0.652216  0.001265  0.945419  1
  Al  Al21  1  0.556867  0.992940  0.671717  1
  Al  Al22  1  0.443133  0.007060  0.328283  1
  Al  Al23  1  0.521322  0.667927  0.561579  1
  Al  Al24  1  0.478678  0.332073  0.438421  1
  Al  Al25  1  0.687387  0.671851  0.044966  1
  Al  Al26  1  0.312613  0.328149  0.955034  1
  Al  Al27  1  0.146997  0.666680  0.441017  1
  Pt  Pt28  1  0.328547  0.671465  0.000048  1
  Pt  Pt29  1  0.546302  0.324965  0.637280  1
  Pt  Pt30  1  0.453698  0.675035  0.362720  1
  Pt  Pt31  1  0.887268  0.007868  0.638529  1
  Pt  Pt32  1  0.112732  0.992132  0.361471  1
  Pt  Pt33  1  0.671453  0.328535  0.999952  1
  Pt  Pt34  1  0.204037  0.666350  0.638461  1
  Pt  Pt35  1  0.795963  0.333650  0.361539  1
  Rh  Rh36  1  0.000000  0.000000  0.000000  1
