# generated using pymatgen
data_Y8MgSc(SiB4)4
_symmetry_space_group_name_H-M   'P 1'
_cell_length_a   7.17112200
_cell_length_b   7.17112200
_cell_length_c   7.91797100
_cell_angle_alpha   90.00000000
_cell_angle_beta   90.00000000
_cell_angle_gamma   90.00000000
_symmetry_Int_Tables_number   1
_chemical_formula_structural   Y8MgSc(SiB4)4
_chemical_formula_sum   'Y8 Mg1 Sc1 Si4 B16'
_cell_volume   407.18158535
_cell_formula_units_Z   1
loop_
 _symmetry_equiv_pos_site_id
 _symmetry_equiv_pos_as_xyz
  1  'x, y, z'
loop_
 _atom_site_type_symbol
 _atom_site_label
 _atom_site_symmetry_multiplicity
 _atom_site_fract_x
 _atom_site_fract_y
 _atom_site_fract_z
 _atom_site_occupancy
  Y  Y0  1  0.681419  0.181122  0.231337  1
  Y  Y1  1  0.318581  0.818878  0.768663  1
  Y  Y2  1  0.318581  0.818878  0.231337  1
  Y  Y3  1  0.818878  0.681419  0.231337  1
  Y  Y4  1  0.818878  0.681419  0.768663  1
  Y  Y5  1  0.681419  0.181122  0.768663  1
  Y  Y6  1  0.181122  0.318581  0.768663  1
  Y  Y7  1  0.181122  0.318581  0.231337  1
  Mg  Mg8  1  0.000000  0.000000  0.500000  1
  Sc  Sc9  1  0.500000  0.500000  0.500000  1
  Si  Si10  1  0.121811  0.611288  0.500000  1
  Si  Si11  1  0.878189  0.388712  0.500000  1
  Si  Si12  1  0.388712  0.121811  0.500000  1
  Si  Si13  1  0.611288  0.878189  0.500000  1
  B  B14  1  0.174368  0.038519  0.000000  1
  B  B15  1  0.825632  0.961481  0.000000  1
  B  B16  1  0.961481  0.174368  0.000000  1
  B  B17  1  0.327034  0.539385  0.000000  1
  B  B18  1  0.038519  0.825632  0.000000  1
  B  B19  1  0.672966  0.460615  0.000000  1
  B  B20  1  0.539385  0.672966  0.000000  1
  B  B21  1  0.460615  0.327034  0.000000  1
  B  B22  1  0.089495  0.588677  0.000000  1
  B  B23  1  0.910505  0.411323  0.000000  1
  B  B24  1  0.411323  0.089495  0.000000  1
  B  B25  1  0.588677  0.910505  0.000000  1
  B  B26  1  0.000000  0.000000  0.159752  1
  B  B27  1  0.000000  0.000000  0.840248  1
  B  B28  1  0.500000  0.500000  0.834611  1
  B  B29  1  0.500000  0.500000  0.165389  1
