# generated using pymatgen
data_Y15Ho5(CoBi2)4
_symmetry_space_group_name_H-M   'P 1'
_cell_length_a   8.03910406
_cell_length_b   8.91034102
_cell_length_c   12.44562807
_cell_angle_alpha   90.00197414
_cell_angle_beta   90.01163266
_cell_angle_gamma   90.00703317
_symmetry_Int_Tables_number   1
_chemical_formula_structural   Y15Ho5(CoBi2)4
_chemical_formula_sum   'Y15 Ho5 Co4 Bi8'
_cell_volume   891.49473255
_cell_formula_units_Z   1
loop_
 _symmetry_equiv_pos_site_id
 _symmetry_equiv_pos_as_xyz
  1  'x, y, z'
loop_
 _atom_site_type_symbol
 _atom_site_label
 _atom_site_symmetry_multiplicity
 _atom_site_fract_x
 _atom_site_fract_y
 _atom_site_fract_z
 _atom_site_occupancy
  Y  Y0  1  0.347326  0.750634  0.700083  1
  Y  Y1  1  0.652664  0.249370  0.299924  1
  Y  Y2  1  0.847358  0.249543  0.800107  1
  Y  Y3  1  0.152525  0.750188  0.200035  1
  Y  Y4  1  0.882408  0.750386  0.809878  1
  Y  Y5  1  0.116603  0.249673  0.189952  1
  Y  Y6  1  0.382887  0.249239  0.690100  1
  Y  Y7  1  0.617069  0.750570  0.309636  1
  Y  Y8  1  0.676029  0.536779  0.563432  1
  Y  Y9  1  0.323935  0.463061  0.436421  1
  Y  Y10  1  0.176226  0.463141  0.936589  1
  Y  Y11  1  0.049562  0.751533  0.497997  1
  Y  Y12  1  0.950445  0.248386  0.501949  1
  Y  Y13  1  0.551027  0.249281  0.002248  1
  Y  Y14  1  0.451697  0.750935  0.998234  1
  Ho  Ho15  1  0.325658  0.036877  0.436941  1
  Ho  Ho16  1  0.825921  0.536880  0.062829  1
  Ho  Ho17  1  0.674370  0.963157  0.562989  1
  Ho  Ho18  1  0.825585  0.963161  0.062991  1
  Ho  Ho19  1  0.174090  0.036926  0.937288  1
  Co  Co20  1  0.062177  0.751418  0.992194  1
  Co  Co21  1  0.935322  0.249057  0.008415  1
  Co  Co22  1  0.563931  0.247684  0.508219  1
  Co  Co23  1  0.436105  0.752249  0.491734  1
  Bi  Bi24  1  0.571625  0.508939  0.826742  1
  Bi  Bi25  1  0.428292  0.491001  0.173038  1
  Bi  Bi26  1  0.071911  0.491000  0.673059  1
  Bi  Bi27  1  0.427894  0.009062  0.173441  1
  Bi  Bi28  1  0.927762  0.508980  0.326891  1
  Bi  Bi29  1  0.571744  0.991040  0.826550  1
  Bi  Bi30  1  0.928074  0.990870  0.326264  1
  Bi  Bi31  1  0.071778  0.008979  0.673828  1
