# generated using pymatgen
data_NdNi11B6Ir
_symmetry_space_group_name_H-M   'P 1'
_cell_length_a   6.12372269
_cell_length_b   6.02451278
_cell_length_c   6.12372089
_cell_angle_alpha   104.32733735
_cell_angle_beta   104.38407745
_cell_angle_gamma   104.32734032
_symmetry_Int_Tables_number   1
_chemical_formula_structural   NdNi11B6Ir
_chemical_formula_sum   'Nd1 Ni11 B6 Ir1'
_cell_volume   200.21421151
_cell_formula_units_Z   1
loop_
 _symmetry_equiv_pos_site_id
 _symmetry_equiv_pos_as_xyz
  1  'x, y, z'
loop_
 _atom_site_type_symbol
 _atom_site_label
 _atom_site_symmetry_multiplicity
 _atom_site_fract_x
 _atom_site_fract_y
 _atom_site_fract_z
 _atom_site_occupancy
  Nd  Nd0  1  0.997066  0.000000  0.002934  1
  Ni  Ni1  1  0.191569  0.455634  0.452348  1
  Ni  Ni2  1  0.509274  0.871977  0.134285  1
  Ni  Ni3  1  0.455660  0.183560  0.456592  1
  Ni  Ni4  1  0.543408  0.816440  0.544340  1
  Ni  Ni5  1  0.806232  0.542295  0.538341  1
  Ni  Ni6  1  0.547652  0.544366  0.808431  1
  Ni  Ni7  1  0.498085  0.134951  0.869524  1
  Ni  Ni8  1  0.863630  0.500000  0.136370  1
  Ni  Ni9  1  0.130476  0.865049  0.501915  1
  Ni  Ni10  1  0.461659  0.457705  0.193768  1
  Ni  Ni11  1  0.865715  0.128023  0.490726  1
  B  B12  1  0.766609  0.766647  0.340455  1
  B  B13  1  0.235367  0.666401  0.240782  1
  B  B14  1  0.232133  0.227734  0.654630  1
  B  B15  1  0.659545  0.233353  0.233391  1
  B  B16  1  0.345370  0.772266  0.767867  1
  B  B17  1  0.759218  0.333599  0.764633  1
  Ir  Ir18  1  0.131332  0.500000  0.868668  1
