# generated using pymatgen
data_Sr3HgBi6
_symmetry_space_group_name_H-M   'P 1'
_cell_length_a   14.33513693
_cell_length_b   14.33513777
_cell_length_c   4.69962600
_cell_angle_alpha   90.00000000
_cell_angle_beta   90.00000000
_cell_angle_gamma   159.68350054
_symmetry_Int_Tables_number   1
_chemical_formula_structural   Sr3HgBi6
_chemical_formula_sum   'Sr3 Hg1 Bi6'
_cell_volume   335.31569938
_cell_formula_units_Z   1
loop_
 _symmetry_equiv_pos_site_id
 _symmetry_equiv_pos_as_xyz
  1  'x, y, z'
loop_
 _atom_site_type_symbol
 _atom_site_label
 _atom_site_symmetry_multiplicity
 _atom_site_fract_x
 _atom_site_fract_y
 _atom_site_fract_z
 _atom_site_occupancy
  Sr  Sr0  1  0.813718  0.186282  0.000000  1
  Sr  Sr1  1  0.186282  0.813718  0.000000  1
  Sr  Sr2  1  0.500000  0.500000  0.500000  1
  Hg  Hg3  1  0.000000  0.000000  0.000000  1
  Bi  Bi4  1  0.593724  0.406276  0.000000  1
  Bi  Bi5  1  0.406276  0.593724  0.000000  1
  Bi  Bi6  1  0.907638  0.092361  0.500000  1
  Bi  Bi7  1  0.718579  0.281421  0.500000  1
  Bi  Bi8  1  0.281421  0.718579  0.500000  1
  Bi  Bi9  1  0.092361  0.907638  0.500000  1
