# generated using pymatgen
data_Ho2Co9Si7Rh3
_symmetry_space_group_name_H-M   'P 1'
_cell_length_a   3.72398800
_cell_length_b   9.23832326
_cell_length_c   9.23832200
_cell_angle_alpha   119.99999547
_cell_angle_beta   90.00000000
_cell_angle_gamma   90.00000000
_symmetry_Int_Tables_number   1
_chemical_formula_structural   Ho2Co9Si7Rh3
_chemical_formula_sum   'Ho2 Co9 Si7 Rh3'
_cell_volume   275.24863546
_cell_formula_units_Z   1
loop_
 _symmetry_equiv_pos_site_id
 _symmetry_equiv_pos_as_xyz
  1  'x, y, z'
loop_
 _atom_site_type_symbol
 _atom_site_label
 _atom_site_symmetry_multiplicity
 _atom_site_fract_x
 _atom_site_fract_y
 _atom_site_fract_z
 _atom_site_occupancy
  Ho  Ho0  1  0.000000  0.666667  0.333333  1
  Ho  Ho1  1  0.500000  0.333333  0.666667  1
  Co  Co2  1  0.000000  0.566847  0.943929  1
  Co  Co3  1  0.000000  0.377082  0.433153  1
  Co  Co4  1  0.000000  0.056071  0.622918  1
  Co  Co5  1  0.000000  0.872478  0.155543  1
  Co  Co6  1  0.000000  0.283065  0.127522  1
  Co  Co7  1  0.000000  0.844457  0.716935  1
  Co  Co8  1  0.500000  0.947029  0.384383  1
  Co  Co9  1  0.500000  0.437353  0.052971  1
  Co  Co10  1  0.500000  0.615617  0.562647  1
  Si  Si11  1  0.000000  0.000000  0.000000  1
  Si  Si12  1  0.500000  0.708577  0.114393  1
  Si  Si13  1  0.500000  0.405815  0.291423  1
  Si  Si14  1  0.500000  0.885607  0.594185  1
  Si  Si15  1  0.000000  0.594173  0.703869  1
  Si  Si16  1  0.000000  0.109696  0.405827  1
  Si  Si17  1  0.000000  0.296131  0.890304  1
  Rh  Rh18  1  0.500000  0.774077  0.895959  1
  Rh  Rh19  1  0.500000  0.121882  0.225923  1
  Rh  Rh20  1  0.500000  0.104041  0.878118  1
