# generated using pymatgen
data_Lu12InNi4Ru
_symmetry_space_group_name_H-M   'P 1'
_cell_length_a   8.13167887
_cell_length_b   8.13167911
_cell_length_c   8.13167934
_cell_angle_alpha   111.53043154
_cell_angle_beta   110.43605770
_cell_angle_gamma   106.48969731
_symmetry_Int_Tables_number   1
_chemical_formula_structural   Lu12InNi4Ru
_chemical_formula_sum   'Lu12 In1 Ni4 Ru1'
_cell_volume   413.04730580
_cell_formula_units_Z   1
loop_
 _symmetry_equiv_pos_site_id
 _symmetry_equiv_pos_as_xyz
  1  'x, y, z'
loop_
 _atom_site_type_symbol
 _atom_site_label
 _atom_site_symmetry_multiplicity
 _atom_site_fract_x
 _atom_site_fract_y
 _atom_site_fract_z
 _atom_site_occupancy
  Lu  Lu0  1  0.412769  0.222349  0.190420  1
  Lu  Lu1  1  0.587231  0.777651  0.809580  1
  Lu  Lu2  1  0.031928  0.222349  0.809580  1
  Lu  Lu3  1  0.968072  0.777651  0.190420  1
  Lu  Lu4  1  0.181507  0.282342  0.463848  1
  Lu  Lu5  1  0.818493  0.717658  0.536152  1
  Lu  Lu6  1  0.181507  0.717658  0.899166  1
  Lu  Lu7  1  0.818493  0.282342  0.100834  1
  Lu  Lu8  1  0.321859  0.627231  0.305370  1
  Lu  Lu9  1  0.678141  0.372769  0.694630  1
  Lu  Lu10  1  0.321859  0.016489  0.694630  1
  Lu  Lu11  1  0.678141  0.983511  0.305370  1
  In  In12  1  0.500000  0.500000  0.000000  1
  Ni  Ni13  1  0.356326  0.000000  0.356326  1
  Ni  Ni14  1  0.643674  0.000000  0.643674  1
  Ni  Ni15  1  0.120941  0.620941  0.500000  1
  Ni  Ni16  1  0.879059  0.379059  0.500000  1
  Ru  Ru17  1  0.000000  0.000000  0.000000  1
