# generated using pymatgen
data_Ag(IrCl4)3
_symmetry_space_group_name_H-M   'P 1'
_cell_length_a   12.09848197
_cell_length_b   11.54941760
_cell_length_c   6.21202743
_cell_angle_alpha   79.72085233
_cell_angle_beta   69.93357821
_cell_angle_gamma   32.05624076
_symmetry_Int_Tables_number   1
_chemical_formula_structural   Ag(IrCl4)3
_chemical_formula_sum   'Ag1 Ir3 Cl12'
_cell_volume   421.59875575
_cell_formula_units_Z   1
loop_
 _symmetry_equiv_pos_site_id
 _symmetry_equiv_pos_as_xyz
  1  'x, y, z'
loop_
 _atom_site_type_symbol
 _atom_site_label
 _atom_site_symmetry_multiplicity
 _atom_site_fract_x
 _atom_site_fract_y
 _atom_site_fract_z
 _atom_site_occupancy
  Ag  Ag0  1  0.416088  0.416088  0.583912  1
  Ir  Ir1  1  0.830160  0.830160  0.669840  1
  Ir  Ir2  1  0.667401  0.667401  0.832599  1
  Ir  Ir3  1  0.587072  0.587072  0.412928  1
  Cl  Cl4  1  0.727868  0.295630  0.265134  1
  Cl  Cl5  1  0.869331  0.457447  0.087969  1
  Cl  Cl6  1  0.384698  0.797684  0.156508  1
  Cl  Cl7  1  0.457447  0.869331  0.585253  1
  Cl  Cl8  1  0.124655  0.684793  0.369551  1
  Cl  Cl9  1  0.295630  0.727868  0.711368  1
  Cl  Cl10  1  0.539867  0.956500  0.968181  1
  Cl  Cl11  1  0.956500  0.539867  0.535452  1
  Cl  Cl12  1  0.054311  0.606496  0.893244  1
  Cl  Cl13  1  0.797684  0.384698  0.661111  1
  Cl  Cl14  1  0.684793  0.124655  0.821002  1
  Cl  Cl15  1  0.606496  0.054311  0.445948  1
