# generated using pymatgen
data_Ti12NbCo5Ir6
_symmetry_space_group_name_H-M   'P 1'
_cell_length_a   4.35539007
_cell_length_b   6.20593101
_cell_length_c   13.03315519
_cell_angle_alpha   89.99723077
_cell_angle_beta   89.98048394
_cell_angle_gamma   90.00502361
_symmetry_Int_Tables_number   1
_chemical_formula_structural   Ti12NbCo5Ir6
_chemical_formula_sum   'Ti12 Nb1 Co5 Ir6'
_cell_volume   352.27639131
_cell_formula_units_Z   1
loop_
 _symmetry_equiv_pos_site_id
 _symmetry_equiv_pos_as_xyz
  1  'x, y, z'
loop_
 _atom_site_type_symbol
 _atom_site_label
 _atom_site_symmetry_multiplicity
 _atom_site_fract_x
 _atom_site_fract_y
 _atom_site_fract_z
 _atom_site_occupancy
  Ti  Ti0  1  0.499993  0.253916  0.000001  1
  Ti  Ti1  1  0.500007  0.746083  0.999999  1
  Ti  Ti2  1  0.999242  0.251031  0.168705  1
  Ti  Ti3  1  0.999250  0.748969  0.168704  1
  Ti  Ti4  1  0.499196  0.249944  0.334012  1
  Ti  Ti5  1  0.499191  0.750060  0.334011  1
  Ti  Ti6  1  0.000001  0.249418  0.499998  1
  Ti  Ti7  1  0.999999  0.750583  0.500002  1
  Ti  Ti8  1  0.500809  0.249941  0.665988  1
  Ti  Ti9  1  0.500804  0.750057  0.665987  1
  Ti  Ti10  1  0.000750  0.251030  0.831295  1
  Ti  Ti11  1  0.000758  0.748968  0.831294  1
  Nb  Nb12  1  0.000000  0.000000  0.000000  1
  Co  Co13  1  0.498529  0.500012  0.168837  1
  Co  Co14  1  0.998424  0.999986  0.335779  1
  Co  Co15  1  0.500000  0.500000  0.500000  1
  Co  Co16  1  0.001576  0.000014  0.664221  1
  Co  Co17  1  0.501470  0.499988  0.831162  1
  Ir  Ir18  1  0.000000  0.500000  0.000000  1
  Ir  Ir19  1  0.499316  0.999994  0.172307  1
  Ir  Ir20  1  0.999197  0.500006  0.335904  1
  Ir  Ir21  1  0.500000  0.000000  0.500000  1
  Ir  Ir22  1  0.000803  0.499994  0.664096  1
  Ir  Ir23  1  0.500684  0.000006  0.827693  1
