# generated using pymatgen
data_Dy2UAl3Ru2Pt
_symmetry_space_group_name_H-M   'P 1'
_cell_length_a   6.82141867
_cell_length_b   6.82141938
_cell_length_c   4.09548300
_cell_angle_alpha   90.00000000
_cell_angle_beta   90.00000000
_cell_angle_gamma   115.19306207
_symmetry_Int_Tables_number   1
_chemical_formula_structural   Dy2UAl3Ru2Pt
_chemical_formula_sum   'Dy2 U1 Al3 Ru2 Pt1'
_cell_volume   172.44273511
_cell_formula_units_Z   1
loop_
 _symmetry_equiv_pos_site_id
 _symmetry_equiv_pos_as_xyz
  1  'x, y, z'
loop_
 _atom_site_type_symbol
 _atom_site_label
 _atom_site_symmetry_multiplicity
 _atom_site_fract_x
 _atom_site_fract_y
 _atom_site_fract_z
 _atom_site_occupancy
  Dy  Dy0  1  0.420764  0.998971  0.500000  1
  Dy  Dy1  1  0.998971  0.420764  0.500000  1
  U  U2  1  0.570992  0.570992  0.500000  1
  Al  Al3  1  0.755358  0.014132  0.000000  1
  Al  Al4  1  0.014132  0.755358  0.000000  1
  Al  Al5  1  0.221295  0.221295  0.000000  1
  Ru  Ru6  1  0.382842  0.649056  0.000000  1
  Ru  Ru7  1  0.649056  0.382842  0.000000  1
  Pt  Pt8  1  0.986591  0.986591  0.500000  1
