# generated using pymatgen
data_Ta2SbCS
_symmetry_space_group_name_H-M   'P 1'
_cell_length_a   10.29029513
_cell_length_b   10.29029534
_cell_length_c   10.29029641
_cell_angle_alpha   18.17285806
_cell_angle_beta   18.17285768
_cell_angle_gamma   18.17285278
_symmetry_Int_Tables_number   1
_chemical_formula_structural   Ta2SbCS
_chemical_formula_sum   'Ta2 Sb1 C1 S1'
_cell_volume   92.56093015
_cell_formula_units_Z   1
loop_
 _symmetry_equiv_pos_site_id
 _symmetry_equiv_pos_as_xyz
  1  'x, y, z'
loop_
 _atom_site_type_symbol
 _atom_site_label
 _atom_site_symmetry_multiplicity
 _atom_site_fract_x
 _atom_site_fract_y
 _atom_site_fract_z
 _atom_site_occupancy
  Ta  Ta0  1  0.622405  0.622405  0.622405  1
  Ta  Ta1  1  0.367050  0.367050  0.367050  1
  Sb  Sb2  1  0.778996  0.778996  0.778996  1
  C  C3  1  0.996243  0.996243  0.996243  1
  S  S4  1  0.235306  0.235306  0.235306  1
