# generated using pymatgen
data_Zr10SnHg(Bi2Pb)2
_symmetry_space_group_name_H-M   'P 1'
_cell_length_a   8.98317944
_cell_length_b   8.98317916
_cell_length_c   6.01874727
_cell_angle_alpha   90.03720383
_cell_angle_beta   90.03720515
_cell_angle_gamma   119.94677200
_symmetry_Int_Tables_number   1
_chemical_formula_structural   Zr10SnHg(Bi2Pb)2
_chemical_formula_sum   'Zr10 Sn1 Hg1 Bi4 Pb2'
_cell_volume   420.85180922
_cell_formula_units_Z   1
loop_
 _symmetry_equiv_pos_site_id
 _symmetry_equiv_pos_as_xyz
  1  'x, y, z'
loop_
 _atom_site_type_symbol
 _atom_site_label
 _atom_site_symmetry_multiplicity
 _atom_site_fract_x
 _atom_site_fract_y
 _atom_site_fract_z
 _atom_site_occupancy
  Zr  Zr0  1  0.666768  0.333136  0.001577  1
  Zr  Zr1  1  0.333136  0.666768  0.001577  1
  Zr  Zr2  1  0.333006  0.667061  0.498340  1
  Zr  Zr3  1  0.667061  0.333006  0.498340  1
  Zr  Zr4  1  0.720406  0.720406  0.748273  1
  Zr  Zr5  1  0.279745  0.000458  0.748325  1
  Zr  Zr6  1  0.000458  0.279745  0.748325  1
  Zr  Zr7  1  0.280644  0.280644  0.251178  1
  Zr  Zr8  1  0.719539  0.000001  0.251902  1
  Zr  Zr9  1  0.000001  0.719539  0.251902  1
  Sn  Sn10  1  0.000480  0.000480  0.499500  1
  Hg  Hg11  1  0.000312  0.000312  0.000748  1
  Bi  Bi12  1  0.384113  0.384113  0.751542  1
  Bi  Bi13  1  0.615471  0.000339  0.751764  1
  Bi  Bi14  1  0.000339  0.615471  0.751764  1
  Bi  Bi15  1  0.615976  0.615976  0.248619  1
  Pb  Pb16  1  0.382426  0.000119  0.248161  1
  Pb  Pb17  1  0.000119  0.382426  0.248161  1
