# generated using pymatgen
data_Ho8V(Pd5Pt)4
_symmetry_space_group_name_H-M   'P 1'
_cell_length_a   8.31972700
_cell_length_b   8.31726300
_cell_length_c   8.31726300
_cell_angle_alpha   90.00000000
_cell_angle_beta   90.00000000
_cell_angle_gamma   90.00000000
_symmetry_Int_Tables_number   1
_chemical_formula_structural   Ho8V(Pd5Pt)4
_chemical_formula_sum   'Ho8 V1 Pd20 Pt4'
_cell_volume   575.53262163
_cell_formula_units_Z   1
loop_
 _symmetry_equiv_pos_site_id
 _symmetry_equiv_pos_as_xyz
  1  'x, y, z'
loop_
 _atom_site_type_symbol
 _atom_site_label
 _atom_site_symmetry_multiplicity
 _atom_site_fract_x
 _atom_site_fract_y
 _atom_site_fract_z
 _atom_site_occupancy
  Ho  Ho0  1  0.252895  0.253471  0.253471  1
  Ho  Ho1  1  0.747105  0.746529  0.746529  1
  Ho  Ho2  1  0.747105  0.746529  0.253471  1
  Ho  Ho3  1  0.747105  0.253471  0.746529  1
  Ho  Ho4  1  0.252895  0.253471  0.746529  1
  Ho  Ho5  1  0.252895  0.746529  0.253471  1
  Ho  Ho6  1  0.252895  0.746529  0.746529  1
  Ho  Ho7  1  0.747105  0.253471  0.253471  1
  V  V8  1  0.000000  0.000000  0.000000  1
  Pd  Pd9  1  0.260198  0.500000  0.000000  1
  Pd  Pd10  1  0.739802  0.500000  0.000000  1
  Pd  Pd11  1  0.000000  0.260110  0.500000  1
  Pd  Pd12  1  0.500000  0.260581  0.000000  1
  Pd  Pd13  1  0.000000  0.739890  0.500000  1
  Pd  Pd14  1  0.500000  0.739419  0.000000  1
  Pd  Pd15  1  0.500000  0.000000  0.260581  1
  Pd  Pd16  1  0.260198  0.000000  0.500000  1
  Pd  Pd17  1  0.500000  0.000000  0.739419  1
  Pd  Pd18  1  0.739802  0.000000  0.500000  1
  Pd  Pd19  1  0.000000  0.500000  0.260110  1
  Pd  Pd20  1  0.000000  0.500000  0.739890  1
  Pd  Pd21  1  0.500000  0.252870  0.500000  1
  Pd  Pd22  1  0.500000  0.747130  0.500000  1
  Pd  Pd23  1  0.500000  0.500000  0.252870  1
  Pd  Pd24  1  0.500000  0.500000  0.747130  1
  Pd  Pd25  1  0.000000  0.290809  0.000000  1
  Pd  Pd26  1  0.000000  0.709191  0.000000  1
  Pd  Pd27  1  0.000000  0.000000  0.290809  1
  Pd  Pd28  1  0.000000  0.000000  0.709191  1
  Pt  Pt29  1  0.252534  0.500000  0.500000  1
  Pt  Pt30  1  0.747466  0.500000  0.500000  1
  Pt  Pt31  1  0.289057  0.000000  0.000000  1
  Pt  Pt32  1  0.710943  0.000000  0.000000  1
