# generated using pymatgen
data_CsTa13O33
_symmetry_space_group_name_H-M   'P 1'
_cell_length_a   3.88473700
_cell_length_b   11.66200734
_cell_length_c   15.64544600
_cell_angle_alpha   90.95531396
_cell_angle_beta   90.00000000
_cell_angle_gamma   99.58759130
_symmetry_Int_Tables_number   1
_chemical_formula_structural   CsTa13O33
_chemical_formula_sum   'Cs1 Ta13 O33'
_cell_volume   698.79832455
_cell_formula_units_Z   1
loop_
 _symmetry_equiv_pos_site_id
 _symmetry_equiv_pos_as_xyz
  1  'x, y, z'
loop_
 _atom_site_type_symbol
 _atom_site_label
 _atom_site_symmetry_multiplicity
 _atom_site_fract_x
 _atom_site_fract_y
 _atom_site_fract_z
 _atom_site_occupancy
  Cs  Cs0  1  0.500000  0.000000  0.500000  1
  Ta  Ta1  1  0.706969  0.413938  0.630389  1
  Ta  Ta2  1  0.293031  0.586062  0.369611  1
  Ta  Ta3  1  0.908942  0.817885  0.315624  1
  Ta  Ta4  1  0.091058  0.182115  0.684376  1
  Ta  Ta5  1  0.157582  0.315165  0.912376  1
  Ta  Ta6  1  0.842418  0.684835  0.087624  1
  Ta  Ta7  1  0.931988  0.863976  0.769800  1
  Ta  Ta8  1  0.068012  0.136024  0.230200  1
  Ta  Ta9  1  0.776169  0.552338  0.859276  1
  Ta  Ta10  1  0.223831  0.447662  0.140724  1
  Ta  Ta11  1  0.857462  0.714924  0.530245  1
  Ta  Ta12  1  0.142538  0.285076  0.469755  1
  Ta  Ta13  1  0.000000  0.000000  0.000000  1
  O  O14  1  0.082618  0.165237  0.954206  1
  O  O15  1  0.917382  0.834763  0.045794  1
  O  O16  1  0.430502  0.861005  0.752703  1
  O  O17  1  0.569498  0.138995  0.247297  1
  O  O18  1  0.736074  0.472147  0.738980  1
  O  O19  1  0.263926  0.527853  0.261020  1
  O  O20  1  0.680964  0.361929  0.901916  1
  O  O21  1  0.319036  0.638071  0.098084  1
  O  O22  1  0.657120  0.314240  0.500080  1
  O  O23  1  0.342880  0.685760  0.499920  1
  O  O24  1  0.252843  0.505686  0.863755  1
  O  O25  1  0.747157  0.494314  0.136245  1
  O  O26  1  0.805108  0.610216  0.972425  1
  O  O27  1  0.194892  0.389784  0.027575  1
  O  O28  1  0.900030  0.800061  0.628453  1
  O  O29  1  0.099970  0.199939  0.371547  1
  O  O30  1  0.614279  0.228558  0.670460  1
  O  O31  1  0.385721  0.771442  0.329540  1
  O  O32  1  0.966098  0.932195  0.878989  1
  O  O33  1  0.033902  0.067805  0.121011  1
  O  O34  1  0.869579  0.739159  0.207269  1
  O  O35  1  0.130421  0.260841  0.792731  1
  O  O36  1  0.917903  0.835806  0.443841  1
  O  O37  1  0.082097  0.164194  0.556159  1
  O  O38  1  0.849010  0.698022  0.806660  1
  O  O39  1  0.150990  0.301978  0.193340  1
  O  O40  1  0.775831  0.551662  0.570436  1
  O  O41  1  0.224169  0.448338  0.429564  1
  O  O42  1  0.812906  0.625812  0.381290  1
  O  O43  1  0.187094  0.374188  0.618710  1
  O  O44  1  0.500000  0.000000  0.000000  1
  O  O45  1  0.986197  0.972393  0.289718  1
  O  O46  1  0.013803  0.027607  0.710282  1
