# generated using pymatgen
data_Er3ScAl15(SiIr2)3
_symmetry_space_group_name_H-M   'P 1'
_cell_length_a   7.50637392
_cell_length_b   7.49209608
_cell_length_c   9.27070009
_cell_angle_alpha   90.00799889
_cell_angle_beta   89.91503663
_cell_angle_gamma   119.74973519
_symmetry_Int_Tables_number   1
_chemical_formula_structural   Er3ScAl15(SiIr2)3
_chemical_formula_sum   'Er3 Sc1 Al15 Si3 Ir6'
_cell_volume   452.65343525
_cell_formula_units_Z   1
loop_
 _symmetry_equiv_pos_site_id
 _symmetry_equiv_pos_as_xyz
  1  'x, y, z'
loop_
 _atom_site_type_symbol
 _atom_site_label
 _atom_site_symmetry_multiplicity
 _atom_site_fract_x
 _atom_site_fract_y
 _atom_site_fract_z
 _atom_site_occupancy
  Er  Er0  1  0.994114  0.669262  0.748454  1
  Er  Er1  1  0.005139  0.324937  0.253632  1
  Er  Er2  1  0.679938  0.000742  0.748000  1
  Sc  Sc3  1  0.324802  0.006097  0.248996  1
  Al  Al4  1  0.000991  0.671761  0.418646  1
  Al  Al5  1  0.001972  0.666891  0.078906  1
  Al  Al6  1  0.335950  0.999886  0.927682  1
  Al  Al7  1  0.002432  0.336565  0.928875  1
  Al  Al8  1  0.660668  0.999511  0.078290  1
  Al  Al9  1  0.655894  0.994627  0.419535  1
  Al  Al10  1  0.335314  0.999710  0.572518  1
  Al  Al11  1  0.335852  0.332657  0.062275  1
  Al  Al12  1  0.665075  0.665684  0.941906  1
  Al  Al13  1  0.664369  0.665344  0.559379  1
  Al  Al14  1  0.338779  0.332563  0.437710  1
  Al  Al15  1  0.334630  0.546866  0.750236  1
  Al  Al16  1  0.663576  0.446572  0.250118  1
  Al  Al17  1  0.545106  0.334429  0.750139  1
  Al  Al18  1  0.448721  0.663909  0.249309  1
  Si  Si19  1  0.133327  0.127865  0.750871  1
  Si  Si20  1  0.872372  0.873690  0.249796  1
  Si  Si21  1  0.001663  0.338181  0.573374  1
  Ir  Ir22  1  0.680601  0.329343  0.501830  1
  Ir  Ir23  1  0.319744  0.663416  0.499783  1
  Ir  Ir24  1  0.327823  0.671018  0.999465  1
  Ir  Ir25  1  0.673353  0.329119  0.998896  1
  Ir  Ir26  1  0.998430  0.008565  0.501466  1
  Ir  Ir27  1  0.999366  0.000796  0.999914  1
