# generated using pymatgen
data_Bi2RhO6
_symmetry_space_group_name_H-M   'P 1'
_cell_length_a   9.22127600
_cell_length_b   9.22127577
_cell_length_c   5.14247900
_cell_angle_alpha   90.00000000
_cell_angle_beta   90.00000000
_cell_angle_gamma   120.00000084
_symmetry_Int_Tables_number   1
_chemical_formula_structural   Bi2RhO6
_chemical_formula_sum   'Bi6 Rh3 O18'
_cell_volume   378.69117616
_cell_formula_units_Z   3
loop_
 _symmetry_equiv_pos_site_id
 _symmetry_equiv_pos_as_xyz
  1  'x, y, z'
loop_
 _atom_site_type_symbol
 _atom_site_label
 _atom_site_symmetry_multiplicity
 _atom_site_fract_x
 _atom_site_fract_y
 _atom_site_fract_z
 _atom_site_occupancy
  Bi  Bi0  1  0.000000  0.373938  0.500000  1
  Bi  Bi1  1  0.291395  0.291395  0.000000  1
  Bi  Bi2  1  0.000000  0.708605  0.000000  1
  Bi  Bi3  1  0.626062  0.626062  0.500000  1
  Bi  Bi4  1  0.373938  0.000000  0.500000  1
  Bi  Bi5  1  0.708605  0.000000  0.000000  1
  Rh  Rh6  1  0.000000  0.000000  0.500000  1
  Rh  Rh7  1  0.333333  0.666667  0.999723  1
  Rh  Rh8  1  0.666667  0.333333  0.000277  1
  O  O9  1  0.081145  0.202467  0.720102  1
  O  O10  1  0.230124  0.461502  0.222404  1
  O  O11  1  0.132081  0.595863  0.779953  1
  O  O12  1  0.404137  0.536219  0.779953  1
  O  O13  1  0.231379  0.769876  0.222404  1
  O  O14  1  0.121322  0.918855  0.720102  1
  O  O15  1  0.538498  0.768621  0.222404  1
  O  O16  1  0.202467  0.081145  0.279898  1
  O  O17  1  0.463781  0.867919  0.779953  1
  O  O18  1  0.797533  0.878678  0.720102  1
  O  O19  1  0.461502  0.230124  0.777596  1
  O  O20  1  0.595863  0.132081  0.220047  1
  O  O21  1  0.536219  0.404137  0.220047  1
  O  O22  1  0.769876  0.231379  0.777596  1
  O  O23  1  0.918855  0.121322  0.279898  1
  O  O24  1  0.768621  0.538498  0.777596  1
  O  O25  1  0.867919  0.463781  0.220047  1
  O  O26  1  0.878678  0.797533  0.279898  1
