# generated using pymatgen
data_Yb3DySc4(ReB6)4
_symmetry_space_group_name_H-M   'P 1'
_cell_length_a   3.55418900
_cell_length_b   9.04877100
_cell_length_c   11.39354400
_cell_angle_alpha   90.00083417
_cell_angle_beta   90.00000000
_cell_angle_gamma   90.00000000
_symmetry_Int_Tables_number   1
_chemical_formula_structural   Yb3DySc4(ReB6)4
_chemical_formula_sum   'Yb3 Dy1 Sc4 Re4 B24'
_cell_volume   366.42825110
_cell_formula_units_Z   1
loop_
 _symmetry_equiv_pos_site_id
 _symmetry_equiv_pos_as_xyz
  1  'x, y, z'
loop_
 _atom_site_type_symbol
 _atom_site_label
 _atom_site_symmetry_multiplicity
 _atom_site_fract_x
 _atom_site_fract_y
 _atom_site_fract_z
 _atom_site_occupancy
  Yb  Yb0  1  0.000000  0.323323  0.414431  1
  Yb  Yb1  1  0.000000  0.676716  0.585380  1
  Yb  Yb2  1  0.000000  0.822310  0.085575  1
  Dy  Dy3  1  0.000000  0.176701  0.914874  1
  Sc  Sc4  1  0.000000  0.943347  0.367301  1
  Sc  Sc5  1  0.000000  0.056091  0.631660  1
  Sc  Sc6  1  0.000000  0.444337  0.131976  1
  Sc  Sc7  1  0.000000  0.556435  0.868374  1
  Re  Re8  1  0.000000  0.642734  0.318273  1
  Re  Re9  1  0.000000  0.356394  0.682251  1
  Re  Re10  1  0.000000  0.142566  0.182424  1
  Re  Re11  1  0.000000  0.858373  0.817655  1
  B  B12  1  0.500000  0.554029  0.432916  1
  B  B13  1  0.500000  0.445744  0.567519  1
  B  B14  1  0.500000  0.054143  0.067374  1
  B  B15  1  0.500000  0.945181  0.933062  1
  B  B16  1  0.500000  0.754901  0.418581  1
  B  B17  1  0.500000  0.245245  0.581216  1
  B  B18  1  0.500000  0.255035  0.081680  1
  B  B19  1  0.500000  0.745479  0.918763  1
  B  B20  1  0.500000  0.796370  0.263588  1
  B  B21  1  0.500000  0.203668  0.736042  1
  B  B22  1  0.500000  0.296624  0.236242  1
  B  B23  1  0.500000  0.703903  0.763983  1
  B  B24  1  0.500000  0.630020  0.182092  1
  B  B25  1  0.500000  0.370442  0.817754  1
  B  B26  1  0.500000  0.129950  0.317634  1
  B  B27  1  0.500000  0.870090  0.681984  1
  B  B28  1  0.500000  0.981479  0.213087  1
  B  B29  1  0.500000  0.018021  0.786450  1
  B  B30  1  0.500000  0.481598  0.286908  1
  B  B31  1  0.500000  0.518454  0.713316  1
  B  B32  1  0.500000  0.593556  0.025456  1
  B  B33  1  0.500000  0.406846  0.974713  1
  B  B34  1  0.500000  0.092157  0.474704  1
  B  B35  1  0.500000  0.907738  0.524761  1
