# generated using pymatgen
data_LiHo2Co2P6Ir7
_symmetry_space_group_name_H-M   'P 1'
_cell_length_a   3.89763300
_cell_length_b   10.72143400
_cell_length_c   12.44257400
_cell_angle_alpha   90.00000000
_cell_angle_beta   90.00000000
_cell_angle_gamma   90.00000000
_symmetry_Int_Tables_number   1
_chemical_formula_structural   LiHo2Co2P6Ir7
_chemical_formula_sum   'Li2 Ho4 Co4 P12 Ir14'
_cell_volume   519.95295704
_cell_formula_units_Z   2
loop_
 _symmetry_equiv_pos_site_id
 _symmetry_equiv_pos_as_xyz
  1  'x, y, z'
loop_
 _atom_site_type_symbol
 _atom_site_label
 _atom_site_symmetry_multiplicity
 _atom_site_fract_x
 _atom_site_fract_y
 _atom_site_fract_z
 _atom_site_occupancy
  Li  Li0  1  0.250000  0.702371  0.986679  1
  Li  Li1  1  0.250000  0.797629  0.486679  1
  Ho  Ho2  1  0.250000  0.585498  0.710889  1
  Ho  Ho3  1  0.250000  0.914502  0.210889  1
  Ho  Ho4  1  0.750000  0.421929  0.293334  1
  Ho  Ho5  1  0.750000  0.078071  0.793334  1
  Co  Co6  1  0.250000  0.456093  0.934606  1
  Co  Co7  1  0.250000  0.043907  0.434606  1
  Co  Co8  1  0.750000  0.532809  0.062639  1
  Co  Co9  1  0.750000  0.967191  0.562639  1
  P  P10  1  0.250000  0.427969  0.106508  1
  P  P11  1  0.250000  0.072031  0.606508  1
  P  P12  1  0.750000  0.574763  0.891303  1
  P  P13  1  0.750000  0.925237  0.391303  1
  P  P14  1  0.250000  0.266767  0.867950  1
  P  P15  1  0.250000  0.233233  0.367950  1
  P  P16  1  0.750000  0.729291  0.132000  1
  P  P17  1  0.750000  0.770709  0.632000  1
  P  P18  1  0.250000  0.603581  0.388699  1
  P  P19  1  0.250000  0.896419  0.888699  1
  P  P20  1  0.750000  0.405780  0.612838  1
  P  P21  1  0.750000  0.094220  0.112838  1
  Ir  Ir22  1  0.750000  0.281711  0.015369  1
  Ir  Ir23  1  0.750000  0.218289  0.515369  1
  Ir  Ir24  1  0.250000  0.407205  0.478015  1
  Ir  Ir25  1  0.250000  0.092795  0.978015  1
  Ir  Ir26  1  0.750000  0.594367  0.523051  1
  Ir  Ir27  1  0.750000  0.905633  0.023051  1
  Ir  Ir28  1  0.250000  0.233786  0.177662  1
  Ir  Ir29  1  0.250000  0.266214  0.677662  1
  Ir  Ir30  1  0.750000  0.773333  0.824416  1
  Ir  Ir31  1  0.750000  0.726667  0.324416  1
  Ir  Ir32  1  0.250000  0.884057  0.694651  1
  Ir  Ir33  1  0.250000  0.615943  0.194651  1
  Ir  Ir34  1  0.750000  0.113928  0.299391  1
  Ir  Ir35  1  0.750000  0.386072  0.799391  1
