# generated using pymatgen
data_Dy4Er4Re(TcB8)3
_symmetry_space_group_name_H-M   'P 1'
_cell_length_a   3.67049100
_cell_length_b   9.13855814
_cell_length_c   11.52670000
_cell_angle_alpha   90.02929341
_cell_angle_beta   90.00000000
_cell_angle_gamma   90.00000000
_symmetry_Int_Tables_number   1
_chemical_formula_structural   Dy4Er4Re(TcB8)3
_chemical_formula_sum   'Dy4 Er4 Re1 Tc3 B24'
_cell_volume   386.63999467
_cell_formula_units_Z   1
loop_
 _symmetry_equiv_pos_site_id
 _symmetry_equiv_pos_as_xyz
  1  'x, y, z'
loop_
 _atom_site_type_symbol
 _atom_site_label
 _atom_site_symmetry_multiplicity
 _atom_site_fract_x
 _atom_site_fract_y
 _atom_site_fract_z
 _atom_site_occupancy
  Dy  Dy0  1  0.000000  0.323847  0.414109  1
  Dy  Dy1  1  0.000000  0.676450  0.585812  1
  Dy  Dy2  1  0.000000  0.823620  0.086023  1
  Dy  Dy3  1  0.000000  0.176656  0.914248  1
  Er  Er4  1  0.000000  0.942625  0.369140  1
  Er  Er5  1  0.000000  0.057842  0.629936  1
  Er  Er6  1  0.000000  0.442704  0.130899  1
  Er  Er7  1  0.000000  0.556322  0.869681  1
  Re  Re8  1  0.000000  0.860967  0.820297  1
  Tc  Tc9  1  0.000000  0.638920  0.320234  1
  Tc  Tc10  1  0.000000  0.361050  0.679715  1
  Tc  Tc11  1  0.000000  0.139024  0.179859  1
  B  B12  1  0.500000  0.553668  0.432708  1
  B  B13  1  0.500000  0.446564  0.567344  1
  B  B14  1  0.500000  0.053615  0.067408  1
  B  B15  1  0.500000  0.946635  0.932909  1
  B  B16  1  0.500000  0.749567  0.418269  1
  B  B17  1  0.500000  0.250711  0.581636  1
  B  B18  1  0.500000  0.249494  0.081741  1
  B  B19  1  0.500000  0.750098  0.918472  1
  B  B20  1  0.500000  0.792067  0.265113  1
  B  B21  1  0.500000  0.207923  0.734704  1
  B  B22  1  0.500000  0.292080  0.234966  1
  B  B23  1  0.500000  0.707550  0.765207  1
  B  B24  1  0.500000  0.630392  0.185345  1
  B  B25  1  0.500000  0.369398  0.814665  1
  B  B26  1  0.500000  0.130455  0.314740  1
  B  B27  1  0.500000  0.869770  0.685089  1
  B  B28  1  0.500000  0.982158  0.211910  1
  B  B29  1  0.500000  0.018220  0.787836  1
  B  B30  1  0.500000  0.482160  0.288109  1
  B  B31  1  0.500000  0.517779  0.712058  1
  B  B32  1  0.500000  0.598842  0.027672  1
  B  B33  1  0.500000  0.400611  0.972585  1
  B  B34  1  0.500000  0.099149  0.472135  1
  B  B35  1  0.500000  0.901068  0.527428  1
