# generated using pymatgen
data_CaTb2Sm4RhI12
_symmetry_space_group_name_H-M   'P 1'
_cell_length_a   9.93012564
_cell_length_b   9.94312913
_cell_length_c   9.90157370
_cell_angle_alpha   106.94320203
_cell_angle_beta   107.23552923
_cell_angle_gamma   106.92416389
_symmetry_Int_Tables_number   1
_chemical_formula_structural   CaTb2Sm4RhI12
_chemical_formula_sum   'Ca1 Tb2 Sm4 Rh1 I12'
_cell_volume   813.42491054
_cell_formula_units_Z   1
loop_
 _symmetry_equiv_pos_site_id
 _symmetry_equiv_pos_as_xyz
  1  'x, y, z'
loop_
 _atom_site_type_symbol
 _atom_site_label
 _atom_site_symmetry_multiplicity
 _atom_site_fract_x
 _atom_site_fract_y
 _atom_site_fract_z
 _atom_site_occupancy
  Ca  Ca0  1  0.500073  0.500520  0.499570  1
  Tb  Tb1  1  0.024912  0.300990  0.098358  1
  Tb  Tb2  1  0.302088  0.100142  0.025076  1
  Sm  Sm3  1  0.905571  0.976660  0.707172  1
  Sm  Sm4  1  0.974820  0.693789  0.900629  1
  Sm  Sm5  1  0.693323  0.900815  0.975913  1
  Sm  Sm6  1  0.096667  0.023452  0.293555  1
  Rh  Rh7  1  0.000406  0.000610  0.000267  1
  I  I8  1  0.541274  0.844894  0.617380  1
  I  I9  1  0.844101  0.619751  0.539308  1
  I  I10  1  0.618544  0.540310  0.845470  1
  I  I11  1  0.459686  0.155894  0.378360  1
  I  I12  1  0.154367  0.379780  0.456593  1
  I  I13  1  0.376497  0.455749  0.151293  1
  I  I14  1  0.679561  0.226981  0.071768  1
  I  I15  1  0.226651  0.072495  0.682858  1
  I  I16  1  0.072068  0.676859  0.226569  1
  I  I17  1  0.322488  0.780249  0.930102  1
  I  I18  1  0.777602  0.929520  0.322467  1
  I  I19  1  0.929299  0.320541  0.777293  1
