# generated using pymatgen
data_TbDyYGa7Cu4
_symmetry_space_group_name_H-M   'P 1'
_cell_length_a   8.03136089
_cell_length_b   8.03136022
_cell_length_c   9.39176130
_cell_angle_alpha   54.37497040
_cell_angle_beta   54.37497450
_cell_angle_gamma   30.51600513
_symmetry_Int_Tables_number   1
_chemical_formula_structural   TbDyYGa7Cu4
_chemical_formula_sum   'Tb1 Dy1 Y1 Ga7 Cu4'
_cell_volume   245.21598806
_cell_formula_units_Z   1
loop_
 _symmetry_equiv_pos_site_id
 _symmetry_equiv_pos_as_xyz
  1  'x, y, z'
loop_
 _atom_site_type_symbol
 _atom_site_label
 _atom_site_symmetry_multiplicity
 _atom_site_fract_x
 _atom_site_fract_y
 _atom_site_fract_z
 _atom_site_occupancy
  Tb  Tb0  1  0.696358  0.696358  0.296642  1
  Dy  Dy1  1  0.303643  0.303643  0.703506  1
  Y  Y2  1  0.000044  0.000044  0.999860  1
  Ga  Ga3  1  0.859577  0.859577  0.420023  1
  Ga  Ga4  1  0.140398  0.140398  0.580470  1
  Ga  Ga5  1  0.139597  0.139597  0.131669  1
  Ga  Ga6  1  0.860367  0.860367  0.867915  1
  Ga  Ga7  1  0.999793  0.999793  0.500298  1
  Ga  Ga8  1  0.344510  0.344510  0.276946  1
  Ga  Ga9  1  0.655764  0.655764  0.722934  1
  Cu  Cu10  1  0.496824  0.496824  0.308600  1
  Cu  Cu11  1  0.502845  0.502845  0.691623  1
  Cu  Cu12  1  0.657409  0.657409  0.982981  1
  Cu  Cu13  1  0.342871  0.342871  0.016534  1
