# generated using pymatgen
data_Nb3Fe6Si2Os
_symmetry_space_group_name_H-M   'P 1'
_cell_length_a   4.81334500
_cell_length_b   4.81334384
_cell_length_c   7.75930900
_cell_angle_alpha   90.00000000
_cell_angle_beta   90.00000000
_cell_angle_gamma   120.00000108
_symmetry_Int_Tables_number   1
_chemical_formula_structural   Nb3Fe6Si2Os
_chemical_formula_sum   'Nb3 Fe6 Si2 Os1'
_cell_volume   155.68528001
_cell_formula_units_Z   1
loop_
 _symmetry_equiv_pos_site_id
 _symmetry_equiv_pos_as_xyz
  1  'x, y, z'
loop_
 _atom_site_type_symbol
 _atom_site_label
 _atom_site_symmetry_multiplicity
 _atom_site_fract_x
 _atom_site_fract_y
 _atom_site_fract_z
 _atom_site_occupancy
  Nb  Nb0  1  0.666667  0.333333  0.546877  1
  Nb  Nb1  1  0.666667  0.333333  0.929794  1
  Nb  Nb2  1  0.333333  0.666667  0.083665  1
  Fe  Fe3  1  0.830134  0.169866  0.248771  1
  Fe  Fe4  1  0.830134  0.660269  0.248771  1
  Fe  Fe5  1  0.339731  0.169866  0.248771  1
  Fe  Fe6  1  0.170870  0.829130  0.749082  1
  Fe  Fe7  1  0.170870  0.341739  0.749082  1
  Fe  Fe8  1  0.658261  0.829130  0.749082  1
  Si  Si9  1  0.000000  0.000000  0.497762  1
  Si  Si10  1  0.000000  0.000000  0.998482  1
  Os  Os11  1  0.333333  0.666667  0.449860  1
