# generated using pymatgen
data_Ho10Tl6In2Ni3Ag
_symmetry_space_group_name_H-M   'P 1'
_cell_length_a   8.15943111
_cell_length_b   18.20996383
_cell_length_c   3.57892700
_cell_angle_alpha   90.00000000
_cell_angle_beta   90.00000000
_cell_angle_gamma   89.79962307
_symmetry_Int_Tables_number   1
_chemical_formula_structural   Ho10Tl6In2Ni3Ag
_chemical_formula_sum   'Ho10 Tl6 In2 Ni3 Ag1'
_cell_volume   531.76426272
_cell_formula_units_Z   1
loop_
 _symmetry_equiv_pos_site_id
 _symmetry_equiv_pos_as_xyz
  1  'x, y, z'
loop_
 _atom_site_type_symbol
 _atom_site_label
 _atom_site_symmetry_multiplicity
 _atom_site_fract_x
 _atom_site_fract_y
 _atom_site_fract_z
 _atom_site_occupancy
  Ho  Ho0  1  0.499428  0.502258  0.000000  1
  Ho  Ho1  1  0.001746  0.998452  0.000000  1
  Ho  Ho2  1  0.764359  0.288261  0.000000  1
  Ho  Ho3  1  0.254392  0.719778  0.000000  1
  Ho  Ho4  1  0.757708  0.778734  0.000000  1
  Ho  Ho5  1  0.216288  0.220915  0.000000  1
  Ho  Ho6  1  0.620748  0.076062  0.000000  1
  Ho  Ho7  1  0.386517  0.906901  0.000000  1
  Ho  Ho8  1  0.886268  0.592675  0.000000  1
  Ho  Ho9  1  0.117055  0.412526  0.000000  1
  Tl  Tl10  1  0.709469  0.927564  0.500000  1
  Tl  Tl11  1  0.292004  0.065408  0.500000  1
  Tl  Tl12  1  0.798675  0.439772  0.500000  1
  Tl  Tl13  1  0.203010  0.567293  0.500000  1
  Tl  Tl14  1  0.577096  0.652210  0.500000  1
  Tl  Tl15  1  0.420162  0.351349  0.500000  1
  In  In16  1  0.909122  0.150652  0.500000  1
  In  In17  1  0.079468  0.846714  0.500000  1
  Ni  Ni18  1  0.471455  0.801219  0.500000  1
  Ni  Ni19  1  0.976797  0.699260  0.500000  1
  Ni  Ni20  1  0.026703  0.303396  0.500000  1
  Ag  Ag21  1  0.531532  0.198602  0.500000  1
