# generated using pymatgen
data_Ho10Ir3PdPt2
_symmetry_space_group_name_H-M   'P 1'
_cell_length_a   11.01166614
_cell_length_b   10.99665300
_cell_length_c   6.32620300
_cell_angle_alpha   90.00000000
_cell_angle_beta   90.12964054
_cell_angle_gamma   90.00000000
_symmetry_Int_Tables_number   1
_chemical_formula_structural   Ho10Ir3PdPt2
_chemical_formula_sum   'Ho20 Ir6 Pd2 Pt4'
_cell_volume   766.04726956
_cell_formula_units_Z   2
loop_
 _symmetry_equiv_pos_site_id
 _symmetry_equiv_pos_as_xyz
  1  'x, y, z'
loop_
 _atom_site_type_symbol
 _atom_site_label
 _atom_site_symmetry_multiplicity
 _atom_site_fract_x
 _atom_site_fract_y
 _atom_site_fract_z
 _atom_site_occupancy
  Ho  Ho0  1  0.295528  0.090671  0.374013  1
  Ho  Ho1  1  0.295528  0.909329  0.874013  1
  Ho  Ho2  1  0.701287  0.088732  0.869586  1
  Ho  Ho3  1  0.701287  0.911268  0.369586  1
  Ho  Ho4  1  0.580993  0.792045  0.873866  1
  Ho  Ho5  1  0.580993  0.207955  0.373866  1
  Ho  Ho6  1  0.409665  0.793870  0.378880  1
  Ho  Ho7  1  0.409665  0.206130  0.878880  1
  Ho  Ho8  1  0.209431  0.414109  0.622377  1
  Ho  Ho9  1  0.209431  0.585891  0.122377  1
  Ho  Ho10  1  0.795807  0.414071  0.124638  1
  Ho  Ho11  1  0.795807  0.585929  0.624638  1
  Ho  Ho12  1  0.914786  0.702839  0.129722  1
  Ho  Ho13  1  0.914786  0.297161  0.629722  1
  Ho  Ho14  1  0.094029  0.703038  0.626643  1
  Ho  Ho15  1  0.094029  0.296962  0.126643  1
  Ho  Ho16  1  0.000900  0.999657  0.499879  1
  Ho  Ho17  1  0.000900  0.000343  0.999879  1
  Ho  Ho18  1  0.497459  0.498376  0.000266  1
  Ho  Ho19  1  0.497459  0.501624  0.500266  1
  Ir  Ir20  1  0.346979  0.345335  0.250964  1
  Ir  Ir21  1  0.346979  0.654665  0.750964  1
  Ir  Ir22  1  0.500676  0.999921  0.120297  1
  Ir  Ir23  1  0.500676  0.000079  0.620297  1
  Ir  Ir24  1  0.999560  0.500600  0.879583  1
  Ir  Ir25  1  0.999560  0.499400  0.379583  1
  Pd  Pd26  1  0.845218  0.153888  0.250244  1
  Pd  Pd27  1  0.845218  0.846112  0.750244  1
  Pt  Pt28  1  0.152644  0.153925  0.749715  1
  Pt  Pt29  1  0.152644  0.846075  0.249715  1
  Pt  Pt30  1  0.655039  0.346258  0.749327  1
  Pt  Pt31  1  0.655039  0.653742  0.249327  1
