# generated using pymatgen
data_TbYb2Dy(B4Os)4
_symmetry_space_group_name_H-M   'P 1'
_cell_length_a   3.55943700
_cell_length_b   5.97747938
_cell_length_c   11.55294801
_cell_angle_alpha   89.90813446
_cell_angle_beta   90.00000000
_cell_angle_gamma   90.00000000
_symmetry_Int_Tables_number   1
_chemical_formula_structural   TbYb2Dy(B4Os)4
_chemical_formula_sum   'Tb1 Yb2 Dy1 B16 Os4'
_cell_volume   245.80553468
_cell_formula_units_Z   1
loop_
 _symmetry_equiv_pos_site_id
 _symmetry_equiv_pos_as_xyz
  1  'x, y, z'
loop_
 _atom_site_type_symbol
 _atom_site_label
 _atom_site_symmetry_multiplicity
 _atom_site_fract_x
 _atom_site_fract_y
 _atom_site_fract_z
 _atom_site_occupancy
  Tb  Tb0  1  0.000000  0.128486  0.650902  1
  Yb  Yb1  1  0.000000  0.628608  0.851106  1
  Yb  Yb2  1  0.000000  0.371394  0.148926  1
  Dy  Dy3  1  0.000000  0.871460  0.349101  1
  B  B4  1  0.500000  0.475111  0.692091  1
  B  B5  1  0.500000  0.525158  0.307875  1
  B  B6  1  0.500000  0.974954  0.809504  1
  B  B7  1  0.500000  0.024941  0.190704  1
  B  B8  1  0.500000  0.288618  0.815966  1
  B  B9  1  0.500000  0.711415  0.184189  1
  B  B10  1  0.500000  0.786537  0.686233  1
  B  B11  1  0.500000  0.213112  0.313752  1
  B  B12  1  0.500000  0.363801  0.969599  1
  B  B13  1  0.500000  0.636228  0.030422  1
  B  B14  1  0.500000  0.862876  0.530412  1
  B  B15  1  0.500000  0.137002  0.469338  1
  B  B16  1  0.500000  0.388446  0.547191  1
  B  B17  1  0.500000  0.611944  0.452603  1
  B  B18  1  0.500000  0.886009  0.953411  1
  B  B19  1  0.500000  0.113953  0.046636  1
  Os  Os20  1  0.000000  0.137036  0.909720  1
  Os  Os21  1  0.000000  0.862962  0.090532  1
  Os  Os22  1  0.000000  0.640773  0.591738  1
  Os  Os23  1  0.000000  0.359174  0.408052  1
