# generated using pymatgen
data_Yb3HoNi2(OsO6)2
_symmetry_space_group_name_H-M   'P 1'
_cell_length_a   5.30874490
_cell_length_b   5.61740162
_cell_length_c   7.64964097
_cell_angle_alpha   89.94196236
_cell_angle_beta   90.58867888
_cell_angle_gamma   90.02752551
_symmetry_Int_Tables_number   1
_chemical_formula_structural   Yb3HoNi2(OsO6)2
_chemical_formula_sum   'Yb3 Ho1 Ni2 Os2 O12'
_cell_volume   228.11045465
_cell_formula_units_Z   1
loop_
 _symmetry_equiv_pos_site_id
 _symmetry_equiv_pos_as_xyz
  1  'x, y, z'
loop_
 _atom_site_type_symbol
 _atom_site_label
 _atom_site_symmetry_multiplicity
 _atom_site_fract_x
 _atom_site_fract_y
 _atom_site_fract_z
 _atom_site_occupancy
  Yb  Yb0  1  0.519189  0.569548  0.247716  1
  Yb  Yb1  1  0.020225  0.931402  0.748497  1
  Yb  Yb2  1  0.479044  0.429796  0.753366  1
  Ho  Ho3  1  0.978386  0.073583  0.252523  1
  Ni  Ni4  1  0.498274  0.998976  0.997716  1
  Ni  Ni5  1  0.000415  0.504797  0.502064  1
  Os  Os6  1  0.497653  0.998458  0.502614  1
  Os  Os7  1  0.001665  0.501865  0.997852  1
  O  O8  1  0.688969  0.286936  0.438656  1
  O  O9  1  0.820534  0.797942  0.058819  1
  O  O10  1  0.320703  0.705262  0.556325  1
  O  O11  1  0.182254  0.206857  0.946852  1
  O  O12  1  0.197644  0.188671  0.548827  1
  O  O13  1  0.300070  0.690048  0.949686  1
  O  O14  1  0.802931  0.813123  0.443386  1
  O  O15  1  0.705344  0.305258  0.054787  1
  O  O16  1  0.104512  0.462234  0.245515  1
  O  O17  1  0.382415  0.964983  0.254859  1
  O  O18  1  0.605991  0.035306  0.743622  1
  O  O19  1  0.893775  0.534957  0.756316  1
