# generated using pymatgen
data_Dy13Ho3(AgPd)4
_symmetry_space_group_name_H-M   'P 1'
_cell_length_a   9.61223677
_cell_length_b   9.61246601
_cell_length_c   9.57920800
_cell_angle_alpha   60.11438616
_cell_angle_beta   60.11360089
_cell_angle_gamma   60.23207714
_symmetry_Int_Tables_number   1
_chemical_formula_structural   Dy13Ho3(AgPd)4
_chemical_formula_sum   'Dy13 Ho3 Ag4 Pd4'
_cell_volume   628.02739848
_cell_formula_units_Z   1
loop_
 _symmetry_equiv_pos_site_id
 _symmetry_equiv_pos_as_xyz
  1  'x, y, z'
loop_
 _atom_site_type_symbol
 _atom_site_label
 _atom_site_symmetry_multiplicity
 _atom_site_fract_x
 _atom_site_fract_y
 _atom_site_fract_z
 _atom_site_occupancy
  Dy  Dy0  1  0.934139  0.565789  0.566001  1
  Dy  Dy1  1  0.576793  0.140335  0.141435  1
  Dy  Dy2  1  0.141523  0.142370  0.572689  1
  Dy  Dy3  1  0.933581  0.934188  0.566116  1
  Dy  Dy4  1  0.312214  0.687560  0.311539  1
  Dy  Dy5  1  0.566178  0.934325  0.933673  1
  Dy  Dy6  1  0.566178  0.934325  0.565824  1
  Dy  Dy7  1  0.688092  0.687845  0.312032  1
  Dy  Dy8  1  0.566119  0.565376  0.934252  1
  Dy  Dy9  1  0.934139  0.565789  0.934071  1
  Dy  Dy10  1  0.312214  0.687560  0.688686  1
  Dy  Dy11  1  0.141523  0.142370  0.143415  1
  Dy  Dy12  1  0.312399  0.311821  0.687889  1
  Ho  Ho13  1  0.140086  0.576020  0.141946  1
  Ho  Ho14  1  0.687417  0.312162  0.688314  1
  Ho  Ho15  1  0.687417  0.312162  0.312107  1
  Ag  Ag16  1  0.915191  0.252497  0.916156  1
  Ag  Ag17  1  0.916164  0.915404  0.916642  1
  Ag  Ag18  1  0.916164  0.915404  0.251790  1
  Ag  Ag19  1  0.252201  0.914841  0.916479  1
  Pd  Pd20  1  0.354053  0.354302  0.939548  1
  Pd  Pd21  1  0.354817  0.938143  0.353520  1
  Pd  Pd22  1  0.937345  0.355106  0.353776  1
  Pd  Pd23  1  0.354053  0.354302  0.352098  1
