# generated using pymatgen
data_Hf16CdCo4W3
_symmetry_space_group_name_H-M   'P 1'
_cell_length_a   8.70306699
_cell_length_b   8.66942434
_cell_length_c   8.66942600
_cell_angle_alpha   60.00000128
_cell_angle_beta   60.12779241
_cell_angle_gamma   60.12779271
_symmetry_Int_Tables_number   1
_chemical_formula_structural   Hf16CdCo4W3
_chemical_formula_sum   'Hf16 Cd1 Co4 W3'
_cell_volume   463.41930162
_cell_formula_units_Z   1
loop_
 _symmetry_equiv_pos_site_id
 _symmetry_equiv_pos_as_xyz
  1  'x, y, z'
loop_
 _atom_site_type_symbol
 _atom_site_label
 _atom_site_symmetry_multiplicity
 _atom_site_fract_x
 _atom_site_fract_y
 _atom_site_fract_z
 _atom_site_occupancy
  Hf  Hf0  1  0.695680  0.101439  0.101439  1
  Hf  Hf1  1  0.102192  0.706547  0.095630  1
  Hf  Hf2  1  0.102192  0.095630  0.706547  1
  Hf  Hf3  1  0.102192  0.095630  0.095630  1
  Hf  Hf4  1  0.313869  0.315410  0.685361  1
  Hf  Hf5  1  0.675955  0.695612  0.314216  1
  Hf  Hf6  1  0.313869  0.685361  0.315410  1
  Hf  Hf7  1  0.675955  0.314216  0.695612  1
  Hf  Hf8  1  0.675955  0.314216  0.314216  1
  Hf  Hf9  1  0.313869  0.685361  0.685361  1
  Hf  Hf10  1  0.950369  0.939984  0.554823  1
  Hf  Hf11  1  0.546957  0.544822  0.954110  1
  Hf  Hf12  1  0.950369  0.554823  0.939984  1
  Hf  Hf13  1  0.546957  0.954110  0.544822  1
  Hf  Hf14  1  0.546957  0.954110  0.954110  1
  Hf  Hf15  1  0.950369  0.554823  0.554823  1
  Cd  Cd16  1  0.004705  0.331765  0.331765  1
  Co  Co17  1  0.332892  0.889035  0.889035  1
  Co  Co18  1  0.893240  0.328511  0.889124  1
  Co  Co19  1  0.893240  0.889124  0.328511  1
  Co  Co20  1  0.893240  0.889124  0.889124  1
  W  W21  1  0.339658  0.998009  0.331166  1
  W  W22  1  0.339658  0.331166  0.998009  1
  W  W23  1  0.339658  0.331166  0.331166  1
