# generated using pymatgen
data_Dy2Ho2Co17(Si4Ni)3
_symmetry_space_group_name_H-M   'P 1'
_cell_length_a   3.72119600
_cell_length_b   6.76206733
_cell_length_c   18.33676720
_cell_angle_alpha   89.86175025
_cell_angle_beta   90.00000000
_cell_angle_gamma   90.00000000
_symmetry_Int_Tables_number   1
_chemical_formula_structural   Dy2Ho2Co17(Si4Ni)3
_chemical_formula_sum   'Dy2 Ho2 Co17 Si12 Ni3'
_cell_volume   461.40632496
_cell_formula_units_Z   1
loop_
 _symmetry_equiv_pos_site_id
 _symmetry_equiv_pos_as_xyz
  1  'x, y, z'
loop_
 _atom_site_type_symbol
 _atom_site_label
 _atom_site_symmetry_multiplicity
 _atom_site_fract_x
 _atom_site_fract_y
 _atom_site_fract_z
 _atom_site_occupancy
  Dy  Dy0  1  0.750000  0.127050  0.643316  1
  Dy  Dy1  1  0.750000  0.373245  0.142098  1
  Ho  Ho2  1  0.250000  0.872909  0.356925  1
  Ho  Ho3  1  0.250000  0.625318  0.857373  1
  Co  Co4  1  0.250000  0.056685  0.203577  1
  Co  Co5  1  0.750000  0.942696  0.795911  1
  Co  Co6  1  0.750000  0.557531  0.295033  1
  Co  Co7  1  0.250000  0.442435  0.705230  1
  Co  Co8  1  0.250000  0.625386  0.488418  1
  Co  Co9  1  0.750000  0.374197  0.511386  1
  Co  Co10  1  0.750000  0.121462  0.009621  1
  Co  Co11  1  0.250000  0.873550  0.990019  1
  Co  Co12  1  0.250000  0.679132  0.202108  1
  Co  Co13  1  0.750000  0.321919  0.799089  1
  Co  Co14  1  0.750000  0.178189  0.297120  1
  Co  Co15  1  0.250000  0.821239  0.702891  1
  Co  Co16  1  0.250000  0.358234  0.386507  1
  Co  Co17  1  0.750000  0.641725  0.613236  1
  Co  Co18  1  0.750000  0.864276  0.111154  1
  Co  Co19  1  0.250000  0.136569  0.889334  1
  Co  Co20  1  0.250000  0.375047  0.005089  1
  Si  Si21  1  0.250000  0.092931  0.080625  1
  Si  Si22  1  0.750000  0.910688  0.917806  1
  Si  Si23  1  0.750000  0.584667  0.417621  1
  Si  Si24  1  0.250000  0.415113  0.582249  1
  Si  Si25  1  0.250000  0.649824  0.077193  1
  Si  Si26  1  0.750000  0.349725  0.924456  1
  Si  Si27  1  0.750000  0.155247  0.422204  1
  Si  Si28  1  0.250000  0.844846  0.577496  1
  Si  Si29  1  0.250000  0.367384  0.262798  1
  Si  Si30  1  0.750000  0.631905  0.737267  1
  Si  Si31  1  0.750000  0.868117  0.236071  1
  Si  Si32  1  0.250000  0.132218  0.764269  1
  Ni  Ni33  1  0.750000  0.628639  0.994920  1
  Ni  Ni34  1  0.750000  0.873978  0.494247  1
  Ni  Ni35  1  0.250000  0.125920  0.505345  1
