# generated using pymatgen
data_UPaF34
_symmetry_space_group_name_H-M   'P 1'
_cell_length_a   8.93670733
_cell_length_b   8.53278121
_cell_length_c   10.40610172
_cell_angle_alpha   83.91390409
_cell_angle_beta   88.63007918
_cell_angle_gamma   66.50935786
_symmetry_Int_Tables_number   1
_chemical_formula_structural   UPaF34
_chemical_formula_sum   'U1 Pa1 F34'
_cell_volume   723.50598635
_cell_formula_units_Z   1
loop_
 _symmetry_equiv_pos_site_id
 _symmetry_equiv_pos_as_xyz
  1  'x, y, z'
loop_
 _atom_site_type_symbol
 _atom_site_label
 _atom_site_symmetry_multiplicity
 _atom_site_fract_x
 _atom_site_fract_y
 _atom_site_fract_z
 _atom_site_occupancy
  U  U0  1  0.867638  0.250970  0.764177  1
  Pa  Pa1  1  0.131515  0.748357  0.245981  1
  F  F2  1  0.601680  0.211112  0.477312  1
  F  F3  1  0.408074  0.783179  0.516422  1
  F  F4  1  0.820628  0.728589  0.727928  1
  F  F5  1  0.177541  0.307908  0.283405  1
  F  F6  1  0.095054  0.741017  0.865488  1
  F  F7  1  0.920422  0.225833  0.145427  1
  F  F8  1  0.565472  0.144931  0.366973  1
  F  F9  1  0.431532  0.856680  0.627918  1
  F  F10  1  0.635665  0.333472  0.694519  1
  F  F11  1  0.367803  0.672237  0.322090  1
  F  F12  1  0.941299  0.055286  0.652247  1
  F  F13  1  0.059339  0.940201  0.370389  1
  F  F14  1  0.915620  0.396963  0.616779  1
  F  F15  1  0.091746  0.603555  0.405777  1
  F  F16  1  0.860855  0.772945  0.599953  1
  F  F17  1  0.154673  0.182269  0.374276  1
  F  F18  1  0.799926  0.448488  0.875051  1
  F  F19  1  0.202388  0.543789  0.132006  1
  F  F20  1  0.215346  0.691400  0.768760  1
  F  F21  1  0.782075  0.315862  0.219089  1
  F  F22  1  0.904084  0.823752  0.156562  1
  F  F23  1  0.097269  0.170381  0.836196  1
  F  F24  1  0.815139  0.102185  0.907498  1
  F  F25  1  0.180746  0.895251  0.090858  1
  F  F26  1  0.475305  0.590868  0.992366  1
  F  F27  1  0.513412  0.411196  0.004906  1
  F  F28  1  0.445103  0.100092  0.870024  1
  F  F29  1  0.539820  0.922646  0.127740  1
  F  F30  1  0.288680  0.248789  0.604102  1
  F  F31  1  0.702128  0.757419  0.377490  1
  F  F32  1  0.262623  0.396429  0.668639  1
  F  F33  1  0.745160  0.599014  0.323349  1
  F  F34  1  0.542355  0.933225  0.834617  1
  F  F35  1  0.441889  0.093709  0.153686  1
