# generated using pymatgen
data_Lu4Re3TcOs4
_symmetry_space_group_name_H-M   'P 1'
_cell_length_a   5.33935491
_cell_length_b   5.25823331
_cell_length_c   8.88632700
_cell_angle_alpha   90.00000000
_cell_angle_beta   90.00000000
_cell_angle_gamma   120.43520296
_symmetry_Int_Tables_number   1
_chemical_formula_structural   Lu4Re3TcOs4
_chemical_formula_sum   'Lu4 Re3 Tc1 Os4'
_cell_volume   215.10983043
_cell_formula_units_Z   1
loop_
 _symmetry_equiv_pos_site_id
 _symmetry_equiv_pos_as_xyz
  1  'x, y, z'
loop_
 _atom_site_type_symbol
 _atom_site_label
 _atom_site_symmetry_multiplicity
 _atom_site_fract_x
 _atom_site_fract_y
 _atom_site_fract_z
 _atom_site_occupancy
  Lu  Lu0  1  0.334773  0.665776  0.436644  1
  Lu  Lu1  1  0.669689  0.336354  0.563294  1
  Lu  Lu2  1  0.669689  0.336354  0.936706  1
  Lu  Lu3  1  0.334773  0.665776  0.063356  1
  Re  Re4  1  0.163641  0.336624  0.750000  1
  Re  Re5  1  0.165891  0.828491  0.750000  1
  Re  Re6  1  0.337051  0.169023  0.250000  1
  Tc  Tc7  1  0.822089  0.653946  0.250000  1
  Os  Os8  1  0.645555  0.824446  0.750000  1
  Os  Os9  1  0.017919  0.006230  0.000695  1
  Os  Os10  1  0.821009  0.170751  0.250000  1
  Os  Os11  1  0.017919  0.006230  0.499305  1
