# generated using pymatgen
data_Ce2ErMg3Ir2Au
_symmetry_space_group_name_H-M   'P 1'
_cell_length_a   7.59312992
_cell_length_b   7.39797537
_cell_length_c   3.96678200
_cell_angle_alpha   90.00000000
_cell_angle_beta   90.00000000
_cell_angle_gamma   119.15337639
_symmetry_Int_Tables_number   1
_chemical_formula_structural   Ce2ErMg3Ir2Au
_chemical_formula_sum   'Ce2 Er1 Mg3 Ir2 Au1'
_cell_volume   194.60089955
_cell_formula_units_Z   1
loop_
 _symmetry_equiv_pos_site_id
 _symmetry_equiv_pos_as_xyz
  1  'x, y, z'
loop_
 _atom_site_type_symbol
 _atom_site_label
 _atom_site_symmetry_multiplicity
 _atom_site_fract_x
 _atom_site_fract_y
 _atom_site_fract_z
 _atom_site_occupancy
  Ce  Ce0  1  0.427144  0.428585  0.000000  1
  Ce  Ce1  1  0.572856  0.001441  0.000000  1
  Er  Er2  1  0.000000  0.584073  0.000000  1
  Mg  Mg3  1  0.000000  0.257441  0.500000  1
  Mg  Mg4  1  0.245050  0.995713  0.500000  1
  Mg  Mg5  1  0.754950  0.750663  0.500000  1
  Ir  Ir6  1  0.346405  0.666757  0.500000  1
  Ir  Ir7  1  0.653595  0.320351  0.500000  1
  Au  Au8  1  0.000000  0.994975  0.000000  1
