# generated using pymatgen
data_Er9Tm(CoHg)4
_symmetry_space_group_name_H-M   'P 1'
_cell_length_a   7.79403711
_cell_length_b   7.79403758
_cell_length_c   15.25023900
_cell_angle_alpha   90.00000000
_cell_angle_beta   90.00000000
_cell_angle_gamma   152.89465776
_symmetry_Int_Tables_number   1
_chemical_formula_structural   Er9Tm(CoHg)4
_chemical_formula_sum   'Er9 Tm1 Co4 Hg4'
_cell_volume   422.09667616
_cell_formula_units_Z   1
loop_
 _symmetry_equiv_pos_site_id
 _symmetry_equiv_pos_as_xyz
  1  'x, y, z'
loop_
 _atom_site_type_symbol
 _atom_site_label
 _atom_site_symmetry_multiplicity
 _atom_site_fract_x
 _atom_site_fract_y
 _atom_site_fract_z
 _atom_site_occupancy
  Er  Er0  1  0.745399  0.254601  0.628644  1
  Er  Er1  1  0.960897  0.039103  0.126756  1
  Er  Er2  1  0.039327  0.960673  0.873493  1
  Er  Er3  1  0.392090  0.607910  0.750000  1
  Er  Er4  1  0.960897  0.039103  0.373244  1
  Er  Er5  1  0.039327  0.960673  0.626507  1
  Er  Er6  1  0.254397  0.745603  0.128842  1
  Er  Er7  1  0.254397  0.745603  0.371158  1
  Er  Er8  1  0.745399  0.254601  0.871356  1
  Tm  Tm9  1  0.607945  0.392055  0.250000  1
  Co  Co10  1  0.407962  0.592038  0.250000  1
  Co  Co11  1  0.592247  0.407753  0.750000  1
  Co  Co12  1  0.811896  0.188104  0.250000  1
  Co  Co13  1  0.187942  0.812058  0.750000  1
  Hg  Hg14  1  0.610956  0.389044  0.032447  1
  Hg  Hg15  1  0.610956  0.389044  0.467553  1
  Hg  Hg16  1  0.388983  0.611017  0.532157  1
  Hg  Hg17  1  0.388983  0.611017  0.967843  1
