# generated using pymatgen
data_Tm8MgInPt2
_symmetry_space_group_name_H-M   'P 1'
_cell_length_a   9.61268749
_cell_length_b   9.61268758
_cell_length_c   9.63443500
_cell_angle_alpha   59.92512982
_cell_angle_beta   59.92512951
_cell_angle_gamma   59.65574654
_symmetry_Int_Tables_number   1
_chemical_formula_structural   Tm8MgInPt2
_chemical_formula_sum   'Tm16 Mg2 In2 Pt4'
_cell_volume   627.14562068
_cell_formula_units_Z   2
loop_
 _symmetry_equiv_pos_site_id
 _symmetry_equiv_pos_as_xyz
  1  'x, y, z'
loop_
 _atom_site_type_symbol
 _atom_site_label
 _atom_site_symmetry_multiplicity
 _atom_site_fract_x
 _atom_site_fract_y
 _atom_site_fract_z
 _atom_site_occupancy
  Tm  Tm0  1  0.351383  0.351383  0.349612  1
  Tm  Tm1  1  0.351383  0.351383  0.947622  1
  Tm  Tm2  1  0.350659  0.946682  0.351330  1
  Tm  Tm3  1  0.946682  0.350659  0.351330  1
  Tm  Tm4  1  0.810967  0.190652  0.188003  1
  Tm  Tm5  1  0.190652  0.810967  0.810378  1
  Tm  Tm6  1  0.190652  0.810967  0.188003  1
  Tm  Tm7  1  0.810967  0.190652  0.810378  1
  Tm  Tm8  1  0.192141  0.192141  0.807859  1
  Tm  Tm9  1  0.811980  0.811980  0.188020  1
  Tm  Tm10  1  0.935870  0.563991  0.564854  1
  Tm  Tm11  1  0.563991  0.935870  0.935284  1
  Tm  Tm12  1  0.563991  0.935870  0.564854  1
  Tm  Tm13  1  0.935870  0.563991  0.935284  1
  Tm  Tm14  1  0.567079  0.567079  0.932921  1
  Tm  Tm15  1  0.936639  0.936639  0.563361  1
  Mg  Mg16  1  0.577603  0.577603  0.581708  1
  Mg  Mg17  1  0.577603  0.577603  0.263086  1
  In  In18  1  0.583139  0.251213  0.582824  1
  In  In19  1  0.251213  0.583139  0.582824  1
  Pt  Pt20  1  0.142807  0.142807  0.143165  1
  Pt  Pt21  1  0.142807  0.142807  0.571223  1
  Pt  Pt22  1  0.142292  0.571628  0.143040  1
  Pt  Pt23  1  0.571628  0.142292  0.143040  1
