# generated using pymatgen
data_Zr6Nb2Co16(As3P)3
_symmetry_space_group_name_H-M   'P 1'
_cell_length_a   12.41526657
_cell_length_b   12.43872936
_cell_length_c   3.74596900
_cell_angle_alpha   90.00000000
_cell_angle_beta   90.00000000
_cell_angle_gamma   120.06252664
_symmetry_Int_Tables_number   1
_chemical_formula_structural   Zr6Nb2Co16(As3P)3
_chemical_formula_sum   'Zr6 Nb2 Co16 As9 P3'
_cell_volume   500.67153588
_cell_formula_units_Z   1
loop_
 _symmetry_equiv_pos_site_id
 _symmetry_equiv_pos_as_xyz
  1  'x, y, z'
loop_
 _atom_site_type_symbol
 _atom_site_label
 _atom_site_symmetry_multiplicity
 _atom_site_fract_x
 _atom_site_fract_y
 _atom_site_fract_z
 _atom_site_occupancy
  Zr  Zr0  1  0.000000  0.557545  0.000000  1
  Zr  Zr1  1  0.665082  0.333107  0.000000  1
  Zr  Zr2  1  0.334918  0.668025  0.000000  1
  Zr  Zr3  1  0.829402  0.828425  0.500000  1
  Zr  Zr4  1  0.170598  0.999024  0.500000  1
  Zr  Zr5  1  0.000000  0.168200  0.500000  1
  Nb  Nb6  1  0.443479  0.443968  0.000000  1
  Nb  Nb7  1  0.556521  0.000490  0.000000  1
  Co  Co8  1  0.193234  0.362412  0.000000  1
  Co  Co9  1  0.173513  0.810044  0.000000  1
  Co  Co10  1  0.826487  0.636532  0.000000  1
  Co  Co11  1  0.806766  0.169179  0.000000  1
  Co  Co12  1  0.363266  0.193296  0.000000  1
  Co  Co13  1  0.125017  0.478783  0.500000  1
  Co  Co14  1  0.357845  0.877601  0.500000  1
  Co  Co15  1  0.518115  0.644893  0.500000  1
  Co  Co16  1  0.642155  0.519757  0.500000  1
  Co  Co17  1  0.874983  0.353765  0.500000  1
  Co  Co18  1  0.481885  0.126779  0.500000  1
  Co  Co19  1  0.000000  0.999593  0.000000  1
  Co  Co20  1  0.729592  0.000319  0.500000  1
  Co  Co21  1  0.000000  0.729306  0.500000  1
  Co  Co22  1  0.636734  0.830030  0.000000  1
  Co  Co23  1  0.270408  0.270728  0.500000  1
  As  As24  1  0.649028  0.651271  0.000000  1
  As  As25  1  0.350972  0.002244  0.000000  1
  As  As26  1  0.000000  0.343839  0.000000  1
  As  As27  1  0.480535  0.311409  0.500000  1
  As  As28  1  0.689092  0.169964  0.500000  1
  As  As29  1  0.825188  0.517800  0.500000  1
  As  As30  1  0.519465  0.830875  0.500000  1
  As  As31  1  0.174812  0.692612  0.500000  1
  As  As32  1  0.310908  0.480872  0.500000  1
  P  P33  1  0.826388  0.998850  0.000000  1
  P  P34  1  0.000000  0.826001  0.000000  1
  P  P35  1  0.173612  0.172462  0.000000  1
