# generated using pymatgen
data_Rb4Zr6AsI18
_symmetry_space_group_name_H-M   'P 1'
_cell_length_a   11.47931604
_cell_length_b   11.69951734
_cell_length_c   11.82318472
_cell_angle_alpha   118.48932276
_cell_angle_beta   100.20340430
_cell_angle_gamma   103.96127931
_symmetry_Int_Tables_number   1
_chemical_formula_structural   Rb4Zr6AsI18
_chemical_formula_sum   'Rb4 Zr6 As1 I18'
_cell_volume   1272.40294585
_cell_formula_units_Z   1
loop_
 _symmetry_equiv_pos_site_id
 _symmetry_equiv_pos_as_xyz
  1  'x, y, z'
loop_
 _atom_site_type_symbol
 _atom_site_label
 _atom_site_symmetry_multiplicity
 _atom_site_fract_x
 _atom_site_fract_y
 _atom_site_fract_z
 _atom_site_occupancy
  Rb  Rb0  1  0.652194  0.538172  0.226850  1
  Rb  Rb1  1  0.347806  0.461828  0.773150  1
  Rb  Rb2  1  0.686962  0.225568  0.565095  1
  Rb  Rb3  1  0.313038  0.774432  0.434905  1
  Zr  Zr4  1  0.148391  0.055090  0.226313  1
  Zr  Zr5  1  0.851609  0.944910  0.773687  1
  Zr  Zr6  1  0.863598  0.124108  0.130401  1
  Zr  Zr7  1  0.136402  0.875892  0.869599  1
  Zr  Zr8  1  0.144096  0.235422  0.045022  1
  Zr  Zr9  1  0.855904  0.764578  0.954978  1
  As  As10  1  0.000000  0.000000  0.000000  1
  I  I11  1  0.007382  0.404076  0.193998  1
  I  I12  1  0.992618  0.595924  0.806002  1
  I  I13  1  0.326823  0.329981  0.308506  1
  I  I14  1  0.673177  0.670019  0.691494  1
  I  I15  1  0.316311  0.514696  0.098444  1
  I  I16  1  0.683689  0.485304  0.901556  1
  I  I17  1  0.003556  0.798162  0.205975  1
  I  I18  1  0.996444  0.201838  0.794025  1
  I  I19  1  0.704974  0.268852  0.281380  1
  I  I20  1  0.295026  0.731148  0.718620  1
  I  I21  1  0.314673  0.126182  0.904489  1
  I  I22  1  0.685327  0.873818  0.095511  1
  I  I23  1  0.014614  0.201885  0.402360  1
  I  I24  1  0.985386  0.798115  0.597640  1
  I  I25  1  0.318721  0.924372  0.108940  1
  I  I26  1  0.681279  0.075628  0.891060  1
  I  I27  1  0.327948  0.119632  0.494335  1
  I  I28  1  0.672052  0.880368  0.505665  1
