# generated using pymatgen
data_BeNb8NiTe8
_symmetry_space_group_name_H-M   'P 1'
_cell_length_a   4.85527100
_cell_length_b   10.77365100
_cell_length_c   18.66956600
_cell_angle_alpha   90.00000000
_cell_angle_beta   90.00000000
_cell_angle_gamma   90.00000000
_symmetry_Int_Tables_number   1
_chemical_formula_structural   BeNb8NiTe8
_chemical_formula_sum   'Be2 Nb16 Ni2 Te16'
_cell_volume   976.58623948
_cell_formula_units_Z   2
loop_
 _symmetry_equiv_pos_site_id
 _symmetry_equiv_pos_as_xyz
  1  'x, y, z'
loop_
 _atom_site_type_symbol
 _atom_site_label
 _atom_site_symmetry_multiplicity
 _atom_site_fract_x
 _atom_site_fract_y
 _atom_site_fract_z
 _atom_site_occupancy
  Be  Be0  1  0.749897  0.500000  0.500000  1
  Be  Be1  1  0.250103  0.000000  0.000000  1
  Nb  Nb2  1  0.504543  0.564691  0.382826  1
  Nb  Nb3  1  0.504543  0.435309  0.617174  1
  Nb  Nb4  1  0.495457  0.064691  0.117174  1
  Nb  Nb5  1  0.495457  0.935309  0.882826  1
  Nb  Nb6  1  0.509836  0.705185  0.536787  1
  Nb  Nb7  1  0.509836  0.294815  0.463213  1
  Nb  Nb8  1  0.490164  0.205185  0.963213  1
  Nb  Nb9  1  0.490164  0.794815  0.036787  1
  Nb  Nb10  1  0.991055  0.690719  0.442550  1
  Nb  Nb11  1  0.991055  0.309281  0.557450  1
  Nb  Nb12  1  0.008945  0.190719  0.057450  1
  Nb  Nb13  1  0.008945  0.809281  0.942550  1
  Nb  Nb14  1  0.993743  0.400593  0.391138  1
  Nb  Nb15  1  0.993743  0.599407  0.608862  1
  Nb  Nb16  1  0.006257  0.900593  0.108862  1
  Nb  Nb17  1  0.006257  0.099407  0.891138  1
  Ni  Ni18  1  0.250247  0.500000  0.500000  1
  Ni  Ni19  1  0.749753  0.000000  0.000000  1
  Te  Te20  1  0.010067  0.851289  0.563888  1
  Te  Te21  1  0.010067  0.148711  0.436112  1
  Te  Te22  1  0.989933  0.351289  0.936112  1
  Te  Te23  1  0.989933  0.648711  0.063888  1
  Te  Te24  1  0.492861  0.331515  0.312690  1
  Te  Te25  1  0.492861  0.668485  0.687310  1
  Te  Te26  1  0.507139  0.831515  0.187310  1
  Te  Te27  1  0.507139  0.168485  0.812690  1
  Te  Te28  1  0.489785  0.826783  0.401283  1
  Te  Te29  1  0.489785  0.173217  0.598717  1
  Te  Te30  1  0.510215  0.326783  0.098717  1
  Te  Te31  1  0.510215  0.673217  0.901283  1
  Te  Te32  1  0.006309  0.608745  0.297963  1
  Te  Te33  1  0.006309  0.391255  0.702037  1
  Te  Te34  1  0.993691  0.108745  0.202037  1
  Te  Te35  1  0.993691  0.891255  0.797963  1
