# generated using pymatgen
data_LiPr3Hg3Pd2
_symmetry_space_group_name_H-M   'P 1'
_cell_length_a   7.97427100
_cell_length_b   7.97427139
_cell_length_c   3.88064000
_cell_angle_alpha   90.00000000
_cell_angle_beta   90.00000000
_cell_angle_gamma   119.99999424
_symmetry_Int_Tables_number   1
_chemical_formula_structural   LiPr3Hg3Pd2
_chemical_formula_sum   'Li1 Pr3 Hg3 Pd2'
_cell_volume   213.70565551
_cell_formula_units_Z   1
loop_
 _symmetry_equiv_pos_site_id
 _symmetry_equiv_pos_as_xyz
  1  'x, y, z'
loop_
 _atom_site_type_symbol
 _atom_site_label
 _atom_site_symmetry_multiplicity
 _atom_site_fract_x
 _atom_site_fract_y
 _atom_site_fract_z
 _atom_site_occupancy
  Li  Li0  1  0.000000  0.000000  0.500000  1
  Pr  Pr1  1  0.419002  0.419002  0.500000  1
  Pr  Pr2  1  0.580998  0.000000  0.500000  1
  Pr  Pr3  1  0.000000  0.580998  0.500000  1
  Hg  Hg4  1  0.748310  0.748310  0.000000  1
  Hg  Hg5  1  0.251690  0.000000  0.000000  1
  Hg  Hg6  1  0.000000  0.251690  0.000000  1
  Pd  Pd7  1  0.666667  0.333333  0.000000  1
  Pd  Pd8  1  0.333333  0.666667  0.000000  1
