# generated using pymatgen
data_Sr4BeSi6Hg
_symmetry_space_group_name_H-M   'P 1'
_cell_length_a   11.86608961
_cell_length_b   10.27368447
_cell_length_c   8.32390644
_cell_angle_alpha   78.52286166
_cell_angle_beta   58.04775949
_cell_angle_gamma   43.42938707
_symmetry_Int_Tables_number   1
_chemical_formula_structural   Sr4BeSi6Hg
_chemical_formula_sum   'Sr8 Be2 Si12 Hg2'
_cell_volume   561.23166322
_cell_formula_units_Z   2
loop_
 _symmetry_equiv_pos_site_id
 _symmetry_equiv_pos_as_xyz
  1  'x, y, z'
loop_
 _atom_site_type_symbol
 _atom_site_label
 _atom_site_symmetry_multiplicity
 _atom_site_fract_x
 _atom_site_fract_y
 _atom_site_fract_z
 _atom_site_occupancy
  Sr  Sr0  1  0.119116  0.128899  0.878338  1
  Sr  Sr1  1  0.878339  0.873648  0.119115  1
  Sr  Sr2  1  0.121102  0.130885  0.376352  1
  Sr  Sr3  1  0.376353  0.371662  0.121101  1
  Sr  Sr4  1  0.626798  0.620236  0.375144  1
  Sr  Sr5  1  0.375144  0.377823  0.626798  1
  Sr  Sr6  1  0.629765  0.623202  0.872177  1
  Sr  Sr7  1  0.872178  0.874857  0.629764  1
  Be  Be8  1  0.082015  0.417985  0.082015  1
  Be  Be9  1  0.832015  0.167985  0.832015  1
  Si  Si10  1  0.925609  0.581466  0.402974  1
  Si  Si11  1  0.062742  0.429827  0.595876  1
  Si  Si12  1  0.402974  0.089950  0.925609  1
  Si  Si13  1  0.595876  0.911555  0.062742  1
  Si  Si14  1  0.338445  0.654124  0.820173  1
  Si  Si15  1  0.668534  0.324391  0.160050  1
  Si  Si16  1  0.820173  0.187258  0.338445  1
  Si  Si17  1  0.160050  0.847026  0.668534  1
  Si  Si18  1  0.923723  0.576278  0.923722  1
  Si  Si19  1  0.590328  0.909673  0.590327  1
  Si  Si20  1  0.340328  0.659673  0.340328  1
  Si  Si21  1  0.673722  0.326278  0.673722  1
  Hg  Hg22  1  0.167336  0.832664  0.167336  1
  Hg  Hg23  1  0.417336  0.082664  0.417336  1
