# generated using pymatgen
data_Pr2Mg2SnPb
_symmetry_space_group_name_H-M   'P 1'
_cell_length_a   4.56741786
_cell_length_b   4.56741820
_cell_length_c   8.78919606
_cell_angle_alpha   105.06005865
_cell_angle_beta   105.06006246
_cell_angle_gamma   89.99999660
_symmetry_Int_Tables_number   1
_chemical_formula_structural   Pr2Mg2SnPb
_chemical_formula_sum   'Pr2 Mg2 Sn1 Pb1'
_cell_volume   170.52675099
_cell_formula_units_Z   1
loop_
 _symmetry_equiv_pos_site_id
 _symmetry_equiv_pos_as_xyz
  1  'x, y, z'
loop_
 _atom_site_type_symbol
 _atom_site_label
 _atom_site_symmetry_multiplicity
 _atom_site_fract_x
 _atom_site_fract_y
 _atom_site_fract_z
 _atom_site_occupancy
  Pr  Pr0  1  0.664562  0.664562  0.329123  1
  Pr  Pr1  1  0.337104  0.337104  0.674207  1
  Mg  Mg2  1  0.498593  0.998593  0.997185  1
  Mg  Mg3  1  0.998593  0.498593  0.997185  1
  Sn  Sn4  1  0.866945  0.866945  0.733892  1
  Pb  Pb5  1  0.134203  0.134203  0.268407  1
