# generated using pymatgen
data_Sc2ZnNi3
_symmetry_space_group_name_H-M   'P 1'
_cell_length_a   5.02557800
_cell_length_b   5.02557781
_cell_length_c   7.87516300
_cell_angle_alpha   90.00000000
_cell_angle_beta   90.00000000
_cell_angle_gamma   120.00000124
_symmetry_Int_Tables_number   1
_chemical_formula_structural   Sc2ZnNi3
_chemical_formula_sum   'Sc4 Zn2 Ni6'
_cell_volume   172.25117671
_cell_formula_units_Z   2
loop_
 _symmetry_equiv_pos_site_id
 _symmetry_equiv_pos_as_xyz
  1  'x, y, z'
loop_
 _atom_site_type_symbol
 _atom_site_label
 _atom_site_symmetry_multiplicity
 _atom_site_fract_x
 _atom_site_fract_y
 _atom_site_fract_z
 _atom_site_occupancy
  Sc  Sc0  1  0.333333  0.666667  0.561554  1
  Sc  Sc1  1  0.666667  0.333333  0.061554  1
  Sc  Sc2  1  0.666667  0.333333  0.438446  1
  Sc  Sc3  1  0.333333  0.666667  0.938446  1
  Zn  Zn4  1  0.000000  0.000000  0.000000  1
  Zn  Zn5  1  0.000000  0.000000  0.500000  1
  Ni  Ni6  1  0.170681  0.341362  0.250000  1
  Ni  Ni7  1  0.829319  0.170681  0.750000  1
  Ni  Ni8  1  0.341362  0.170681  0.750000  1
  Ni  Ni9  1  0.658638  0.829319  0.250000  1
  Ni  Ni10  1  0.170681  0.829319  0.250000  1
  Ni  Ni11  1  0.829319  0.658638  0.750000  1
