# generated using pymatgen
data_Nd4Al4PdRh3
_symmetry_space_group_name_H-M   'P 1'
_cell_length_a   4.35899000
_cell_length_b   7.08991863
_cell_length_c   8.07120771
_cell_angle_alpha   89.95179407
_cell_angle_beta   90.00000000
_cell_angle_gamma   90.00000000
_symmetry_Int_Tables_number   1
_chemical_formula_structural   Nd4Al4PdRh3
_chemical_formula_sum   'Nd4 Al4 Pd1 Rh3'
_cell_volume   249.43965307
_cell_formula_units_Z   1
loop_
 _symmetry_equiv_pos_site_id
 _symmetry_equiv_pos_as_xyz
  1  'x, y, z'
loop_
 _atom_site_type_symbol
 _atom_site_label
 _atom_site_symmetry_multiplicity
 _atom_site_fract_x
 _atom_site_fract_y
 _atom_site_fract_z
 _atom_site_occupancy
  Nd  Nd0  1  0.250000  0.532577  0.183813  1
  Nd  Nd1  1  0.750000  0.458562  0.819766  1
  Nd  Nd2  1  0.750000  0.967147  0.676938  1
  Nd  Nd3  1  0.250000  0.036277  0.319676  1
  Al  Al4  1  0.250000  0.632944  0.559944  1
  Al  Al5  1  0.750000  0.365520  0.437766  1
  Al  Al6  1  0.750000  0.866333  0.064692  1
  Al  Al7  1  0.250000  0.139468  0.938291  1
  Pd  Pd8  1  0.250000  0.774538  0.881947  1
  Rh  Rh9  1  0.750000  0.227494  0.116038  1
  Rh  Rh10  1  0.750000  0.728683  0.383740  1
  Rh  Rh11  1  0.250000  0.270457  0.617387  1
