# generated using pymatgen
data_Tb6DyEr13Pb16
_symmetry_space_group_name_H-M   'P 1'
_cell_length_a   8.18359627
_cell_length_b   8.25820944
_cell_length_c   15.58714249
_cell_angle_alpha   90.01098787
_cell_angle_beta   90.05675819
_cell_angle_gamma   89.98043471
_symmetry_Int_Tables_number   1
_chemical_formula_structural   Tb6DyEr13Pb16
_chemical_formula_sum   'Tb6 Dy1 Er13 Pb16'
_cell_volume   1053.40735866
_cell_formula_units_Z   1
loop_
 _symmetry_equiv_pos_site_id
 _symmetry_equiv_pos_as_xyz
  1  'x, y, z'
loop_
 _atom_site_type_symbol
 _atom_site_label
 _atom_site_symmetry_multiplicity
 _atom_site_fract_x
 _atom_site_fract_y
 _atom_site_fract_z
 _atom_site_occupancy
  Tb  Tb0  1  0.036413  0.176808  0.600045  1
  Tb  Tb1  1  0.463586  0.676762  0.400001  1
  Tb  Tb2  1  0.963474  0.823337  0.100005  1
  Tb  Tb3  1  0.463510  0.676685  0.099959  1
  Tb  Tb4  1  0.963580  0.823215  0.399999  1
  Tb  Tb5  1  0.536406  0.323267  0.599940  1
  Dy  Dy6  1  0.036542  0.176788  0.899956  1
  Er  Er7  1  0.376496  0.841433  0.878960  1
  Er  Er8  1  0.876428  0.658643  0.621083  1
  Er  Er9  1  0.623568  0.158701  0.379022  1
  Er  Er10  1  0.123409  0.341179  0.120922  1
  Er  Er11  1  0.623413  0.158836  0.120815  1
  Er  Er12  1  0.123563  0.341261  0.379001  1
  Er  Er13  1  0.376489  0.841356  0.621104  1
  Er  Er14  1  0.876427  0.658520  0.878956  1
  Er  Er15  1  0.536744  0.323579  0.899921  1
  Er  Er16  1  0.208357  0.504509  0.750150  1
  Er  Er17  1  0.708135  0.995429  0.750122  1
  Er  Er18  1  0.791733  0.495311  0.249963  1
  Er  Er19  1  0.291759  0.004692  0.249954  1
  Pb  Pb20  1  0.281625  0.033449  0.042850  1
  Pb  Pb21  1  0.781828  0.466543  0.457126  1
  Pb  Pb22  1  0.718142  0.966519  0.542898  1
  Pb  Pb23  1  0.218833  0.532808  0.956981  1
  Pb  Pb24  1  0.717965  0.967044  0.957025  1
  Pb  Pb25  1  0.218146  0.533510  0.542881  1
  Pb  Pb26  1  0.281850  0.033456  0.457142  1
  Pb  Pb27  1  0.781379  0.466141  0.042527  1
  Pb  Pb28  1  0.571186  0.626896  0.750009  1
  Pb  Pb29  1  0.071234  0.872893  0.750024  1
  Pb  Pb30  1  0.428782  0.372841  0.249977  1
  Pb  Pb31  1  0.928768  0.127199  0.250035  1
  Pb  Pb32  1  0.347755  0.153815  0.750455  1
  Pb  Pb33  1  0.847241  0.346615  0.750204  1
  Pb  Pb34  1  0.652619  0.846734  0.249984  1
  Pb  Pb35  1  0.152615  0.653225  0.250005  1
