# generated using pymatgen
data_Tb2(DyPb)3
_symmetry_space_group_name_H-M   'P 1'
_cell_length_a   9.08383532
_cell_length_b   9.08383710
_cell_length_c   6.65391200
_cell_angle_alpha   90.00017198
_cell_angle_beta   90.00017437
_cell_angle_gamma   120.03014861
_symmetry_Int_Tables_number   1
_chemical_formula_structural   Tb2(DyPb)3
_chemical_formula_sum   'Tb4 Dy6 Pb6'
_cell_volume   475.35082999
_cell_formula_units_Z   2
loop_
 _symmetry_equiv_pos_site_id
 _symmetry_equiv_pos_as_xyz
  1  'x, y, z'
loop_
 _atom_site_type_symbol
 _atom_site_label
 _atom_site_symmetry_multiplicity
 _atom_site_fract_x
 _atom_site_fract_y
 _atom_site_fract_z
 _atom_site_occupancy
  Tb  Tb0  1  0.762410  0.762409  0.250014  1
  Tb  Tb1  1  0.237647  0.999947  0.250007  1
  Tb  Tb2  1  0.999947  0.237647  0.250007  1
  Tb  Tb3  1  0.237538  0.237537  0.749992  1
  Dy  Dy4  1  0.666683  0.333349  0.999957  1
  Dy  Dy5  1  0.333348  0.666682  0.999957  1
  Dy  Dy6  1  0.666724  0.333406  0.500024  1
  Dy  Dy7  1  0.333405  0.666724  0.500024  1
  Dy  Dy8  1  0.762376  0.999949  0.750002  1
  Dy  Dy9  1  0.999949  0.762376  0.750002  1
  Pb  Pb10  1  0.605061  0.999952  0.250011  1
  Pb  Pb11  1  0.999952  0.605060  0.250011  1
  Pb  Pb12  1  0.394870  0.394869  0.249979  1
  Pb  Pb13  1  0.394792  0.999893  0.750001  1
  Pb  Pb14  1  0.999892  0.394791  0.750001  1
  Pb  Pb15  1  0.605412  0.605411  0.750009  1
