# generated using pymatgen
data_DyHo5(TmIn2)4
_symmetry_space_group_name_H-M   'P 1'
_cell_length_a   9.22463800
_cell_length_b   9.22780277
_cell_length_c   6.64825300
_cell_angle_alpha   90.00000000
_cell_angle_beta   90.00000000
_cell_angle_gamma   119.98865562
_symmetry_Int_Tables_number   1
_chemical_formula_structural   DyHo5(TmIn2)4
_chemical_formula_sum   'Dy1 Ho5 Tm4 In8'
_cell_volume   490.15726053
_cell_formula_units_Z   1
loop_
 _symmetry_equiv_pos_site_id
 _symmetry_equiv_pos_as_xyz
  1  'x, y, z'
loop_
 _atom_site_type_symbol
 _atom_site_label
 _atom_site_symmetry_multiplicity
 _atom_site_fract_x
 _atom_site_fract_y
 _atom_site_fract_z
 _atom_site_occupancy
  Dy  Dy0  1  0.289238  0.000000  0.750000  1
  Ho  Ho1  1  0.710652  0.000000  0.250000  1
  Ho  Ho2  1  0.000041  0.289302  0.750000  1
  Ho  Ho3  1  0.000032  0.710730  0.250000  1
  Ho  Ho4  1  0.710739  0.710698  0.750000  1
  Ho  Ho5  1  0.289303  0.289270  0.250000  1
  Tm  Tm6  1  0.333313  0.666555  0.499956  1
  Tm  Tm7  1  0.666759  0.333445  0.499956  1
  Tm  Tm8  1  0.666759  0.333445  0.000044  1
  Tm  Tm9  1  0.333313  0.666555  0.000044  1
  In  In10  1  0.999893  0.000000  0.499817  1
  In  In11  1  0.999893  0.000000  0.000183  1
  In  In12  1  0.628018  0.000000  0.750000  1
  In  In13  1  0.372180  0.000000  0.250000  1
  In  In14  1  0.999811  0.627513  0.750000  1
  In  In15  1  0.000020  0.372282  0.250000  1
  In  In16  1  0.372298  0.372487  0.750000  1
  In  In17  1  0.627738  0.627718  0.250000  1
