# generated using pymatgen
data_Tb3Eu2YTa2O14
_symmetry_space_group_name_H-M   'P 1'
_cell_length_a   6.51180000
_cell_length_b   6.50918750
_cell_length_c   7.58761827
_cell_angle_alpha   90.02309703
_cell_angle_beta   89.97331691
_cell_angle_gamma   108.87893426
_symmetry_Int_Tables_number   1
_chemical_formula_structural   Tb3Eu2YTa2O14
_chemical_formula_sum   'Tb3 Eu2 Y1 Ta2 O14'
_cell_volume   304.31138743
_cell_formula_units_Z   1
loop_
 _symmetry_equiv_pos_site_id
 _symmetry_equiv_pos_as_xyz
  1  'x, y, z'
loop_
 _atom_site_type_symbol
 _atom_site_label
 _atom_site_symmetry_multiplicity
 _atom_site_fract_x
 _atom_site_fract_y
 _atom_site_fract_z
 _atom_site_occupancy
  Tb  Tb0  1  0.000438  0.464944  0.748404  1
  Tb  Tb1  1  0.999500  0.535361  0.248387  1
  Tb  Tb2  1  0.534879  0.999603  0.751594  1
  Eu  Eu3  1  0.503912  0.503889  0.499851  1
  Eu  Eu4  1  0.495249  0.495173  0.000174  1
  Y  Y5  1  0.466102  0.000438  0.251552  1
  Ta  Ta6  1  0.000022  0.000022  0.499867  1
  Ta  Ta7  1  0.000057  0.000033  0.000085  1
  O  O8  1  0.638397  0.361470  0.749901  1
  O  O9  1  0.361116  0.639738  0.250147  1
  O  O10  1  0.934622  0.065445  0.750017  1
  O  O11  1  0.064859  0.934365  0.249969  1
  O  O12  1  0.930850  0.679778  0.531343  1
  O  O13  1  0.069140  0.320386  0.031323  1
  O  O14  1  0.320385  0.068665  0.969141  1
  O  O15  1  0.680303  0.931721  0.468370  1
  O  O16  1  0.367553  0.632371  0.750174  1
  O  O17  1  0.631723  0.365894  0.249883  1
  O  O18  1  0.935985  0.683351  0.965117  1
  O  O19  1  0.064163  0.316882  0.465099  1
  O  O20  1  0.316880  0.063720  0.534447  1
  O  O21  1  0.683864  0.936752  0.035154  1
