# generated using pymatgen
data_La8PrYC4I15
_symmetry_space_group_name_H-M   'P 1'
_cell_length_a   9.90378386
_cell_length_b   10.83352339
_cell_length_c   11.90978124
_cell_angle_alpha   93.66304551
_cell_angle_beta   114.18871154
_cell_angle_gamma   109.55668940
_symmetry_Int_Tables_number   1
_chemical_formula_structural   La8PrYC4I15
_chemical_formula_sum   'La8 Pr1 Y1 C4 I15'
_cell_volume   1067.93087353
_cell_formula_units_Z   1
loop_
 _symmetry_equiv_pos_site_id
 _symmetry_equiv_pos_as_xyz
  1  'x, y, z'
loop_
 _atom_site_type_symbol
 _atom_site_label
 _atom_site_symmetry_multiplicity
 _atom_site_fract_x
 _atom_site_fract_y
 _atom_site_fract_z
 _atom_site_occupancy
  La  La0  1  0.778494  0.883918  0.258704  1
  La  La1  1  0.528934  0.187643  0.103775  1
  La  La2  1  0.221745  0.114832  0.743082  1
  La  La3  1  0.402853  0.458963  0.656942  1
  La  La4  1  0.471925  0.812760  0.897847  1
  La  La5  1  0.705165  0.567122  0.044713  1
  La  La6  1  0.294571  0.432819  0.956325  1
  La  La7  1  0.656893  0.255475  0.832612  1
  Pr  Pr8  1  0.345049  0.745088  0.164541  1
  Y  Y9  1  0.592554  0.545778  0.333271  1
  C  C10  1  0.482453  0.300493  0.937389  1
  C  C11  1  0.518411  0.698389  0.062557  1
  C  C12  1  0.452885  0.361722  0.833580  1
  C  C13  1  0.546516  0.636779  0.165329  1
  I  I14  1  0.207001  0.905892  0.938897  1
  I  I15  1  0.102336  0.185654  0.467105  1
  I  I16  1  0.150362  0.554251  0.703834  1
  I  I17  1  0.404286  0.967308  0.646418  1
  I  I18  1  0.716317  0.734107  0.822499  1
  I  I19  1  0.296884  0.275559  0.187493  1
  I  I20  1  0.839803  0.449587  0.303122  1
  I  I21  1  0.883509  0.798962  0.527284  1
  I  I22  1  0.369189  0.627602  0.411471  1
  I  I23  1  0.056623  0.832377  0.221764  1
  I  I24  1  0.794132  0.095829  0.062794  1
  I  I25  1  0.641985  0.375175  0.582431  1
  I  I26  1  0.944018  0.166019  0.779521  1
  I  I27  1  0.592792  0.029055  0.352404  1
  I  I28  1  0.002313  0.500837  0.002299  1
