# generated using pymatgen
data_Li4Nd3DySi8
_symmetry_space_group_name_H-M   'P 1'
_cell_length_a   3.85805200
_cell_length_b   7.71005499
_cell_length_c   10.41136504
_cell_angle_alpha   89.87474905
_cell_angle_beta   90.00000000
_cell_angle_gamma   90.00000000
_symmetry_Int_Tables_number   1
_chemical_formula_structural   Li4Nd3DySi8
_chemical_formula_sum   'Li4 Nd3 Dy1 Si8'
_cell_volume   309.69357031
_cell_formula_units_Z   1
loop_
 _symmetry_equiv_pos_site_id
 _symmetry_equiv_pos_as_xyz
  1  'x, y, z'
loop_
 _atom_site_type_symbol
 _atom_site_label
 _atom_site_symmetry_multiplicity
 _atom_site_fract_x
 _atom_site_fract_y
 _atom_site_fract_z
 _atom_site_occupancy
  Li  Li0  1  0.250000  0.993954  0.389581  1
  Li  Li1  1  0.750000  0.004668  0.610449  1
  Li  Li2  1  0.250000  0.494588  0.107707  1
  Li  Li3  1  0.750000  0.509505  0.890464  1
  Nd  Nd4  1  0.750000  0.862564  0.135258  1
  Nd  Nd5  1  0.250000  0.637749  0.636646  1
  Nd  Nd6  1  0.750000  0.359570  0.364798  1
  Dy  Dy7  1  0.250000  0.135371  0.864482  1
  Si  Si8  1  0.750000  0.271336  0.064629  1
  Si  Si9  1  0.250000  0.732729  0.929637  1
  Si  Si10  1  0.750000  0.772303  0.430131  1
  Si  Si11  1  0.250000  0.222970  0.574739  1
  Si  Si12  1  0.750000  0.843399  0.822579  1
  Si  Si13  1  0.250000  0.163601  0.174067  1
  Si  Si14  1  0.750000  0.333128  0.682565  1
  Si  Si15  1  0.250000  0.662566  0.322269  1
