# generated using pymatgen
data_Th2Be25Co
_symmetry_space_group_name_H-M   'P 1'
_cell_length_a   7.31384448
_cell_length_b   7.32280235
_cell_length_c   7.33566435
_cell_angle_alpha   59.86106241
_cell_angle_beta   60.40918272
_cell_angle_gamma   60.15679955
_symmetry_Int_Tables_number   1
_chemical_formula_structural   Th2Be25Co
_chemical_formula_sum   'Th2 Be25 Co1'
_cell_volume   278.69282532
_cell_formula_units_Z   1
loop_
 _symmetry_equiv_pos_site_id
 _symmetry_equiv_pos_as_xyz
  1  'x, y, z'
loop_
 _atom_site_type_symbol
 _atom_site_label
 _atom_site_symmetry_multiplicity
 _atom_site_fract_x
 _atom_site_fract_y
 _atom_site_fract_z
 _atom_site_occupancy
  Th  Th0  1  0.743463  0.750521  0.750824  1
  Th  Th1  1  0.249176  0.244809  0.256537  1
  Be  Be2  1  0.498812  0.504248  0.501188  1
  Be  Be3  1  0.996316  0.999905  0.003684  1
  Be  Be4  1  0.286423  0.937511  0.063625  1
  Be  Be5  1  0.936375  0.287559  0.713577  1
  Be  Be6  1  0.713202  0.934218  0.286798  1
  Be  Be7  1  0.283346  0.065643  0.716654  1
  Be  Be8  1  0.937698  0.063472  0.287051  1
  Be  Be9  1  0.712949  0.288222  0.062302  1
  Be  Be10  1  0.563334  0.437235  0.787639  1
  Be  Be11  1  0.789084  0.561909  0.436868  1
  Be  Be12  1  0.438044  0.209567  0.791334  1
  Be  Be13  1  0.438299  0.560455  0.211589  1
  Be  Be14  1  0.788411  0.210343  0.561701  1
  Be  Be15  1  0.208666  0.438945  0.561956  1
  Be  Be16  1  0.212361  0.788209  0.436666  1
  Be  Be17  1  0.563132  0.787862  0.210916  1
  Be  Be18  1  0.064043  0.287680  0.935957  1
  Be  Be19  1  0.067067  0.711928  0.284742  1
  Be  Be20  1  0.287209  0.713747  0.934401  1
  Be  Be21  1  0.065599  0.935358  0.712791  1
  Be  Be22  1  0.715258  0.063737  0.932933  1
  Be  Be23  1  0.936223  0.709655  0.063777  1
  Be  Be24  1  0.790996  0.435092  0.209004  1
  Be  Be25  1  0.559420  0.207733  0.440580  1
  Be  Be26  1  0.214119  0.566002  0.785881  1
  Co  Co27  1  0.440974  0.798434  0.559026  1
