# generated using pymatgen
data_SmDy15(C2Cl3)4
_symmetry_space_group_name_H-M   'P 1'
_cell_length_a   3.66076100
_cell_length_b   10.52813484
_cell_length_c   19.79885784
_cell_angle_alpha   90.12860695
_cell_angle_beta   90.00000000
_cell_angle_gamma   90.00000000
_symmetry_Int_Tables_number   1
_chemical_formula_structural   SmDy15(C2Cl3)4
_chemical_formula_sum   'Sm1 Dy15 C8 Cl12'
_cell_volume   763.06556954
_cell_formula_units_Z   1
loop_
 _symmetry_equiv_pos_site_id
 _symmetry_equiv_pos_as_xyz
  1  'x, y, z'
loop_
 _atom_site_type_symbol
 _atom_site_label
 _atom_site_symmetry_multiplicity
 _atom_site_fract_x
 _atom_site_fract_y
 _atom_site_fract_z
 _atom_site_occupancy
  Sm  Sm0  1  0.250000  0.863019  0.572514  1
  Dy  Dy1  1  0.750000  0.137309  0.425286  1
  Dy  Dy2  1  0.750000  0.636245  0.074627  1
  Dy  Dy3  1  0.250000  0.363753  0.925803  1
  Dy  Dy4  1  0.250000  0.864861  0.744970  1
  Dy  Dy5  1  0.750000  0.134812  0.255382  1
  Dy  Dy6  1  0.750000  0.635257  0.244221  1
  Dy  Dy7  1  0.250000  0.365129  0.755921  1
  Dy  Dy8  1  0.250000  0.872698  0.165372  1
  Dy  Dy9  1  0.750000  0.127099  0.834679  1
  Dy  Dy10  1  0.750000  0.626496  0.666095  1
  Dy  Dy11  1  0.250000  0.373146  0.334079  1
  Dy  Dy12  1  0.250000  0.897891  0.331776  1
  Dy  Dy13  1  0.750000  0.102305  0.668104  1
  Dy  Dy14  1  0.750000  0.602831  0.832636  1
  Dy  Dy15  1  0.250000  0.397671  0.167563  1
  C  C16  1  0.250000  0.612904  0.751428  1
  C  C17  1  0.750000  0.385363  0.249155  1
  C  C18  1  0.750000  0.886199  0.250208  1
  C  C19  1  0.250000  0.115356  0.749837  1
  C  C20  1  0.250000  0.633768  0.152966  1
  C  C21  1  0.750000  0.366180  0.847675  1
  C  C22  1  0.750000  0.865502  0.655108  1
  C  C23  1  0.250000  0.134516  0.346734  1
  Cl  Cl24  1  0.250000  0.608406  0.558303  1
  Cl  Cl25  1  0.750000  0.385281  0.442335  1
  Cl  Cl26  1  0.750000  0.884010  0.057006  1
  Cl  Cl27  1  0.250000  0.116183  0.943221  1
  Cl  Cl28  1  0.250000  0.621372  0.953328  1
  Cl  Cl29  1  0.750000  0.378353  0.047126  1
  Cl  Cl30  1  0.750000  0.878915  0.449125  1
  Cl  Cl31  1  0.250000  0.127475  0.546405  1
  Cl  Cl32  1  0.250000  0.637136  0.354037  1
  Cl  Cl33  1  0.750000  0.362408  0.646477  1
  Cl  Cl34  1  0.750000  0.863279  0.855042  1
  Cl  Cl35  1  0.250000  0.136871  0.145454  1
