# generated using pymatgen
data_Dy2Al8SiIrRh2
_symmetry_space_group_name_H-M   'P 1'
_cell_length_a   7.52306232
_cell_length_b   7.52306305
_cell_length_c   9.36282716
_cell_angle_alpha   89.98945172
_cell_angle_beta   89.98945662
_cell_angle_gamma   119.50781770
_symmetry_Int_Tables_number   1
_chemical_formula_structural   Dy2Al8SiIrRh2
_chemical_formula_sum   'Dy4 Al16 Si2 Ir2 Rh4'
_cell_volume   461.16844385
_cell_formula_units_Z   2
loop_
 _symmetry_equiv_pos_site_id
 _symmetry_equiv_pos_as_xyz
  1  'x, y, z'
loop_
 _atom_site_type_symbol
 _atom_site_label
 _atom_site_symmetry_multiplicity
 _atom_site_fract_x
 _atom_site_fract_y
 _atom_site_fract_z
 _atom_site_occupancy
  Dy  Dy0  1  0.994933  0.674678  0.750215  1
  Dy  Dy1  1  0.005067  0.325322  0.249785  1
  Dy  Dy2  1  0.674678  0.994933  0.750215  1
  Dy  Dy3  1  0.325322  0.005067  0.249785  1
  Al  Al4  1  0.001340  0.336059  0.576531  1
  Al  Al5  1  0.998660  0.663941  0.423469  1
  Al  Al6  1  0.998621  0.663991  0.076561  1
  Al  Al7  1  0.336009  0.001379  0.923439  1
  Al  Al8  1  0.001379  0.336009  0.923439  1
  Al  Al9  1  0.663991  0.998621  0.076561  1
  Al  Al10  1  0.663941  0.998660  0.423469  1
  Al  Al11  1  0.336059  0.001340  0.576531  1
  Al  Al12  1  0.335209  0.335209  0.056635  1
  Al  Al13  1  0.664791  0.664791  0.943365  1
  Al  Al14  1  0.664451  0.664451  0.556764  1
  Al  Al15  1  0.335549  0.335549  0.443236  1
  Al  Al16  1  0.335149  0.548282  0.749265  1
  Al  Al17  1  0.664851  0.451718  0.250735  1
  Al  Al18  1  0.548282  0.335149  0.749265  1
  Al  Al19  1  0.451718  0.664851  0.250735  1
  Si  Si20  1  0.127868  0.127868  0.750064  1
  Si  Si21  1  0.872132  0.872132  0.249936  1
  Ir  Ir22  1  0.328141  0.671859  0.000000  1
  Ir  Ir23  1  0.671859  0.328141  0.000000  1
  Rh  Rh24  1  0.671664  0.328336  0.500000  1
  Rh  Rh25  1  0.328336  0.671664  0.500000  1
  Rh  Rh26  1  0.000000  0.000000  0.500000  1
  Rh  Rh27  1  0.000000  0.000000  0.000000  1
