# generated using pymatgen
data_Ta6RhS12
_symmetry_space_group_name_H-M   'P 1'
_cell_length_a   5.78152307
_cell_length_b   5.78152334
_cell_length_c   12.69216060
_cell_angle_alpha   85.65199165
_cell_angle_beta   85.65198861
_cell_angle_gamma   120.00508959
_symmetry_Int_Tables_number   1
_chemical_formula_structural   Ta6RhS12
_chemical_formula_sum   'Ta6 Rh1 S12'
_cell_volume   363.14235752
_cell_formula_units_Z   1
loop_
 _symmetry_equiv_pos_site_id
 _symmetry_equiv_pos_as_xyz
  1  'x, y, z'
loop_
 _atom_site_type_symbol
 _atom_site_label
 _atom_site_symmetry_multiplicity
 _atom_site_fract_x
 _atom_site_fract_y
 _atom_site_fract_z
 _atom_site_occupancy
  Ta  Ta0  1  0.080728  0.080728  0.757620  1
  Ta  Ta1  1  0.413166  0.746333  0.760558  1
  Ta  Ta2  1  0.746333  0.413166  0.760558  1
  Ta  Ta3  1  0.253667  0.586834  0.239442  1
  Ta  Ta4  1  0.586834  0.253667  0.239442  1
  Ta  Ta5  1  0.919272  0.919272  0.242380  1
  Rh  Rh6  1  0.000000  0.000000  0.000000  1
  S  S7  1  0.297405  0.297405  0.115821  1
  S  S8  1  0.625262  0.961277  0.115902  1
  S  S9  1  0.961277  0.625262  0.115902  1
  S  S10  1  0.038723  0.374738  0.884098  1
  S  S11  1  0.374738  0.038723  0.884098  1
  S  S12  1  0.702595  0.702595  0.884179  1
  S  S13  1  0.213325  0.213325  0.365386  1
  S  S14  1  0.543441  0.878467  0.365302  1
  S  S15  1  0.878467  0.543441  0.365302  1
  S  S16  1  0.121533  0.456559  0.634698  1
  S  S17  1  0.456559  0.121533  0.634698  1
  S  S18  1  0.786675  0.786675  0.634614  1
