# generated using pymatgen
data_Dy4Y6(BiPb)3
_symmetry_space_group_name_H-M   'P 1'
_cell_length_a   9.15502700
_cell_length_b   9.15502729
_cell_length_c   6.49869900
_cell_angle_alpha   90.00000000
_cell_angle_beta   90.00000000
_cell_angle_gamma   120.00000257
_symmetry_Int_Tables_number   1
_chemical_formula_structural   Dy4Y6(BiPb)3
_chemical_formula_sum   'Dy4 Y6 Bi3 Pb3'
_cell_volume   471.71133835
_cell_formula_units_Z   1
loop_
 _symmetry_equiv_pos_site_id
 _symmetry_equiv_pos_as_xyz
  1  'x, y, z'
loop_
 _atom_site_type_symbol
 _atom_site_label
 _atom_site_symmetry_multiplicity
 _atom_site_fract_x
 _atom_site_fract_y
 _atom_site_fract_z
 _atom_site_occupancy
  Dy  Dy0  1  0.666667  0.333333  0.002701  1
  Dy  Dy1  1  0.333333  0.666667  0.002701  1
  Dy  Dy2  1  0.333333  0.666667  0.497299  1
  Dy  Dy3  1  0.666667  0.333333  0.497299  1
  Y  Y4  1  0.761628  0.761628  0.750000  1
  Y  Y5  1  0.238372  0.000000  0.750000  1
  Y  Y6  1  0.000000  0.238372  0.750000  1
  Y  Y7  1  0.238836  0.238836  0.250000  1
  Y  Y8  1  0.761164  0.000000  0.250000  1
  Y  Y9  1  0.000000  0.761164  0.250000  1
  Bi  Bi10  1  0.393511  0.393511  0.750000  1
  Bi  Bi11  1  0.606489  0.000000  0.750000  1
  Bi  Bi12  1  0.000000  0.606489  0.750000  1
  Pb  Pb13  1  0.606559  0.606559  0.250000  1
  Pb  Pb14  1  0.393441  0.000000  0.250000  1
  Pb  Pb15  1  0.000000  0.393441  0.250000  1
