# generated using pymatgen
data_Sm5Ag3(PRh3)4
_symmetry_space_group_name_H-M   'P 1'
_cell_length_a   4.12776300
_cell_length_b   4.12776300
_cell_length_c   24.95846600
_cell_angle_alpha   90.00000000
_cell_angle_beta   90.00000000
_cell_angle_gamma   90.00000000
_symmetry_Int_Tables_number   1
_chemical_formula_structural   Sm5Ag3(PRh3)4
_chemical_formula_sum   'Sm5 Ag3 P4 Rh12'
_cell_volume   425.25301056
_cell_formula_units_Z   1
loop_
 _symmetry_equiv_pos_site_id
 _symmetry_equiv_pos_as_xyz
  1  'x, y, z'
loop_
 _atom_site_type_symbol
 _atom_site_label
 _atom_site_symmetry_multiplicity
 _atom_site_fract_x
 _atom_site_fract_y
 _atom_site_fract_z
 _atom_site_occupancy
  Sm  Sm0  1  0.000000  0.000000  0.886404  1
  Sm  Sm1  1  0.000000  0.000000  0.113596  1
  Sm  Sm2  1  0.000000  0.000000  0.306387  1
  Sm  Sm3  1  0.000000  0.000000  0.500000  1
  Sm  Sm4  1  0.000000  0.000000  0.693613  1
  Ag  Ag5  1  0.500000  0.500000  0.500000  1
  Ag  Ag6  1  0.500000  0.000000  0.000000  1
  Ag  Ag7  1  0.000000  0.500000  0.000000  1
  P  P8  1  0.500000  0.500000  0.166141  1
  P  P9  1  0.500000  0.500000  0.372836  1
  P  P10  1  0.500000  0.500000  0.627164  1
  P  P11  1  0.500000  0.500000  0.833859  1
  Rh  Rh12  1  0.500000  0.500000  0.923564  1
  Rh  Rh13  1  0.500000  0.500000  0.076436  1
  Rh  Rh14  1  0.500000  0.500000  0.284823  1
  Rh  Rh15  1  0.500000  0.500000  0.715177  1
  Rh  Rh16  1  0.500000  0.000000  0.209977  1
  Rh  Rh17  1  0.500000  0.000000  0.414070  1
  Rh  Rh18  1  0.500000  0.000000  0.585930  1
  Rh  Rh19  1  0.500000  0.000000  0.790023  1
  Rh  Rh20  1  0.000000  0.500000  0.209977  1
  Rh  Rh21  1  0.000000  0.500000  0.414070  1
  Rh  Rh22  1  0.000000  0.500000  0.585930  1
  Rh  Rh23  1  0.000000  0.500000  0.790023  1
