# generated using pymatgen
data_Ho2LuSc2Pb3
_symmetry_space_group_name_H-M   'P 1'
_cell_length_a   8.84769358
_cell_length_b   8.83389706
_cell_length_c   6.34141300
_cell_angle_alpha   90.00000000
_cell_angle_beta   90.00000000
_cell_angle_gamma   119.94843681
_symmetry_Int_Tables_number   1
_chemical_formula_structural   Ho2LuSc2Pb3
_chemical_formula_sum   'Ho4 Lu2 Sc4 Pb6'
_cell_volume   429.46175707
_cell_formula_units_Z   2
loop_
 _symmetry_equiv_pos_site_id
 _symmetry_equiv_pos_as_xyz
  1  'x, y, z'
loop_
 _atom_site_type_symbol
 _atom_site_label
 _atom_site_symmetry_multiplicity
 _atom_site_fract_x
 _atom_site_fract_y
 _atom_site_fract_z
 _atom_site_occupancy
  Ho  Ho0  1  0.237181  0.999961  0.250000  1
  Ho  Ho1  1  0.237181  0.237219  0.750000  1
  Ho  Ho2  1  0.999491  0.763485  0.750000  1
  Ho  Ho3  1  0.999491  0.236006  0.250000  1
  Lu  Lu4  1  0.763340  0.763809  0.250000  1
  Lu  Lu5  1  0.763340  0.999530  0.750000  1
  Sc  Sc6  1  0.333163  0.666582  0.000000  1
  Sc  Sc7  1  0.666992  0.333495  0.500000  1
  Sc  Sc8  1  0.666992  0.333495  0.000000  1
  Sc  Sc9  1  0.333163  0.666582  0.500000  1
  Pb  Pb10  1  0.600977  0.998922  0.250000  1
  Pb  Pb11  1  0.600977  0.602055  0.750000  1
  Pb  Pb12  1  0.998967  0.398005  0.750000  1
  Pb  Pb13  1  0.998967  0.600961  0.250000  1
  Pb  Pb14  1  0.399890  0.400017  0.250000  1
  Pb  Pb15  1  0.399890  0.999873  0.750000  1
