# generated using pymatgen
data_NdHo3ScBi3
_symmetry_space_group_name_H-M   'P 1'
_cell_length_a   8.23839600
_cell_length_b   9.42040500
_cell_length_c   12.06397500
_cell_angle_alpha   90.00000000
_cell_angle_beta   90.00000000
_cell_angle_gamma   90.00000000
_symmetry_Int_Tables_number   1
_chemical_formula_structural   NdHo3ScBi3
_chemical_formula_sum   'Nd4 Ho12 Sc4 Bi12'
_cell_volume   936.27335994
_cell_formula_units_Z   4
loop_
 _symmetry_equiv_pos_site_id
 _symmetry_equiv_pos_as_xyz
  1  'x, y, z'
loop_
 _atom_site_type_symbol
 _atom_site_label
 _atom_site_symmetry_multiplicity
 _atom_site_fract_x
 _atom_site_fract_y
 _atom_site_fract_z
 _atom_site_occupancy
  Nd  Nd0  1  0.171185  0.750000  0.226570  1
  Nd  Nd1  1  0.328815  0.750000  0.726570  1
  Nd  Nd2  1  0.828815  0.250000  0.773430  1
  Nd  Nd3  1  0.671185  0.250000  0.273430  1
  Ho  Ho4  1  0.806853  0.563922  0.063321  1
  Ho  Ho5  1  0.693147  0.936078  0.563321  1
  Ho  Ho6  1  0.193147  0.063922  0.936679  1
  Ho  Ho7  1  0.306853  0.436078  0.436679  1
  Ho  Ho8  1  0.193147  0.436078  0.936679  1
  Ho  Ho9  1  0.306853  0.063922  0.436679  1
  Ho  Ho10  1  0.806853  0.936078  0.063321  1
  Ho  Ho11  1  0.693147  0.563922  0.563321  1
  Ho  Ho12  1  0.664172  0.750000  0.288465  1
  Ho  Ho13  1  0.835828  0.750000  0.788465  1
  Ho  Ho14  1  0.335828  0.250000  0.711535  1
  Ho  Ho15  1  0.164172  0.250000  0.211535  1
  Sc  Sc16  1  0.476819  0.750000  0.003923  1
  Sc  Sc17  1  0.023181  0.750000  0.503923  1
  Sc  Sc18  1  0.523181  0.250000  0.996077  1
  Sc  Sc19  1  0.976819  0.250000  0.496077  1
  Bi  Bi20  1  0.397916  0.750000  0.466687  1
  Bi  Bi21  1  0.102084  0.750000  0.966687  1
  Bi  Bi22  1  0.602084  0.250000  0.533313  1
  Bi  Bi23  1  0.897916  0.250000  0.033313  1
  Bi  Bi24  1  0.936520  0.506929  0.333697  1
  Bi  Bi25  1  0.563480  0.993071  0.833697  1
  Bi  Bi26  1  0.063480  0.006929  0.666303  1
  Bi  Bi27  1  0.436520  0.493071  0.166303  1
  Bi  Bi28  1  0.063480  0.493071  0.666303  1
  Bi  Bi29  1  0.436520  0.006929  0.166303  1
  Bi  Bi30  1  0.936520  0.993071  0.333697  1
  Bi  Bi31  1  0.563480  0.506929  0.833697  1
