# generated using pymatgen
data_LaIn2(SnIr)4
_symmetry_space_group_name_H-M   'P 1'
_cell_length_a   7.05089279
_cell_length_b   7.05089309
_cell_length_c   7.02219889
_cell_angle_alpha   120.24325361
_cell_angle_beta   120.24325216
_cell_angle_gamma   89.81407708
_symmetry_Int_Tables_number   1
_chemical_formula_structural   LaIn2(SnIr)4
_chemical_formula_sum   'La1 In2 Sn4 Ir4'
_cell_volume   245.43756467
_cell_formula_units_Z   1
loop_
 _symmetry_equiv_pos_site_id
 _symmetry_equiv_pos_as_xyz
  1  'x, y, z'
loop_
 _atom_site_type_symbol
 _atom_site_label
 _atom_site_symmetry_multiplicity
 _atom_site_fract_x
 _atom_site_fract_y
 _atom_site_fract_z
 _atom_site_occupancy
  La  La0  1  0.998501  0.998501  0.000000  1
  In  In1  1  0.876224  0.535341  0.000000  1
  In  In2  1  0.535341  0.876224  0.000000  1
  Sn  Sn3  1  0.465474  0.465474  0.339517  1
  Sn  Sn4  1  0.499586  0.999586  0.500000  1
  Sn  Sn5  1  0.999586  0.499586  0.500000  1
  Sn  Sn6  1  0.125957  0.125957  0.660484  1
  Ir  Ir7  1  0.601349  0.249292  0.000000  1
  Ir  Ir8  1  0.249292  0.601349  0.000000  1
  Ir  Ir9  1  0.760083  0.760083  0.371475  1
  Ir  Ir10  1  0.388608  0.388608  0.628525  1
