# generated using pymatgen
data_NdCl37
_symmetry_space_group_name_H-M   'P 1'
_cell_length_a   12.78763379
_cell_length_b   13.76759013
_cell_length_c   12.98174600
_cell_angle_alpha   103.00376751
_cell_angle_beta   48.80056927
_cell_angle_gamma   81.50743368
_symmetry_Int_Tables_number   1
_chemical_formula_structural   NdCl37
_chemical_formula_sum   'Nd1 Cl37'
_cell_volume   1533.02354663
_cell_formula_units_Z   1
loop_
 _symmetry_equiv_pos_site_id
 _symmetry_equiv_pos_as_xyz
  1  'x, y, z'
loop_
 _atom_site_type_symbol
 _atom_site_label
 _atom_site_symmetry_multiplicity
 _atom_site_fract_x
 _atom_site_fract_y
 _atom_site_fract_z
 _atom_site_occupancy
  Nd  Nd0  1  0.500000  0.000000  0.000000  1
  Cl  Cl1  1  0.776496  0.313468  0.167850  1
  Cl  Cl2  1  0.223504  0.686532  0.832150  1
  Cl  Cl3  1  0.723873  0.076812  0.365157  1
  Cl  Cl4  1  0.276127  0.923188  0.634843  1
  Cl  Cl5  1  0.101928  0.324283  0.151891  1
  Cl  Cl6  1  0.898072  0.675717  0.848109  1
  Cl  Cl7  1  0.865678  0.540958  0.249192  1
  Cl  Cl8  1  0.134322  0.459042  0.750808  1
  Cl  Cl9  1  0.683849  0.286347  0.535502  1
  Cl  Cl10  1  0.316151  0.713653  0.464498  1
  Cl  Cl11  1  0.049403  0.137151  0.481178  1
  Cl  Cl12  1  0.950597  0.862849  0.518822  1
  Cl  Cl13  1  0.994443  0.999832  0.271327  1
  Cl  Cl14  1  0.005557  0.000168  0.728673  1
  Cl  Cl15  1  0.945865  0.366695  0.626609  1
  Cl  Cl16  1  0.054135  0.633305  0.373391  1
  Cl  Cl17  1  0.586577  0.419496  0.243183  1
  Cl  Cl18  1  0.413423  0.580504  0.756817  1
  Cl  Cl19  1  0.177725  0.469277  0.264495  1
  Cl  Cl20  1  0.822275  0.530723  0.735505  1
  Cl  Cl21  1  0.000000  0.500000  0.000000  1
  Cl  Cl22  1  0.568960  0.950492  0.148608  1
  Cl  Cl23  1  0.431040  0.049508  0.851392  1
  Cl  Cl24  1  0.291326  0.046554  0.327764  1
  Cl  Cl25  1  0.708674  0.953446  0.672236  1
  Cl  Cl26  1  0.530688  0.119888  0.412663  1
  Cl  Cl27  1  0.469312  0.880112  0.587337  1
  Cl  Cl28  1  0.073474  0.203213  0.063244  1
  Cl  Cl29  1  0.926526  0.796787  0.936756  1
  Cl  Cl30  1  0.678345  0.691838  0.391635  1
  Cl  Cl31  1  0.321655  0.308162  0.608365  1
  Cl  Cl32  1  0.904335  0.135904  0.916355  1
  Cl  Cl33  1  0.095665  0.864096  0.083645  1
  Cl  Cl34  1  0.464998  0.203704  0.093944  1
  Cl  Cl35  1  0.535002  0.796296  0.906056  1
  Cl  Cl36  1  0.667999  0.425469  0.645963  1
  Cl  Cl37  1  0.332001  0.574531  0.354037  1
