# generated using pymatgen
data_Dy4RuI4
_symmetry_space_group_name_H-M   'P 1'
_cell_length_a   11.66611624
_cell_length_b   11.66611870
_cell_length_c   6.19602406
_cell_angle_alpha   90.04484557
_cell_angle_beta   90.04484936
_cell_angle_gamma   89.94994185
_symmetry_Int_Tables_number   1
_chemical_formula_structural   Dy4RuI4
_chemical_formula_sum   'Dy8 Ru2 I8'
_cell_volume   843.26748396
_cell_formula_units_Z   2
loop_
 _symmetry_equiv_pos_site_id
 _symmetry_equiv_pos_as_xyz
  1  'x, y, z'
loop_
 _atom_site_type_symbol
 _atom_site_label
 _atom_site_symmetry_multiplicity
 _atom_site_fract_x
 _atom_site_fract_y
 _atom_site_fract_z
 _atom_site_occupancy
  Dy  Dy0  1  0.808402  0.079060  0.001070  1
  Dy  Dy1  1  0.079060  0.808402  0.501070  1
  Dy  Dy2  1  0.078533  0.191583  0.001100  1
  Dy  Dy3  1  0.191583  0.078533  0.501100  1
  Dy  Dy4  1  0.921467  0.808417  0.998900  1
  Dy  Dy5  1  0.920940  0.191598  0.498930  1
  Dy  Dy6  1  0.191598  0.920940  0.998930  1
  Dy  Dy7  1  0.808417  0.921467  0.498900  1
  Ru  Ru8  1  0.000192  0.999808  0.250000  1
  Ru  Ru9  1  0.999808  0.000192  0.750000  1
  I  I10  1  0.653845  0.143499  0.487608  1
  I  I11  1  0.855287  0.655632  0.507244  1
  I  I12  1  0.344368  0.144713  0.992756  1
  I  I13  1  0.144713  0.344368  0.492756  1
  I  I14  1  0.655632  0.855287  0.007244  1
  I  I15  1  0.346155  0.856501  0.512392  1
  I  I16  1  0.143499  0.653845  0.987608  1
  I  I17  1  0.856501  0.346155  0.012392  1
