# generated using pymatgen
data_Ho2Tm2Sc3AlPt4
_symmetry_space_group_name_H-M   'P 1'
_cell_length_a   4.49607400
_cell_length_b   6.98532349
_cell_length_c   8.27207634
_cell_angle_alpha   86.91596062
_cell_angle_beta   90.00000000
_cell_angle_gamma   90.00000000
_symmetry_Int_Tables_number   1
_chemical_formula_structural   Ho2Tm2Sc3AlPt4
_chemical_formula_sum   'Ho2 Tm2 Sc3 Al1 Pt4'
_cell_volume   259.42095934
_cell_formula_units_Z   1
loop_
 _symmetry_equiv_pos_site_id
 _symmetry_equiv_pos_as_xyz
  1  'x, y, z'
loop_
 _atom_site_type_symbol
 _atom_site_label
 _atom_site_symmetry_multiplicity
 _atom_site_fract_x
 _atom_site_fract_y
 _atom_site_fract_z
 _atom_site_occupancy
  Ho  Ho0  1  0.250000  0.039310  0.671638  1
  Ho  Ho1  1  0.750000  0.989141  0.340567  1
  Tm  Tm2  1  0.250000  0.520947  0.815641  1
  Tm  Tm3  1  0.750000  0.468250  0.182877  1
  Sc  Sc4  1  0.250000  0.133836  0.070263  1
  Sc  Sc5  1  0.250000  0.639894  0.435383  1
  Sc  Sc6  1  0.750000  0.861228  0.929042  1
  Al  Al7  1  0.750000  0.361057  0.567847  1
  Pt  Pt8  1  0.250000  0.264426  0.382799  1
  Pt  Pt9  1  0.250000  0.743528  0.100705  1
  Pt  Pt10  1  0.750000  0.731180  0.615947  1
  Pt  Pt11  1  0.750000  0.247201  0.887294  1
