# generated using pymatgen
data_TbDy2Cd3Hg2Au
_symmetry_space_group_name_H-M   'P 1'
_cell_length_a   8.09507500
_cell_length_b   8.09968856
_cell_length_c   3.83046900
_cell_angle_alpha   90.00000000
_cell_angle_beta   90.00000000
_cell_angle_gamma   119.98478869
_symmetry_Int_Tables_number   1
_chemical_formula_structural   TbDy2Cd3Hg2Au
_chemical_formula_sum   'Tb1 Dy2 Cd3 Hg2 Au1'
_cell_volume   217.53960152
_cell_formula_units_Z   1
loop_
 _symmetry_equiv_pos_site_id
 _symmetry_equiv_pos_as_xyz
  1  'x, y, z'
loop_
 _atom_site_type_symbol
 _atom_site_label
 _atom_site_symmetry_multiplicity
 _atom_site_fract_x
 _atom_site_fract_y
 _atom_site_fract_z
 _atom_site_occupancy
  Tb  Tb0  1  0.602655  0.013830  0.000000  1
  Dy  Dy1  1  0.986037  0.588736  0.000000  1
  Dy  Dy2  1  0.411308  0.397336  0.000000  1
  Cd  Cd3  1  0.273229  0.000764  0.500000  1
  Cd  Cd4  1  0.999410  0.272793  0.500000  1
  Cd  Cd5  1  0.727380  0.726465  0.500000  1
  Hg  Hg6  1  0.333066  0.666296  0.500000  1
  Hg  Hg7  1  0.000128  0.999992  0.000000  1
  Au  Au8  1  0.666787  0.333786  0.500000  1
