# generated using pymatgen
data_TbDyZn(PRh2)6
_symmetry_space_group_name_H-M   'P 1'
_cell_length_a   9.66739000
_cell_length_b   9.66738885
_cell_length_c   3.89328200
_cell_angle_alpha   90.00000000
_cell_angle_beta   90.00000000
_cell_angle_gamma   120.00000394
_symmetry_Int_Tables_number   1
_chemical_formula_structural   TbDyZn(PRh2)6
_chemical_formula_sum   'Tb1 Dy1 Zn1 P6 Rh12'
_cell_volume   315.11197159
_cell_formula_units_Z   1
loop_
 _symmetry_equiv_pos_site_id
 _symmetry_equiv_pos_as_xyz
  1  'x, y, z'
loop_
 _atom_site_type_symbol
 _atom_site_label
 _atom_site_symmetry_multiplicity
 _atom_site_fract_x
 _atom_site_fract_y
 _atom_site_fract_z
 _atom_site_occupancy
  Tb  Tb0  1  0.333333  0.666667  0.753060  1
  Dy  Dy1  1  0.666667  0.333333  0.246937  1
  Zn  Zn2  1  0.000000  0.000000  0.499992  1
  P  P3  1  0.401835  0.284665  0.748351  1
  P  P4  1  0.715335  0.117170  0.748351  1
  P  P5  1  0.882830  0.598165  0.748351  1
  P  P6  1  0.598220  0.715357  0.251647  1
  P  P7  1  0.284643  0.882863  0.251647  1
  P  P8  1  0.117137  0.401780  0.251647  1
  Rh  Rh9  1  0.452002  0.065733  0.749132  1
  Rh  Rh10  1  0.934267  0.386270  0.749132  1
  Rh  Rh11  1  0.613730  0.547998  0.749132  1
  Rh  Rh12  1  0.548111  0.934407  0.250870  1
  Rh  Rh13  1  0.065593  0.613705  0.250870  1
  Rh  Rh14  1  0.386295  0.451889  0.250870  1
  Rh  Rh15  1  0.158704  0.283602  0.753578  1
  Rh  Rh16  1  0.716398  0.875103  0.753578  1
  Rh  Rh17  1  0.124897  0.841296  0.753578  1
  Rh  Rh18  1  0.841297  0.716361  0.246425  1
  Rh  Rh19  1  0.283639  0.124935  0.246425  1
  Rh  Rh20  1  0.875065  0.158703  0.246425  1
