# generated using pymatgen
data_Nd16Y4Ir5Rh7
_symmetry_space_group_name_H-M   'P 1'
_cell_length_a   11.18790627
_cell_length_b   11.18790627
_cell_length_c   6.57604729
_cell_angle_alpha   90.02433812
_cell_angle_beta   90.02433812
_cell_angle_gamma   90.00588680
_symmetry_Int_Tables_number   1
_chemical_formula_structural   Nd16Y4Ir5Rh7
_chemical_formula_sum   'Nd16 Y4 Ir5 Rh7'
_cell_volume   823.11873312
_cell_formula_units_Z   1
loop_
 _symmetry_equiv_pos_site_id
 _symmetry_equiv_pos_as_xyz
  1  'x, y, z'
loop_
 _atom_site_type_symbol
 _atom_site_label
 _atom_site_symmetry_multiplicity
 _atom_site_fract_x
 _atom_site_fract_y
 _atom_site_fract_z
 _atom_site_occupancy
  Nd  Nd0  1  0.289501  0.087995  0.381190  1
  Nd  Nd1  1  0.289322  0.910083  0.882640  1
  Nd  Nd2  1  0.710090  0.089375  0.881979  1
  Nd  Nd3  1  0.709790  0.910531  0.381640  1
  Nd  Nd4  1  0.587030  0.788198  0.883033  1
  Nd  Nd5  1  0.586780  0.211784  0.383038  1
  Nd  Nd6  1  0.411465  0.788548  0.382871  1
  Nd  Nd7  1  0.412880  0.211741  0.882824  1
  Nd  Nd8  1  0.211802  0.412970  0.616967  1
  Nd  Nd9  1  0.211452  0.588535  0.117129  1
  Nd  Nd10  1  0.788216  0.413220  0.116962  1
  Nd  Nd11  1  0.788259  0.587120  0.617176  1
  Nd  Nd12  1  0.912005  0.710499  0.118810  1
  Nd  Nd13  1  0.910625  0.289910  0.618021  1
  Nd  Nd14  1  0.089917  0.710678  0.617360  1
  Nd  Nd15  1  0.089469  0.290210  0.118360  1
  Y  Y16  1  0.000388  0.999475  0.499753  1
  Y  Y17  1  0.000525  0.999612  0.000247  1
  Y  Y18  1  0.499948  0.499933  0.000141  1
  Y  Y19  1  0.500067  0.500052  0.499859  1
  Ir  Ir20  1  0.149888  0.850112  0.250000  1
  Ir  Ir21  1  0.651422  0.348578  0.750000  1
  Ir  Ir22  1  0.651454  0.651268  0.249946  1
  Ir  Ir23  1  0.348732  0.348546  0.250054  1
  Ir  Ir24  1  0.349068  0.650932  0.750000  1
  Rh  Rh25  1  0.849631  0.150369  0.250000  1
  Rh  Rh26  1  0.849352  0.849628  0.749932  1
  Rh  Rh27  1  0.150372  0.150648  0.750068  1
  Rh  Rh28  1  0.500642  0.000252  0.120248  1
  Rh  Rh29  1  0.500291  0.000129  0.620711  1
  Rh  Rh30  1  0.999871  0.499709  0.879289  1
  Rh  Rh31  1  0.999748  0.499358  0.379752  1
