# generated using pymatgen
data_HoTm2In3AgRh2
_symmetry_space_group_name_H-M   'P 1'
_cell_length_a   7.76098527
_cell_length_b   7.75747194
_cell_length_c   3.77424300
_cell_angle_alpha   90.00000000
_cell_angle_beta   90.00000000
_cell_angle_gamma   120.04537697
_symmetry_Int_Tables_number   1
_chemical_formula_structural   HoTm2In3AgRh2
_chemical_formula_sum   'Ho1 Tm2 In3 Ag1 Rh2'
_cell_volume   196.69748206
_cell_formula_units_Z   1
loop_
 _symmetry_equiv_pos_site_id
 _symmetry_equiv_pos_as_xyz
  1  'x, y, z'
loop_
 _atom_site_type_symbol
 _atom_site_label
 _atom_site_symmetry_multiplicity
 _atom_site_fract_x
 _atom_site_fract_y
 _atom_site_fract_z
 _atom_site_occupancy
  Ho  Ho0  1  0.971981  0.382262  0.500000  1
  Tm  Tm1  1  0.618766  0.589514  0.500000  1
  Tm  Tm2  1  0.409735  0.029119  0.500000  1
  In  In3  1  0.259520  0.264914  0.000000  1
  In  In4  1  0.005470  0.740451  0.000000  1
  In  In5  1  0.734827  0.994196  0.000000  1
  Ag  Ag6  1  0.334329  0.667377  0.000000  1
  Rh  Rh7  1  0.999942  0.999226  0.500000  1
  Rh  Rh8  1  0.665431  0.332942  0.000000  1
