# generated using pymatgen
data_Tb2ErTaO7
_symmetry_space_group_name_H-M   'P 1'
_cell_length_a   6.49177571
_cell_length_b   6.49177517
_cell_length_c   7.48703195
_cell_angle_alpha   89.94124049
_cell_angle_beta   89.94123674
_cell_angle_gamma   108.70862040
_symmetry_Int_Tables_number   1
_chemical_formula_structural   Tb2ErTaO7
_chemical_formula_sum   'Tb4 Er2 Ta2 O14'
_cell_volume   298.85482383
_cell_formula_units_Z   2
loop_
 _symmetry_equiv_pos_site_id
 _symmetry_equiv_pos_as_xyz
  1  'x, y, z'
loop_
 _atom_site_type_symbol
 _atom_site_label
 _atom_site_symmetry_multiplicity
 _atom_site_fract_x
 _atom_site_fract_y
 _atom_site_fract_z
 _atom_site_occupancy
  Tb  Tb0  1  0.000101  0.465427  0.742573  1
  Tb  Tb1  1  0.534573  0.999899  0.757427  1
  Tb  Tb2  1  0.535251  0.533926  0.498724  1
  Tb  Tb3  1  0.466074  0.464749  0.001276  1
  Er  Er4  1  0.464860  0.999201  0.257816  1
  Er  Er5  1  0.000799  0.535140  0.242184  1
  Ta  Ta6  1  0.002704  0.003409  0.498336  1
  Ta  Ta7  1  0.996591  0.997296  0.001664  1
  O  O8  1  0.069885  0.930115  0.250000  1
  O  O9  1  0.049584  0.308925  0.454297  1
  O  O10  1  0.080043  0.326957  0.028079  1
  O  O11  1  0.358126  0.641874  0.250000  1
  O  O12  1  0.370674  0.629326  0.750000  1
  O  O13  1  0.327741  0.081780  0.977168  1
  O  O14  1  0.310919  0.054509  0.539353  1
  O  O15  1  0.691075  0.950416  0.045703  1
  O  O16  1  0.673043  0.919957  0.471921  1
  O  O17  1  0.631386  0.368614  0.250000  1
  O  O18  1  0.638432  0.361568  0.750000  1
  O  O19  1  0.918220  0.672259  0.522832  1
  O  O20  1  0.945491  0.689081  0.960647  1
  O  O21  1  0.934429  0.065571  0.750000  1
