# generated using pymatgen
data_Y6GaTe2
_symmetry_space_group_name_H-M   'P 1'
_cell_length_a   4.18229000
_cell_length_b   11.55312600
_cell_length_c   21.50350800
_cell_angle_alpha   90.00000000
_cell_angle_beta   90.00000000
_cell_angle_gamma   90.00000000
_symmetry_Int_Tables_number   1
_chemical_formula_structural   Y6GaTe2
_chemical_formula_sum   'Y24 Ga4 Te8'
_cell_volume   1039.01775316
_cell_formula_units_Z   4
loop_
 _symmetry_equiv_pos_site_id
 _symmetry_equiv_pos_as_xyz
  1  'x, y, z'
loop_
 _atom_site_type_symbol
 _atom_site_label
 _atom_site_symmetry_multiplicity
 _atom_site_fract_x
 _atom_site_fract_y
 _atom_site_fract_z
 _atom_site_occupancy
  Y  Y0  1  0.750000  0.577826  0.854564  1
  Y  Y1  1  0.250000  0.168396  0.390649  1
  Y  Y2  1  0.250000  0.888547  0.490455  1
  Y  Y3  1  0.750000  0.831604  0.609351  1
  Y  Y4  1  0.750000  0.878312  0.974095  1
  Y  Y5  1  0.750000  0.621688  0.474095  1
  Y  Y6  1  0.750000  0.388547  0.009545  1
  Y  Y7  1  0.250000  0.422174  0.145436  1
  Y  Y8  1  0.250000  0.077826  0.645436  1
  Y  Y9  1  0.250000  0.745166  0.232213  1
  Y  Y10  1  0.250000  0.039082  0.844463  1
  Y  Y11  1  0.250000  0.754834  0.732213  1
  Y  Y12  1  0.750000  0.254834  0.767787  1
  Y  Y13  1  0.750000  0.668396  0.109351  1
  Y  Y14  1  0.250000  0.121688  0.025905  1
  Y  Y15  1  0.750000  0.245166  0.267787  1
  Y  Y16  1  0.750000  0.539082  0.655537  1
  Y  Y17  1  0.250000  0.460918  0.344463  1
  Y  Y18  1  0.750000  0.960918  0.155537  1
  Y  Y19  1  0.750000  0.111453  0.509545  1
  Y  Y20  1  0.250000  0.331604  0.890649  1
  Y  Y21  1  0.750000  0.922174  0.354564  1
  Y  Y22  1  0.250000  0.611453  0.990455  1
  Y  Y23  1  0.250000  0.378312  0.525905  1
  Ga  Ga24  1  0.750000  0.142588  0.925910  1
  Ga  Ga25  1  0.250000  0.857412  0.074090  1
  Ga  Ga26  1  0.250000  0.642588  0.574090  1
  Ga  Ga27  1  0.750000  0.357412  0.425910  1
  Te  Te28  1  0.750000  0.968609  0.739497  1
  Te  Te29  1  0.750000  0.278925  0.624500  1
  Te  Te30  1  0.250000  0.778925  0.875500  1
  Te  Te31  1  0.250000  0.031391  0.260503  1
  Te  Te32  1  0.250000  0.721075  0.375500  1
  Te  Te33  1  0.250000  0.468609  0.760503  1
  Te  Te34  1  0.750000  0.221075  0.124500  1
  Te  Te35  1  0.750000  0.531391  0.239497  1
