# generated using pymatgen
data_Rb3Ac(TaSe4)2
_symmetry_space_group_name_H-M   'P 1'
_cell_length_a   9.57169634
_cell_length_b   11.11335089
_cell_length_c   12.09316600
_cell_angle_alpha   107.15492850
_cell_angle_beta   101.78680306
_cell_angle_gamma   114.59315240
_symmetry_Int_Tables_number   1
_chemical_formula_structural   Rb3Ac(TaSe4)2
_chemical_formula_sum   'Rb6 Ac2 Ta4 Se16'
_cell_volume   1035.46749436
_cell_formula_units_Z   2
loop_
 _symmetry_equiv_pos_site_id
 _symmetry_equiv_pos_as_xyz
  1  'x, y, z'
loop_
 _atom_site_type_symbol
 _atom_site_label
 _atom_site_symmetry_multiplicity
 _atom_site_fract_x
 _atom_site_fract_y
 _atom_site_fract_z
 _atom_site_occupancy
  Rb  Rb0  1  0.500001  0.500000  0.000000  1
  Rb  Rb1  1  0.000000  0.500001  0.000000  1
  Rb  Rb2  1  0.253214  0.003274  0.006349  1
  Rb  Rb3  1  0.490240  0.740279  0.480316  1
  Rb  Rb4  1  0.509760  0.259720  0.519686  1
  Rb  Rb5  1  0.746787  0.996727  0.993651  1
  Ac  Ac6  1  0.990827  0.240706  0.481380  1
  Ac  Ac7  1  0.009174  0.759294  0.518621  1
  Ta  Ta8  1  0.011426  0.905772  0.251534  1
  Ta  Ta9  1  0.740442  0.345745  0.251542  1
  Ta  Ta10  1  0.259559  0.654256  0.748459  1
  Ta  Ta11  1  0.988575  0.094228  0.748466  1
  Se  Se12  1  0.886142  0.758205  0.030854  1
  Se  Se13  1  0.644818  0.272304  0.030804  1
  Se  Se14  1  0.144094  0.160123  0.285693  1
  Se  Se15  1  0.641894  0.125680  0.285808  1
  Se  Se16  1  0.807739  0.868266  0.347056  1
  Se  Se17  1  0.039565  0.478983  0.347242  1
  Se  Se18  1  0.211810  0.854030  0.350888  1
  Se  Se19  1  0.639101  0.496539  0.350870  1
  Se  Se20  1  0.360899  0.503461  0.649129  1
  Se  Se21  1  0.788189  0.145969  0.649112  1
  Se  Se22  1  0.960436  0.521017  0.652758  1
  Se  Se23  1  0.192261  0.131733  0.652943  1
  Se  Se24  1  0.358103  0.874320  0.714192  1
  Se  Se25  1  0.855906  0.839876  0.714306  1
  Se  Se26  1  0.355183  0.727696  0.969197  1
  Se  Se27  1  0.113857  0.241795  0.969146  1
