# generated using pymatgen
data_Pr7As12Pd17
_symmetry_space_group_name_H-M   'P 1'
_cell_length_a   12.80066078
_cell_length_b   12.80066172
_cell_length_c   14.01578475
_cell_angle_alpha   68.67974498
_cell_angle_beta   68.67974389
_cell_angle_gamma   18.88765787
_symmetry_Int_Tables_number   1
_chemical_formula_structural   Pr7As12Pd17
_chemical_formula_sum   'Pr7 As12 Pd17'
_cell_volume   691.09573084
_cell_formula_units_Z   1
loop_
 _symmetry_equiv_pos_site_id
 _symmetry_equiv_pos_as_xyz
  1  'x, y, z'
loop_
 _atom_site_type_symbol
 _atom_site_label
 _atom_site_symmetry_multiplicity
 _atom_site_fract_x
 _atom_site_fract_y
 _atom_site_fract_z
 _atom_site_occupancy
  Pr  Pr0  1  0.500000  0.500000  0.500000  1
  Pr  Pr1  1  0.367138  0.367138  0.000654  1
  Pr  Pr2  1  0.632862  0.632862  0.999346  1
  Pr  Pr3  1  0.233252  0.233252  0.313193  1
  Pr  Pr4  1  0.766748  0.766748  0.686807  1
  Pr  Pr5  1  0.418788  0.418788  0.260499  1
  Pr  Pr6  1  0.581212  0.581212  0.739501  1
  As  As7  1  0.061884  0.061884  0.924664  1
  As  As8  1  0.938116  0.938116  0.075336  1
  As  As9  1  0.884764  0.884764  0.828890  1
  As  As10  1  0.115236  0.115236  0.171110  1
  As  As11  1  0.189324  0.189324  0.619371  1
  As  As12  1  0.810676  0.810676  0.380629  1
  As  As13  1  0.365776  0.365776  0.579313  1
  As  As14  1  0.634224  0.634224  0.420687  1
  As  As15  1  0.011477  0.011477  0.668740  1
  As  As16  1  0.988523  0.988523  0.331260  1
  As  As17  1  0.233751  0.233751  0.883117  1
  As  As18  1  0.766249  0.766249  0.116883  1
  Pd  Pd19  1  0.838378  0.838378  0.193644  1
  Pd  Pd20  1  0.161622  0.161622  0.806356  1
  Pd  Pd21  1  0.025030  0.025030  0.127416  1
  Pd  Pd22  1  0.974970  0.974970  0.872584  1
  Pd  Pd23  1  0.888064  0.888064  0.459286  1
  Pd  Pd24  1  0.111936  0.111936  0.540714  1
  Pd  Pd25  1  0.500000  0.500000  0.000000  1
  Pd  Pd26  1  0.548183  0.548183  0.253236  1
  Pd  Pd27  1  0.451817  0.451817  0.746764  1
  Pd  Pd28  1  0.295528  0.295528  0.489594  1
  Pd  Pd29  1  0.704472  0.704472  0.510406  1
  Pd  Pd30  1  0.663730  0.663730  0.224981  1
  Pd  Pd31  1  0.336270  0.336270  0.775019  1
  Pd  Pd32  1  0.909014  0.909014  0.639141  1
  Pd  Pd33  1  0.090986  0.090986  0.360859  1
  Pd  Pd34  1  0.219907  0.219907  0.071450  1
  Pd  Pd35  1  0.780093  0.780093  0.928550  1
