# generated using pymatgen
data_Nd12OsPdRh2
_symmetry_space_group_name_H-M   'P 1'
_cell_length_a   6.52112283
_cell_length_b   7.40271295
_cell_length_c   9.94850000
_cell_angle_alpha   90.00000000
_cell_angle_beta   90.00000000
_cell_angle_gamma   90.23682297
_symmetry_Int_Tables_number   1
_chemical_formula_structural   Nd12OsPdRh2
_chemical_formula_sum   'Nd12 Os1 Pd1 Rh2'
_cell_volume   480.24979097
_cell_formula_units_Z   1
loop_
 _symmetry_equiv_pos_site_id
 _symmetry_equiv_pos_as_xyz
  1  'x, y, z'
loop_
 _atom_site_type_symbol
 _atom_site_label
 _atom_site_symmetry_multiplicity
 _atom_site_fract_x
 _atom_site_fract_y
 _atom_site_fract_z
 _atom_site_occupancy
  Nd  Nd0  1  0.336209  0.672020  0.064500  1
  Nd  Nd1  1  0.172276  0.184292  0.436517  1
  Nd  Nd2  1  0.667505  0.322679  0.562698  1
  Nd  Nd3  1  0.833474  0.822991  0.932005  1
  Nd  Nd4  1  0.667505  0.322679  0.937302  1
  Nd  Nd5  1  0.833474  0.822991  0.567995  1
  Nd  Nd6  1  0.336209  0.672020  0.435500  1
  Nd  Nd7  1  0.172276  0.184292  0.063483  1
  Nd  Nd8  1  0.853442  0.524899  0.250000  1
  Nd  Nd9  1  0.630489  0.036807  0.250000  1
  Nd  Nd10  1  0.138612  0.465017  0.750000  1
  Nd  Nd11  1  0.358317  0.964152  0.750000  1
  Os  Os12  1  0.435947  0.381603  0.250000  1
  Pd  Pd13  1  0.069539  0.885246  0.250000  1
  Rh  Rh14  1  0.929332  0.120083  0.750000  1
  Rh  Rh15  1  0.565391  0.618227  0.750000  1
