# generated using pymatgen
data_Y4Th(ReB3)2
_symmetry_space_group_name_H-M   'P 1'
_cell_length_a   5.53357631
_cell_length_b   5.53357508
_cell_length_c   8.64300732
_cell_angle_alpha   71.32989681
_cell_angle_beta   71.32988932
_cell_angle_gamma   59.99999058
_symmetry_Int_Tables_number   1
_chemical_formula_structural   Y4Th(ReB3)2
_chemical_formula_sum   'Y4 Th1 Re2 B6'
_cell_volume   212.96315983
_cell_formula_units_Z   1
loop_
 _symmetry_equiv_pos_site_id
 _symmetry_equiv_pos_as_xyz
  1  'x, y, z'
loop_
 _atom_site_type_symbol
 _atom_site_label
 _atom_site_symmetry_multiplicity
 _atom_site_fract_x
 _atom_site_fract_y
 _atom_site_fract_z
 _atom_site_occupancy
  Y  Y0  1  0.752487  0.752487  0.742541  1
  Y  Y1  1  0.247513  0.247513  0.257459  1
  Y  Y2  1  0.580833  0.580833  0.257500  1
  Y  Y3  1  0.419167  0.419167  0.742500  1
  Th  Th4  1  0.000000  0.000000  0.000000  1
  Re  Re5  1  0.888068  0.888068  0.335794  1
  Re  Re6  1  0.111932  0.111932  0.664206  1
  B  B7  1  0.500000  0.171103  0.500000  1
  B  B8  1  0.828897  0.500000  0.500000  1
  B  B9  1  0.171103  0.828897  0.500000  1
  B  B10  1  0.171103  0.500000  0.500000  1
  B  B11  1  0.828897  0.171103  0.500000  1
  B  B12  1  0.500000  0.828897  0.500000  1
