# generated using pymatgen
data_LiHo6Mn(Co4P3)4
_symmetry_space_group_name_H-M   'P 1'
_cell_length_a   3.70055800
_cell_length_b   10.55922600
_cell_length_c   12.18418700
_cell_angle_alpha   90.00000000
_cell_angle_beta   90.00000000
_cell_angle_gamma   90.00000000
_symmetry_Int_Tables_number   1
_chemical_formula_structural   LiHo6Mn(Co4P3)4
_chemical_formula_sum   'Li1 Ho6 Mn1 Co16 P12'
_cell_volume   476.09745121
_cell_formula_units_Z   1
loop_
 _symmetry_equiv_pos_site_id
 _symmetry_equiv_pos_as_xyz
  1  'x, y, z'
loop_
 _atom_site_type_symbol
 _atom_site_label
 _atom_site_symmetry_multiplicity
 _atom_site_fract_x
 _atom_site_fract_y
 _atom_site_fract_z
 _atom_site_occupancy
  Li  Li0  1  0.500000  0.500000  0.151652  1
  Ho  Ho1  1  0.000000  0.500000  0.522775  1
  Ho  Ho2  1  0.500000  0.000000  0.477357  1
  Ho  Ho3  1  0.500000  0.819703  0.205668  1
  Ho  Ho4  1  0.500000  0.180297  0.205668  1
  Ho  Ho5  1  0.000000  0.681061  0.794228  1
  Ho  Ho6  1  0.000000  0.318939  0.794228  1
  Mn  Mn7  1  0.000000  0.000000  0.839083  1
  Co  Co8  1  0.000000  0.500000  0.986881  1
  Co  Co9  1  0.500000  0.000000  0.012817  1
  Co  Co10  1  0.500000  0.295975  0.432431  1
  Co  Co11  1  0.500000  0.704025  0.432431  1
  Co  Co12  1  0.000000  0.202481  0.570909  1
  Co  Co13  1  0.000000  0.797519  0.570909  1
  Co  Co14  1  0.500000  0.879669  0.709037  1
  Co  Co15  1  0.500000  0.120331  0.709037  1
  Co  Co16  1  0.000000  0.622691  0.293275  1
  Co  Co17  1  0.000000  0.377309  0.293275  1
  Co  Co18  1  0.500000  0.330665  0.994688  1
  Co  Co19  1  0.500000  0.669335  0.994688  1
  Co  Co20  1  0.000000  0.164702  0.003616  1
  Co  Co21  1  0.000000  0.835298  0.003616  1
  Co  Co22  1  0.500000  0.500000  0.704905  1
  Co  Co23  1  0.000000  0.000000  0.297215  1
  P  P24  1  0.500000  0.310896  0.616788  1
  P  P25  1  0.500000  0.689104  0.616788  1
  P  P26  1  0.000000  0.189461  0.384927  1
  P  P27  1  0.000000  0.810539  0.384927  1
  P  P28  1  0.500000  0.500000  0.885174  1
  P  P29  1  0.000000  0.000000  0.116885  1
  P  P30  1  0.500000  0.847136  0.891883  1
  P  P31  1  0.500000  0.152864  0.891883  1
  P  P32  1  0.000000  0.657755  0.106004  1
  P  P33  1  0.000000  0.342245  0.106004  1
  P  P34  1  0.500000  0.500000  0.345291  1
  P  P35  1  0.000000  0.000000  0.653057  1
