# generated using pymatgen
data_LiSiGe2P3
_symmetry_space_group_name_H-M   'P 1'
_cell_length_a   3.60906100
_cell_length_b   7.94495600
_cell_length_c   9.96890200
_cell_angle_alpha   90.00000000
_cell_angle_beta   90.00000000
_cell_angle_gamma   90.00000000
_symmetry_Int_Tables_number   1
_chemical_formula_structural   LiSiGe2P3
_chemical_formula_sum   'Li2 Si2 Ge4 P6'
_cell_volume   285.84660967
_cell_formula_units_Z   2
loop_
 _symmetry_equiv_pos_site_id
 _symmetry_equiv_pos_as_xyz
  1  'x, y, z'
loop_
 _atom_site_type_symbol
 _atom_site_label
 _atom_site_symmetry_multiplicity
 _atom_site_fract_x
 _atom_site_fract_y
 _atom_site_fract_z
 _atom_site_occupancy
  Li  Li0  1  0.000000  0.627811  0.508208  1
  Li  Li1  1  0.000000  0.372189  0.008208  1
  Si  Si2  1  0.500000  0.805417  0.913490  1
  Si  Si3  1  0.500000  0.194583  0.413490  1
  Ge  Ge4  1  0.000000  0.313358  0.726173  1
  Ge  Ge5  1  0.000000  0.686642  0.226173  1
  Ge  Ge6  1  0.000000  0.002761  0.645594  1
  Ge  Ge7  1  0.000000  0.997239  0.145594  1
  P  P8  1  0.000000  0.754260  0.778773  1
  P  P9  1  0.000000  0.245740  0.278773  1
  P  P10  1  0.500000  0.930668  0.498528  1
  P  P11  1  0.500000  0.069332  0.998528  1
  P  P12  1  0.500000  0.392136  0.575664  1
  P  P13  1  0.500000  0.607864  0.075664  1
