# generated using pymatgen
data_Ba2CrNiN6
_symmetry_space_group_name_H-M   'P 1'
_cell_length_a   4.14834868
_cell_length_b   5.84585400
_cell_length_c   6.63860388
_cell_angle_alpha   90.00000000
_cell_angle_beta   106.88987684
_cell_angle_gamma   90.00000000
_symmetry_Int_Tables_number   1
_chemical_formula_structural   Ba2CrNiN6
_chemical_formula_sum   'Ba2 Cr1 Ni1 N6'
_cell_volume   154.04606563
_cell_formula_units_Z   1
loop_
 _symmetry_equiv_pos_site_id
 _symmetry_equiv_pos_as_xyz
  1  'x, y, z'
loop_
 _atom_site_type_symbol
 _atom_site_label
 _atom_site_symmetry_multiplicity
 _atom_site_fract_x
 _atom_site_fract_y
 _atom_site_fract_z
 _atom_site_occupancy
  Ba  Ba0  1  0.913399  0.750001  0.241267  1
  Ba  Ba1  1  0.113308  0.250000  0.737753  1
  Cr  Cr2  1  0.586453  0.750001  0.674498  1
  Ni  Ni3  1  0.432996  0.250000  0.333984  1
  N  N4  1  0.688573  0.250000  0.154227  1
  N  N5  1  0.968000  0.250000  0.135196  1
  N  N6  1  0.474520  0.990668  0.513181  1
  N  N7  1  0.474520  0.509332  0.513181  1
  N  N8  1  0.011222  0.750001  0.819479  1
  N  N9  1  0.337010  0.750001  0.877230  1
