# generated using pymatgen
data_Y15ErMgIn3Pd4
_symmetry_space_group_name_H-M   'P 1'
_cell_length_a   9.79587163
_cell_length_b   9.77951798
_cell_length_c   9.77951751
_cell_angle_alpha   59.70653405
_cell_angle_beta   59.81543940
_cell_angle_gamma   59.81544385
_symmetry_Int_Tables_number   1
_chemical_formula_structural   Y15ErMgIn3Pd4
_chemical_formula_sum   'Y15 Er1 Mg1 In3 Pd4'
_cell_volume   659.14159290
_cell_formula_units_Z   1
loop_
 _symmetry_equiv_pos_site_id
 _symmetry_equiv_pos_as_xyz
  1  'x, y, z'
loop_
 _atom_site_type_symbol
 _atom_site_label
 _atom_site_symmetry_multiplicity
 _atom_site_fract_x
 _atom_site_fract_y
 _atom_site_fract_z
 _atom_site_occupancy
  Y  Y0  1  0.352525  0.351796  0.943480  1
  Y  Y1  1  0.352525  0.943480  0.351796  1
  Y  Y2  1  0.939742  0.353181  0.353181  1
  Y  Y3  1  0.808060  0.191449  0.191449  1
  Y  Y4  1  0.188799  0.810837  0.810837  1
  Y  Y5  1  0.188629  0.811223  0.189381  1
  Y  Y6  1  0.808766  0.191697  0.808780  1
  Y  Y7  1  0.188629  0.189381  0.811223  1
  Y  Y8  1  0.808766  0.808780  0.191697  1
  Y  Y9  1  0.935414  0.565107  0.565107  1
  Y  Y10  1  0.564031  0.935952  0.935952  1
  Y  Y11  1  0.564563  0.935484  0.564181  1
  Y  Y12  1  0.935341  0.564331  0.935759  1
  Y  Y13  1  0.564563  0.564181  0.935484  1
  Y  Y14  1  0.935341  0.935759  0.564331  1
  Er  Er15  1  0.350554  0.350289  0.350289  1
  Mg  Mg16  1  0.266851  0.577276  0.577276  1
  In  In17  1  0.582994  0.583952  0.583952  1
  In  In18  1  0.581844  0.583228  0.251047  1
  In  In19  1  0.581844  0.251047  0.583228  1
  Pd  Pd20  1  0.144335  0.144068  0.144068  1
  Pd  Pd21  1  0.143844  0.145636  0.567285  1
  Pd  Pd22  1  0.143844  0.567285  0.145636  1
  Pd  Pd23  1  0.568189  0.144579  0.144579  1
