# generated using pymatgen
data_Lu8Si13Ge
_symmetry_space_group_name_H-M   'P 1'
_cell_length_a   7.08138100
_cell_length_b   7.08138152
_cell_length_c   11.08140000
_cell_angle_alpha   89.96949676
_cell_angle_beta   89.96949676
_cell_angle_gamma   133.94847729
_symmetry_Int_Tables_number   1
_chemical_formula_structural   Lu8Si13Ge
_chemical_formula_sum   'Lu8 Si13 Ge1'
_cell_volume   400.07468382
_cell_formula_units_Z   1
loop_
 _symmetry_equiv_pos_site_id
 _symmetry_equiv_pos_as_xyz
  1  'x, y, z'
loop_
 _atom_site_type_symbol
 _atom_site_label
 _atom_site_symmetry_multiplicity
 _atom_site_fract_x
 _atom_site_fract_y
 _atom_site_fract_z
 _atom_site_occupancy
  Lu  Lu0  1  0.489981  0.980462  0.379932  1
  Lu  Lu1  1  0.982046  0.488278  0.619858  1
  Lu  Lu2  1  0.511722  0.017954  0.880142  1
  Lu  Lu3  1  0.019538  0.510019  0.120068  1
  Lu  Lu4  1  0.998265  0.001735  0.250000  1
  Lu  Lu5  1  0.001199  0.998801  0.750000  1
  Lu  Lu6  1  0.486281  0.486136  0.498050  1
  Lu  Lu7  1  0.513864  0.513719  0.001950  1
  Si  Si8  1  0.928099  0.103896  0.991606  1
  Si  Si9  1  0.107629  0.928958  0.009313  1
  Si  Si10  1  0.071042  0.892371  0.490687  1
  Si  Si11  1  0.896104  0.071901  0.508394  1
  Si  Si12  1  0.578368  0.917915  0.129764  1
  Si  Si13  1  0.920622  0.579972  0.872171  1
  Si  Si14  1  0.420028  0.079378  0.627829  1
  Si  Si15  1  0.082085  0.421632  0.370236  1
  Si  Si16  1  0.472752  0.172150  0.159994  1
  Si  Si17  1  0.168044  0.469844  0.842892  1
  Si  Si18  1  0.530156  0.831956  0.657108  1
  Si  Si19  1  0.827850  0.527248  0.340006  1
  Si  Si20  1  0.442484  0.557516  0.250000  1
  Ge  Ge21  1  0.551842  0.448158  0.750000  1
