# generated using pymatgen
data_Li4Ho4Co7(Ni3P4)3
_symmetry_space_group_name_H-M   'P 1'
_cell_length_a   3.70733400
_cell_length_b   10.31404197
_cell_length_c   11.90684227
_cell_angle_alpha   90.07079584
_cell_angle_beta   90.00000000
_cell_angle_gamma   90.00000000
_symmetry_Int_Tables_number   1
_chemical_formula_structural   Li4Ho4Co7(Ni3P4)3
_chemical_formula_sum   'Li4 Ho4 Co7 Ni9 P12'
_cell_volume   455.28870626
_cell_formula_units_Z   1
loop_
 _symmetry_equiv_pos_site_id
 _symmetry_equiv_pos_as_xyz
  1  'x, y, z'
loop_
 _atom_site_type_symbol
 _atom_site_label
 _atom_site_symmetry_multiplicity
 _atom_site_fract_x
 _atom_site_fract_y
 _atom_site_fract_z
 _atom_site_occupancy
  Li  Li0  1  0.250000  0.701697  0.992083  1
  Li  Li1  1  0.250000  0.797903  0.491835  1
  Li  Li2  1  0.750000  0.298729  0.007840  1
  Li  Li3  1  0.750000  0.201692  0.507478  1
  Ho  Ho4  1  0.250000  0.579651  0.704623  1
  Ho  Ho5  1  0.250000  0.919406  0.204936  1
  Ho  Ho6  1  0.750000  0.419496  0.294786  1
  Ho  Ho7  1  0.750000  0.080562  0.794782  1
  Co  Co8  1  0.250000  0.620929  0.200009  1
  Co  Co9  1  0.750000  0.120802  0.299579  1
  Co  Co10  1  0.750000  0.379554  0.799254  1
  Co  Co11  1  0.250000  0.466511  0.931965  1
  Co  Co12  1  0.250000  0.033264  0.431793  1
  Co  Co13  1  0.750000  0.533921  0.067714  1
  Co  Co14  1  0.750000  0.965866  0.568853  1
  Ni  Ni15  1  0.250000  0.404972  0.487664  1
  Ni  Ni16  1  0.250000  0.096885  0.988961  1
  Ni  Ni17  1  0.750000  0.593883  0.511611  1
  Ni  Ni18  1  0.750000  0.905727  0.012493  1
  Ni  Ni19  1  0.250000  0.222401  0.174243  1
  Ni  Ni20  1  0.250000  0.278135  0.673268  1
  Ni  Ni21  1  0.750000  0.775970  0.825795  1
  Ni  Ni22  1  0.750000  0.722044  0.326358  1
  Ni  Ni23  1  0.250000  0.879668  0.701458  1
  P  P24  1  0.250000  0.427390  0.113995  1
  P  P25  1  0.250000  0.074871  0.612638  1
  P  P26  1  0.750000  0.572524  0.885751  1
  P  P27  1  0.750000  0.926547  0.386505  1
  P  P28  1  0.250000  0.273265  0.860831  1
  P  P29  1  0.250000  0.227068  0.361086  1
  P  P30  1  0.750000  0.727453  0.139314  1
  P  P31  1  0.750000  0.769507  0.637071  1
  P  P32  1  0.250000  0.599095  0.389982  1
  P  P33  1  0.250000  0.902453  0.894139  1
  P  P34  1  0.750000  0.399993  0.609013  1
  P  P35  1  0.750000  0.100164  0.110296  1
