# generated using pymatgen
data_La8Tb11ErSi16
_symmetry_space_group_name_H-M   'P 1'
_cell_length_a   7.84585636
_cell_length_b   7.84585636
_cell_length_c   14.65332890
_cell_angle_alpha   90.02837349
_cell_angle_beta   89.97162651
_cell_angle_gamma   89.98024245
_symmetry_Int_Tables_number   1
_chemical_formula_structural   La8Tb11ErSi16
_chemical_formula_sum   'La8 Tb11 Er1 Si16'
_cell_volume   902.02146161
_cell_formula_units_Z   1
loop_
 _symmetry_equiv_pos_site_id
 _symmetry_equiv_pos_as_xyz
  1  'x, y, z'
loop_
 _atom_site_type_symbol
 _atom_site_label
 _atom_site_symmetry_multiplicity
 _atom_site_fract_x
 _atom_site_fract_y
 _atom_site_fract_z
 _atom_site_occupancy
  La  La0  1  0.988876  0.636074  0.044262  1
  La  La1  1  0.011067  0.364075  0.544165  1
  La  La2  1  0.636074  0.988876  0.955738  1
  La  La3  1  0.135950  0.510720  0.794492  1
  La  La4  1  0.864106  0.488927  0.294088  1
  La  La5  1  0.510720  0.135950  0.205508  1
  La  La6  1  0.488927  0.864106  0.705912  1
  La  La7  1  0.364075  0.011067  0.455835  1
  Tb  Tb8  1  0.364571  0.489010  0.374422  1
  Tb  Tb9  1  0.864427  0.010991  0.375269  1
  Tb  Tb10  1  0.989163  0.135527  0.124372  1
  Tb  Tb11  1  0.010991  0.864427  0.624731  1
  Tb  Tb12  1  0.635524  0.510724  0.874738  1
  Tb  Tb13  1  0.489010  0.364571  0.625578  1
  Tb  Tb14  1  0.510724  0.635524  0.125262  1
  Tb  Tb15  1  0.135527  0.989163  0.875628  1
  Tb  Tb16  1  0.685330  0.685330  0.500000  1
  Tb  Tb17  1  0.814989  0.185156  0.750110  1
  Tb  Tb18  1  0.185156  0.814989  0.249890  1
  Er  Er19  1  0.314979  0.314979  0.000000  1
  Si  Si20  1  0.069780  0.713144  0.438242  1
  Si  Si21  1  0.931002  0.287143  0.938312  1
  Si  Si22  1  0.713144  0.069780  0.561758  1
  Si  Si23  1  0.213504  0.429641  0.187299  1
  Si  Si24  1  0.786644  0.569780  0.688359  1
  Si  Si25  1  0.429641  0.213504  0.812701  1
  Si  Si26  1  0.569780  0.786644  0.311641  1
  Si  Si27  1  0.287143  0.931002  0.061688  1
  Si  Si28  1  0.841514  0.799464  0.805355  1
  Si  Si29  1  0.158822  0.200227  0.304995  1
  Si  Si30  1  0.799464  0.841514  0.194645  1
  Si  Si31  1  0.299567  0.658462  0.555339  1
  Si  Si32  1  0.699805  0.341316  0.055124  1
  Si  Si33  1  0.658462  0.299567  0.444661  1
  Si  Si34  1  0.341316  0.699805  0.944876  1
  Si  Si35  1  0.200227  0.158822  0.695005  1
