# generated using pymatgen
data_La3Pr7Os4
_symmetry_space_group_name_H-M   'P 1'
_cell_length_a   8.99914366
_cell_length_b   8.99640642
_cell_length_c   7.45078005
_cell_angle_alpha   83.96561934
_cell_angle_beta   83.66191918
_cell_angle_gamma   43.94292111
_symmetry_Int_Tables_number   1
_chemical_formula_structural   La3Pr7Os4
_chemical_formula_sum   'La3 Pr7 Os4'
_cell_volume   415.74966660
_cell_formula_units_Z   1
loop_
 _symmetry_equiv_pos_site_id
 _symmetry_equiv_pos_as_xyz
  1  'x, y, z'
loop_
 _atom_site_type_symbol
 _atom_site_label
 _atom_site_symmetry_multiplicity
 _atom_site_fract_x
 _atom_site_fract_y
 _atom_site_fract_z
 _atom_site_occupancy
  La  La0  1  0.014006  0.799575  0.908143  1
  La  La1  1  0.201885  0.984096  0.591825  1
  La  La2  1  0.984219  0.200264  0.093441  1
  Pr  Pr3  1  0.796643  0.019223  0.414724  1
  Pr  Pr4  1  0.361851  0.207258  0.814725  1
  Pr  Pr5  1  0.792462  0.639466  0.682303  1
  Pr  Pr6  1  0.639640  0.792603  0.184333  1
  Pr  Pr7  1  0.210832  0.359175  0.315755  1
  Pr  Pr8  1  0.570249  0.430777  0.749660  1
  Pr  Pr9  1  0.428340  0.570096  0.250121  1
  Os  Os10  1  0.171850  0.606321  0.579816  1
  Os  Os11  1  0.389255  0.832051  0.920958  1
  Os  Os12  1  0.832520  0.387032  0.420796  1
  Os  Os13  1  0.606250  0.172062  0.073400  1
