# generated using pymatgen
data_Ho6Er2Ti9Si16Mo3
_symmetry_space_group_name_H-M   'P 1'
_cell_length_a   6.98777109
_cell_length_b   6.98770822
_cell_length_c   12.84157513
_cell_angle_alpha   90.02024886
_cell_angle_beta   89.98790809
_cell_angle_gamma   89.99715671
_symmetry_Int_Tables_number   1
_chemical_formula_structural   Ho6Er2Ti9Si16Mo3
_chemical_formula_sum   'Ho6 Er2 Ti9 Si16 Mo3'
_cell_volume   627.03486767
_cell_formula_units_Z   1
loop_
 _symmetry_equiv_pos_site_id
 _symmetry_equiv_pos_as_xyz
  1  'x, y, z'
loop_
 _atom_site_type_symbol
 _atom_site_label
 _atom_site_symmetry_multiplicity
 _atom_site_fract_x
 _atom_site_fract_y
 _atom_site_fract_z
 _atom_site_occupancy
  Ho  Ho0  1  0.500179  0.158333  0.216672  1
  Ho  Ho1  1  0.842272  0.498756  0.282027  1
  Ho  Ho2  1  0.158371  0.500271  0.783345  1
  Ho  Ho3  1  0.658999  0.999573  0.966813  1
  Ho  Ho4  1  0.002185  0.340500  0.533535  1
  Ho  Ho5  1  0.999592  0.658986  0.033101  1
  Er  Er6  1  0.340746  0.001900  0.466564  1
  Er  Er7  1  0.498924  0.842471  0.717938  1
  Ti  Ti8  1  0.672754  0.672981  0.500060  1
  Ti  Ti9  1  0.152177  0.008372  0.875902  1
  Ti  Ti10  1  0.491621  0.652356  0.125053  1
  Ti  Ti11  1  0.507344  0.347033  0.626860  1
  Ti  Ti12  1  0.652289  0.491648  0.874877  1
  Ti  Ti13  1  0.346977  0.507472  0.373147  1
  Ti  Ti14  1  0.848831  0.992060  0.374750  1
  Ti  Ti15  1  0.008502  0.152098  0.124038  1
  Ti  Ti16  1  0.992090  0.848788  0.625259  1
  Si  Si17  1  0.202585  0.130114  0.683880  1
  Si  Si18  1  0.369211  0.701490  0.933931  1
  Si  Si19  1  0.630809  0.297095  0.434120  1
  Si  Si20  1  0.701505  0.369088  0.065869  1
  Si  Si21  1  0.297538  0.631561  0.565988  1
  Si  Si22  1  0.798209  0.869447  0.184451  1
  Si  Si23  1  0.130585  0.202087  0.316139  1
  Si  Si24  1  0.869027  0.798152  0.815443  1
  Si  Si25  1  0.291676  0.952719  0.065019  1
  Si  Si26  1  0.546429  0.791180  0.315184  1
  Si  Si27  1  0.452552  0.208336  0.815176  1
  Si  Si28  1  0.790787  0.546897  0.684986  1
  Si  Si29  1  0.208635  0.452371  0.184744  1
  Si  Si30  1  0.707523  0.047973  0.565880  1
  Si  Si31  1  0.952607  0.291729  0.934986  1
  Si  Si32  1  0.048482  0.708207  0.434204  1
  Mo  Mo33  1  0.327134  0.327105  0.999986  1
  Mo  Mo34  1  0.173754  0.827285  0.249472  1
  Mo  Mo35  1  0.827098  0.173564  0.750598  1
