# generated using pymatgen
data_Nd6RuCl10
_symmetry_space_group_name_H-M   'P 1'
_cell_length_a   7.39104201
_cell_length_b   9.20577399
_cell_length_c   9.28524371
_cell_angle_alpha   109.76106225
_cell_angle_beta   96.80640120
_cell_angle_gamma   106.82253753
_symmetry_Int_Tables_number   1
_chemical_formula_structural   Nd6RuCl10
_chemical_formula_sum   'Nd6 Ru1 Cl10'
_cell_volume   552.46272014
_cell_formula_units_Z   1
loop_
 _symmetry_equiv_pos_site_id
 _symmetry_equiv_pos_as_xyz
  1  'x, y, z'
loop_
 _atom_site_type_symbol
 _atom_site_label
 _atom_site_symmetry_multiplicity
 _atom_site_fract_x
 _atom_site_fract_y
 _atom_site_fract_z
 _atom_site_occupancy
  Nd  Nd0  1  0.137729  0.055135  0.751581  1
  Nd  Nd1  1  0.862271  0.944865  0.248419  1
  Nd  Nd2  1  0.973022  0.309653  0.102165  1
  Nd  Nd3  1  0.026978  0.690347  0.897835  1
  Nd  Nd4  1  0.372602  0.148752  0.196816  1
  Nd  Nd5  1  0.627398  0.851248  0.803184  1
  Ru  Ru6  1  0.000000  0.000000  0.000000  1
  Cl  Cl7  1  0.550079  0.168822  0.927614  1
  Cl  Cl8  1  0.449921  0.831178  0.072386  1
  Cl  Cl9  1  0.356532  0.459932  0.276543  1
  Cl  Cl10  1  0.643468  0.540068  0.723457  1
  Cl  Cl11  1  0.240686  0.080853  0.451795  1
  Cl  Cl12  1  0.759314  0.919147  0.548205  1
  Cl  Cl13  1  0.797443  0.253071  0.346956  1
  Cl  Cl14  1  0.202557  0.746929  0.653044  1
  Cl  Cl15  1  0.087487  0.368233  0.838666  1
  Cl  Cl16  1  0.912513  0.631767  0.161334  1
