# generated using pymatgen
data_Hf18Ta4Re3P2W
_symmetry_space_group_name_H-M   'P 1'
_cell_length_a   8.65000209
_cell_length_b   8.70613664
_cell_length_c   8.70693300
_cell_angle_alpha   90.00000000
_cell_angle_beta   90.00000000
_cell_angle_gamma   119.99709335
_symmetry_Int_Tables_number   1
_chemical_formula_structural   Hf18Ta4Re3P2W
_chemical_formula_sum   'Hf18 Ta4 Re3 P2 W1'
_cell_volume   567.87172490
_cell_formula_units_Z   1
loop_
 _symmetry_equiv_pos_site_id
 _symmetry_equiv_pos_as_xyz
  1  'x, y, z'
loop_
 _atom_site_type_symbol
 _atom_site_label
 _atom_site_symmetry_multiplicity
 _atom_site_fract_x
 _atom_site_fract_y
 _atom_site_fract_z
 _atom_site_occupancy
  Hf  Hf0  1  0.198327  0.802385  0.451845  1
  Hf  Hf1  1  0.197890  0.395267  0.450780  1
  Hf  Hf2  1  0.607413  0.803966  0.453024  1
  Hf  Hf3  1  0.802936  0.196240  0.549312  1
  Hf  Hf4  1  0.802416  0.605428  0.550745  1
  Hf  Hf5  1  0.395103  0.197518  0.549610  1
  Hf  Hf6  1  0.802936  0.196240  0.950688  1
  Hf  Hf7  1  0.802416  0.605428  0.949255  1
  Hf  Hf8  1  0.395103  0.197518  0.950390  1
  Hf  Hf9  1  0.198327  0.802385  0.048155  1
  Hf  Hf10  1  0.197890  0.395267  0.049220  1
  Hf  Hf11  1  0.607413  0.803966  0.046976  1
  Hf  Hf12  1  0.538425  0.463009  0.250000  1
  Hf  Hf13  1  0.540507  0.075744  0.250000  1
  Hf  Hf14  1  0.923338  0.459733  0.250000  1
  Hf  Hf15  1  0.463395  0.541495  0.750000  1
  Hf  Hf16  1  0.463523  0.921965  0.750000  1
  Hf  Hf17  1  0.076483  0.538045  0.750000  1
  Ta  Ta18  1  0.887912  0.779781  0.250000  1
  Ta  Ta19  1  0.220503  0.111928  0.250000  1
  Ta  Ta20  1  0.106100  0.887408  0.750000  1
  Ta  Ta21  1  0.105880  0.218721  0.750000  1
  Re  Re22  1  0.776794  0.888885  0.750000  1
  Re  Re23  1  0.998735  0.000279  0.498554  1
  Re  Re24  1  0.998735  0.000279  0.001446  1
  P  P25  1  0.334575  0.667059  0.250000  1
  P  P26  1  0.668201  0.333928  0.750000  1
  W  W27  1  0.888728  0.110131  0.250000  1
