# generated using pymatgen
data_Er8Cd3SnPd8
_symmetry_space_group_name_H-M   'P 1'
_cell_length_a   7.72478500
_cell_length_b   7.72478500
_cell_length_c   7.28283600
_cell_angle_alpha   90.00000000
_cell_angle_beta   90.00000000
_cell_angle_gamma   90.00000000
_symmetry_Int_Tables_number   1
_chemical_formula_structural   Er8Cd3SnPd8
_chemical_formula_sum   'Er8 Cd3 Sn1 Pd8'
_cell_volume   434.58359865
_cell_formula_units_Z   1
loop_
 _symmetry_equiv_pos_site_id
 _symmetry_equiv_pos_as_xyz
  1  'x, y, z'
loop_
 _atom_site_type_symbol
 _atom_site_label
 _atom_site_symmetry_multiplicity
 _atom_site_fract_x
 _atom_site_fract_y
 _atom_site_fract_z
 _atom_site_occupancy
  Er  Er0  1  0.185696  0.176095  0.000035  1
  Er  Er1  1  0.323905  0.685696  0.499965  1
  Er  Er2  1  0.676095  0.314304  0.499965  1
  Er  Er3  1  0.814304  0.823905  0.000035  1
  Er  Er4  1  0.343644  0.666919  0.999701  1
  Er  Er5  1  0.656356  0.333081  0.999701  1
  Er  Er6  1  0.833081  0.843644  0.500299  1
  Er  Er7  1  0.166919  0.156356  0.500299  1
  Cd  Cd8  1  0.000000  0.500000  0.750000  1
  Cd  Cd9  1  0.500000  0.000000  0.250000  1
  Cd  Cd10  1  0.000000  0.500000  0.250000  1
  Sn  Sn11  1  0.500000  0.000000  0.750000  1
  Pd  Pd12  1  0.125033  0.868622  0.772137  1
  Pd  Pd13  1  0.873821  0.132563  0.228502  1
  Pd  Pd14  1  0.367437  0.373821  0.271498  1
  Pd  Pd15  1  0.631378  0.625033  0.727863  1
  Pd  Pd16  1  0.632563  0.626179  0.271498  1
  Pd  Pd17  1  0.874967  0.131378  0.772137  1
  Pd  Pd18  1  0.368622  0.374967  0.727863  1
  Pd  Pd19  1  0.126179  0.867437  0.228502  1
