# generated using pymatgen
data_Li3Ca8In3Au20
_symmetry_space_group_name_H-M   'P 1'
_cell_length_a   8.59235062
_cell_length_b   8.59235207
_cell_length_c   10.10615200
_cell_angle_alpha   90.09423547
_cell_angle_beta   89.90577118
_cell_angle_gamma   108.67949289
_symmetry_Int_Tables_number   1
_chemical_formula_structural   Li3Ca8In3Au20
_chemical_formula_sum   'Li3 Ca8 In3 Au20'
_cell_volume   706.81860963
_cell_formula_units_Z   1
loop_
 _symmetry_equiv_pos_site_id
 _symmetry_equiv_pos_as_xyz
  1  'x, y, z'
loop_
 _atom_site_type_symbol
 _atom_site_label
 _atom_site_symmetry_multiplicity
 _atom_site_fract_x
 _atom_site_fract_y
 _atom_site_fract_z
 _atom_site_occupancy
  Li  Li0  1  0.515364  0.015364  0.250000  1
  Li  Li1  1  0.000514  0.000205  0.001686  1
  Li  Li2  1  0.500205  0.500514  0.498314  1
  Ca  Ca3  1  0.696237  0.302563  0.000297  1
  Ca  Ca4  1  0.197381  0.803528  0.499891  1
  Ca  Ca5  1  0.803183  0.805005  0.298648  1
  Ca  Ca6  1  0.305005  0.303183  0.201352  1
  Ca  Ca7  1  0.802563  0.196237  0.499703  1
  Ca  Ca8  1  0.303528  0.697381  0.000109  1
  Ca  Ca9  1  0.697462  0.698412  0.800162  1
  Ca  Ca10  1  0.198412  0.197462  0.699838  1
  In  In11  1  0.981839  0.481839  0.750000  1
  In  In12  1  0.019732  0.519732  0.250000  1
  In  In13  1  0.480539  0.980539  0.750000  1
  Au  Au14  1  0.159671  0.432713  0.483327  1
  Au  Au15  1  0.899616  0.902461  0.596174  1
  Au  Au16  1  0.564932  0.839782  0.514841  1
  Au  Au17  1  0.879186  0.162607  0.203518  1
  Au  Au18  1  0.388035  0.668069  0.295162  1
  Au  Au19  1  0.662607  0.379186  0.296482  1
  Au  Au20  1  0.402461  0.399616  0.903826  1
  Au  Au21  1  0.932713  0.659671  0.016673  1
  Au  Au22  1  0.337123  0.612741  0.703322  1
  Au  Au23  1  0.339782  0.064932  0.985159  1
  Au  Au24  1  0.599006  0.599643  0.097962  1
  Au  Au25  1  0.658030  0.935230  0.023487  1
  Au  Au26  1  0.099643  0.099006  0.402038  1
  Au  Au27  1  0.612959  0.338691  0.701647  1
  Au  Au28  1  0.112741  0.837123  0.796678  1
  Au  Au29  1  0.067931  0.339609  0.982984  1
  Au  Au30  1  0.839609  0.567931  0.517016  1
  Au  Au31  1  0.168069  0.888035  0.204838  1
  Au  Au32  1  0.435230  0.158030  0.476513  1
  Au  Au33  1  0.838691  0.112959  0.798353  1
