# generated using pymatgen
data_ThFeCuSi
_symmetry_space_group_name_H-M   'P 1'
_cell_length_a   8.80654000
_cell_length_b   8.80653853
_cell_length_c   4.04011000
_cell_angle_alpha   90.00000000
_cell_angle_beta   90.00000000
_cell_angle_gamma   153.58762691
_symmetry_Int_Tables_number   1
_chemical_formula_structural   ThFeCuSi
_chemical_formula_sum   'Th2 Fe2 Cu2 Si2'
_cell_volume   139.37871047
_cell_formula_units_Z   2
loop_
 _symmetry_equiv_pos_site_id
 _symmetry_equiv_pos_as_xyz
  1  'x, y, z'
loop_
 _atom_site_type_symbol
 _atom_site_label
 _atom_site_symmetry_multiplicity
 _atom_site_fract_x
 _atom_site_fract_y
 _atom_site_fract_z
 _atom_site_occupancy
  Th  Th0  1  0.618513  0.381487  0.250000  1
  Th  Th1  1  0.381487  0.618513  0.750000  1
  Fe  Fe2  1  0.250175  0.749825  0.250000  1
  Fe  Fe3  1  0.749825  0.250175  0.750000  1
  Cu  Cu4  1  0.960045  0.039955  0.250000  1
  Cu  Cu5  1  0.039955  0.960045  0.750000  1
  Si  Si6  1  0.814741  0.185259  0.250000  1
  Si  Si7  1  0.185259  0.814741  0.750000  1
