# generated using pymatgen
data_LiDyHo3Co19P12
_symmetry_space_group_name_H-M   'P 1'
_cell_length_a   3.65440700
_cell_length_b   10.26044755
_cell_length_c   11.77922917
_cell_angle_alpha   89.87277123
_cell_angle_beta   90.00000000
_cell_angle_gamma   90.00000000
_symmetry_Int_Tables_number   1
_chemical_formula_structural   LiDyHo3Co19P12
_chemical_formula_sum   'Li1 Dy1 Ho3 Co19 P12'
_cell_volume   441.67113697
_cell_formula_units_Z   1
loop_
 _symmetry_equiv_pos_site_id
 _symmetry_equiv_pos_as_xyz
  1  'x, y, z'
loop_
 _atom_site_type_symbol
 _atom_site_label
 _atom_site_symmetry_multiplicity
 _atom_site_fract_x
 _atom_site_fract_y
 _atom_site_fract_z
 _atom_site_occupancy
  Li  Li0  1  0.250000  0.703242  0.990478  1
  Dy  Dy1  1  0.750000  0.081296  0.796886  1
  Ho  Ho2  1  0.250000  0.581841  0.701260  1
  Ho  Ho3  1  0.250000  0.918923  0.203385  1
  Ho  Ho4  1  0.750000  0.417717  0.298086  1
  Co  Co5  1  0.250000  0.784269  0.491935  1
  Co  Co6  1  0.750000  0.288819  0.010423  1
  Co  Co7  1  0.750000  0.216111  0.507613  1
  Co  Co8  1  0.250000  0.406144  0.487963  1
  Co  Co9  1  0.250000  0.096016  0.987537  1
  Co  Co10  1  0.750000  0.593115  0.513469  1
  Co  Co11  1  0.750000  0.908670  0.013192  1
  Co  Co12  1  0.250000  0.223012  0.175962  1
  Co  Co13  1  0.250000  0.278554  0.675559  1
  Co  Co14  1  0.750000  0.779891  0.821338  1
  Co  Co15  1  0.750000  0.720430  0.327726  1
  Co  Co16  1  0.250000  0.883695  0.696938  1
  Co  Co17  1  0.250000  0.618875  0.200351  1
  Co  Co18  1  0.750000  0.118001  0.300523  1
  Co  Co19  1  0.750000  0.380557  0.800984  1
  Co  Co20  1  0.250000  0.465169  0.931916  1
  Co  Co21  1  0.250000  0.032847  0.431139  1
  Co  Co22  1  0.750000  0.533373  0.067165  1
  Co  Co23  1  0.750000  0.968409  0.566885  1
  P  P24  1  0.250000  0.421235  0.112864  1
  P  P25  1  0.250000  0.081397  0.611334  1
  P  P26  1  0.750000  0.578693  0.883863  1
  P  P27  1  0.750000  0.918967  0.387584  1
  P  P28  1  0.250000  0.269304  0.868290  1
  P  P29  1  0.250000  0.230160  0.369274  1
  P  P30  1  0.750000  0.730100  0.137385  1
  P  P31  1  0.750000  0.771268  0.630305  1
  P  P32  1  0.250000  0.601146  0.393198  1
  P  P33  1  0.250000  0.898279  0.891009  1
  P  P34  1  0.750000  0.397532  0.608571  1
  P  P35  1  0.750000  0.102941  0.107610  1
