# generated using pymatgen
data_Zr4ScRe24
_symmetry_space_group_name_H-M   'P 1'
_cell_length_a   8.49173250
_cell_length_b   8.49173089
_cell_length_c   8.49173200
_cell_angle_alpha   109.47122806
_cell_angle_beta   109.47122422
_cell_angle_gamma   109.47121415
_symmetry_Int_Tables_number   1
_chemical_formula_structural   Zr4ScRe24
_chemical_formula_sum   'Zr4 Sc1 Re24'
_cell_volume   471.37537552
_cell_formula_units_Z   1
loop_
 _symmetry_equiv_pos_site_id
 _symmetry_equiv_pos_as_xyz
  1  'x, y, z'
loop_
 _atom_site_type_symbol
 _atom_site_label
 _atom_site_symmetry_multiplicity
 _atom_site_fract_x
 _atom_site_fract_y
 _atom_site_fract_z
 _atom_site_occupancy
  Zr  Zr0  1  0.370022  0.370022  0.370022  1
  Zr  Zr1  1  0.000000  0.629978  0.000000  1
  Zr  Zr2  1  0.629978  0.000000  0.000000  1
  Zr  Zr3  1  0.000000  0.000000  0.629978  1
  Sc  Sc4  1  0.000000  0.000000  0.000000  1
  Re  Re5  1  0.000000  0.395779  0.676252  1
  Re  Re6  1  0.280474  0.604221  0.604221  1
  Re  Re7  1  0.719526  0.323748  0.323748  1
  Re  Re8  1  0.323748  0.719526  0.323748  1
  Re  Re9  1  0.676252  0.000000  0.395779  1
  Re  Re10  1  0.000000  0.676252  0.395779  1
  Re  Re11  1  0.604221  0.604221  0.280474  1
  Re  Re12  1  0.806056  0.806056  0.182543  1
  Re  Re13  1  0.376488  0.193944  0.000000  1
  Re  Re14  1  0.193944  0.376488  0.000000  1
  Re  Re15  1  0.623512  0.817457  0.623512  1
  Re  Re16  1  0.376488  0.000000  0.193944  1
  Re  Re17  1  0.000000  0.376488  0.193944  1
  Re  Re18  1  0.817457  0.623512  0.623512  1
  Re  Re19  1  0.182543  0.806056  0.806056  1
  Re  Re20  1  0.806056  0.182543  0.806056  1
  Re  Re21  1  0.193944  0.000000  0.376488  1
  Re  Re22  1  0.000000  0.193944  0.376488  1
  Re  Re23  1  0.623512  0.623512  0.817457  1
  Re  Re24  1  0.395779  0.000000  0.676252  1
  Re  Re25  1  0.604221  0.280474  0.604221  1
  Re  Re26  1  0.676252  0.395779  0.000000  1
  Re  Re27  1  0.395779  0.676252  0.000000  1
  Re  Re28  1  0.323748  0.323748  0.719526  1
