# generated using pymatgen
data_Nd8Tm11Si16Hg
_symmetry_space_group_name_H-M   'P 1'
_cell_length_a   7.71718429
_cell_length_b   7.71718429
_cell_length_c   14.06680739
_cell_angle_alpha   90.21077699
_cell_angle_beta   89.78922301
_cell_angle_gamma   90.03979241
_symmetry_Int_Tables_number   1
_chemical_formula_structural   Nd8Tm11Si16Hg
_chemical_formula_sum   'Nd8 Tm11 Si16 Hg1'
_cell_volume   837.73624509
_cell_formula_units_Z   1
loop_
 _symmetry_equiv_pos_site_id
 _symmetry_equiv_pos_as_xyz
  1  'x, y, z'
loop_
 _atom_site_type_symbol
 _atom_site_label
 _atom_site_symmetry_multiplicity
 _atom_site_fract_x
 _atom_site_fract_y
 _atom_site_fract_z
 _atom_site_occupancy
  Nd  Nd0  1  0.637552  0.998314  0.462039  1
  Nd  Nd1  1  0.357027  0.008460  0.960118  1
  Nd  Nd2  1  0.998314  0.637552  0.537961  1
  Nd  Nd3  1  0.492273  0.854731  0.212669  1
  Nd  Nd4  1  0.502533  0.143631  0.704488  1
  Nd  Nd5  1  0.854731  0.492273  0.787331  1
  Nd  Nd6  1  0.143631  0.502533  0.295512  1
  Nd  Nd7  1  0.008460  0.357027  0.039882  1
  Tm  Tm8  1  0.491459  0.363486  0.123544  1
  Tm  Tm9  1  0.003817  0.140440  0.622162  1
  Tm  Tm10  1  0.859566  0.006054  0.872961  1
  Tm  Tm11  1  0.140440  0.003817  0.377838  1
  Tm  Tm12  1  0.502796  0.631749  0.620417  1
  Tm  Tm13  1  0.363486  0.491459  0.876456  1
  Tm  Tm14  1  0.631749  0.502796  0.379583  1
  Tm  Tm15  1  0.006054  0.859566  0.127039  1
  Tm  Tm16  1  0.183808  0.816422  0.749471  1
  Tm  Tm17  1  0.816422  0.183808  0.250529  1
  Tm  Tm18  1  0.682947  0.682947  0.000000  1
  Si  Si19  1  0.287058  0.917710  0.563960  1
  Si  Si20  1  0.710339  0.062814  0.061872  1
  Si  Si21  1  0.917710  0.287058  0.436040  1
  Si  Si22  1  0.438822  0.208686  0.307859  1
  Si  Si23  1  0.563401  0.791983  0.809351  1
  Si  Si24  1  0.208686  0.438822  0.692141  1
  Si  Si25  1  0.791983  0.563401  0.190649  1
  Si  Si26  1  0.062814  0.710339  0.938128  1
  Si  Si27  1  0.793096  0.850740  0.684255  1
  Si  Si28  1  0.203459  0.151389  0.189186  1
  Si  Si29  1  0.850740  0.793096  0.315745  1
  Si  Si30  1  0.356870  0.724566  0.431123  1
  Si  Si31  1  0.650893  0.294100  0.936655  1
  Si  Si32  1  0.724566  0.356870  0.568877  1
  Si  Si33  1  0.294100  0.650893  0.063345  1
  Si  Si34  1  0.151389  0.203459  0.810814  1
  Hg  Hg35  1  0.317009  0.317009  0.500000  1
