# generated using pymatgen
data_Tm10Lu10Bi11Te
_symmetry_space_group_name_H-M   'P 1'
_cell_length_a   8.12762035
_cell_length_b   9.38769767
_cell_length_c   11.83924100
_cell_angle_alpha   89.98850141
_cell_angle_beta   90.01681309
_cell_angle_gamma   90.01840477
_symmetry_Int_Tables_number   1
_chemical_formula_structural   Tm10Lu10Bi11Te
_chemical_formula_sum   'Tm10 Lu10 Bi11 Te1'
_cell_volume   903.32975385
_cell_formula_units_Z   1
loop_
 _symmetry_equiv_pos_site_id
 _symmetry_equiv_pos_as_xyz
  1  'x, y, z'
loop_
 _atom_site_type_symbol
 _atom_site_label
 _atom_site_symmetry_multiplicity
 _atom_site_fract_x
 _atom_site_fract_y
 _atom_site_fract_z
 _atom_site_occupancy
  Tm  Tm0  1  0.356119  0.249978  0.285314  1
  Tm  Tm1  1  0.645259  0.750085  0.717225  1
  Tm  Tm2  1  0.144969  0.750126  0.781725  1
  Tm  Tm3  1  0.854555  0.249762  0.217697  1
  Tm  Tm4  1  0.188387  0.249937  0.781211  1
  Tm  Tm5  1  0.811984  0.750068  0.217293  1
  Tm  Tm6  1  0.313038  0.750098  0.282562  1
  Tm  Tm7  1  0.682367  0.249868  0.714661  1
  Tm  Tm8  1  0.690523  0.431575  0.442049  1
  Tm  Tm9  1  0.308946  0.563005  0.558999  1
  Lu  Lu10  1  0.024775  0.249809  0.511204  1
  Lu  Lu11  1  0.977294  0.750104  0.489739  1
  Lu  Lu12  1  0.476406  0.749879  0.011028  1
  Lu  Lu13  1  0.524140  0.250116  0.988913  1
  Lu  Lu14  1  0.193384  0.067446  0.059648  1
  Lu  Lu15  1  0.806906  0.933506  0.940672  1
  Lu  Lu16  1  0.308561  0.936254  0.559164  1
  Lu  Lu17  1  0.807000  0.566642  0.940658  1
  Lu  Lu18  1  0.690957  0.069106  0.441911  1
  Lu  Lu19  1  0.193235  0.432450  0.059730  1
  Bi  Bi20  1  0.595907  0.751353  0.457132  1
  Bi  Bi21  1  0.095657  0.750064  0.042881  1
  Bi  Bi22  1  0.905143  0.249987  0.956061  1
  Bi  Bi23  1  0.066747  0.003744  0.326372  1
  Bi  Bi24  1  0.933269  0.997012  0.674360  1
  Bi  Bi25  1  0.433555  0.996199  0.825641  1
  Bi  Bi26  1  0.933079  0.502986  0.674459  1
  Bi  Bi27  1  0.566662  0.004023  0.173928  1
  Bi  Bi28  1  0.066799  0.496268  0.326170  1
  Bi  Bi29  1  0.566591  0.495914  0.174012  1
  Bi  Bi30  1  0.433652  0.503812  0.825634  1
  Te  Te31  1  0.404136  0.248828  0.541947  1
