# generated using pymatgen
data_Li3Er4Si6Pd
_symmetry_space_group_name_H-M   'P 1'
_cell_length_a   9.16507887
_cell_length_b   9.16508043
_cell_length_c   6.66808122
_cell_angle_alpha   90.39065830
_cell_angle_beta   89.60934039
_cell_angle_gamma   153.44950130
_symmetry_Int_Tables_number   1
_chemical_formula_structural   Li3Er4Si6Pd
_chemical_formula_sum   'Li3 Er4 Si6 Pd1'
_cell_volume   250.35543678
_cell_formula_units_Z   1
loop_
 _symmetry_equiv_pos_site_id
 _symmetry_equiv_pos_as_xyz
  1  'x, y, z'
loop_
 _atom_site_type_symbol
 _atom_site_label
 _atom_site_symmetry_multiplicity
 _atom_site_fract_x
 _atom_site_fract_y
 _atom_site_fract_z
 _atom_site_occupancy
  Li  Li0  1  0.190382  0.809618  0.440005  1
  Li  Li1  1  0.190047  0.809953  0.060097  1
  Li  Li2  1  0.812240  0.187760  0.938575  1
  Er  Er3  1  0.550003  0.449997  0.252751  1
  Er  Er4  1  0.447248  0.552752  0.750180  1
  Er  Er5  1  0.343700  0.656300  0.249039  1
  Er  Er6  1  0.656272  0.343728  0.745914  1
  Si  Si7  1  0.940853  0.059147  0.074394  1
  Si  Si8  1  0.060151  0.939849  0.929267  1
  Si  Si9  1  0.058797  0.941203  0.573503  1
  Si  Si10  1  0.938162  0.061838  0.430631  1
  Si  Si11  1  0.721067  0.278933  0.253270  1
  Si  Si12  1  0.280627  0.719373  0.743296  1
  Pd  Pd13  1  0.810448  0.189552  0.559075  1
