# generated using pymatgen
data_Ho4Tm8ZnGaCo4
_symmetry_space_group_name_H-M   'P 1'
_cell_length_a   8.16571607
_cell_length_b   8.16571592
_cell_length_c   8.16571628
_cell_angle_alpha   112.20962484
_cell_angle_beta   109.51907508
_cell_angle_gamma   106.73125209
_symmetry_Int_Tables_number   1
_chemical_formula_structural   Ho4Tm8ZnGaCo4
_chemical_formula_sum   'Ho4 Tm8 Zn1 Ga1 Co4'
_cell_volume   418.18434699
_cell_formula_units_Z   1
loop_
 _symmetry_equiv_pos_site_id
 _symmetry_equiv_pos_as_xyz
  1  'x, y, z'
loop_
 _atom_site_type_symbol
 _atom_site_label
 _atom_site_symmetry_multiplicity
 _atom_site_fract_x
 _atom_site_fract_y
 _atom_site_fract_z
 _atom_site_occupancy
  Ho  Ho0  1  0.434467  0.237374  0.197093  1
  Ho  Ho1  1  0.565533  0.762626  0.802907  1
  Ho  Ho2  1  0.040281  0.237374  0.802907  1
  Ho  Ho3  1  0.959719  0.762626  0.197093  1
  Tm  Tm4  1  0.179762  0.281261  0.461022  1
  Tm  Tm5  1  0.820238  0.718739  0.538978  1
  Tm  Tm6  1  0.179762  0.718739  0.898500  1
  Tm  Tm7  1  0.820238  0.281261  0.101500  1
  Tm  Tm8  1  0.326624  0.636844  0.310220  1
  Tm  Tm9  1  0.673376  0.363156  0.689780  1
  Tm  Tm10  1  0.326624  0.016404  0.689780  1
  Tm  Tm11  1  0.673376  0.983596  0.310220  1
  Zn  Zn12  1  0.000000  0.000000  0.000000  1
  Ga  Ga13  1  0.500000  0.500000  0.000000  1
  Co  Co14  1  0.339825  0.000000  0.339825  1
  Co  Co15  1  0.660175  0.000000  0.660175  1
  Co  Co16  1  0.116033  0.616033  0.500000  1
  Co  Co17  1  0.883967  0.383967  0.500000  1
