# generated using pymatgen
data_Hf54Re17
_symmetry_space_group_name_H-M   'P 1'
_cell_length_a   12.31234129
_cell_length_b   12.31234137
_cell_length_c   12.31234100
_cell_angle_alpha   111.40121691
_cell_angle_beta   109.88368787
_cell_angle_gamma   107.15703391
_symmetry_Int_Tables_number   1
_chemical_formula_structural   Hf54Re17
_chemical_formula_sum   'Hf54 Re17'
_cell_volume   1434.80034779
_cell_formula_units_Z   1
loop_
 _symmetry_equiv_pos_site_id
 _symmetry_equiv_pos_as_xyz
  1  'x, y, z'
loop_
 _atom_site_type_symbol
 _atom_site_label
 _atom_site_symmetry_multiplicity
 _atom_site_fract_x
 _atom_site_fract_y
 _atom_site_fract_z
 _atom_site_occupancy
  Hf  Hf0  1  0.794916  0.299048  0.878055  1
  Hf  Hf1  1  0.467662  0.168445  0.064258  1
  Hf  Hf2  1  0.828807  0.939883  0.111076  1
  Hf  Hf3  1  0.794916  0.916862  0.495869  1
  Hf  Hf4  1  0.068066  0.488525  0.196679  1
  Hf  Hf5  1  0.390586  0.376044  0.766629  1
  Hf  Hf6  1  0.931934  0.128613  0.420459  1
  Hf  Hf7  1  0.104187  0.403404  0.935742  1
  Hf  Hf8  1  0.109936  0.176895  0.286832  1
  Hf  Hf9  1  0.079809  0.895349  0.184461  1
  Hf  Hf10  1  0.205084  0.083138  0.504131  1
  Hf  Hf11  1  0.109936  0.823105  0.933041  1
  Hf  Hf12  1  0.000000  0.386352  0.386352  1
  Hf  Hf13  1  0.710888  0.895349  0.815539  1
  Hf  Hf14  1  0.171193  0.060117  0.888923  1
  Hf  Hf15  1  0.205084  0.700952  0.121945  1
  Hf  Hf16  1  0.663511  0.263496  0.599984  1
  Hf  Hf17  1  0.291845  0.488525  0.420459  1
  Hf  Hf18  1  0.420993  0.299048  0.504131  1
  Hf  Hf19  1  0.708155  0.511475  0.579541  1
  Hf  Hf20  1  0.171193  0.282270  0.111076  1
  Hf  Hf21  1  0.914264  0.596554  0.317709  1
  Hf  Hf22  1  0.085736  0.403446  0.682291  1
  Hf  Hf23  1  0.895813  0.596596  0.064258  1
  Hf  Hf24  1  0.721154  0.403446  0.317709  1
  Hf  Hf25  1  0.356172  0.356172  0.000000  1
  Hf  Hf26  1  0.895813  0.831555  0.299216  1
  Hf  Hf27  1  0.920191  0.104651  0.815539  1
  Hf  Hf28  1  0.532338  0.596596  0.700784  1
  Hf  Hf29  1  0.532338  0.831555  0.935742  1
  Hf  Hf30  1  0.579007  0.083138  0.878055  1
  Hf  Hf31  1  0.643828  0.643828  0.000000  1
  Hf  Hf32  1  0.104187  0.168445  0.700784  1
  Hf  Hf33  1  0.611516  0.000000  0.611516  1
  Hf  Hf34  1  0.390586  0.623956  0.014543  1
  Hf  Hf35  1  0.291845  0.871387  0.803321  1
  Hf  Hf36  1  0.890064  0.823105  0.713168  1
  Hf  Hf37  1  0.890064  0.176895  0.066959  1
  Hf  Hf38  1  0.609414  0.376044  0.985457  1
  Hf  Hf39  1  0.609414  0.623956  0.233371  1
  Hf  Hf40  1  0.708155  0.128613  0.196679  1
  Hf  Hf41  1  0.467662  0.403404  0.299216  1
  Hf  Hf42  1  0.278846  0.596554  0.682291  1
  Hf  Hf43  1  0.336489  0.736504  0.400016  1
  Hf  Hf44  1  0.388484  0.000000  0.388484  1
  Hf  Hf45  1  0.663511  0.063527  0.400016  1
  Hf  Hf46  1  0.828807  0.717730  0.888923  1
  Hf  Hf47  1  0.289112  0.104651  0.184461  1
  Hf  Hf48  1  0.000000  0.613648  0.613648  1
  Hf  Hf49  1  0.579007  0.700952  0.495869  1
  Hf  Hf50  1  0.336489  0.936473  0.599984  1
  Hf  Hf51  1  0.420993  0.916862  0.121945  1
  Hf  Hf52  1  0.068066  0.871387  0.579541  1
  Hf  Hf53  1  0.931934  0.511475  0.803321  1
  Re  Re54  1  0.500000  0.189942  0.689942  1
  Re  Re55  1  0.662714  0.461783  0.799068  1
  Re  Re56  1  0.881205  0.213953  0.667252  1
  Re  Re57  1  0.790322  0.672069  0.462391  1
  Re  Re58  1  0.453299  0.786047  0.667252  1
  Re  Re59  1  0.662714  0.863646  0.200932  1
  Re  Re60  1  0.337286  0.136354  0.799068  1
  Re  Re61  1  0.118795  0.786047  0.332748  1
  Re  Re62  1  0.209678  0.672069  0.881747  1
  Re  Re63  1  0.835314  0.335314  0.500000  1
  Re  Re64  1  0.164686  0.664686  0.500000  1
  Re  Re65  1  0.000000  0.000000  0.000000  1
  Re  Re66  1  0.500000  0.810058  0.310058  1
  Re  Re67  1  0.546701  0.213953  0.332748  1
  Re  Re68  1  0.209678  0.327931  0.537609  1
  Re  Re69  1  0.790322  0.327931  0.118253  1
  Re  Re70  1  0.337286  0.538217  0.200932  1
