# generated using pymatgen
data_Tb7TmSc11Si16Au
_symmetry_space_group_name_H-M   'P 1'
_cell_length_a   7.02534418
_cell_length_b   7.39679537
_cell_length_c   14.03574132
_cell_angle_alpha   89.95592237
_cell_angle_beta   89.97684004
_cell_angle_gamma   89.80651981
_symmetry_Int_Tables_number   1
_chemical_formula_structural   Tb7TmSc11Si16Au
_chemical_formula_sum   'Tb7 Tm1 Sc11 Si16 Au1'
_cell_volume   729.36333188
_cell_formula_units_Z   1
loop_
 _symmetry_equiv_pos_site_id
 _symmetry_equiv_pos_as_xyz
  1  'x, y, z'
loop_
 _atom_site_type_symbol
 _atom_site_label
 _atom_site_symmetry_multiplicity
 _atom_site_fract_x
 _atom_site_fract_y
 _atom_site_fract_z
 _atom_site_occupancy
  Tb  Tb0  1  0.991270  0.814806  0.901037  1
  Tb  Tb1  1  0.483721  0.672679  0.900934  1
  Tb  Tb2  1  0.991314  0.814894  0.599403  1
  Tb  Tb3  1  0.510744  0.323286  0.096763  1
  Tb  Tb4  1  0.010767  0.174128  0.403741  1
  Tb  Tb5  1  0.510839  0.323548  0.402928  1
  Tb  Tb6  1  0.484093  0.672913  0.599393  1
  Tm  Tm7  1  0.011194  0.175267  0.097010  1
  Sc  Sc8  1  0.838778  0.497335  0.249693  1
  Sc  Sc9  1  0.339993  0.003077  0.249702  1
  Sc  Sc10  1  0.656991  0.999004  0.750044  1
  Sc  Sc11  1  0.324525  0.183480  0.626866  1
  Sc  Sc12  1  0.671543  0.823833  0.374990  1
  Sc  Sc13  1  0.171040  0.678549  0.373673  1
  Sc  Sc14  1  0.671644  0.824209  0.124634  1
  Sc  Sc15  1  0.836939  0.327995  0.626882  1
  Sc  Sc16  1  0.324489  0.183590  0.873243  1
  Sc  Sc17  1  0.837178  0.327427  0.873279  1
  Sc  Sc18  1  0.170779  0.678670  0.126073  1
  Si  Si19  1  0.027171  0.098443  0.750212  1
  Si  Si20  1  0.969007  0.887423  0.249516  1
  Si  Si21  1  0.467692  0.618560  0.249799  1
  Si  Si22  1  0.537065  0.383771  0.750097  1
  Si  Si23  1  0.289141  0.885834  0.750075  1
  Si  Si24  1  0.714454  0.127036  0.249120  1
  Si  Si25  1  0.211563  0.371917  0.249325  1
  Si  Si26  1  0.778228  0.627386  0.750163  1
  Si  Si27  1  0.160687  0.459429  0.530520  1
  Si  Si28  1  0.843594  0.535538  0.461941  1
  Si  Si29  1  0.345505  0.964793  0.463052  1
  Si  Si30  1  0.844042  0.534244  0.038518  1
  Si  Si31  1  0.657202  0.033868  0.540553  1
  Si  Si32  1  0.160480  0.457761  0.970076  1
  Si  Si33  1  0.657271  0.034013  0.959497  1
  Si  Si34  1  0.343483  0.965744  0.037307  1
  Au  Au35  1  0.155575  0.515552  0.749940  1
