# generated using pymatgen
data_Tb2Sc3Pt4
_symmetry_space_group_name_H-M   'P 1'
_cell_length_a   7.41600100
_cell_length_b   7.38900500
_cell_length_c   13.81243200
_cell_angle_alpha   90.00000000
_cell_angle_beta   90.00000000
_cell_angle_gamma   90.00000000
_symmetry_Int_Tables_number   1
_chemical_formula_structural   Tb2Sc3Pt4
_chemical_formula_sum   'Tb8 Sc12 Pt16'
_cell_volume   756.87801954
_cell_formula_units_Z   4
loop_
 _symmetry_equiv_pos_site_id
 _symmetry_equiv_pos_as_xyz
  1  'x, y, z'
loop_
 _atom_site_type_symbol
 _atom_site_label
 _atom_site_symmetry_multiplicity
 _atom_site_fract_x
 _atom_site_fract_y
 _atom_site_fract_z
 _atom_site_occupancy
  Tb  Tb0  1  0.009182  0.175220  0.095981  1
  Tb  Tb1  1  0.990818  0.824780  0.904019  1
  Tb  Tb2  1  0.490818  0.675220  0.904019  1
  Tb  Tb3  1  0.990818  0.824780  0.595981  1
  Tb  Tb4  1  0.509182  0.324780  0.095981  1
  Tb  Tb5  1  0.009182  0.175220  0.404019  1
  Tb  Tb6  1  0.509182  0.324780  0.404019  1
  Tb  Tb7  1  0.490818  0.675220  0.595981  1
  Sc  Sc8  1  0.163767  0.499777  0.750000  1
  Sc  Sc9  1  0.836233  0.500223  0.250000  1
  Sc  Sc10  1  0.336233  0.999777  0.250000  1
  Sc  Sc11  1  0.663767  0.000223  0.750000  1
  Sc  Sc12  1  0.332059  0.166122  0.623904  1
  Sc  Sc13  1  0.667941  0.833878  0.376096  1
  Sc  Sc14  1  0.167941  0.666122  0.376096  1
  Sc  Sc15  1  0.667941  0.833878  0.123904  1
  Sc  Sc16  1  0.832059  0.333878  0.623904  1
  Sc  Sc17  1  0.332059  0.166122  0.876096  1
  Sc  Sc18  1  0.832059  0.333878  0.876096  1
  Sc  Sc19  1  0.167941  0.666122  0.123904  1
  Pt  Pt20  1  0.030494  0.127175  0.750000  1
  Pt  Pt21  1  0.969506  0.872825  0.250000  1
  Pt  Pt22  1  0.469506  0.627175  0.250000  1
  Pt  Pt23  1  0.530494  0.372825  0.750000  1
  Pt  Pt24  1  0.294037  0.858571  0.750000  1
  Pt  Pt25  1  0.705963  0.141429  0.250000  1
  Pt  Pt26  1  0.205963  0.358571  0.250000  1
  Pt  Pt27  1  0.794037  0.641429  0.750000  1
  Pt  Pt28  1  0.171328  0.458659  0.543668  1
  Pt  Pt29  1  0.828672  0.541341  0.456332  1
  Pt  Pt30  1  0.328672  0.958659  0.456332  1
  Pt  Pt31  1  0.828672  0.541341  0.043668  1
  Pt  Pt32  1  0.671328  0.041341  0.543668  1
  Pt  Pt33  1  0.171328  0.458659  0.956332  1
  Pt  Pt34  1  0.671328  0.041341  0.956332  1
  Pt  Pt35  1  0.328672  0.958659  0.043668  1
