# generated using pymatgen
data_Ho5(TcB3)2
_symmetry_space_group_name_H-M   'P 1'
_cell_length_a   5.52259716
_cell_length_b   5.52259850
_cell_length_c   8.48834159
_cell_angle_alpha   71.01595375
_cell_angle_beta   71.01594712
_cell_angle_gamma   59.99999098
_symmetry_Int_Tables_number   1
_chemical_formula_structural   Ho5(TcB3)2
_chemical_formula_sum   'Ho5 Tc2 B6'
_cell_volume   207.78402550
_cell_formula_units_Z   1
loop_
 _symmetry_equiv_pos_site_id
 _symmetry_equiv_pos_as_xyz
  1  'x, y, z'
loop_
 _atom_site_type_symbol
 _atom_site_label
 _atom_site_symmetry_multiplicity
 _atom_site_fract_x
 _atom_site_fract_y
 _atom_site_fract_z
 _atom_site_occupancy
  Ho  Ho0  1  0.000000  0.000000  0.000000  1
  Ho  Ho1  1  0.247557  0.247557  0.257329  1
  Ho  Ho2  1  0.752443  0.752443  0.742671  1
  Ho  Ho3  1  0.418814  0.418814  0.743558  1
  Ho  Ho4  1  0.581186  0.581186  0.256442  1
  Tc  Tc5  1  0.111025  0.111025  0.666925  1
  Tc  Tc6  1  0.888975  0.888975  0.333075  1
  B  B7  1  0.171265  0.828735  0.500000  1
  B  B8  1  0.828735  0.500000  0.500000  1
  B  B9  1  0.500000  0.171265  0.500000  1
  B  B10  1  0.171265  0.500000  0.500000  1
  B  B11  1  0.500000  0.828735  0.500000  1
  B  B12  1  0.828735  0.171265  0.500000  1
