# generated using pymatgen
data_Tb2Sc(AgGe)3
_symmetry_space_group_name_H-M   'P 1'
_cell_length_a   7.11111103
_cell_length_b   7.17698806
_cell_length_c   4.16755300
_cell_angle_alpha   90.00000000
_cell_angle_beta   90.00000000
_cell_angle_gamma   120.30692484
_symmetry_Int_Tables_number   1
_chemical_formula_structural   Tb2Sc(AgGe)3
_chemical_formula_sum   'Tb2 Sc1 Ag3 Ge3'
_cell_volume   183.62843993
_cell_formula_units_Z   1
loop_
 _symmetry_equiv_pos_site_id
 _symmetry_equiv_pos_as_xyz
  1  'x, y, z'
loop_
 _atom_site_type_symbol
 _atom_site_label
 _atom_site_symmetry_multiplicity
 _atom_site_fract_x
 _atom_site_fract_y
 _atom_site_fract_z
 _atom_site_occupancy
  Tb  Tb0  1  0.416101  0.417685  0.000000  1
  Tb  Tb1  1  0.583899  0.001584  0.000000  1
  Sc  Sc2  1  0.000000  0.585394  0.000000  1
  Ag  Ag3  1  0.749056  0.747450  0.500000  1
  Ag  Ag4  1  0.250944  0.998393  0.500000  1
  Ag  Ag5  1  0.000000  0.253303  0.500000  1
  Ge  Ge6  1  0.676612  0.340387  0.500000  1
  Ge  Ge7  1  0.323388  0.663776  0.500000  1
  Ge  Ge8  1  0.000000  0.992028  0.000000  1
