# generated using pymatgen
data_La7NdHg4
_symmetry_space_group_name_H-M   'P 1'
_cell_length_a   5.38463800
_cell_length_b   7.22743601
_cell_length_c   9.96524610
_cell_angle_alpha   89.93369733
_cell_angle_beta   90.00000000
_cell_angle_gamma   90.00000000
_symmetry_Int_Tables_number   1
_chemical_formula_structural   La7NdHg4
_chemical_formula_sum   'La7 Nd1 Hg4'
_cell_volume   387.81848406
_cell_formula_units_Z   1
loop_
 _symmetry_equiv_pos_site_id
 _symmetry_equiv_pos_as_xyz
  1  'x, y, z'
loop_
 _atom_site_type_symbol
 _atom_site_label
 _atom_site_symmetry_multiplicity
 _atom_site_fract_x
 _atom_site_fract_y
 _atom_site_fract_z
 _atom_site_occupancy
  La  La0  1  0.250000  0.822260  0.918519  1
  La  La1  1  0.250000  0.320552  0.579197  1
  La  La2  1  0.750000  0.177678  0.079947  1
  La  La3  1  0.750000  0.679218  0.420846  1
  La  La4  1  0.250000  0.486850  0.189858  1
  La  La5  1  0.250000  0.987095  0.310161  1
  La  La6  1  0.750000  0.513240  0.808109  1
  Nd  Nd7  1  0.750000  0.012494  0.691209  1
  Hg  Hg8  1  0.250000  0.266460  0.898897  1
  Hg  Hg9  1  0.250000  0.769994  0.600989  1
  Hg  Hg10  1  0.750000  0.732807  0.100606  1
  Hg  Hg11  1  0.750000  0.231352  0.401663  1
