# generated using pymatgen
data_Y3Ho(Zn3Cd)3
_symmetry_space_group_name_H-M   'P 1'
_cell_length_a   4.41955800
_cell_length_b   7.12893125
_cell_length_c   10.04877513
_cell_angle_alpha   90.05461867
_cell_angle_beta   90.00000000
_cell_angle_gamma   90.00000000
_symmetry_Int_Tables_number   1
_chemical_formula_structural   Y3Ho(Zn3Cd)3
_chemical_formula_sum   'Y3 Ho1 Zn9 Cd3'
_cell_volume   316.60385206
_cell_formula_units_Z   1
loop_
 _symmetry_equiv_pos_site_id
 _symmetry_equiv_pos_as_xyz
  1  'x, y, z'
loop_
 _atom_site_type_symbol
 _atom_site_label
 _atom_site_symmetry_multiplicity
 _atom_site_fract_x
 _atom_site_fract_y
 _atom_site_fract_z
 _atom_site_occupancy
  Y  Y0  1  0.250000  0.298576  0.671767  1
  Y  Y1  1  0.750000  0.701877  0.330722  1
  Y  Y2  1  0.750000  0.199939  0.172167  1
  Ho  Ho3  1  0.250000  0.803105  0.824233  1
  Zn  Zn4  1  0.750000  0.963447  0.601011  1
  Zn  Zn5  1  0.750000  0.297045  0.465430  1
  Zn  Zn6  1  0.250000  0.697659  0.539267  1
  Zn  Zn7  1  0.750000  0.810105  0.036335  1
  Zn  Zn8  1  0.250000  0.188096  0.960948  1
  Zn  Zn9  1  0.750000  0.591122  0.641891  1
  Zn  Zn10  1  0.250000  0.417775  0.360533  1
  Zn  Zn11  1  0.750000  0.081033  0.847767  1
  Zn  Zn12  1  0.250000  0.917067  0.143758  1
  Cd  Cd13  1  0.250000  0.533891  0.100099  1
  Cd  Cd14  1  0.750000  0.465694  0.898552  1
  Cd  Cd15  1  0.250000  0.033568  0.405520  1
