# generated using pymatgen
data_Pr4Ga18(RuPt)3
_symmetry_space_group_name_H-M   'P 1'
_cell_length_a   7.69220079
_cell_length_b   7.69220147
_cell_length_c   9.69070812
_cell_angle_alpha   89.97184488
_cell_angle_beta   89.97184232
_cell_angle_gamma   119.33553519
_symmetry_Int_Tables_number   1
_chemical_formula_structural   Pr4Ga18(RuPt)3
_chemical_formula_sum   'Pr4 Ga18 Ru3 Pt3'
_cell_volume   499.86909987
_cell_formula_units_Z   1
loop_
 _symmetry_equiv_pos_site_id
 _symmetry_equiv_pos_as_xyz
  1  'x, y, z'
loop_
 _atom_site_type_symbol
 _atom_site_label
 _atom_site_symmetry_multiplicity
 _atom_site_fract_x
 _atom_site_fract_y
 _atom_site_fract_z
 _atom_site_occupancy
  Pr  Pr0  1  0.999762  0.670007  0.250529  1
  Pr  Pr1  1  0.003451  0.333013  0.749639  1
  Pr  Pr2  1  0.666987  0.996549  0.250361  1
  Pr  Pr3  1  0.329993  0.000238  0.749471  1
  Ga  Ga4  1  0.123102  0.125274  0.250406  1
  Ga  Ga5  1  0.874726  0.876898  0.749594  1
  Ga  Ga6  1  0.002829  0.329989  0.079136  1
  Ga  Ga7  1  0.995903  0.670379  0.920016  1
  Ga  Ga8  1  0.990524  0.664678  0.577865  1
  Ga  Ga9  1  0.335322  0.009477  0.422135  1
  Ga  Ga10  1  0.998404  0.331030  0.422061  1
  Ga  Ga11  1  0.668970  0.001596  0.577939  1
  Ga  Ga12  1  0.670011  0.997171  0.920864  1
  Ga  Ga13  1  0.329621  0.004098  0.079984  1
  Ga  Ga14  1  0.331762  0.325352  0.556296  1
  Ga  Ga15  1  0.674648  0.668238  0.443704  1
  Ga  Ga16  1  0.673248  0.673080  0.060470  1
  Ga  Ga17  1  0.326920  0.326752  0.939530  1
  Ga  Ga18  1  0.341698  0.540570  0.250353  1
  Ga  Ga19  1  0.656594  0.452200  0.745605  1
  Ga  Ga20  1  0.547800  0.343406  0.254395  1
  Ga  Ga21  1  0.459430  0.658302  0.749647  1
  Ru  Ru22  1  0.670888  0.329112  0.500000  1
  Ru  Ru23  1  0.999921  0.000079  0.000000  1
  Ru  Ru24  1  0.999127  0.000873  0.500000  1
  Pt  Pt25  1  0.670138  0.329862  0.000000  1
  Pt  Pt26  1  0.329592  0.670408  0.000000  1
  Pt  Pt27  1  0.328631  0.671369  0.500000  1
