# generated using pymatgen
data_K4Ti6FeCl18
_symmetry_space_group_name_H-M   'P 1'
_cell_length_a   9.80566720
_cell_length_b   10.00923933
_cell_length_c   10.09310889
_cell_angle_alpha   118.49552384
_cell_angle_beta   100.45824441
_cell_angle_gamma   103.75399261
_symmetry_Int_Tables_number   1
_chemical_formula_structural   K4Ti6FeCl18
_chemical_formula_sum   'K4 Ti6 Fe1 Cl18'
_cell_volume   793.55912931
_cell_formula_units_Z   1
loop_
 _symmetry_equiv_pos_site_id
 _symmetry_equiv_pos_as_xyz
  1  'x, y, z'
loop_
 _atom_site_type_symbol
 _atom_site_label
 _atom_site_symmetry_multiplicity
 _atom_site_fract_x
 _atom_site_fract_y
 _atom_site_fract_z
 _atom_site_occupancy
  K  K0  1  0.658097  0.538575  0.229570  1
  K  K1  1  0.341903  0.461425  0.770430  1
  K  K2  1  0.693837  0.228443  0.566271  1
  K  K3  1  0.306163  0.771557  0.433729  1
  Ti  Ti4  1  0.155996  0.057824  0.236144  1
  Ti  Ti5  1  0.844004  0.942176  0.763856  1
  Ti  Ti6  1  0.857316  0.129093  0.135400  1
  Ti  Ti7  1  0.142684  0.870907  0.864600  1
  Ti  Ti8  1  0.149759  0.244050  0.045958  1
  Ti  Ti9  1  0.850241  0.755950  0.954042  1
  Fe  Fe10  1  0.000000  0.000000  0.000000  1
  Cl  Cl11  1  0.009114  0.395041  0.190352  1
  Cl  Cl12  1  0.990886  0.604959  0.809648  1
  Cl  Cl13  1  0.320007  0.321372  0.300365  1
  Cl  Cl14  1  0.679993  0.678628  0.699635  1
  Cl  Cl15  1  0.318965  0.510426  0.098795  1
  Cl  Cl16  1  0.681035  0.489574  0.901205  1
  Cl  Cl17  1  0.005358  0.803286  0.202287  1
  Cl  Cl18  1  0.994642  0.196714  0.797713  1
  Cl  Cl19  1  0.708817  0.269872  0.282443  1
  Cl  Cl20  1  0.291183  0.730128  0.717557  1
  Cl  Cl21  1  0.306570  0.122441  0.906671  1
  Cl  Cl22  1  0.693430  0.877559  0.093329  1
  Cl  Cl23  1  0.015853  0.197095  0.393800  1
  Cl  Cl24  1  0.984147  0.802905  0.606200  1
  Cl  Cl25  1  0.311075  0.924890  0.106520  1
  Cl  Cl26  1  0.688925  0.075110  0.893480  1
  Cl  Cl27  1  0.331986  0.120320  0.492799  1
  Cl  Cl28  1  0.668014  0.879680  0.507201  1
