# generated using pymatgen
data_Sr4YbHo5Sn8
_symmetry_space_group_name_H-M   'P 1'
_cell_length_a   8.03444000
_cell_length_b   8.53917500
_cell_length_c   16.12337600
_cell_angle_alpha   90.00000000
_cell_angle_beta   90.00000000
_cell_angle_gamma   90.00000000
_symmetry_Int_Tables_number   1
_chemical_formula_structural   Sr4YbHo5Sn8
_chemical_formula_sum   'Sr8 Yb2 Ho10 Sn16'
_cell_volume   1106.18434458
_cell_formula_units_Z   2
loop_
 _symmetry_equiv_pos_site_id
 _symmetry_equiv_pos_as_xyz
  1  'x, y, z'
loop_
 _atom_site_type_symbol
 _atom_site_label
 _atom_site_symmetry_multiplicity
 _atom_site_fract_x
 _atom_site_fract_y
 _atom_site_fract_z
 _atom_site_occupancy
  Sr  Sr0  1  0.502082  0.678786  0.593588  1
  Sr  Sr1  1  0.002082  0.821214  0.906412  1
  Sr  Sr2  1  0.495263  0.317094  0.091735  1
  Sr  Sr3  1  0.995263  0.182906  0.408265  1
  Sr  Sr4  1  0.495263  0.317094  0.408265  1
  Sr  Sr5  1  0.995263  0.182906  0.091735  1
  Sr  Sr6  1  0.502082  0.678786  0.906412  1
  Sr  Sr7  1  0.002082  0.821214  0.593588  1
  Yb  Yb8  1  0.163179  0.492251  0.250000  1
  Yb  Yb9  1  0.663179  0.007749  0.250000  1
  Ho  Ho10  1  0.675604  0.162921  0.624916  1
  Ho  Ho11  1  0.175604  0.337079  0.875084  1
  Ho  Ho12  1  0.326780  0.833716  0.122265  1
  Ho  Ho13  1  0.826780  0.666284  0.377735  1
  Ho  Ho14  1  0.326780  0.833716  0.377735  1
  Ho  Ho15  1  0.826780  0.666284  0.122265  1
  Ho  Ho16  1  0.675604  0.162921  0.875084  1
  Ho  Ho17  1  0.175604  0.337079  0.624916  1
  Ho  Ho18  1  0.839591  0.505667  0.750000  1
  Ho  Ho19  1  0.339591  0.994333  0.750000  1
  Sn  Sn20  1  0.664799  0.959321  0.459810  1
  Sn  Sn21  1  0.164799  0.540679  0.040190  1
  Sn  Sn22  1  0.335301  0.039125  0.955550  1
  Sn  Sn23  1  0.835301  0.460875  0.544450  1
  Sn  Sn24  1  0.335301  0.039125  0.544450  1
  Sn  Sn25  1  0.835301  0.460875  0.955550  1
  Sn  Sn26  1  0.664799  0.959321  0.040190  1
  Sn  Sn27  1  0.164799  0.540679  0.459810  1
  Sn  Sn28  1  0.477111  0.367423  0.750000  1
  Sn  Sn29  1  0.977111  0.132577  0.750000  1
  Sn  Sn30  1  0.528269  0.630460  0.250000  1
  Sn  Sn31  1  0.028269  0.869540  0.250000  1
  Sn  Sn32  1  0.710196  0.867410  0.750000  1
  Sn  Sn33  1  0.210196  0.632590  0.750000  1
  Sn  Sn34  1  0.281998  0.119464  0.250000  1
  Sn  Sn35  1  0.781998  0.380536  0.250000  1
