# generated using pymatgen
data_Yb3ThPdPt3
_symmetry_space_group_name_H-M   'P 1'
_cell_length_a   4.43427900
_cell_length_b   5.67818756
_cell_length_c   7.24389779
_cell_angle_alpha   90.02849428
_cell_angle_beta   90.00000000
_cell_angle_gamma   90.00000000
_symmetry_Int_Tables_number   1
_chemical_formula_structural   Yb3ThPdPt3
_chemical_formula_sum   'Yb3 Th1 Pd1 Pt3'
_cell_volume   182.39167391
_cell_formula_units_Z   1
loop_
 _symmetry_equiv_pos_site_id
 _symmetry_equiv_pos_as_xyz
  1  'x, y, z'
loop_
 _atom_site_type_symbol
 _atom_site_label
 _atom_site_symmetry_multiplicity
 _atom_site_fract_x
 _atom_site_fract_y
 _atom_site_fract_z
 _atom_site_occupancy
  Yb  Yb0  1  0.750000  0.640327  0.319708  1
  Yb  Yb1  1  0.750000  0.857930  0.815943  1
  Yb  Yb2  1  0.250000  0.358842  0.682666  1
  Th  Th3  1  0.250000  0.140937  0.181597  1
  Pd  Pd4  1  0.250000  0.850791  0.541859  1
  Pt  Pt5  1  0.750000  0.148142  0.450650  1
  Pt  Pt6  1  0.250000  0.661923  0.042799  1
  Pt  Pt7  1  0.750000  0.341107  0.964777  1
