# generated using pymatgen
data_ErOs3Pb4O13
_symmetry_space_group_name_H-M   'P 1'
_cell_length_a   7.59926655
_cell_length_b   7.59926560
_cell_length_c   7.59926453
_cell_angle_alpha   58.62363506
_cell_angle_beta   58.62363779
_cell_angle_gamma   58.62363926
_symmetry_Int_Tables_number   1
_chemical_formula_structural   ErOs3Pb4O13
_chemical_formula_sum   'Er1 Os3 Pb4 O13'
_cell_volume   300.54938586
_cell_formula_units_Z   1
loop_
 _symmetry_equiv_pos_site_id
 _symmetry_equiv_pos_as_xyz
  1  'x, y, z'
loop_
 _atom_site_type_symbol
 _atom_site_label
 _atom_site_symmetry_multiplicity
 _atom_site_fract_x
 _atom_site_fract_y
 _atom_site_fract_z
 _atom_site_occupancy
  Er  Er0  1  0.501606  0.501606  0.501606  1
  Os  Os1  1  0.000397  0.501326  0.501326  1
  Os  Os2  1  0.501326  0.501326  0.000397  1
  Os  Os3  1  0.501326  0.000397  0.501326  1
  Pb  Pb4  1  0.997997  0.997997  0.997997  1
  Pb  Pb5  1  0.502324  0.004105  0.004105  1
  Pb  Pb6  1  0.004105  0.004105  0.502324  1
  Pb  Pb7  1  0.004105  0.502324  0.004105  1
  O  O8  1  0.866686  0.408246  0.408246  1
  O  O9  1  0.423425  0.802242  0.802242  1
  O  O10  1  0.408246  0.408246  0.866686  1
  O  O11  1  0.802242  0.802242  0.423425  1
  O  O12  1  0.802242  0.423425  0.802242  1
  O  O13  1  0.408246  0.866686  0.408246  1
  O  O14  1  0.145126  0.583850  0.583850  1
  O  O15  1  0.585893  0.191552  0.191552  1
  O  O16  1  0.583850  0.583850  0.145126  1
  O  O17  1  0.191552  0.191552  0.585893  1
  O  O18  1  0.191552  0.585893  0.191552  1
  O  O19  1  0.583850  0.145126  0.583850  1
  O  O20  1  0.118899  0.118899  0.118899  1
