# generated using pymatgen
data_Ba2Ga6TcIr
_symmetry_space_group_name_H-M   'P 1'
_cell_length_a   6.94250192
_cell_length_b   6.94250278
_cell_length_c   6.94250300
_cell_angle_alpha   119.99999626
_cell_angle_beta   120.00000040
_cell_angle_gamma   90.00000192
_symmetry_Int_Tables_number   1
_chemical_formula_structural   Ba2Ga6TcIr
_chemical_formula_sum   'Ba2 Ga6 Tc1 Ir1'
_cell_volume   236.61003712
_cell_formula_units_Z   1
loop_
 _symmetry_equiv_pos_site_id
 _symmetry_equiv_pos_as_xyz
  1  'x, y, z'
loop_
 _atom_site_type_symbol
 _atom_site_label
 _atom_site_symmetry_multiplicity
 _atom_site_fract_x
 _atom_site_fract_y
 _atom_site_fract_z
 _atom_site_occupancy
  Ba  Ba0  1  0.750002  0.250002  0.500002  1
  Ba  Ba1  1  0.250002  0.750002  0.500002  1
  Ga  Ga2  1  0.250539  0.250539  0.000000  1
  Ga  Ga3  1  0.749460  0.250540  0.000000  1
  Ga  Ga4  1  0.250540  0.749460  0.000000  1
  Ga  Ga5  1  0.749460  0.749460  0.000000  1
  Ga  Ga6  1  0.250539  0.250539  0.501079  1
  Ga  Ga7  1  0.749462  0.749462  0.498924  1
  Tc  Tc8  1  0.500000  0.500000  0.000000  1
  Ir  Ir9  1  0.000000  0.000000  0.000000  1
