# generated using pymatgen
data_Y13Th3(MgIr)4
_symmetry_space_group_name_H-M   'P 1'
_cell_length_a   9.81987413
_cell_length_b   9.83133200
_cell_length_c   9.83133200
_cell_angle_alpha   60.00000001
_cell_angle_beta   59.96139493
_cell_angle_gamma   59.96139557
_symmetry_Int_Tables_number   1
_chemical_formula_structural   Y13Th3(MgIr)4
_chemical_formula_sum   'Y13 Th3 Mg4 Ir4'
_cell_volume   670.75201533
_cell_formula_units_Z   1
loop_
 _symmetry_equiv_pos_site_id
 _symmetry_equiv_pos_as_xyz
  1  'x, y, z'
loop_
 _atom_site_type_symbol
 _atom_site_label
 _atom_site_symmetry_multiplicity
 _atom_site_fract_x
 _atom_site_fract_y
 _atom_site_fract_z
 _atom_site_occupancy
  Y  Y0  1  0.204858  0.598381  0.598381  1
  Y  Y1  1  0.062694  0.438110  0.438110  1
  Y  Y2  1  0.437521  0.062788  0.062788  1
  Y  Y3  1  0.437521  0.062788  0.436904  1
  Y  Y4  1  0.062694  0.438110  0.061087  1
  Y  Y5  1  0.437521  0.436904  0.062788  1
  Y  Y6  1  0.062694  0.061087  0.438110  1
  Y  Y7  1  0.186403  0.813794  0.813794  1
  Y  Y8  1  0.814290  0.185514  0.185514  1
  Y  Y9  1  0.814290  0.185514  0.814681  1
  Y  Y10  1  0.186403  0.813794  0.186010  1
  Y  Y11  1  0.814290  0.814681  0.185514  1
  Y  Y12  1  0.186403  0.186010  0.813794  1
  Th  Th13  1  0.595525  0.597968  0.597968  1
  Th  Th14  1  0.595525  0.597968  0.208539  1
  Th  Th15  1  0.595525  0.208539  0.597968  1
  Mg  Mg16  1  0.830404  0.829694  0.829694  1
  Mg  Mg17  1  0.830404  0.829694  0.510209  1
  Mg  Mg18  1  0.830404  0.510209  0.829694  1
  Mg  Mg19  1  0.508865  0.830379  0.830379  1
  Ir  Ir20  1  0.395457  0.391536  0.391536  1
  Ir  Ir21  1  0.395457  0.391536  0.821472  1
  Ir  Ir22  1  0.395457  0.821472  0.391536  1
  Ir  Ir23  1  0.819397  0.393534  0.393534  1
