# generated using pymatgen
data_Ba4MgIn(ReN4)2
_symmetry_space_group_name_H-M   'P 1'
_cell_length_a   6.00683700
_cell_length_b   7.19950505
_cell_length_c   8.63080671
_cell_angle_alpha   58.78443446
_cell_angle_beta   90.00000000
_cell_angle_gamma   90.00000000
_symmetry_Int_Tables_number   1
_chemical_formula_structural   Ba4MgIn(ReN4)2
_chemical_formula_sum   'Ba4 Mg1 In1 Re2 N8'
_cell_volume   319.21221562
_cell_formula_units_Z   1
loop_
 _symmetry_equiv_pos_site_id
 _symmetry_equiv_pos_as_xyz
  1  'x, y, z'
loop_
 _atom_site_type_symbol
 _atom_site_label
 _atom_site_symmetry_multiplicity
 _atom_site_fract_x
 _atom_site_fract_y
 _atom_site_fract_z
 _atom_site_occupancy
  Ba  Ba0  1  0.250000  0.222447  0.095617  1
  Ba  Ba1  1  0.750000  0.769899  0.905930  1
  Ba  Ba2  1  0.750000  0.741252  0.373483  1
  Ba  Ba3  1  0.250000  0.263614  0.627810  1
  Mg  Mg4  1  0.750000  0.276534  0.384197  1
  In  In5  1  0.250000  0.779751  0.613968  1
  Re  Re6  1  0.250000  0.666261  0.185787  1
  Re  Re7  1  0.750000  0.323109  0.813201  1
  N  N8  1  0.499324  0.489725  0.772849  1
  N  N9  1  0.999776  0.496189  0.232857  1
  N  N10  1  0.500224  0.496189  0.232857  1
  N  N11  1  0.000676  0.489725  0.772849  1
  N  N12  1  0.750000  0.226785  0.649963  1
  N  N13  1  0.250000  0.772485  0.340710  1
  N  N14  1  0.750000  0.095709  0.043743  1
  N  N15  1  0.250000  0.890325  0.954178  1
