# generated using pymatgen
data_TbHo2Lu3TcBi2
_symmetry_space_group_name_H-M   'P 1'
_cell_length_a   8.19277825
_cell_length_b   8.19426798
_cell_length_c   4.27172300
_cell_angle_alpha   90.00000000
_cell_angle_beta   90.00000000
_cell_angle_gamma   120.00600085
_symmetry_Int_Tables_number   1
_chemical_formula_structural   TbHo2Lu3TcBi2
_chemical_formula_sum   'Tb1 Ho2 Lu3 Tc1 Bi2'
_cell_volume   248.34122173
_cell_formula_units_Z   1
loop_
 _symmetry_equiv_pos_site_id
 _symmetry_equiv_pos_as_xyz
  1  'x, y, z'
loop_
 _atom_site_type_symbol
 _atom_site_label
 _atom_site_symmetry_multiplicity
 _atom_site_fract_x
 _atom_site_fract_y
 _atom_site_fract_z
 _atom_site_occupancy
  Tb  Tb0  1  0.000000  0.609847  0.500000  1
  Ho  Ho1  1  0.388678  0.388394  0.500000  1
  Ho  Ho2  1  0.611322  0.999716  0.500000  1
  Lu  Lu3  1  0.229491  0.000455  0.000000  1
  Lu  Lu4  1  0.770509  0.770964  0.000000  1
  Lu  Lu5  1  0.000000  0.229923  0.000000  1
  Tc  Tc6  1  0.000000  0.001662  0.500000  1
  Bi  Bi7  1  0.334497  0.666769  0.000000  1
  Bi  Bi8  1  0.665503  0.332271  0.000000  1
