# generated using pymatgen
data_Sc4Re5Mo3
_symmetry_space_group_name_H-M   'P 1'
_cell_length_a   5.33665103
_cell_length_b   5.33665234
_cell_length_c   8.66423900
_cell_angle_alpha   90.00000000
_cell_angle_beta   90.00000000
_cell_angle_gamma   120.16067415
_symmetry_Int_Tables_number   1
_chemical_formula_structural   Sc4Re5Mo3
_chemical_formula_sum   'Sc4 Re5 Mo3'
_cell_volume   213.35034211
_cell_formula_units_Z   1
loop_
 _symmetry_equiv_pos_site_id
 _symmetry_equiv_pos_as_xyz
  1  'x, y, z'
loop_
 _atom_site_type_symbol
 _atom_site_label
 _atom_site_symmetry_multiplicity
 _atom_site_fract_x
 _atom_site_fract_y
 _atom_site_fract_z
 _atom_site_occupancy
  Sc  Sc0  1  0.333499  0.666501  0.440010  1
  Sc  Sc1  1  0.665935  0.334065  0.564402  1
  Sc  Sc2  1  0.665935  0.334065  0.935598  1
  Sc  Sc3  1  0.333499  0.666501  0.059990  1
  Re  Re4  1  0.827215  0.656332  0.250000  1
  Re  Re5  1  0.343668  0.172785  0.250000  1
  Re  Re6  1  0.171584  0.828416  0.750000  1
  Re  Re7  1  0.170930  0.343715  0.750000  1
  Re  Re8  1  0.656285  0.829070  0.750000  1
  Mo  Mo9  1  0.001354  0.998646  0.501333  1
  Mo  Mo10  1  0.001354  0.998646  0.998667  1
  Mo  Mo11  1  0.828743  0.171257  0.250000  1
