# generated using pymatgen
data_Na2Si(Ni2P)6
_symmetry_space_group_name_H-M   'P 1'
_cell_length_a   9.07217400
_cell_length_b   9.07217287
_cell_length_c   3.60551400
_cell_angle_alpha   90.00000000
_cell_angle_beta   90.00000000
_cell_angle_gamma   119.99998954
_symmetry_Int_Tables_number   1
_chemical_formula_structural   Na2Si(Ni2P)6
_chemical_formula_sum   'Na2 Si1 Ni12 P6'
_cell_volume   256.99256081
_cell_formula_units_Z   1
loop_
 _symmetry_equiv_pos_site_id
 _symmetry_equiv_pos_as_xyz
  1  'x, y, z'
loop_
 _atom_site_type_symbol
 _atom_site_label
 _atom_site_symmetry_multiplicity
 _atom_site_fract_x
 _atom_site_fract_y
 _atom_site_fract_z
 _atom_site_occupancy
  Na  Na0  1  0.666667  0.333333  0.500000  1
  Na  Na1  1  0.333333  0.666667  0.000000  1
  Si  Si2  1  0.000000  0.000000  0.000000  1
  Ni  Ni3  1  0.122342  0.839003  0.000000  1
  Ni  Ni4  1  0.383777  0.432180  0.500000  1
  Ni  Ni5  1  0.716660  0.877658  0.000000  1
  Ni  Ni6  1  0.567820  0.951597  0.500000  1
  Ni  Ni7  1  0.211874  0.090119  0.500000  1
  Ni  Ni8  1  0.878244  0.788126  0.500000  1
  Ni  Ni9  1  0.909881  0.121756  0.500000  1
  Ni  Ni10  1  0.941045  0.374823  0.000000  1
  Ni  Ni11  1  0.625177  0.566222  0.000000  1
  Ni  Ni12  1  0.433778  0.058955  0.000000  1
  Ni  Ni13  1  0.048403  0.616223  0.500000  1
  Ni  Ni14  1  0.160997  0.283340  0.000000  1
  P  P15  1  0.594618  0.706234  0.500000  1
  P  P16  1  0.706919  0.118138  0.000000  1
  P  P17  1  0.881862  0.588781  0.000000  1
  P  P18  1  0.411219  0.293081  0.000000  1
  P  P19  1  0.293766  0.888384  0.500000  1
  P  P20  1  0.111616  0.405382  0.500000  1
