# generated using pymatgen
data_Ho10Bi3Pb3S2
_symmetry_space_group_name_H-M   'P 1'
_cell_length_a   9.13610400
_cell_length_b   9.13610387
_cell_length_c   6.58264900
_cell_angle_alpha   90.00000000
_cell_angle_beta   90.00000000
_cell_angle_gamma   120.00000049
_symmetry_Int_Tables_number   1
_chemical_formula_structural   Ho10Bi3Pb3S2
_chemical_formula_sum   'Ho10 Bi3 Pb3 S2'
_cell_volume   475.83172118
_cell_formula_units_Z   1
loop_
 _symmetry_equiv_pos_site_id
 _symmetry_equiv_pos_as_xyz
  1  'x, y, z'
loop_
 _atom_site_type_symbol
 _atom_site_label
 _atom_site_symmetry_multiplicity
 _atom_site_fract_x
 _atom_site_fract_y
 _atom_site_fract_z
 _atom_site_occupancy
  Ho  Ho0  1  0.756441  0.756441  0.750000  1
  Ho  Ho1  1  0.243559  0.000000  0.750000  1
  Ho  Ho2  1  0.000000  0.243559  0.750000  1
  Ho  Ho3  1  0.244370  0.244370  0.250000  1
  Ho  Ho4  1  0.755630  0.000000  0.250000  1
  Ho  Ho5  1  0.000000  0.755630  0.250000  1
  Ho  Ho6  1  0.666667  0.333333  0.002486  1
  Ho  Ho7  1  0.333333  0.666667  0.002486  1
  Ho  Ho8  1  0.333333  0.666667  0.497514  1
  Ho  Ho9  1  0.666667  0.333333  0.497514  1
  Bi  Bi10  1  0.397387  0.397387  0.750000  1
  Bi  Bi11  1  0.602613  0.000000  0.750000  1
  Bi  Bi12  1  0.000000  0.602613  0.750000  1
  Pb  Pb13  1  0.605070  0.605070  0.250000  1
  Pb  Pb14  1  0.394930  0.000000  0.250000  1
  Pb  Pb15  1  0.000000  0.394930  0.250000  1
  S  S16  1  0.000000  0.000000  0.999476  1
  S  S17  1  0.000000  0.000000  0.500524  1
