# generated using pymatgen
data_Ac2Th(SnRh)3
_symmetry_space_group_name_H-M   'P 1'
_cell_length_a   7.76422808
_cell_length_b   7.73770517
_cell_length_c   4.21529900
_cell_angle_alpha   90.00000000
_cell_angle_beta   90.00000000
_cell_angle_gamma   119.88706830
_symmetry_Int_Tables_number   1
_chemical_formula_structural   Ac2Th(SnRh)3
_chemical_formula_sum   'Ac2 Th1 Sn3 Rh3'
_cell_volume   219.56472678
_cell_formula_units_Z   1
loop_
 _symmetry_equiv_pos_site_id
 _symmetry_equiv_pos_as_xyz
  1  'x, y, z'
loop_
 _atom_site_type_symbol
 _atom_site_label
 _atom_site_symmetry_multiplicity
 _atom_site_fract_x
 _atom_site_fract_y
 _atom_site_fract_z
 _atom_site_occupancy
  Ac  Ac0  1  0.415886  0.416332  0.500000  1
  Ac  Ac1  1  0.584114  0.000446  0.500000  1
  Th  Th2  1  0.000000  0.584637  0.500000  1
  Sn  Sn3  1  0.759056  0.755313  0.000000  1
  Sn  Sn4  1  0.240944  0.996258  0.000000  1
  Sn  Sn5  1  0.000000  0.244511  0.000000  1
  Rh  Rh6  1  0.698358  0.357992  0.000000  1
  Rh  Rh7  1  0.301642  0.659634  0.000000  1
  Rh  Rh8  1  0.000000  0.984877  0.500000  1
