# generated using pymatgen
data_Zr3CoAs2IrRu2
_symmetry_space_group_name_H-M   'P 1'
_cell_length_a   6.60211847
_cell_length_b   6.58610008
_cell_length_c   3.94398400
_cell_angle_alpha   90.00000000
_cell_angle_beta   90.00000000
_cell_angle_gamma   119.91977652
_symmetry_Int_Tables_number   1
_chemical_formula_structural   Zr3CoAs2IrRu2
_chemical_formula_sum   'Zr3 Co1 As2 Ir1 Ru2'
_cell_volume   148.63734004
_cell_formula_units_Z   1
loop_
 _symmetry_equiv_pos_site_id
 _symmetry_equiv_pos_as_xyz
  1  'x, y, z'
loop_
 _atom_site_type_symbol
 _atom_site_label
 _atom_site_symmetry_multiplicity
 _atom_site_fract_x
 _atom_site_fract_y
 _atom_site_fract_z
 _atom_site_occupancy
  Zr  Zr0  1  0.387977  0.386786  0.500000  1
  Zr  Zr1  1  0.612023  0.998808  0.500000  1
  Zr  Zr2  1  0.000000  0.612126  0.500000  1
  Co  Co3  1  0.000000  0.999165  0.500000  1
  As  As4  1  0.664908  0.334224  0.000000  1
  As  As5  1  0.335092  0.669317  0.000000  1
  Ir  Ir6  1  0.000000  0.236150  0.000000  1
  Ru  Ru7  1  0.235255  0.999340  0.000000  1
  Ru  Ru8  1  0.764745  0.764084  0.000000  1
