# generated using pymatgen
data_Pr4Ga4Ru3Rh
_symmetry_space_group_name_H-M   'P 1'
_cell_length_a   4.68131000
_cell_length_b   7.44671420
_cell_length_c   7.14577864
_cell_angle_alpha   89.99486130
_cell_angle_beta   90.00000000
_cell_angle_gamma   90.00000000
_symmetry_Int_Tables_number   1
_chemical_formula_structural   Pr4Ga4Ru3Rh
_chemical_formula_sum   'Pr4 Ga4 Ru3 Rh1'
_cell_volume   249.10454101
_cell_formula_units_Z   1
loop_
 _symmetry_equiv_pos_site_id
 _symmetry_equiv_pos_as_xyz
  1  'x, y, z'
loop_
 _atom_site_type_symbol
 _atom_site_label
 _atom_site_symmetry_multiplicity
 _atom_site_fract_x
 _atom_site_fract_y
 _atom_site_fract_z
 _atom_site_occupancy
  Pr  Pr0  1  0.250000  0.031274  0.808785  1
  Pr  Pr1  1  0.250000  0.530382  0.689222  1
  Pr  Pr2  1  0.750000  0.973148  0.192554  1
  Pr  Pr3  1  0.750000  0.469414  0.311548  1
  Ga  Ga4  1  0.250000  0.190129  0.392816  1
  Ga  Ga5  1  0.250000  0.687354  0.111172  1
  Ga  Ga6  1  0.750000  0.810544  0.606465  1
  Ga  Ga7  1  0.750000  0.309696  0.890807  1
  Ru  Ru8  1  0.250000  0.845815  0.436859  1
  Ru  Ru9  1  0.250000  0.347164  0.061645  1
  Ru  Ru10  1  0.750000  0.152267  0.562730  1
  Rh  Rh11  1  0.750000  0.652813  0.935397  1
