# generated using pymatgen
data_LiIr(OF)2
_symmetry_space_group_name_H-M   'P 1'
_cell_length_a   5.01749100
_cell_length_b   7.60703984
_cell_length_c   7.08290436
_cell_angle_alpha   78.74109821
_cell_angle_beta   90.00000000
_cell_angle_gamma   90.00000000
_symmetry_Int_Tables_number   1
_chemical_formula_structural   LiIr(OF)2
_chemical_formula_sum   'Li4 Ir4 O8 F8'
_cell_volume   265.13934729
_cell_formula_units_Z   4
loop_
 _symmetry_equiv_pos_site_id
 _symmetry_equiv_pos_as_xyz
  1  'x, y, z'
loop_
 _atom_site_type_symbol
 _atom_site_label
 _atom_site_symmetry_multiplicity
 _atom_site_fract_x
 _atom_site_fract_y
 _atom_site_fract_z
 _atom_site_occupancy
  Li  Li0  1  0.263707  0.638138  0.652570  1
  Li  Li1  1  0.236293  0.638138  0.152570  1
  Li  Li2  1  0.763707  0.361862  0.847430  1
  Li  Li3  1  0.736293  0.361862  0.347430  1
  Ir  Ir4  1  0.758684  0.838151  0.801496  1
  Ir  Ir5  1  0.741316  0.838151  0.301496  1
  Ir  Ir6  1  0.258684  0.161849  0.698504  1
  Ir  Ir7  1  0.241316  0.161849  0.198504  1
  O  O8  1  0.077100  0.943714  0.681731  1
  O  O9  1  0.422900  0.943714  0.181731  1
  O  O10  1  0.601305  0.816786  0.558505  1
  O  O11  1  0.898695  0.816786  0.058505  1
  O  O12  1  0.101305  0.183214  0.941495  1
  O  O13  1  0.398695  0.183214  0.441495  1
  O  O14  1  0.577100  0.056286  0.818269  1
  O  O15  1  0.922900  0.056286  0.318269  1
  F  F16  1  0.432311  0.696824  0.906333  1
  F  F17  1  0.937368  0.595199  0.804452  1
  F  F18  1  0.067689  0.696824  0.406333  1
  F  F19  1  0.562632  0.595199  0.304452  1
  F  F20  1  0.437368  0.404801  0.695548  1
  F  F21  1  0.932311  0.303176  0.593667  1
  F  F22  1  0.062632  0.404801  0.195548  1
  F  F23  1  0.567689  0.303176  0.093667  1
