# generated using pymatgen
data_LaHf2Al7Ag2
_symmetry_space_group_name_H-M   'P 1'
_cell_length_a   9.14904296
_cell_length_b   9.14904257
_cell_length_c   9.14904300
_cell_angle_alpha   34.72665494
_cell_angle_beta   34.72665849
_cell_angle_gamma   34.72665574
_symmetry_Int_Tables_number   1
_chemical_formula_structural   LaHf2Al7Ag2
_chemical_formula_sum   'La1 Hf2 Al7 Ag2'
_cell_volume   221.79550079
_cell_formula_units_Z   1
loop_
 _symmetry_equiv_pos_site_id
 _symmetry_equiv_pos_as_xyz
  1  'x, y, z'
loop_
 _atom_site_type_symbol
 _atom_site_label
 _atom_site_symmetry_multiplicity
 _atom_site_fract_x
 _atom_site_fract_y
 _atom_site_fract_z
 _atom_site_occupancy
  La  La0  1  0.000000  0.000000  0.000000  1
  Hf  Hf1  1  0.855553  0.855553  0.855553  1
  Hf  Hf2  1  0.144447  0.144447  0.144447  1
  Al  Al3  1  0.408215  0.408215  0.921426  1
  Al  Al4  1  0.921426  0.408215  0.408215  1
  Al  Al5  1  0.408215  0.921426  0.408215  1
  Al  Al6  1  0.500000  0.500000  0.500000  1
  Al  Al7  1  0.591785  0.078574  0.591785  1
  Al  Al8  1  0.078574  0.591785  0.591785  1
  Al  Al9  1  0.591785  0.591785  0.078574  1
  Ag  Ag10  1  0.665244  0.665244  0.665244  1
  Ag  Ag11  1  0.334756  0.334756  0.334756  1
