# generated using pymatgen
data_Tb18Tm2Ir7Ru5
_symmetry_space_group_name_H-M   'P 1'
_cell_length_a   10.87787128
_cell_length_b   10.87787127
_cell_length_c   6.41953223
_cell_angle_alpha   89.96144070
_cell_angle_beta   89.96144048
_cell_angle_gamma   90.04978782
_symmetry_Int_Tables_number   1
_chemical_formula_structural   Tb18Tm2Ir7Ru5
_chemical_formula_sum   'Tb18 Tm2 Ir7 Ru5'
_cell_volume   759.61031414
_cell_formula_units_Z   1
loop_
 _symmetry_equiv_pos_site_id
 _symmetry_equiv_pos_as_xyz
  1  'x, y, z'
loop_
 _atom_site_type_symbol
 _atom_site_label
 _atom_site_symmetry_multiplicity
 _atom_site_fract_x
 _atom_site_fract_y
 _atom_site_fract_z
 _atom_site_occupancy
  Tb  Tb0  1  0.293755  0.086393  0.378314  1
  Tb  Tb1  1  0.292876  0.913329  0.878212  1
  Tb  Tb2  1  0.707024  0.086925  0.878368  1
  Tb  Tb3  1  0.706881  0.913680  0.377091  1
  Tb  Tb4  1  0.586182  0.792382  0.878140  1
  Tb  Tb5  1  0.587184  0.207957  0.378365  1
  Tb  Tb6  1  0.413631  0.792122  0.378215  1
  Tb  Tb7  1  0.413549  0.207654  0.877358  1
  Tb  Tb8  1  0.207618  0.413818  0.621860  1
  Tb  Tb9  1  0.207878  0.586369  0.121785  1
  Tb  Tb10  1  0.792043  0.412816  0.121635  1
  Tb  Tb11  1  0.792346  0.586451  0.622642  1
  Tb  Tb12  1  0.913607  0.706245  0.121686  1
  Tb  Tb13  1  0.913075  0.292976  0.621632  1
  Tb  Tb14  1  0.086671  0.707124  0.621788  1
  Tb  Tb15  1  0.086320  0.293119  0.122909  1
  Tb  Tb16  1  0.999593  0.001216  0.499565  1
  Tb  Tb17  1  0.998784  0.000407  0.000435  1
  Tm  Tm18  1  0.500139  0.500159  0.000256  1
  Tm  Tm19  1  0.499841  0.499861  0.499744  1
  Ir  Ir20  1  0.846785  0.846604  0.749691  1
  Ir  Ir21  1  0.153396  0.153215  0.750309  1
  Ir  Ir22  1  0.153062  0.846938  0.250000  1
  Ir  Ir23  1  0.649854  0.350146  0.750000  1
  Ir  Ir24  1  0.651114  0.650560  0.249632  1
  Ir  Ir25  1  0.349440  0.348886  0.250368  1
  Ir  Ir26  1  0.349528  0.650472  0.750000  1
  Ru  Ru27  1  0.847983  0.152017  0.250000  1
  Ru  Ru28  1  0.500262  0.000194  0.122047  1
  Ru  Ru29  1  0.499899  0.000126  0.622055  1
  Ru  Ru30  1  0.999874  0.500101  0.877945  1
  Ru  Ru31  1  0.999806  0.499738  0.377953  1
