# generated using pymatgen
data_Na2Ti3(CrSe5)2
_symmetry_space_group_name_H-M   'P 1'
_cell_length_a   6.24181636
_cell_length_b   10.35587186
_cell_length_c   8.27299255
_cell_angle_alpha   60.30814311
_cell_angle_beta   67.40562095
_cell_angle_gamma   89.74452546
_symmetry_Int_Tables_number   1
_chemical_formula_structural   Na2Ti3(CrSe5)2
_chemical_formula_sum   'Na2 Ti3 Cr2 Se10'
_cell_volume   417.21934146
_cell_formula_units_Z   1
loop_
 _symmetry_equiv_pos_site_id
 _symmetry_equiv_pos_as_xyz
  1  'x, y, z'
loop_
 _atom_site_type_symbol
 _atom_site_label
 _atom_site_symmetry_multiplicity
 _atom_site_fract_x
 _atom_site_fract_y
 _atom_site_fract_z
 _atom_site_occupancy
  Na  Na0  1  0.788363  0.087491  0.413655  1
  Na  Na1  1  0.005863  0.515021  0.985569  1
  Ti  Ti2  1  0.401702  0.787253  0.210991  1
  Ti  Ti3  1  0.624602  0.206739  0.795980  1
  Ti  Ti4  1  0.012000  0.998220  0.006581  1
  Cr  Cr5  1  0.798438  0.604246  0.394844  1
  Cr  Cr6  1  0.192617  0.397694  0.597562  1
  Se  Se7  1  0.981266  0.837193  0.367338  1
  Se  Se8  1  0.581006  0.039202  0.162714  1
  Se  Se9  1  0.184800  0.243864  0.957343  1
  Se  Se10  1  0.785968  0.447006  0.753996  1
  Se  Se11  1  0.382674  0.634876  0.563804  1
  Se  Se12  1  0.411529  0.959226  0.840316  1
  Se  Se13  1  0.020095  0.159067  0.633691  1
  Se  Se14  1  0.609321  0.364019  0.439620  1
  Se  Se15  1  0.206070  0.557157  0.241924  1
  Se  Se16  1  0.813685  0.761725  0.034071  1
