# generated using pymatgen
data_Dy4Zr3TcF28
_symmetry_space_group_name_H-M   'P 1'
_cell_length_a   5.70356230
_cell_length_b   9.05122424
_cell_length_c   12.19496705
_cell_angle_alpha   62.49326013
_cell_angle_beta   89.95718955
_cell_angle_gamma   89.97461277
_symmetry_Int_Tables_number   1
_chemical_formula_structural   Dy4Zr3TcF28
_chemical_formula_sum   'Dy4 Zr3 Tc1 F28'
_cell_volume   558.38834773
_cell_formula_units_Z   1
loop_
 _symmetry_equiv_pos_site_id
 _symmetry_equiv_pos_as_xyz
  1  'x, y, z'
loop_
 _atom_site_type_symbol
 _atom_site_label
 _atom_site_symmetry_multiplicity
 _atom_site_fract_x
 _atom_site_fract_y
 _atom_site_fract_z
 _atom_site_occupancy
  Dy  Dy0  1  0.757307  0.817280  0.764547  1
  Dy  Dy1  1  0.256880  0.185299  0.731043  1
  Dy  Dy2  1  0.242546  0.184473  0.238451  1
  Dy  Dy3  1  0.743811  0.814039  0.267018  1
  Zr  Zr4  1  0.756237  0.273254  0.956442  1
  Zr  Zr5  1  0.256098  0.725756  0.543879  1
  Zr  Zr6  1  0.244433  0.725764  0.044548  1
  Tc  Tc7  1  0.741020  0.273892  0.455170  1
  F  F8  1  0.462037  0.709486  0.918449  1
  F  F9  1  0.941603  0.291207  0.579499  1
  F  F10  1  0.537171  0.289158  0.082296  1
  F  F11  1  0.039651  0.709995  0.417775  1
  F  F12  1  0.452263  0.277538  0.544277  1
  F  F13  1  0.946350  0.725482  0.950043  1
  F  F14  1  0.554853  0.719924  0.452357  1
  F  F15  1  0.052778  0.274106  0.051689  1
  F  F16  1  0.775913  0.525995  0.859608  1
  F  F17  1  0.269168  0.472600  0.639385  1
  F  F18  1  0.222732  0.473025  0.142663  1
  F  F19  1  0.728631  0.518351  0.359282  1
  F  F20  1  0.758343  0.021009  0.059528  1
  F  F21  1  0.260384  0.977942  0.443330  1
  F  F22  1  0.242414  0.977399  0.939478  1
  F  F23  1  0.742526  0.030606  0.551173  1
  F  F24  1  0.978320  0.733111  0.646517  1
  F  F25  1  0.482000  0.267334  0.851033  1
  F  F26  1  0.018983  0.269589  0.360697  1
  F  F27  1  0.520596  0.731572  0.148345  1
  F  F28  1  0.038527  0.748095  0.174161  1
  F  F29  1  0.544795  0.255853  0.327791  1
  F  F30  1  0.966009  0.252060  0.826896  1
  F  F31  1  0.464397  0.746428  0.673640  1
  F  F32  1  0.426210  0.972375  0.236698  1
  F  F33  1  0.925582  0.027376  0.268142  1
  F  F34  1  0.574154  0.029206  0.763652  1
  F  F35  1  0.075279  0.973419  0.730498  1
