# generated using pymatgen
data_CrTeS
_symmetry_space_group_name_H-M   'P 1'
_cell_length_a   7.00564565
_cell_length_b   7.00564524
_cell_length_c   7.00564500
_cell_angle_alpha   59.99999639
_cell_angle_beta   59.99999834
_cell_angle_gamma   59.99999422
_symmetry_Int_Tables_number   1
_chemical_formula_structural   CrTeS
_chemical_formula_sum   'Cr4 Te4 S4'
_cell_volume   243.12487745
_cell_formula_units_Z   4
loop_
 _symmetry_equiv_pos_site_id
 _symmetry_equiv_pos_as_xyz
  1  'x, y, z'
loop_
 _atom_site_type_symbol
 _atom_site_label
 _atom_site_symmetry_multiplicity
 _atom_site_fract_x
 _atom_site_fract_y
 _atom_site_fract_z
 _atom_site_occupancy
  Cr  Cr0  1  0.154598  0.154598  0.154598  1
  Cr  Cr1  1  0.536206  0.154598  0.154598  1
  Cr  Cr2  1  0.154598  0.154598  0.536206  1
  Cr  Cr3  1  0.154598  0.536206  0.154598  1
  Te  Te4  1  0.880514  0.358457  0.880514  1
  Te  Te5  1  0.880514  0.880514  0.358457  1
  Te  Te6  1  0.358457  0.880514  0.880514  1
  Te  Te7  1  0.880514  0.880514  0.880514  1
  S  S8  1  0.375468  0.375468  0.375468  1
  S  S9  1  0.873598  0.375468  0.375468  1
  S  S10  1  0.375468  0.375468  0.873598  1
  S  S11  1  0.375468  0.873598  0.375468  1
