# generated using pymatgen
data_Tb15Lu5(Bi2Sb)4
_symmetry_space_group_name_H-M   'P 1'
_cell_length_a   8.19964613
_cell_length_b   9.40540501
_cell_length_c   12.02908109
_cell_angle_alpha   90.00388966
_cell_angle_beta   90.08231722
_cell_angle_gamma   89.99672031
_symmetry_Int_Tables_number   1
_chemical_formula_structural   Tb15Lu5(Bi2Sb)4
_chemical_formula_sum   'Tb15 Lu5 Bi8 Sb4'
_cell_volume   927.69371521
_cell_formula_units_Z   1
loop_
 _symmetry_equiv_pos_site_id
 _symmetry_equiv_pos_as_xyz
  1  'x, y, z'
loop_
 _atom_site_type_symbol
 _atom_site_label
 _atom_site_symmetry_multiplicity
 _atom_site_fract_x
 _atom_site_fract_y
 _atom_site_fract_z
 _atom_site_occupancy
  Tb  Tb0  1  0.188652  0.563028  0.442256  1
  Tb  Tb1  1  0.687877  0.936568  0.057544  1
  Tb  Tb2  1  0.811673  0.063214  0.557762  1
  Tb  Tb3  1  0.027901  0.749929  0.988357  1
  Tb  Tb4  1  0.527424  0.750425  0.511849  1
  Tb  Tb5  1  0.973253  0.250338  0.011428  1
  Tb  Tb6  1  0.472472  0.250029  0.488476  1
  Tb  Tb7  1  0.182515  0.750561  0.717132  1
  Tb  Tb8  1  0.682809  0.749572  0.782928  1
  Tb  Tb9  1  0.817479  0.250505  0.282788  1
  Tb  Tb10  1  0.317501  0.250077  0.216558  1
  Tb  Tb11  1  0.853712  0.750268  0.285874  1
  Tb  Tb12  1  0.353846  0.750154  0.214159  1
  Tb  Tb13  1  0.147262  0.250989  0.714331  1
  Tb  Tb14  1  0.645696  0.250600  0.786340  1
  Lu  Lu15  1  0.311984  0.434475  0.942461  1
  Lu  Lu16  1  0.812901  0.434434  0.557603  1
  Lu  Lu17  1  0.312698  0.065926  0.942573  1
  Lu  Lu18  1  0.187062  0.934453  0.442352  1
  Lu  Lu19  1  0.687584  0.565314  0.057628  1
  Bi  Bi20  1  0.934013  0.495965  0.825519  1
  Bi  Bi21  1  0.433479  0.004298  0.675055  1
  Bi  Bi22  1  0.066587  0.996227  0.174677  1
  Bi  Bi23  1  0.566108  0.504147  0.325011  1
  Bi  Bi24  1  0.065828  0.504067  0.174597  1
  Bi  Bi25  1  0.565914  0.996428  0.325050  1
  Bi  Bi26  1  0.934041  0.004152  0.825269  1
  Bi  Bi27  1  0.433609  0.496353  0.675277  1
  Sb  Sb28  1  0.905929  0.747680  0.541889  1
  Sb  Sb29  1  0.404914  0.748941  0.957523  1
  Sb  Sb30  1  0.093988  0.247580  0.458290  1
  Sb  Sb31  1  0.593289  0.253303  0.041445  1
