# generated using pymatgen
data_LaSm3Eu2In6O18
_symmetry_space_group_name_H-M   'P 1'
_cell_length_a   6.50249700
_cell_length_b   6.50249770
_cell_length_c   12.43895100
_cell_angle_alpha   90.00000000
_cell_angle_beta   90.00000000
_cell_angle_gamma   119.99999469
_symmetry_Int_Tables_number   1
_chemical_formula_structural   LaSm3Eu2In6O18
_chemical_formula_sum   'La1 Sm3 Eu2 In6 O18'
_cell_volume   455.48573470
_cell_formula_units_Z   1
loop_
 _symmetry_equiv_pos_site_id
 _symmetry_equiv_pos_as_xyz
  1  'x, y, z'
loop_
 _atom_site_type_symbol
 _atom_site_label
 _atom_site_symmetry_multiplicity
 _atom_site_fract_x
 _atom_site_fract_y
 _atom_site_fract_z
 _atom_site_occupancy
  La  La0  1  0.333333  0.666667  0.966123  1
  Sm  Sm1  1  0.666667  0.333333  0.960480  1
  Sm  Sm2  1  0.333333  0.666667  0.462981  1
  Sm  Sm3  1  0.666667  0.333333  0.462204  1
  Eu  Eu4  1  0.000000  0.000000  0.993452  1
  Eu  Eu5  1  0.000000  0.000000  0.493004  1
  In  In6  1  0.667838  0.667491  0.725567  1
  In  In7  1  0.999653  0.332162  0.725567  1
  In  In8  1  0.332710  0.331009  0.227799  1
  In  In9  1  0.998299  0.667290  0.227799  1
  In  In10  1  0.332509  0.000347  0.725567  1
  In  In11  1  0.668991  0.001701  0.227799  1
  O  O12  1  0.693254  0.687765  0.896150  1
  O  O13  1  0.994511  0.306746  0.896150  1
  O  O14  1  0.312592  0.314143  0.398056  1
  O  O15  1  0.001552  0.687408  0.398056  1
  O  O16  1  0.312235  0.005489  0.896150  1
  O  O17  1  0.685857  0.998448  0.398056  1
  O  O18  1  0.644038  0.643157  0.556900  1
  O  O19  1  0.999120  0.355962  0.556900  1
  O  O20  1  0.357485  0.347244  0.059165  1
  O  O21  1  0.989759  0.642515  0.059165  1
  O  O22  1  0.356843  0.000880  0.556900  1
  O  O23  1  0.652756  0.010241  0.059165  1
  O  O24  1  0.000000  0.000000  0.699941  1
  O  O25  1  0.000000  0.000000  0.203000  1
  O  O26  1  0.666667  0.333333  0.749992  1
  O  O27  1  0.333333  0.666667  0.248429  1
  O  O28  1  0.666667  0.333333  0.254204  1
  O  O29  1  0.333333  0.666667  0.747047  1
