# generated using pymatgen
data_Sc2InB2RuRh4
_symmetry_space_group_name_H-M   'P 1'
_cell_length_a   9.58794400
_cell_length_b   9.58794400
_cell_length_c   3.07725100
_cell_angle_alpha   90.00000000
_cell_angle_beta   90.00000000
_cell_angle_gamma   90.00000000
_symmetry_Int_Tables_number   1
_chemical_formula_structural   Sc2InB2RuRh4
_chemical_formula_sum   'Sc4 In2 B4 Ru2 Rh8'
_cell_volume   282.88759214
_cell_formula_units_Z   2
loop_
 _symmetry_equiv_pos_site_id
 _symmetry_equiv_pos_as_xyz
  1  'x, y, z'
loop_
 _atom_site_type_symbol
 _atom_site_label
 _atom_site_symmetry_multiplicity
 _atom_site_fract_x
 _atom_site_fract_y
 _atom_site_fract_z
 _atom_site_occupancy
  Sc  Sc0  1  0.673547  0.173547  0.000000  1
  Sc  Sc1  1  0.326453  0.826453  0.000000  1
  Sc  Sc2  1  0.173547  0.326453  0.000000  1
  Sc  Sc3  1  0.826453  0.673547  0.000000  1
  In  In4  1  0.500000  0.500000  0.000000  1
  In  In5  1  0.000000  0.000000  0.000000  1
  B  B6  1  0.120506  0.620506  0.000000  1
  B  B7  1  0.879494  0.379494  0.000000  1
  B  B8  1  0.620506  0.879494  0.000000  1
  B  B9  1  0.379494  0.120506  0.000000  1
  Ru  Ru10  1  0.500000  0.000000  0.500000  1
  Ru  Ru11  1  0.000000  0.500000  0.500000  1
  Rh  Rh12  1  0.572699  0.723644  0.500000  1
  Rh  Rh13  1  0.427301  0.276356  0.500000  1
  Rh  Rh14  1  0.072699  0.776356  0.500000  1
  Rh  Rh15  1  0.927301  0.223644  0.500000  1
  Rh  Rh16  1  0.276356  0.572699  0.500000  1
  Rh  Rh17  1  0.723644  0.427301  0.500000  1
  Rh  Rh18  1  0.223644  0.072699  0.500000  1
  Rh  Rh19  1  0.776356  0.927301  0.500000  1
