# generated using pymatgen
data_La4DyPb3Se
_symmetry_space_group_name_H-M   'P 1'
_cell_length_a   9.67497400
_cell_length_b   9.67497427
_cell_length_c   7.11396700
_cell_angle_alpha   90.00000000
_cell_angle_beta   90.00000000
_cell_angle_gamma   120.00000591
_symmetry_Int_Tables_number   1
_chemical_formula_structural   La4DyPb3Se
_chemical_formula_sum   'La8 Dy2 Pb6 Se2'
_cell_volume   576.68954421
_cell_formula_units_Z   2
loop_
 _symmetry_equiv_pos_site_id
 _symmetry_equiv_pos_as_xyz
  1  'x, y, z'
loop_
 _atom_site_type_symbol
 _atom_site_label
 _atom_site_symmetry_multiplicity
 _atom_site_fract_x
 _atom_site_fract_y
 _atom_site_fract_z
 _atom_site_occupancy
  La  La0  1  0.748493  0.748493  0.752415  1
  La  La1  1  0.251507  0.000000  0.752415  1
  La  La2  1  0.000000  0.251507  0.752415  1
  La  La3  1  0.251507  0.251507  0.247585  1
  La  La4  1  0.748493  0.000000  0.247585  1
  La  La5  1  0.000000  0.748493  0.247585  1
  La  La6  1  0.333333  0.666667  0.500000  1
  La  La7  1  0.666667  0.333333  0.500000  1
  Dy  Dy8  1  0.666667  0.333333  0.000000  1
  Dy  Dy9  1  0.333333  0.666667  0.000000  1
  Pb  Pb10  1  0.396445  0.396445  0.757384  1
  Pb  Pb11  1  0.603555  0.000000  0.757384  1
  Pb  Pb12  1  0.000000  0.603555  0.757384  1
  Pb  Pb13  1  0.603555  0.603555  0.242616  1
  Pb  Pb14  1  0.396445  0.000000  0.242616  1
  Pb  Pb15  1  0.000000  0.396445  0.242616  1
  Se  Se16  1  0.000000  0.000000  0.000000  1
  Se  Se17  1  0.000000  0.000000  0.500000  1
