# generated using pymatgen
data_Nd2TcPtF14
_symmetry_space_group_name_H-M   'P 1'
_cell_length_a   5.71208436
_cell_length_b   9.17832759
_cell_length_c   12.31295203
_cell_angle_alpha   62.09025833
_cell_angle_beta   90.05247429
_cell_angle_gamma   90.08596173
_symmetry_Int_Tables_number   1
_chemical_formula_structural   Nd2TcPtF14
_chemical_formula_sum   'Nd4 Tc2 Pt2 F28'
_cell_volume   570.45035649
_cell_formula_units_Z   2
loop_
 _symmetry_equiv_pos_site_id
 _symmetry_equiv_pos_as_xyz
  1  'x, y, z'
loop_
 _atom_site_type_symbol
 _atom_site_label
 _atom_site_symmetry_multiplicity
 _atom_site_fract_x
 _atom_site_fract_y
 _atom_site_fract_z
 _atom_site_occupancy
  Nd  Nd0  1  0.259007  0.810864  0.266011  1
  Nd  Nd1  1  0.740993  0.189136  0.733989  1
  Nd  Nd2  1  0.760172  0.187925  0.236718  1
  Nd  Nd3  1  0.239828  0.812075  0.763282  1
  Tc  Tc4  1  0.756974  0.726716  0.042629  1
  Tc  Tc5  1  0.243026  0.273284  0.957371  1
  Pt  Pt6  1  0.258140  0.273562  0.456705  1
  Pt  Pt7  1  0.741860  0.726438  0.543295  1
  F  F8  1  0.930151  0.705353  0.417419  1
  F  F9  1  0.069849  0.294647  0.582581  1
  F  F10  1  0.441402  0.291018  0.080744  1
  F  F11  1  0.558598  0.708982  0.919256  1
  F  F12  1  0.479065  0.729667  0.135296  1
  F  F13  1  0.520935  0.270333  0.864704  1
  F  F14  1  0.970969  0.273509  0.368075  1
  F  F15  1  0.029031  0.726491  0.631925  1
  F  F16  1  0.950529  0.744043  0.168622  1
  F  F17  1  0.049471  0.255957  0.831378  1
  F  F18  1  0.442482  0.258263  0.327078  1
  F  F19  1  0.557518  0.741737  0.672922  1
  F  F20  1  0.770508  0.485119  0.138348  1
  F  F21  1  0.229492  0.514881  0.861652  1
  F  F22  1  0.268746  0.515768  0.360811  1
  F  F23  1  0.731254  0.484232  0.639189  1
  F  F24  1  0.955573  0.279635  0.044090  1
  F  F25  1  0.044427  0.720365  0.955910  1
  F  F26  1  0.449084  0.718430  0.461017  1
  F  F27  1  0.550916  0.281570  0.538983  1
  F  F28  1  0.742203  0.968849  0.451994  1
  F  F29  1  0.257797  0.031151  0.548006  1
  F  F30  1  0.241877  0.032016  0.052041  1
  F  F31  1  0.758123  0.967984  0.947959  1
  F  F32  1  0.589356  0.967583  0.231974  1
  F  F33  1  0.410644  0.032417  0.768026  1
  F  F34  1  0.089470  0.031327  0.270440  1
  F  F35  1  0.910530  0.968673  0.729560  1
