# generated using pymatgen
data_Th6ScCo17P12
_symmetry_space_group_name_H-M   'P 1'
_cell_length_a   3.81719100
_cell_length_b   10.65474300
_cell_length_c   12.51578900
_cell_angle_alpha   90.00000000
_cell_angle_beta   90.00000000
_cell_angle_gamma   90.00000000
_symmetry_Int_Tables_number   1
_chemical_formula_structural   Th6ScCo17P12
_chemical_formula_sum   'Th6 Sc1 Co17 P12'
_cell_volume   509.03202099
_cell_formula_units_Z   1
loop_
 _symmetry_equiv_pos_site_id
 _symmetry_equiv_pos_as_xyz
  1  'x, y, z'
loop_
 _atom_site_type_symbol
 _atom_site_label
 _atom_site_symmetry_multiplicity
 _atom_site_fract_x
 _atom_site_fract_y
 _atom_site_fract_z
 _atom_site_occupancy
  Th  Th0  1  0.000000  0.500000  0.527515  1
  Th  Th1  1  0.500000  0.000000  0.479086  1
  Th  Th2  1  0.500000  0.818118  0.208919  1
  Th  Th3  1  0.500000  0.181882  0.208919  1
  Th  Th4  1  0.000000  0.684303  0.795490  1
  Th  Th5  1  0.000000  0.315697  0.795490  1
  Sc  Sc6  1  0.500000  0.500000  0.147346  1
  Co  Co7  1  0.000000  0.000000  0.838647  1
  Co  Co8  1  0.500000  0.500000  0.704050  1
  Co  Co9  1  0.000000  0.000000  0.296095  1
  Co  Co10  1  0.000000  0.500000  0.983523  1
  Co  Co11  1  0.500000  0.000000  0.015382  1
  Co  Co12  1  0.500000  0.326546  0.989760  1
  Co  Co13  1  0.500000  0.673454  0.989760  1
  Co  Co14  1  0.000000  0.160999  0.001315  1
  Co  Co15  1  0.000000  0.839001  0.001315  1
  Co  Co16  1  0.500000  0.298150  0.432667  1
  Co  Co17  1  0.500000  0.701850  0.432667  1
  Co  Co18  1  0.000000  0.200375  0.571019  1
  Co  Co19  1  0.000000  0.799625  0.571019  1
  Co  Co20  1  0.500000  0.881879  0.712056  1
  Co  Co21  1  0.500000  0.118121  0.712056  1
  Co  Co22  1  0.000000  0.621749  0.294683  1
  Co  Co23  1  0.000000  0.378251  0.294683  1
  P  P24  1  0.500000  0.500000  0.885830  1
  P  P25  1  0.000000  0.000000  0.113644  1
  P  P26  1  0.500000  0.500000  0.351253  1
  P  P27  1  0.000000  0.000000  0.660072  1
  P  P28  1  0.500000  0.304663  0.615213  1
  P  P29  1  0.500000  0.695337  0.615213  1
  P  P30  1  0.000000  0.193312  0.389219  1
  P  P31  1  0.000000  0.806688  0.389219  1
  P  P32  1  0.500000  0.855058  0.892937  1
  P  P33  1  0.500000  0.144942  0.892937  1
  P  P34  1  0.000000  0.661175  0.095500  1
  P  P35  1  0.000000  0.338825  0.095500  1
