# generated using pymatgen
data_K4ErTmF10
_symmetry_space_group_name_H-M   'P 1'
_cell_length_a   6.69047562
_cell_length_b   7.23176200
_cell_length_c   10.98722765
_cell_angle_alpha   90.00000000
_cell_angle_beta   90.17342957
_cell_angle_gamma   90.00000000
_symmetry_Int_Tables_number   1
_chemical_formula_structural   K4ErTmF10
_chemical_formula_sum   'K8 Er2 Tm2 F20'
_cell_volume   531.60278922
_cell_formula_units_Z   2
loop_
 _symmetry_equiv_pos_site_id
 _symmetry_equiv_pos_as_xyz
  1  'x, y, z'
loop_
 _atom_site_type_symbol
 _atom_site_label
 _atom_site_symmetry_multiplicity
 _atom_site_fract_x
 _atom_site_fract_y
 _atom_site_fract_z
 _atom_site_occupancy
  K  K0  1  0.529872  0.498466  0.828481  1
  K  K1  1  0.470128  0.501534  0.171519  1
  K  K2  1  0.029811  0.502123  0.672491  1
  K  K3  1  0.470128  0.998466  0.171519  1
  K  K4  1  0.970189  0.497877  0.327509  1
  K  K5  1  0.529872  0.001534  0.828481  1
  K  K6  1  0.970189  0.002123  0.327509  1
  K  K7  1  0.029811  0.997877  0.672491  1
  Er  Er8  1  0.564011  0.750000  0.501706  1
  Er  Er9  1  0.435989  0.250000  0.498294  1
  Tm  Tm10  1  0.063201  0.250000  0.998534  1
  Tm  Tm11  1  0.936799  0.750000  0.001466  1
  F  F12  1  0.839753  0.750000  0.812225  1
  F  F13  1  0.160247  0.250000  0.187775  1
  F  F14  1  0.339308  0.250000  0.688718  1
  F  F15  1  0.660692  0.750000  0.311282  1
  F  F16  1  0.371068  0.750000  0.662097  1
  F  F17  1  0.628932  0.250000  0.337903  1
  F  F18  1  0.872163  0.250000  0.838807  1
  F  F19  1  0.127837  0.750000  0.161193  1
  F  F20  1  0.889616  0.750000  0.514190  1
  F  F21  1  0.110384  0.250000  0.485810  1
  F  F22  1  0.386527  0.250000  0.985643  1
  F  F23  1  0.613473  0.750000  0.014357  1
  F  F24  1  0.644007  0.034845  0.576416  1
  F  F25  1  0.355993  0.965155  0.423584  1
  F  F26  1  0.142473  0.965209  0.924869  1
  F  F27  1  0.355993  0.534845  0.423584  1
  F  F28  1  0.857527  0.034791  0.075131  1
  F  F29  1  0.644007  0.465155  0.576416  1
  F  F30  1  0.857527  0.465209  0.075131  1
  F  F31  1  0.142473  0.534791  0.924869  1
