# generated using pymatgen
data_Y7Er3BiPb5
_symmetry_space_group_name_H-M   'P 1'
_cell_length_a   9.06985703
_cell_length_b   9.07061673
_cell_length_c   6.57434804
_cell_angle_alpha   89.99527603
_cell_angle_beta   90.01274428
_cell_angle_gamma   119.96688555
_symmetry_Int_Tables_number   1
_chemical_formula_structural   Y7Er3BiPb5
_chemical_formula_sum   'Y7 Er3 Bi1 Pb5'
_cell_volume   468.56019350
_cell_formula_units_Z   1
loop_
 _symmetry_equiv_pos_site_id
 _symmetry_equiv_pos_as_xyz
  1  'x, y, z'
loop_
 _atom_site_type_symbol
 _atom_site_label
 _atom_site_symmetry_multiplicity
 _atom_site_fract_x
 _atom_site_fract_y
 _atom_site_fract_z
 _atom_site_occupancy
  Y  Y0  1  0.668422  0.332987  0.999200  1
  Y  Y1  1  0.762206  0.762083  0.749802  1
  Y  Y2  1  0.237686  0.996320  0.749773  1
  Y  Y3  1  0.996223  0.237652  0.749767  1
  Y  Y4  1  0.239376  0.239276  0.250162  1
  Y  Y5  1  0.761080  0.000798  0.250196  1
  Y  Y6  1  0.000742  0.761098  0.250271  1
  Er  Er7  1  0.332930  0.668717  0.999318  1
  Er  Er8  1  0.332983  0.668611  0.500591  1
  Er  Er9  1  0.668783  0.332995  0.500658  1
  Bi  Bi10  1  0.393020  0.393647  0.749265  1
  Pb  Pb11  1  0.604149  0.998942  0.749004  1
  Pb  Pb12  1  0.000458  0.604875  0.749003  1
  Pb  Pb13  1  0.605623  0.606315  0.251013  1
  Pb  Pb14  1  0.394400  0.000588  0.251008  1
  Pb  Pb15  1  0.001920  0.395095  0.250969  1
