# generated using pymatgen
data_Tb2Er6Ga12CoNi3
_symmetry_space_group_name_H-M   'P 1'
_cell_length_a   6.96757000
_cell_length_b   8.71552693
_cell_length_c   8.71552800
_cell_angle_alpha   119.99999646
_cell_angle_beta   90.00000000
_cell_angle_gamma   90.00000000
_symmetry_Int_Tables_number   1
_chemical_formula_structural   Tb2Er6Ga12CoNi3
_chemical_formula_sum   'Tb2 Er6 Ga12 Co1 Ni3'
_cell_volume   458.35222033
_cell_formula_units_Z   1
loop_
 _symmetry_equiv_pos_site_id
 _symmetry_equiv_pos_as_xyz
  1  'x, y, z'
loop_
 _atom_site_type_symbol
 _atom_site_label
 _atom_site_symmetry_multiplicity
 _atom_site_fract_x
 _atom_site_fract_y
 _atom_site_fract_z
 _atom_site_occupancy
  Tb  Tb0  1  0.748373  0.000000  0.000000  1
  Tb  Tb1  1  0.249898  0.000000  0.000000  1
  Er  Er2  1  0.750280  0.478455  0.521545  1
  Er  Er3  1  0.252998  0.524818  0.475182  1
  Er  Er4  1  0.750280  0.043090  0.521545  1
  Er  Er5  1  0.252998  0.950365  0.475182  1
  Er  Er6  1  0.750280  0.478455  0.956910  1
  Er  Er7  1  0.252998  0.524818  0.049635  1
  Ga  Ga8  1  0.955525  0.828044  0.171956  1
  Ga  Ga9  1  0.046322  0.172433  0.827567  1
  Ga  Ga10  1  0.955525  0.343913  0.171956  1
  Ga  Ga11  1  0.455403  0.172066  0.827934  1
  Ga  Ga12  1  0.046322  0.655134  0.827567  1
  Ga  Ga13  1  0.544957  0.826604  0.173396  1
  Ga  Ga14  1  0.955525  0.828044  0.656087  1
  Ga  Ga15  1  0.455403  0.655867  0.827934  1
  Ga  Ga16  1  0.046322  0.172433  0.344866  1
  Ga  Ga17  1  0.544957  0.346793  0.173396  1
  Ga  Ga18  1  0.455403  0.172066  0.344133  1
  Ga  Ga19  1  0.544957  0.826604  0.653207  1
  Co  Co20  1  0.515763  0.666667  0.333333  1
  Ni  Ni21  1  0.968224  0.666667  0.333333  1
  Ni  Ni22  1  0.027286  0.333333  0.666667  1
  Ni  Ni23  1  0.473999  0.333333  0.666667  1
