# generated using pymatgen
data_LuPaTlPt2
_symmetry_space_group_name_H-M   'P 1'
_cell_length_a   7.77094600
_cell_length_b   7.77461100
_cell_length_c   3.62125500
_cell_angle_alpha   90.00000000
_cell_angle_beta   90.00000000
_cell_angle_gamma   90.00000000
_symmetry_Int_Tables_number   1
_chemical_formula_structural   LuPaTlPt2
_chemical_formula_sum   'Lu2 Pa2 Tl2 Pt4'
_cell_volume   218.78203994
_cell_formula_units_Z   2
loop_
 _symmetry_equiv_pos_site_id
 _symmetry_equiv_pos_as_xyz
  1  'x, y, z'
loop_
 _atom_site_type_symbol
 _atom_site_label
 _atom_site_symmetry_multiplicity
 _atom_site_fract_x
 _atom_site_fract_y
 _atom_site_fract_z
 _atom_site_occupancy
  Lu  Lu0  1  0.170838  0.672545  0.500000  1
  Lu  Lu1  1  0.670838  0.827455  0.500000  1
  Pa  Pa2  1  0.332188  0.166525  0.500000  1
  Pa  Pa3  1  0.832188  0.333475  0.500000  1
  Tl  Tl4  1  0.995498  0.987825  0.000000  1
  Tl  Tl5  1  0.495498  0.512175  0.000000  1
  Pt  Pt6  1  0.631203  0.137939  0.000000  1
  Pt  Pt7  1  0.131203  0.362062  0.000000  1
  Pt  Pt8  1  0.870274  0.618971  0.000000  1
  Pt  Pt9  1  0.370274  0.881030  0.000000  1
