# generated using pymatgen
data_Nd7Er12TmBi12
_symmetry_space_group_name_H-M   'P 1'
_cell_length_a   8.32060001
_cell_length_b   9.52868600
_cell_length_c   12.28275200
_cell_angle_alpha   90.00000000
_cell_angle_beta   89.99779648
_cell_angle_gamma   90.00000000
_symmetry_Int_Tables_number   1
_chemical_formula_structural   Nd7Er12TmBi12
_chemical_formula_sum   'Nd7 Er12 Tm1 Bi12'
_cell_volume   973.83043513
_cell_formula_units_Z   1
loop_
 _symmetry_equiv_pos_site_id
 _symmetry_equiv_pos_as_xyz
  1  'x, y, z'
loop_
 _atom_site_type_symbol
 _atom_site_label
 _atom_site_symmetry_multiplicity
 _atom_site_fract_x
 _atom_site_fract_y
 _atom_site_fract_z
 _atom_site_occupancy
  Nd  Nd0  1  0.183406  0.750000  0.719455  1
  Nd  Nd1  1  0.684673  0.750000  0.779457  1
  Nd  Nd2  1  0.818600  0.250000  0.281612  1
  Nd  Nd3  1  0.315884  0.250000  0.221094  1
  Nd  Nd4  1  0.353375  0.750000  0.215485  1
  Nd  Nd5  1  0.852772  0.750000  0.283277  1
  Nd  Nd6  1  0.645193  0.250000  0.784187  1
  Er  Er7  1  0.024582  0.750000  0.986573  1
  Er  Er8  1  0.522850  0.750000  0.512574  1
  Er  Er9  1  0.976309  0.250000  0.009568  1
  Er  Er10  1  0.475677  0.250000  0.489096  1
  Er  Er11  1  0.309555  0.434520  0.939797  1
  Er  Er12  1  0.808803  0.064630  0.560565  1
  Er  Er13  1  0.691172  0.934835  0.057263  1
  Er  Er14  1  0.190328  0.565060  0.441080  1
  Er  Er15  1  0.691172  0.565165  0.057263  1
  Er  Er16  1  0.190328  0.934940  0.441080  1
  Er  Er17  1  0.309555  0.065480  0.939797  1
  Er  Er18  1  0.808803  0.435370  0.560565  1
  Tm  Tm19  1  0.148635  0.250000  0.719011  1
  Bi  Bi20  1  0.430374  0.006502  0.668459  1
  Bi  Bi21  1  0.937695  0.492561  0.828256  1
  Bi  Bi22  1  0.565701  0.504304  0.332870  1
  Bi  Bi23  1  0.065810  0.995770  0.167159  1
  Bi  Bi24  1  0.565701  0.995696  0.332870  1
  Bi  Bi25  1  0.065810  0.504230  0.167159  1
  Bi  Bi26  1  0.430374  0.493498  0.668459  1
  Bi  Bi27  1  0.937695  0.007439  0.828256  1
  Bi  Bi28  1  0.404559  0.750000  0.956892  1
  Bi  Bi29  1  0.903889  0.750000  0.541834  1
  Bi  Bi30  1  0.595439  0.250000  0.043537  1
  Bi  Bi31  1  0.095280  0.250000  0.465449  1
