# generated using pymatgen
data_Hf18FeRe8As
_symmetry_space_group_name_H-M   'P 1'
_cell_length_a   8.62797700
_cell_length_b   8.56463230
_cell_length_c   8.56463201
_cell_angle_alpha   119.99786795
_cell_angle_beta   90.00000000
_cell_angle_gamma   90.00000000
_symmetry_Int_Tables_number   1
_chemical_formula_structural   Hf18FeRe8As
_chemical_formula_sum   'Hf18 Fe1 Re8 As1'
_cell_volume   548.10828975
_cell_formula_units_Z   1
loop_
 _symmetry_equiv_pos_site_id
 _symmetry_equiv_pos_as_xyz
  1  'x, y, z'
loop_
 _atom_site_type_symbol
 _atom_site_label
 _atom_site_symmetry_multiplicity
 _atom_site_fract_x
 _atom_site_fract_y
 _atom_site_fract_z
 _atom_site_occupancy
  Hf  Hf0  1  0.546762  0.807581  0.615159  1
  Hf  Hf1  1  0.546760  0.807562  0.192438  1
  Hf  Hf2  1  0.546762  0.384841  0.192419  1
  Hf  Hf3  1  0.442673  0.200790  0.401575  1
  Hf  Hf4  1  0.442644  0.200807  0.799193  1
  Hf  Hf5  1  0.442673  0.598425  0.799210  1
  Hf  Hf6  1  0.057327  0.200790  0.401575  1
  Hf  Hf7  1  0.057356  0.200807  0.799193  1
  Hf  Hf8  1  0.057327  0.598425  0.799210  1
  Hf  Hf9  1  0.953238  0.807581  0.615159  1
  Hf  Hf10  1  0.953240  0.807562  0.192438  1
  Hf  Hf11  1  0.953238  0.384841  0.192419  1
  Hf  Hf12  1  0.750000  0.458521  0.917057  1
  Hf  Hf13  1  0.750000  0.458526  0.541474  1
  Hf  Hf14  1  0.750000  0.082943  0.541478  1
  Hf  Hf15  1  0.250000  0.540379  0.080756  1
  Hf  Hf16  1  0.250000  0.540360  0.459640  1
  Hf  Hf17  1  0.250000  0.919244  0.459620  1
  Fe  Fe18  1  0.250000  0.333396  0.666604  1
  Re  Re19  1  0.750000  0.110176  0.220390  1
  Re  Re20  1  0.750000  0.110184  0.889816  1
  Re  Re21  1  0.750000  0.779610  0.889824  1
  Re  Re22  1  0.250000  0.889732  0.779438  1
  Re  Re23  1  0.250000  0.889716  0.110284  1
  Re  Re24  1  0.250000  0.220562  0.110268  1
  Re  Re25  1  0.498510  0.999998  0.000002  1
  Re  Re26  1  0.001490  0.999998  0.000002  1
  As  As27  1  0.750000  0.666643  0.333357  1
