# generated using pymatgen
data_NdSmGePd14
_symmetry_space_group_name_H-M   'P 1'
_cell_length_a   8.98271700
_cell_length_b   8.98271700
_cell_length_c   7.19736700
_cell_angle_alpha   90.00000000
_cell_angle_beta   90.00000000
_cell_angle_gamma   90.00000000
_symmetry_Int_Tables_number   1
_chemical_formula_structural   NdSmGePd14
_chemical_formula_sum   'Nd2 Sm2 Ge2 Pd28'
_cell_volume   580.74981918
_cell_formula_units_Z   2
loop_
 _symmetry_equiv_pos_site_id
 _symmetry_equiv_pos_as_xyz
  1  'x, y, z'
loop_
 _atom_site_type_symbol
 _atom_site_label
 _atom_site_symmetry_multiplicity
 _atom_site_fract_x
 _atom_site_fract_y
 _atom_site_fract_z
 _atom_site_occupancy
  Nd  Nd0  1  0.500000  0.000000  0.936128  1
  Nd  Nd1  1  0.000000  0.500000  0.063872  1
  Sm  Sm2  1  0.000000  0.000000  0.500000  1
  Sm  Sm3  1  0.500000  0.500000  0.500000  1
  Ge  Ge4  1  0.500000  0.000000  0.449003  1
  Ge  Ge5  1  0.000000  0.500000  0.550997  1
  Pd  Pd6  1  0.330565  0.830565  0.621212  1
  Pd  Pd7  1  0.330565  0.169435  0.621212  1
  Pd  Pd8  1  0.669435  0.830565  0.621212  1
  Pd  Pd9  1  0.669435  0.169435  0.621212  1
  Pd  Pd10  1  0.169435  0.669435  0.378788  1
  Pd  Pd11  1  0.169435  0.330565  0.378788  1
  Pd  Pd12  1  0.830565  0.669435  0.378788  1
  Pd  Pd13  1  0.830565  0.330565  0.378788  1
  Pd  Pd14  1  0.500000  0.765888  0.253439  1
  Pd  Pd15  1  0.500000  0.234112  0.253439  1
  Pd  Pd16  1  0.265888  0.000000  0.253439  1
  Pd  Pd17  1  0.734112  0.000000  0.253439  1
  Pd  Pd18  1  0.000000  0.734112  0.746561  1
  Pd  Pd19  1  0.000000  0.265888  0.746561  1
  Pd  Pd20  1  0.234112  0.500000  0.746561  1
  Pd  Pd21  1  0.765888  0.500000  0.746561  1
  Pd  Pd22  1  0.500000  0.349223  0.855922  1
  Pd  Pd23  1  0.500000  0.650777  0.855922  1
  Pd  Pd24  1  0.849223  0.000000  0.855922  1
  Pd  Pd25  1  0.150777  0.000000  0.855922  1
  Pd  Pd26  1  0.000000  0.150777  0.144078  1
  Pd  Pd27  1  0.000000  0.849223  0.144078  1
  Pd  Pd28  1  0.650777  0.500000  0.144078  1
  Pd  Pd29  1  0.349223  0.500000  0.144078  1
  Pd  Pd30  1  0.250000  0.750000  0.000000  1
  Pd  Pd31  1  0.250000  0.250000  0.000000  1
  Pd  Pd32  1  0.750000  0.750000  0.000000  1
  Pd  Pd33  1  0.750000  0.250000  0.000000  1
