# generated using pymatgen
data_Sc12Cu5Si16Ru3
_symmetry_space_group_name_H-M   'P 1'
_cell_length_a   4.00684300
_cell_length_b   11.70201330
_cell_length_c   12.45044346
_cell_angle_alpha   89.66868234
_cell_angle_beta   90.00000000
_cell_angle_gamma   90.00000000
_symmetry_Int_Tables_number   1
_chemical_formula_structural   Sc12Cu5Si16Ru3
_chemical_formula_sum   'Sc12 Cu5 Si16 Ru3'
_cell_volume   583.76825211
_cell_formula_units_Z   1
loop_
 _symmetry_equiv_pos_site_id
 _symmetry_equiv_pos_as_xyz
  1  'x, y, z'
loop_
 _atom_site_type_symbol
 _atom_site_label
 _atom_site_symmetry_multiplicity
 _atom_site_fract_x
 _atom_site_fract_y
 _atom_site_fract_z
 _atom_site_occupancy
  Sc  Sc0  1  0.750000  0.980287  0.818122  1
  Sc  Sc1  1  0.250000  0.020377  0.178691  1
  Sc  Sc2  1  0.750000  0.479955  0.678729  1
  Sc  Sc3  1  0.250000  0.520355  0.320502  1
  Sc  Sc4  1  0.750000  0.754227  0.653404  1
  Sc  Sc5  1  0.250000  0.243281  0.349297  1
  Sc  Sc6  1  0.750000  0.257103  0.845837  1
  Sc  Sc7  1  0.250000  0.742388  0.150148  1
  Sc  Sc8  1  0.750000  0.687883  0.913204  1
  Sc  Sc9  1  0.250000  0.311327  0.089106  1
  Sc  Sc10  1  0.750000  0.191064  0.584692  1
  Sc  Sc11  1  0.250000  0.814732  0.413613  1
  Cu  Cu12  1  0.250000  0.948560  0.642772  1
  Cu  Cu13  1  0.750000  0.599680  0.469793  1
  Cu  Cu14  1  0.250000  0.401018  0.528843  1
  Cu  Cu15  1  0.750000  0.105868  0.030937  1
  Cu  Cu16  1  0.250000  0.898707  0.967514  1
  Si  Si17  1  0.750000  0.936901  0.531548  1
  Si  Si18  1  0.250000  0.059306  0.470795  1
  Si  Si19  1  0.750000  0.439364  0.971247  1
  Si  Si20  1  0.250000  0.559029  0.028151  1
  Si  Si21  1  0.750000  0.891194  0.063594  1
  Si  Si22  1  0.250000  0.109678  0.933660  1
  Si  Si23  1  0.750000  0.388516  0.434541  1
  Si  Si24  1  0.250000  0.615812  0.564903  1
  Si  Si25  1  0.750000  0.878672  0.258195  1
  Si  Si26  1  0.250000  0.123827  0.739450  1
  Si  Si27  1  0.750000  0.378443  0.241109  1
  Si  Si28  1  0.250000  0.620227  0.758853  1
  Si  Si29  1  0.750000  0.677612  0.294398  1
  Si  Si30  1  0.250000  0.324343  0.704501  1
  Si  Si31  1  0.750000  0.176148  0.208338  1
  Si  Si32  1  0.250000  0.819737  0.796103  1
  Ru  Ru33  1  0.750000  0.548491  0.136365  1
  Ru  Ru34  1  0.250000  0.450630  0.863556  1
  Ru  Ru35  1  0.750000  0.045259  0.365491  1
