# generated using pymatgen
data_CeTm(Co3Si2)2
_symmetry_space_group_name_H-M   'P 1'
_cell_length_a   6.26666034
_cell_length_b   6.26665915
_cell_length_c   6.26666026
_cell_angle_alpha   130.32672280
_cell_angle_beta   113.52525149
_cell_angle_gamma   87.34634166
_symmetry_Int_Tables_number   1
_chemical_formula_structural   CeTm(Co3Si2)2
_chemical_formula_sum   'Ce1 Tm1 Co6 Si4'
_cell_volume   163.91962072
_cell_formula_units_Z   1
loop_
 _symmetry_equiv_pos_site_id
 _symmetry_equiv_pos_as_xyz
  1  'x, y, z'
loop_
 _atom_site_type_symbol
 _atom_site_label
 _atom_site_symmetry_multiplicity
 _atom_site_fract_x
 _atom_site_fract_y
 _atom_site_fract_z
 _atom_site_occupancy
  Ce  Ce0  1  0.750000  0.461949  0.711949  1
  Tm  Tm1  1  0.250000  0.541147  0.291147  1
  Co  Co2  1  0.993147  0.000935  0.494083  1
  Co  Co3  1  0.506853  0.000935  0.007789  1
  Co  Co4  1  0.720154  0.999750  0.720411  1
  Co  Co5  1  0.220661  0.500256  0.720411  1
  Co  Co6  1  0.279339  0.999750  0.279596  1
  Co  Co7  1  0.779846  0.500256  0.279596  1
  Si  Si8  1  0.087487  0.885494  0.798007  1
  Si  Si9  1  0.924740  0.124243  0.199503  1
  Si  Si10  1  0.575260  0.774764  0.199503  1
  Si  Si11  1  0.412513  0.210519  0.798007  1
