# generated using pymatgen
data_TmHf5(Co5B2)2
_symmetry_space_group_name_H-M   'P 1'
_cell_length_a   8.83715130
_cell_length_b   8.83715130
_cell_length_c   3.13846700
_cell_angle_alpha   90.00000000
_cell_angle_beta   90.00000000
_cell_angle_gamma   89.47626005
_symmetry_Int_Tables_number   1
_chemical_formula_structural   TmHf5(Co5B2)2
_chemical_formula_sum   'Tm1 Hf5 Co10 B4'
_cell_volume   245.08910350
_cell_formula_units_Z   1
loop_
 _symmetry_equiv_pos_site_id
 _symmetry_equiv_pos_as_xyz
  1  'x, y, z'
loop_
 _atom_site_type_symbol
 _atom_site_label
 _atom_site_symmetry_multiplicity
 _atom_site_fract_x
 _atom_site_fract_y
 _atom_site_fract_z
 _atom_site_occupancy
  Tm  Tm0  1  0.824927  0.324927  0.000000  1
  Hf  Hf1  1  0.000143  0.000278  0.000000  1
  Hf  Hf2  1  0.500278  0.500143  0.000000  1
  Hf  Hf3  1  0.325269  0.173927  0.000000  1
  Hf  Hf4  1  0.673927  0.825269  0.000000  1
  Hf  Hf5  1  0.174960  0.674960  0.000000  1
  Co  Co6  1  0.496541  0.996541  0.500000  1
  Co  Co7  1  0.004737  0.504737  0.500000  1
  Co  Co8  1  0.079398  0.228544  0.500000  1
  Co  Co9  1  0.227044  0.928522  0.500000  1
  Co  Co10  1  0.766328  0.061576  0.500000  1
  Co  Co11  1  0.931260  0.774814  0.500000  1
  Co  Co12  1  0.428522  0.727044  0.500000  1
  Co  Co13  1  0.561576  0.266328  0.500000  1
  Co  Co14  1  0.728544  0.579398  0.500000  1
  Co  Co15  1  0.274814  0.431260  0.500000  1
  B  B16  1  0.614949  0.114949  0.000000  1
  B  B17  1  0.123681  0.383183  0.000000  1
  B  B18  1  0.883183  0.623681  0.000000  1
  B  B19  1  0.379918  0.879918  0.000000  1
