# generated using pymatgen
data_GdYSe3
_symmetry_space_group_name_H-M   'P 1'
_cell_length_a   13.53993659
_cell_length_b   12.92040031
_cell_length_c   7.15040600
_cell_angle_alpha   79.16453932
_cell_angle_beta   69.59156806
_cell_angle_gamma   31.23925445
_symmetry_Int_Tables_number   1
_chemical_formula_structural   GdYSe3
_chemical_formula_sum   'Gd4 Y4 Se12'
_cell_volume   592.19189649
_cell_formula_units_Z   4
loop_
 _symmetry_equiv_pos_site_id
 _symmetry_equiv_pos_as_xyz
  1  'x, y, z'
loop_
 _atom_site_type_symbol
 _atom_site_label
 _atom_site_symmetry_multiplicity
 _atom_site_fract_x
 _atom_site_fract_y
 _atom_site_fract_z
 _atom_site_occupancy
  Gd  Gd0  1  0.503586  0.503586  0.996414  1
  Gd  Gd1  1  0.996387  0.996387  0.503613  1
  Gd  Gd2  1  0.746414  0.746414  0.253586  1
  Gd  Gd3  1  0.253613  0.253613  0.746387  1
  Y  Y4  1  0.165944  0.165944  0.334056  1
  Y  Y5  1  0.334165  0.334165  0.165835  1
  Y  Y6  1  0.084056  0.084056  0.915944  1
  Y  Y7  1  0.915835  0.915835  0.084165  1
  Se  Se8  1  0.172946  0.663729  0.318394  1
  Se  Se9  1  0.844932  0.318025  0.663506  1
  Se  Se10  1  0.318025  0.844932  0.173537  1
  Se  Se11  1  0.663729  0.172946  0.844930  1
  Se  Se12  1  0.077054  0.586271  0.931606  1
  Se  Se13  1  0.405068  0.931975  0.586494  1
  Se  Se14  1  0.931975  0.405068  0.076463  1
  Se  Se15  1  0.586271  0.077054  0.405070  1
  Se  Se16  1  0.239674  0.760308  0.759978  1
  Se  Se17  1  0.760308  0.239674  0.240042  1
  Se  Se18  1  0.010326  0.489692  0.490022  1
  Se  Se19  1  0.489692  0.010326  0.009958  1
