# generated using pymatgen
data_Rb10Mn4Sn4Se17
_symmetry_space_group_name_H-M   'P 1'
_cell_length_a   10.84956930
_cell_length_b   10.84956938
_cell_length_c   10.84956994
_cell_angle_alpha   89.16507857
_cell_angle_beta   89.16507902
_cell_angle_gamma   89.16507537
_symmetry_Int_Tables_number   1
_chemical_formula_structural   Rb10Mn4Sn4Se17
_chemical_formula_sum   'Rb10 Mn4 Sn4 Se17'
_cell_volume   1276.73422832
_cell_formula_units_Z   1
loop_
 _symmetry_equiv_pos_site_id
 _symmetry_equiv_pos_as_xyz
  1  'x, y, z'
loop_
 _atom_site_type_symbol
 _atom_site_label
 _atom_site_symmetry_multiplicity
 _atom_site_fract_x
 _atom_site_fract_y
 _atom_site_fract_z
 _atom_site_occupancy
  Rb  Rb0  1  0.000376  0.000376  0.499201  1
  Rb  Rb1  1  0.499201  0.000376  0.000376  1
  Rb  Rb2  1  0.000376  0.499201  0.000376  1
  Rb  Rb3  1  0.498026  0.957174  0.498026  1
  Rb  Rb4  1  0.498026  0.498026  0.957174  1
  Rb  Rb5  1  0.957174  0.498026  0.498026  1
  Rb  Rb6  1  0.659506  0.327362  0.327362  1
  Rb  Rb7  1  0.327362  0.659506  0.327362  1
  Rb  Rb8  1  0.327362  0.327362  0.659506  1
  Rb  Rb9  1  0.675431  0.675431  0.675431  1
  Mn  Mn10  1  0.865526  0.134341  0.134341  1
  Mn  Mn11  1  0.134341  0.865526  0.134341  1
  Mn  Mn12  1  0.134341  0.134341  0.865526  1
  Mn  Mn13  1  0.866450  0.866450  0.866450  1
  Sn  Sn14  1  0.221163  0.221163  0.221163  1
  Sn  Sn15  1  0.223983  0.776906  0.776906  1
  Sn  Sn16  1  0.776906  0.776906  0.223983  1
  Sn  Sn17  1  0.776906  0.223983  0.776906  1
  Se  Se18  1  0.998998  0.998998  0.998998  1
  Se  Se19  1  0.352670  0.352670  0.352670  1
  Se  Se20  1  0.365906  0.645872  0.645872  1
  Se  Se21  1  0.645872  0.645872  0.365906  1
  Se  Se22  1  0.645872  0.365906  0.645872  1
  Se  Se23  1  0.270654  0.992007  0.270654  1
  Se  Se24  1  0.270654  0.270654  0.992007  1
  Se  Se25  1  0.992007  0.270654  0.270654  1
  Se  Se26  1  0.271837  0.004639  0.726342  1
  Se  Se27  1  0.271837  0.726342  0.004639  1
  Se  Se28  1  0.997294  0.727890  0.727890  1
  Se  Se29  1  0.726342  0.004639  0.271837  1
  Se  Se30  1  0.727890  0.727890  0.997294  1
  Se  Se31  1  0.004639  0.726342  0.271837  1
  Se  Se32  1  0.727890  0.997294  0.727890  1
  Se  Se33  1  0.726342  0.271837  0.004639  1
  Se  Se34  1  0.004639  0.271837  0.726342  1
