# generated using pymatgen
data_CaNd4P12Ir9Ru10
_symmetry_space_group_name_H-M   'P 1'
_cell_length_a   12.69234594
_cell_length_b   12.64531010
_cell_length_c   4.00653200
_cell_angle_alpha   90.00000000
_cell_angle_beta   90.00000000
_cell_angle_gamma   119.82128131
_symmetry_Int_Tables_number   1
_chemical_formula_structural   CaNd4P12Ir9Ru10
_chemical_formula_sum   'Ca1 Nd4 P12 Ir9 Ru10'
_cell_volume   557.89174337
_cell_formula_units_Z   1
loop_
 _symmetry_equiv_pos_site_id
 _symmetry_equiv_pos_as_xyz
  1  'x, y, z'
loop_
 _atom_site_type_symbol
 _atom_site_label
 _atom_site_symmetry_multiplicity
 _atom_site_fract_x
 _atom_site_fract_y
 _atom_site_fract_z
 _atom_site_occupancy
  Ca  Ca0  1  0.333405  0.666800  0.000000  1
  Nd  Nd1  1  0.667376  0.332496  0.000000  1
  Nd  Nd2  1  0.813203  0.000783  0.500000  1
  Nd  Nd3  1  0.185217  0.187012  0.500000  1
  Nd  Nd4  1  0.000145  0.814074  0.500000  1
  P  P5  1  0.627571  0.996038  0.000000  1
  P  P6  1  0.367382  0.374517  0.000000  1
  P  P7  1  0.007290  0.632839  0.000000  1
  P  P8  1  0.690053  0.520587  0.500000  1
  P  P9  1  0.830321  0.306040  0.500000  1
  P  P10  1  0.312535  0.828183  0.500000  1
  P  P11  1  0.515891  0.687475  0.500000  1
  P  P12  1  0.183823  0.000788  0.000000  1
  P  P13  1  0.815063  0.816126  0.000000  1
  P  P14  1  0.997648  0.185553  0.000000  1
  P  P15  1  0.478610  0.167081  0.500000  1
  P  P16  1  0.172301  0.484893  0.500000  1
  Ir  Ir17  1  0.621231  0.801525  0.000000  1
  Ir  Ir18  1  0.181289  0.379519  0.000000  1
  Ir  Ir19  1  0.376397  0.183379  0.000000  1
  Ir  Ir20  1  0.197957  0.820531  0.000000  1
  Ir  Ir21  1  0.807098  0.623245  0.000000  1
  Ir  Ir22  1  0.870756  0.506433  0.500000  1
  Ir  Ir23  1  0.492827  0.362402  0.500000  1
  Ir  Ir24  1  0.635663  0.126086  0.500000  1
  Ir  Ir25  1  0.999406  0.000403  0.000000  1
  Ru  Ru26  1  0.125526  0.639510  0.500000  1
  Ru  Ru27  1  0.362100  0.486528  0.500000  1
  Ru  Ru28  1  0.511981  0.873113  0.500000  1
  Ru  Ru29  1  0.712166  0.711523  0.500000  1
  Ru  Ru30  1  0.001839  0.289275  0.500000  1
  Ru  Ru31  1  0.449936  0.001453  0.000000  1
  Ru  Ru32  1  0.551935  0.547697  0.000000  1
  Ru  Ru33  1  0.998801  0.449401  0.000000  1
  Ru  Ru34  1  0.817291  0.195959  0.000000  1
  Ru  Ru35  1  0.287970  0.000733  0.500000  1
