# generated using pymatgen
data_Ca(PaI4)3
_symmetry_space_group_name_H-M   'P 1'
_cell_length_a   7.60011105
_cell_length_b   8.14896281
_cell_length_c   14.28355200
_cell_angle_alpha   90.00000000
_cell_angle_beta   90.00000000
_cell_angle_gamma   90.08022204
_symmetry_Int_Tables_number   1
_chemical_formula_structural   Ca(PaI4)3
_chemical_formula_sum   'Ca1 Pa3 I12'
_cell_volume   884.62267686
_cell_formula_units_Z   1
loop_
 _symmetry_equiv_pos_site_id
 _symmetry_equiv_pos_as_xyz
  1  'x, y, z'
loop_
 _atom_site_type_symbol
 _atom_site_label
 _atom_site_symmetry_multiplicity
 _atom_site_fract_x
 _atom_site_fract_y
 _atom_site_fract_z
 _atom_site_occupancy
  Ca  Ca0  1  0.749979  0.247828  0.000000  1
  Pa  Pa1  1  0.250084  0.752084  0.500000  1
  Pa  Pa2  1  0.750010  0.752044  0.500000  1
  Pa  Pa3  1  0.249980  0.247927  0.000000  1
  I  I4  1  0.999923  0.600703  0.651057  1
  I  I5  1  0.000087  0.057170  0.500000  1
  I  I6  1  0.010340  0.097579  0.850514  1
  I  I7  1  0.010340  0.097579  0.149486  1
  I  I8  1  0.500156  0.903455  0.348869  1
  I  I9  1  0.489653  0.398371  0.149484  1
  I  I10  1  0.499910  0.447029  0.500000  1
  I  I11  1  0.500156  0.903455  0.651131  1
  I  I12  1  0.489653  0.398371  0.850516  1
  I  I13  1  0.490263  0.946945  0.000000  1
  I  I14  1  0.009547  0.548759  0.000000  1
  I  I15  1  0.999923  0.600703  0.348943  1
