# generated using pymatgen
data_Tm16Sc4Ir7Ru5
_symmetry_space_group_name_H-M   'P 1'
_cell_length_a   10.58701701
_cell_length_b   10.58701701
_cell_length_c   6.26082701
_cell_angle_alpha   89.99628022
_cell_angle_beta   89.99628022
_cell_angle_gamma   90.00312801
_symmetry_Int_Tables_number   1
_chemical_formula_structural   Tm16Sc4Ir7Ru5
_chemical_formula_sum   'Tm16 Sc4 Ir7 Ru5'
_cell_volume   701.74434751
_cell_formula_units_Z   1
loop_
 _symmetry_equiv_pos_site_id
 _symmetry_equiv_pos_as_xyz
  1  'x, y, z'
loop_
 _atom_site_type_symbol
 _atom_site_label
 _atom_site_symmetry_multiplicity
 _atom_site_fract_x
 _atom_site_fract_y
 _atom_site_fract_z
 _atom_site_occupancy
  Tm  Tm0  1  0.289953  0.085092  0.374987  1
  Tm  Tm1  1  0.289500  0.915066  0.875084  1
  Tm  Tm2  1  0.711035  0.085422  0.875344  1
  Tm  Tm3  1  0.710426  0.915212  0.374587  1
  Tm  Tm4  1  0.585160  0.790054  0.874928  1
  Tm  Tm5  1  0.586040  0.209942  0.375292  1
  Tm  Tm6  1  0.414849  0.790369  0.375015  1
  Tm  Tm7  1  0.414738  0.209834  0.874985  1
  Tm  Tm8  1  0.209946  0.414840  0.625072  1
  Tm  Tm9  1  0.209631  0.585151  0.124985  1
  Tm  Tm10  1  0.790058  0.413960  0.124708  1
  Tm  Tm11  1  0.790166  0.585262  0.625015  1
  Tm  Tm12  1  0.914908  0.710047  0.125013  1
  Tm  Tm13  1  0.914578  0.288965  0.624656  1
  Tm  Tm14  1  0.084934  0.710500  0.624916  1
  Tm  Tm15  1  0.084788  0.289574  0.125413  1
  Sc  Sc16  1  0.999206  0.001252  0.498280  1
  Sc  Sc17  1  0.998748  0.000794  0.001720  1
  Sc  Sc18  1  0.500012  0.499936  0.999996  1
  Sc  Sc19  1  0.500064  0.499988  0.500004  1
  Ir  Ir20  1  0.851433  0.850976  0.749544  1
  Ir  Ir21  1  0.149024  0.148567  0.750456  1
  Ir  Ir22  1  0.148920  0.851080  0.250000  1
  Ir  Ir23  1  0.647544  0.352456  0.750000  1
  Ir  Ir24  1  0.648144  0.647952  0.249886  1
  Ir  Ir25  1  0.352048  0.351856  0.250114  1
  Ir  Ir26  1  0.351861  0.648139  0.750000  1
  Ru  Ru27  1  0.852364  0.147636  0.250000  1
  Ru  Ru28  1  0.500098  0.000039  0.125462  1
  Ru  Ru29  1  0.499828  0.999964  0.625556  1
  Ru  Ru30  1  0.000036  0.500172  0.874444  1
  Ru  Ru31  1  0.999961  0.499902  0.374538  1
