# generated using pymatgen
data_Tm5Nb3(ReB6)4
_symmetry_space_group_name_H-M   'P 1'
_cell_length_a   3.56994200
_cell_length_b   8.96063018
_cell_length_c   11.32217482
_cell_angle_alpha   89.91923566
_cell_angle_beta   90.00000000
_cell_angle_gamma   90.00000000
_symmetry_Int_Tables_number   1
_chemical_formula_structural   Tm5Nb3(ReB6)4
_chemical_formula_sum   'Tm5 Nb3 Re4 B24'
_cell_volume   362.18389827
_cell_formula_units_Z   1
loop_
 _symmetry_equiv_pos_site_id
 _symmetry_equiv_pos_as_xyz
  1  'x, y, z'
loop_
 _atom_site_type_symbol
 _atom_site_label
 _atom_site_symmetry_multiplicity
 _atom_site_fract_x
 _atom_site_fract_y
 _atom_site_fract_z
 _atom_site_occupancy
  Tm  Tm0  1  0.000000  0.321972  0.413901  1
  Tm  Tm1  1  0.000000  0.677291  0.587648  1
  Tm  Tm2  1  0.000000  0.821636  0.085902  1
  Tm  Tm3  1  0.000000  0.178064  0.912323  1
  Tm  Tm4  1  0.000000  0.945158  0.373891  1
  Nb  Nb5  1  0.000000  0.055705  0.627895  1
  Nb  Nb6  1  0.000000  0.445220  0.124071  1
  Nb  Nb7  1  0.000000  0.555739  0.875520  1
  Re  Re8  1  0.000000  0.634845  0.315271  1
  Re  Re9  1  0.000000  0.358671  0.683509  1
  Re  Re10  1  0.000000  0.146882  0.177739  1
  Re  Re11  1  0.000000  0.857465  0.820285  1
  B  B12  1  0.500000  0.551299  0.433898  1
  B  B13  1  0.500000  0.445300  0.566567  1
  B  B14  1  0.500000  0.054609  0.065220  1
  B  B15  1  0.500000  0.946284  0.933962  1
  B  B16  1  0.500000  0.748900  0.418251  1
  B  B17  1  0.500000  0.246375  0.582788  1
  B  B18  1  0.500000  0.254794  0.079566  1
  B  B19  1  0.500000  0.746192  0.919076  1
  B  B20  1  0.500000  0.793340  0.262797  1
  B  B21  1  0.500000  0.204489  0.738156  1
  B  B22  1  0.500000  0.296486  0.234914  1
  B  B23  1  0.500000  0.704048  0.763037  1
  B  B24  1  0.500000  0.628287  0.181653  1
  B  B25  1  0.500000  0.371404  0.818492  1
  B  B26  1  0.500000  0.132565  0.315801  1
  B  B27  1  0.500000  0.871238  0.682808  1
  B  B28  1  0.500000  0.983086  0.211210  1
  B  B29  1  0.500000  0.019438  0.788064  1
  B  B30  1  0.500000  0.479085  0.286401  1
  B  B31  1  0.500000  0.520075  0.712823  1
  B  B32  1  0.500000  0.599407  0.025904  1
  B  B33  1  0.500000  0.401537  0.972671  1
  B  B34  1  0.500000  0.102212  0.477013  1
  B  B35  1  0.500000  0.900904  0.530973  1
