# generated using pymatgen
data_Sm2Er2(Ga8Pd3)3
_symmetry_space_group_name_H-M   'P 1'
_cell_length_a   7.50679455
_cell_length_b   7.56380476
_cell_length_c   13.43447402
_cell_angle_alpha   85.04530390
_cell_angle_beta   100.21088249
_cell_angle_gamma   119.69349240
_symmetry_Int_Tables_number   1
_chemical_formula_structural   Sm2Er2(Ga8Pd3)3
_chemical_formula_sum   'Sm2 Er2 Ga24 Pd9'
_cell_volume   652.14650900
_cell_formula_units_Z   1
loop_
 _symmetry_equiv_pos_site_id
 _symmetry_equiv_pos_as_xyz
  1  'x, y, z'
loop_
 _atom_site_type_symbol
 _atom_site_label
 _atom_site_symmetry_multiplicity
 _atom_site_fract_x
 _atom_site_fract_y
 _atom_site_fract_z
 _atom_site_occupancy
  Sm  Sm0  1  0.771100  0.503127  0.811279  1
  Sm  Sm1  1  0.228900  0.496873  0.188721  1
  Er  Er2  1  0.436817  0.830849  0.810885  1
  Er  Er3  1  0.563183  0.169151  0.189115  1
  Ga  Ga4  1  0.478725  0.165075  0.940310  1
  Ga  Ga5  1  0.521275  0.834925  0.059690  1
  Ga  Ga6  1  0.020960  0.165344  0.558108  1
  Ga  Ga7  1  0.979040  0.834656  0.441892  1
  Ga  Ga8  1  0.355217  0.832977  0.556429  1
  Ga  Ga9  1  0.644783  0.167023  0.443571  1
  Ga  Ga10  1  0.615717  0.836055  0.326455  1
  Ga  Ga11  1  0.384283  0.163945  0.673545  1
  Ga  Ga12  1  0.059895  0.495894  0.672178  1
  Ga  Ga13  1  0.940105  0.504106  0.327822  1
  Ga  Ga14  1  0.729665  0.838367  0.671231  1
  Ga  Ga15  1  0.270335  0.161633  0.328769  1
  Ga  Ga16  1  0.146805  0.500730  0.940743  1
  Ga  Ga17  1  0.853195  0.499270  0.059257  1
  Ga  Ga18  1  0.813372  0.833641  0.946633  1
  Ga  Ga19  1  0.186628  0.166359  0.053367  1
  Ga  Ga20  1  0.312530  0.500326  0.443013  1
  Ga  Ga21  1  0.687470  0.499674  0.556987  1
  Ga  Ga22  1  0.102857  0.837828  0.182575  1
  Ga  Ga23  1  0.897143  0.162172  0.817425  1
  Ga  Ga24  1  0.307089  0.369809  0.816422  1
  Ga  Ga25  1  0.692911  0.630191  0.183578  1
  Ga  Ga26  1  0.104250  0.961315  0.816469  1
  Ga  Ga27  1  0.895750  0.038685  0.183531  1
  Pd  Pd28  1  0.386740  0.503435  0.638290  1
  Pd  Pd29  1  0.613260  0.496565  0.361710  1
  Pd  Pd30  1  0.171027  0.829825  0.998927  1
  Pd  Pd31  1  0.828973  0.170175  0.001073  1
  Pd  Pd32  1  0.291200  0.833603  0.360887  1
  Pd  Pd33  1  0.708800  0.166397  0.639113  1
  Pd  Pd34  1  0.050173  0.828091  0.637872  1
  Pd  Pd35  1  0.949827  0.171909  0.362128  1
  Pd  Pd36  1  0.500000  0.500000  0.000000  1
