# generated using pymatgen
data_Zr18CoRe6NiMo2
_symmetry_space_group_name_H-M   'P 1'
_cell_length_a   8.72625600
_cell_length_b   8.72625567
_cell_length_c   8.50983700
_cell_angle_alpha   90.00000000
_cell_angle_beta   90.00000000
_cell_angle_gamma   120.00000123
_symmetry_Int_Tables_number   1
_chemical_formula_structural   Zr18CoRe6NiMo2
_chemical_formula_sum   'Zr18 Co1 Re6 Ni1 Mo2'
_cell_volume   561.18719246
_cell_formula_units_Z   1
loop_
 _symmetry_equiv_pos_site_id
 _symmetry_equiv_pos_as_xyz
  1  'x, y, z'
loop_
 _atom_site_type_symbol
 _atom_site_label
 _atom_site_symmetry_multiplicity
 _atom_site_fract_x
 _atom_site_fract_y
 _atom_site_fract_z
 _atom_site_occupancy
  Zr  Zr0  1  0.199963  0.800037  0.441766  1
  Zr  Zr1  1  0.199963  0.399924  0.441766  1
  Zr  Zr2  1  0.600076  0.800037  0.441766  1
  Zr  Zr3  1  0.801787  0.198213  0.557173  1
  Zr  Zr4  1  0.801787  0.603575  0.557173  1
  Zr  Zr5  1  0.396425  0.198213  0.557173  1
  Zr  Zr6  1  0.801787  0.198213  0.942827  1
  Zr  Zr7  1  0.801787  0.603575  0.942827  1
  Zr  Zr8  1  0.396425  0.198213  0.942827  1
  Zr  Zr9  1  0.199963  0.800037  0.058234  1
  Zr  Zr10  1  0.199963  0.399924  0.058234  1
  Zr  Zr11  1  0.600076  0.800037  0.058234  1
  Zr  Zr12  1  0.541495  0.458505  0.250000  1
  Zr  Zr13  1  0.541495  0.082992  0.250000  1
  Zr  Zr14  1  0.917008  0.458505  0.250000  1
  Zr  Zr15  1  0.457889  0.542111  0.750000  1
  Zr  Zr16  1  0.457889  0.915776  0.750000  1
  Zr  Zr17  1  0.084224  0.542111  0.750000  1
  Co  Co18  1  0.333333  0.666667  0.250000  1
  Re  Re19  1  0.891073  0.108927  0.250000  1
  Re  Re20  1  0.891073  0.782146  0.250000  1
  Re  Re21  1  0.217854  0.108927  0.250000  1
  Re  Re22  1  0.109013  0.890987  0.750000  1
  Re  Re23  1  0.109013  0.218027  0.750000  1
  Re  Re24  1  0.781973  0.890987  0.750000  1
  Ni  Ni25  1  0.666667  0.333333  0.750000  1
  Mo  Mo26  1  0.000000  0.000000  0.499963  1
  Mo  Mo27  1  0.000000  0.000000  0.000037  1
