# generated using pymatgen
data_Zr2Mn2SiP
_symmetry_space_group_name_H-M   'P 1'
_cell_length_a   3.66232600
_cell_length_b   6.52529600
_cell_length_c   7.60359200
_cell_angle_alpha   90.00000000
_cell_angle_beta   90.00000000
_cell_angle_gamma   90.00000000
_symmetry_Int_Tables_number   1
_chemical_formula_structural   Zr2Mn2SiP
_chemical_formula_sum   'Zr4 Mn4 Si2 P2'
_cell_volume   181.70882587
_cell_formula_units_Z   2
loop_
 _symmetry_equiv_pos_site_id
 _symmetry_equiv_pos_as_xyz
  1  'x, y, z'
loop_
 _atom_site_type_symbol
 _atom_site_label
 _atom_site_symmetry_multiplicity
 _atom_site_fract_x
 _atom_site_fract_y
 _atom_site_fract_z
 _atom_site_occupancy
  Zr  Zr0  1  0.250000  0.530675  0.674114  1
  Zr  Zr1  1  0.250000  0.030675  0.825886  1
  Zr  Zr2  1  0.750000  0.974512  0.179712  1
  Zr  Zr3  1  0.750000  0.474512  0.320288  1
  Mn  Mn4  1  0.750000  0.360662  0.941212  1
  Mn  Mn5  1  0.250000  0.134717  0.434567  1
  Mn  Mn6  1  0.750000  0.860662  0.558788  1
  Mn  Mn7  1  0.250000  0.634717  0.065433  1
  Si  Si8  1  0.750000  0.728061  0.878767  1
  Si  Si9  1  0.750000  0.228061  0.621233  1
  P  P10  1  0.250000  0.271374  0.125008  1
  P  P11  1  0.250000  0.771374  0.374992  1
