# generated using pymatgen
data_La5Dy3(MgSn4)2
_symmetry_space_group_name_H-M   'P 1'
_cell_length_a   7.92286130
_cell_length_b   8.45813478
_cell_length_c   15.75738100
_cell_angle_alpha   89.82645549
_cell_angle_beta   89.83388755
_cell_angle_gamma   90.20981697
_symmetry_Int_Tables_number   1
_chemical_formula_structural   La5Dy3(MgSn4)2
_chemical_formula_sum   'La10 Dy6 Mg4 Sn16'
_cell_volume   1055.92712691
_cell_formula_units_Z   2
loop_
 _symmetry_equiv_pos_site_id
 _symmetry_equiv_pos_as_xyz
  1  'x, y, z'
loop_
 _atom_site_type_symbol
 _atom_site_label
 _atom_site_symmetry_multiplicity
 _atom_site_fract_x
 _atom_site_fract_y
 _atom_site_fract_z
 _atom_site_occupancy
  La  La0  1  0.001811  0.181940  0.094476  1
  La  La1  1  0.998189  0.818060  0.905524  1
  La  La2  1  0.499701  0.681925  0.906057  1
  La  La3  1  0.998929  0.818718  0.598233  1
  La  La4  1  0.500299  0.318075  0.093943  1
  La  La5  1  0.001071  0.181282  0.401767  1
  La  La6  1  0.501931  0.316835  0.400928  1
  La  La7  1  0.498069  0.683165  0.599072  1
  La  La8  1  0.335593  0.171717  0.627044  1
  La  La9  1  0.664407  0.828283  0.372956  1
  Dy  Dy10  1  0.163162  0.668653  0.369064  1
  Dy  Dy11  1  0.666599  0.830978  0.125447  1
  Dy  Dy12  1  0.836838  0.331347  0.630936  1
  Dy  Dy13  1  0.333401  0.169022  0.874553  1
  Dy  Dy14  1  0.835591  0.331218  0.874779  1
  Dy  Dy15  1  0.164409  0.668782  0.125221  1
  Mg  Mg16  1  0.163256  0.505363  0.753861  1
  Mg  Mg17  1  0.836744  0.494637  0.246139  1
  Mg  Mg18  1  0.336701  0.005288  0.246491  1
  Mg  Mg19  1  0.663299  0.994712  0.753509  1
  Sn  Sn20  1  0.020362  0.104802  0.754829  1
  Sn  Sn21  1  0.979638  0.895198  0.245171  1
  Sn  Sn22  1  0.472254  0.603552  0.245861  1
  Sn  Sn23  1  0.527746  0.396448  0.754139  1
  Sn  Sn24  1  0.170768  0.464775  0.535772  1
  Sn  Sn25  1  0.829232  0.535225  0.464228  1
  Sn  Sn26  1  0.315909  0.957918  0.458862  1
  Sn  Sn27  1  0.824858  0.540115  0.038680  1
  Sn  Sn28  1  0.684091  0.042082  0.541138  1
  Sn  Sn29  1  0.175142  0.459885  0.961320  1
  Sn  Sn30  1  0.673339  0.038858  0.960623  1
  Sn  Sn31  1  0.326661  0.961142  0.039377  1
  Sn  Sn32  1  0.298631  0.859262  0.753673  1
  Sn  Sn33  1  0.701369  0.140738  0.246327  1
  Sn  Sn34  1  0.198881  0.361680  0.247491  1
  Sn  Sn35  1  0.801119  0.638320  0.752509  1
