# generated using pymatgen
data_Sc10FeAs4Ru
_symmetry_space_group_name_H-M   'P 1'
_cell_length_a   5.83033600
_cell_length_b   7.79158348
_cell_length_c   7.93373375
_cell_angle_alpha   119.40906109
_cell_angle_beta   90.00000000
_cell_angle_gamma   90.00000000
_symmetry_Int_Tables_number   1
_chemical_formula_structural   Sc10FeAs4Ru
_chemical_formula_sum   'Sc10 Fe1 As4 Ru1'
_cell_volume   313.96625853
_cell_formula_units_Z   1
loop_
 _symmetry_equiv_pos_site_id
 _symmetry_equiv_pos_as_xyz
  1  'x, y, z'
loop_
 _atom_site_type_symbol
 _atom_site_label
 _atom_site_symmetry_multiplicity
 _atom_site_fract_x
 _atom_site_fract_y
 _atom_site_fract_z
 _atom_site_occupancy
  Sc  Sc0  1  0.997138  0.661601  0.320973  1
  Sc  Sc1  1  0.997138  0.340626  0.679027  1
  Sc  Sc2  1  0.502862  0.340626  0.679027  1
  Sc  Sc3  1  0.502862  0.661601  0.320973  1
  Sc  Sc4  1  0.750000  0.742524  0.770728  1
  Sc  Sc5  1  0.250000  0.256838  0.233840  1
  Sc  Sc6  1  0.750000  0.971797  0.229272  1
  Sc  Sc7  1  0.250000  0.022998  0.766160  1
  Sc  Sc8  1  0.750000  0.256132  0.000000  1
  Sc  Sc9  1  0.250000  0.748561  0.000000  1
  Fe  Fe10  1  0.750000  0.589702  0.000000  1
  As  As11  1  0.750000  0.378261  0.388187  1
  As  As12  1  0.250000  0.621065  0.611659  1
  As  As13  1  0.750000  0.990075  0.611813  1
  As  As14  1  0.250000  0.009406  0.388341  1
  Ru  Ru15  1  0.250000  0.408186  0.000000  1
