# generated using pymatgen
data_Ba2TmAlSe5
_symmetry_space_group_name_H-M   'P 1'
_cell_length_a   7.40401420
_cell_length_b   8.73154045
_cell_length_c   9.52929402
_cell_angle_alpha   103.46355058
_cell_angle_beta   103.06031875
_cell_angle_gamma   107.32394261
_symmetry_Int_Tables_number   1
_chemical_formula_structural   Ba2TmAlSe5
_chemical_formula_sum   'Ba4 Tm2 Al2 Se10'
_cell_volume   542.24070928
_cell_formula_units_Z   2
loop_
 _symmetry_equiv_pos_site_id
 _symmetry_equiv_pos_as_xyz
  1  'x, y, z'
loop_
 _atom_site_type_symbol
 _atom_site_label
 _atom_site_symmetry_multiplicity
 _atom_site_fract_x
 _atom_site_fract_y
 _atom_site_fract_z
 _atom_site_occupancy
  Ba  Ba0  1  0.631627  0.976738  0.287883  1
  Ba  Ba1  1  0.368373  0.023262  0.712117  1
  Ba  Ba2  1  0.341502  0.510760  0.707312  1
  Ba  Ba3  1  0.658498  0.489240  0.292688  1
  Tm  Tm4  1  0.998047  0.728841  0.998468  1
  Tm  Tm5  1  0.001953  0.271159  0.001532  1
  Al  Al6  1  0.807458  0.873328  0.692306  1
  Al  Al7  1  0.192542  0.126672  0.307694  1
  Se  Se8  1  0.988921  0.686589  0.690195  1
  Se  Se9  1  0.011079  0.313411  0.309805  1
  Se  Se10  1  0.985104  0.152660  0.692863  1
  Se  Se11  1  0.014896  0.847340  0.307137  1
  Se  Se12  1  0.717432  0.909448  0.926736  1
  Se  Se13  1  0.282568  0.090552  0.073264  1
  Se  Se14  1  0.711448  0.413015  0.947097  1
  Se  Se15  1  0.288552  0.586985  0.052903  1
  Se  Se16  1  0.496077  0.744201  0.495694  1
  Se  Se17  1  0.503923  0.255799  0.504306  1
