# generated using pymatgen
data_Eu2YEr(AsPt)4
_symmetry_space_group_name_H-M   'P 1'
_cell_length_a   4.28819700
_cell_length_b   4.28819628
_cell_length_c   16.27506600
_cell_angle_alpha   90.00000000
_cell_angle_beta   90.00000000
_cell_angle_gamma   119.99999781
_symmetry_Int_Tables_number   1
_chemical_formula_structural   Eu2YEr(AsPt)4
_chemical_formula_sum   'Eu2 Y1 Er1 As4 Pt4'
_cell_volume   259.18077519
_cell_formula_units_Z   1
loop_
 _symmetry_equiv_pos_site_id
 _symmetry_equiv_pos_as_xyz
  1  'x, y, z'
loop_
 _atom_site_type_symbol
 _atom_site_label
 _atom_site_symmetry_multiplicity
 _atom_site_fract_x
 _atom_site_fract_y
 _atom_site_fract_z
 _atom_site_occupancy
  Eu  Eu0  1  0.000000  0.000000  0.001969  1
  Eu  Eu1  1  0.000000  0.000000  0.498031  1
  Y  Y2  1  0.000000  0.000000  0.750000  1
  Er  Er3  1  0.000000  0.000000  0.250000  1
  As  As4  1  0.333333  0.666667  0.878732  1
  As  As5  1  0.666667  0.333333  0.376847  1
  As  As6  1  0.666667  0.333333  0.123153  1
  As  As7  1  0.333333  0.666667  0.621268  1
  Pt  Pt8  1  0.333333  0.666667  0.356224  1
  Pt  Pt9  1  0.666667  0.333333  0.861256  1
  Pt  Pt10  1  0.666667  0.333333  0.638744  1
  Pt  Pt11  1  0.333333  0.666667  0.143776  1
