# generated using pymatgen
data_Zr6Al4CuPtC2
_symmetry_space_group_name_H-M   'P 1'
_cell_length_a   8.68734467
_cell_length_b   8.68257662
_cell_length_c   8.68257590
_cell_angle_alpha   59.97831163
_cell_angle_beta   59.98182522
_cell_angle_gamma   59.98183085
_symmetry_Int_Tables_number   1
_chemical_formula_structural   Zr6Al4CuPtC2
_chemical_formula_sum   'Zr12 Al8 Cu2 Pt2 C4'
_cell_volume   462.89099186
_cell_formula_units_Z   2
loop_
 _symmetry_equiv_pos_site_id
 _symmetry_equiv_pos_as_xyz
  1  'x, y, z'
loop_
 _atom_site_type_symbol
 _atom_site_label
 _atom_site_symmetry_multiplicity
 _atom_site_fract_x
 _atom_site_fract_y
 _atom_site_fract_z
 _atom_site_occupancy
  Zr  Zr0  1  0.939437  0.940717  0.561409  1
  Zr  Zr1  1  0.690836  0.309164  0.309164  1
  Zr  Zr2  1  0.310679  0.689321  0.689321  1
  Zr  Zr3  1  0.691564  0.688591  0.309283  1
  Zr  Zr4  1  0.691564  0.309283  0.688591  1
  Zr  Zr5  1  0.310563  0.688591  0.309283  1
  Zr  Zr6  1  0.558436  0.940717  0.561409  1
  Zr  Zr7  1  0.559164  0.940836  0.940836  1
  Zr  Zr8  1  0.939321  0.560679  0.560679  1
  Zr  Zr9  1  0.939437  0.561409  0.940717  1
  Zr  Zr10  1  0.310563  0.309283  0.688591  1
  Zr  Zr11  1  0.558436  0.561409  0.940717  1
  Al  Al12  1  0.920369  0.239479  0.919782  1
  Al  Al13  1  0.329631  0.330218  0.010521  1
  Al  Al14  1  0.008180  0.330952  0.330952  1
  Al  Al15  1  0.329915  0.330952  0.330952  1
  Al  Al16  1  0.241820  0.919048  0.919048  1
  Al  Al17  1  0.920085  0.919048  0.919048  1
  Al  Al18  1  0.920369  0.919782  0.239479  1
  Al  Al19  1  0.329631  0.010521  0.330218  1
  Cu  Cu20  1  0.625000  0.125000  0.125000  1
  Cu  Cu21  1  0.125000  0.125000  0.125000  1
  Pt  Pt22  1  0.125000  0.625000  0.125000  1
  Pt  Pt23  1  0.125000  0.125000  0.625000  1
  C  C24  1  0.625000  0.125000  0.625000  1
  C  C25  1  0.625000  0.625000  0.125000  1
  C  C26  1  0.125000  0.625000  0.625000  1
  C  C27  1  0.625000  0.625000  0.625000  1
