# generated using pymatgen
data_Nd2ErTm5(Si3Rh)4
_symmetry_space_group_name_H-M   'P 1'
_cell_length_a   8.16124000
_cell_length_b   8.16203921
_cell_length_c   7.94048200
_cell_angle_alpha   90.00000000
_cell_angle_beta   90.00000000
_cell_angle_gamma   119.99676095
_symmetry_Int_Tables_number   1
_chemical_formula_structural   Nd2ErTm5(Si3Rh)4
_chemical_formula_sum   'Nd2 Er1 Tm5 Si12 Rh4'
_cell_volume   458.08544981
_cell_formula_units_Z   1
loop_
 _symmetry_equiv_pos_site_id
 _symmetry_equiv_pos_as_xyz
  1  'x, y, z'
loop_
 _atom_site_type_symbol
 _atom_site_label
 _atom_site_symmetry_multiplicity
 _atom_site_fract_x
 _atom_site_fract_y
 _atom_site_fract_z
 _atom_site_occupancy
  Nd  Nd0  1  0.000012  0.000024  0.250000  1
  Nd  Nd1  1  0.999993  0.999985  0.750000  1
  Er  Er2  1  0.507909  0.015819  0.750000  1
  Tm  Tm3  1  0.492108  0.507888  0.250000  1
  Tm  Tm4  1  0.492105  0.984210  0.250000  1
  Tm  Tm5  1  0.015781  0.507888  0.250000  1
  Tm  Tm6  1  0.507901  0.492139  0.750000  1
  Tm  Tm7  1  0.984237  0.492139  0.750000  1
  Si  Si8  1  0.831518  0.168596  0.502649  1
  Si  Si9  1  0.831442  0.662886  0.502710  1
  Si  Si10  1  0.337077  0.168596  0.502649  1
  Si  Si11  1  0.831518  0.168596  0.997351  1
  Si  Si12  1  0.831442  0.662886  0.997290  1
  Si  Si13  1  0.337077  0.168596  0.997351  1
  Si  Si14  1  0.168511  0.831423  0.002747  1
  Si  Si15  1  0.662912  0.831423  0.002747  1
  Si  Si16  1  0.168558  0.337114  0.002727  1
  Si  Si17  1  0.168511  0.831423  0.497253  1
  Si  Si18  1  0.662912  0.831423  0.497253  1
  Si  Si19  1  0.168558  0.337114  0.497273  1
  Rh  Rh20  1  0.666708  0.333416  0.464781  1
  Rh  Rh21  1  0.666708  0.333416  0.035219  1
  Rh  Rh22  1  0.333249  0.666499  0.964976  1
  Rh  Rh23  1  0.333249  0.666499  0.535024  1
