# generated using pymatgen
data_Tm2Co12SiP6
_symmetry_space_group_name_H-M   'P 1'
_cell_length_a   9.00243600
_cell_length_b   9.00243576
_cell_length_c   3.56450800
_cell_angle_alpha   90.00000000
_cell_angle_beta   90.00000000
_cell_angle_gamma   120.00000087
_symmetry_Int_Tables_number   1
_chemical_formula_structural   Tm2Co12SiP6
_chemical_formula_sum   'Tm2 Co12 Si1 P6'
_cell_volume   250.17867925
_cell_formula_units_Z   1
loop_
 _symmetry_equiv_pos_site_id
 _symmetry_equiv_pos_as_xyz
  1  'x, y, z'
loop_
 _atom_site_type_symbol
 _atom_site_label
 _atom_site_symmetry_multiplicity
 _atom_site_fract_x
 _atom_site_fract_y
 _atom_site_fract_z
 _atom_site_occupancy
  Tm  Tm0  1  0.666667  0.333333  0.000000  1
  Tm  Tm1  1  0.000000  0.000000  0.500000  1
  Co  Co2  1  0.768822  0.727570  0.000000  1
  Co  Co3  1  0.272430  0.041251  0.000000  1
  Co  Co4  1  0.958749  0.231178  0.000000  1
  Co  Co5  1  0.718617  0.103631  0.500000  1
  Co  Co6  1  0.896369  0.614985  0.500000  1
  Co  Co7  1  0.385015  0.281383  0.500000  1
  Co  Co8  1  0.492088  0.948254  0.000000  1
  Co  Co9  1  0.051746  0.543834  0.000000  1
  Co  Co10  1  0.456166  0.507912  0.000000  1
  Co  Co11  1  0.568630  0.769746  0.500000  1
  Co  Co12  1  0.230254  0.798884  0.500000  1
  Co  Co13  1  0.201116  0.431370  0.500000  1
  Si  Si14  1  0.333333  0.666667  0.000000  1
  P  P15  1  0.446256  0.070023  0.500000  1
  P  P16  1  0.929977  0.376233  0.500000  1
  P  P17  1  0.623767  0.553744  0.500000  1
  P  P18  1  0.739854  0.959281  0.000000  1
  P  P19  1  0.040719  0.780572  0.000000  1
  P  P20  1  0.219428  0.260146  0.000000  1
