# generated using pymatgen
data_Y20AlCd5Ni2
_symmetry_space_group_name_H-M   'P 1'
_cell_length_a   9.65746457
_cell_length_b   9.65746306
_cell_length_c   9.75444000
_cell_angle_alpha   90.00000000
_cell_angle_beta   90.00000000
_cell_angle_gamma   120.04640289
_symmetry_Int_Tables_number   1
_chemical_formula_structural   Y20AlCd5Ni2
_chemical_formula_sum   'Y20 Al1 Cd5 Ni2'
_cell_volume   787.50966501
_cell_formula_units_Z   1
loop_
 _symmetry_equiv_pos_site_id
 _symmetry_equiv_pos_as_xyz
  1  'x, y, z'
loop_
 _atom_site_type_symbol
 _atom_site_label
 _atom_site_symmetry_multiplicity
 _atom_site_fract_x
 _atom_site_fract_y
 _atom_site_fract_z
 _atom_site_occupancy
  Y  Y0  1  0.999345  0.000655  0.496552  1
  Y  Y1  1  0.999345  0.000655  0.003448  1
  Y  Y2  1  0.543696  0.456304  0.250000  1
  Y  Y3  1  0.544432  0.087211  0.250000  1
  Y  Y4  1  0.912789  0.455568  0.250000  1
  Y  Y5  1  0.456316  0.543684  0.750000  1
  Y  Y6  1  0.456892  0.912812  0.750000  1
  Y  Y7  1  0.087188  0.543108  0.750000  1
  Y  Y8  1  0.210216  0.789784  0.437700  1
  Y  Y9  1  0.209285  0.419576  0.435977  1
  Y  Y10  1  0.580424  0.790716  0.435978  1
  Y  Y11  1  0.790216  0.209784  0.559544  1
  Y  Y12  1  0.789861  0.579095  0.563489  1
  Y  Y13  1  0.420905  0.210139  0.563488  1
  Y  Y14  1  0.790216  0.209784  0.940456  1
  Y  Y15  1  0.789861  0.579095  0.936511  1
  Y  Y16  1  0.420905  0.210139  0.936512  1
  Y  Y17  1  0.210216  0.789784  0.062300  1
  Y  Y18  1  0.209285  0.419576  0.064023  1
  Y  Y19  1  0.580424  0.790716  0.064022  1
  Al  Al20  1  0.882909  0.117091  0.250000  1
  Cd  Cd21  1  0.884597  0.768166  0.250000  1
  Cd  Cd22  1  0.231834  0.115403  0.250000  1
  Cd  Cd23  1  0.114432  0.885568  0.750000  1
  Cd  Cd24  1  0.114439  0.229411  0.750000  1
  Cd  Cd25  1  0.770589  0.885561  0.750000  1
  Ni  Ni26  1  0.332685  0.667315  0.250000  1
  Ni  Ni27  1  0.666696  0.333304  0.750000  1
