# generated using pymatgen
data_Tm3Sc5IrPt3
_symmetry_space_group_name_H-M   'P 1'
_cell_length_a   4.51781200
_cell_length_b   6.86070497
_cell_length_c   8.38575701
_cell_angle_alpha   90.68388690
_cell_angle_beta   90.00000000
_cell_angle_gamma   90.00000000
_symmetry_Int_Tables_number   1
_chemical_formula_structural   Tm3Sc5IrPt3
_chemical_formula_sum   'Tm3 Sc5 Ir1 Pt3'
_cell_volume   259.90117005
_cell_formula_units_Z   1
loop_
 _symmetry_equiv_pos_site_id
 _symmetry_equiv_pos_as_xyz
  1  'x, y, z'
loop_
 _atom_site_type_symbol
 _atom_site_label
 _atom_site_symmetry_multiplicity
 _atom_site_fract_x
 _atom_site_fract_y
 _atom_site_fract_z
 _atom_site_occupancy
  Tm  Tm0  1  0.250000  0.983498  0.321516  1
  Tm  Tm1  1  0.750000  0.015961  0.678499  1
  Tm  Tm2  1  0.250000  0.489230  0.172265  1
  Sc  Sc3  1  0.750000  0.515972  0.832498  1
  Sc  Sc4  1  0.750000  0.641394  0.426868  1
  Sc  Sc5  1  0.250000  0.361214  0.579816  1
  Sc  Sc6  1  0.750000  0.141533  0.071962  1
  Sc  Sc7  1  0.250000  0.850362  0.926618  1
  Ir  Ir8  1  0.750000  0.748645  0.093079  1
  Pt  Pt9  1  0.250000  0.250385  0.898303  1
  Pt  Pt10  1  0.250000  0.751513  0.596946  1
  Pt  Pt11  1  0.750000  0.250292  0.401627  1
