# generated using pymatgen
data_Nd5Fe13(P2Ir)6
_symmetry_space_group_name_H-M   'P 1'
_cell_length_a   12.34011969
_cell_length_b   12.28022876
_cell_length_c   3.82957900
_cell_angle_alpha   90.00000000
_cell_angle_beta   90.00000000
_cell_angle_gamma   120.02903348
_symmetry_Int_Tables_number   1
_chemical_formula_structural   Nd5Fe13(P2Ir)6
_chemical_formula_sum   'Nd5 Fe13 P12 Ir6'
_cell_volume   502.43555206
_cell_formula_units_Z   1
loop_
 _symmetry_equiv_pos_site_id
 _symmetry_equiv_pos_as_xyz
  1  'x, y, z'
loop_
 _atom_site_type_symbol
 _atom_site_label
 _atom_site_symmetry_multiplicity
 _atom_site_fract_x
 _atom_site_fract_y
 _atom_site_fract_z
 _atom_site_occupancy
  Nd  Nd0  1  0.666416  0.332872  0.000000  1
  Nd  Nd1  1  0.334443  0.672244  0.000000  1
  Nd  Nd2  1  0.813363  0.812882  0.500000  1
  Nd  Nd3  1  0.188484  0.999532  0.500000  1
  Nd  Nd4  1  0.999677  0.186867  0.500000  1
  Fe  Fe5  1  0.798614  0.179036  0.000000  1
  Fe  Fe6  1  0.820288  0.620183  0.000000  1
  Fe  Fe7  1  0.380268  0.197288  0.000000  1
  Fe  Fe8  1  0.179635  0.801738  0.000000  1
  Fe  Fe9  1  0.621013  0.819974  0.000000  1
  Fe  Fe10  1  0.200549  0.379234  0.000000  1
  Fe  Fe11  1  0.289956  0.287334  0.500000  1
  Fe  Fe12  1  0.712089  0.001331  0.500000  1
  Fe  Fe13  1  0.000022  0.711311  0.500000  1
  Fe  Fe14  1  0.873935  0.360890  0.500000  1
  Fe  Fe15  1  0.639072  0.512903  0.500000  1
  Fe  Fe16  1  0.485866  0.121649  0.500000  1
  Fe  Fe17  1  0.365276  0.883344  0.500000  1
  P  P18  1  0.694069  0.170238  0.500000  1
  P  P19  1  0.830169  0.524498  0.500000  1
  P  P20  1  0.475449  0.302653  0.500000  1
  P  P21  1  0.175343  0.706965  0.500000  1
  P  P22  1  0.525439  0.838488  0.500000  1
  P  P23  1  0.303390  0.470567  0.500000  1
  P  P24  1  0.640248  0.627863  0.000000  1
  P  P25  1  0.368477  0.001689  0.000000  1
  P  P26  1  0.986333  0.359607  0.000000  1
  P  P27  1  0.195169  0.192977  0.000000  1
  P  P28  1  0.805613  0.999525  0.000000  1
  P  P29  1  0.999410  0.805629  0.000000  1
  Ir  Ir30  1  0.449596  0.441980  0.000000  1
  Ir  Ir31  1  0.553594  0.999535  0.000000  1
  Ir  Ir32  1  0.993220  0.550883  0.000000  1
  Ir  Ir33  1  0.512932  0.636491  0.500000  1
  Ir  Ir34  1  0.122422  0.489529  0.500000  1
  Ir  Ir35  1  0.000161  0.000272  0.000000  1
