# generated using pymatgen
data_Y2Ta4C5
_symmetry_space_group_name_H-M   'P 1'
_cell_length_a   5.72325915
_cell_length_b   5.72325953
_cell_length_c   5.60442095
_cell_angle_alpha   81.89950585
_cell_angle_beta   81.89949201
_cell_angle_gamma   121.50079273
_symmetry_Int_Tables_number   1
_chemical_formula_structural   Y2Ta4C5
_chemical_formula_sum   'Y2 Ta4 C5'
_cell_volume   149.87352263
_cell_formula_units_Z   1
loop_
 _symmetry_equiv_pos_site_id
 _symmetry_equiv_pos_as_xyz
  1  'x, y, z'
loop_
 _atom_site_type_symbol
 _atom_site_label
 _atom_site_symmetry_multiplicity
 _atom_site_fract_x
 _atom_site_fract_y
 _atom_site_fract_z
 _atom_site_occupancy
  Y  Y0  1  0.762534  0.762534  0.759061  1
  Y  Y1  1  0.237466  0.237466  0.240939  1
  Ta  Ta2  1  0.101994  0.452506  0.739916  1
  Ta  Ta3  1  0.547494  0.898006  0.260084  1
  Ta  Ta4  1  0.898006  0.547494  0.260084  1
  Ta  Ta5  1  0.452506  0.101994  0.739916  1
  C  C6  1  0.500000  0.500000  0.500000  1
  C  C7  1  0.681992  0.318008  0.000000  1
  C  C8  1  0.318008  0.681992  0.000000  1
  C  C9  1  0.818855  0.181145  0.500000  1
  C  C10  1  0.181145  0.818855  0.500000  1
