# generated using pymatgen
data_La9Sm3(YSn2)8
_symmetry_space_group_name_H-M   'P 1'
_cell_length_a   8.32004100
_cell_length_b   8.47448808
_cell_length_c   16.03296900
_cell_angle_alpha   90.00752496
_cell_angle_beta   89.99803047
_cell_angle_gamma   90.00169726
_symmetry_Int_Tables_number   1
_chemical_formula_structural   La9Sm3(YSn2)8
_chemical_formula_sum   'La9 Sm3 Y8 Sn16'
_cell_volume   1130.45398296
_cell_formula_units_Z   1
loop_
 _symmetry_equiv_pos_site_id
 _symmetry_equiv_pos_as_xyz
  1  'x, y, z'
loop_
 _atom_site_type_symbol
 _atom_site_label
 _atom_site_symmetry_multiplicity
 _atom_site_fract_x
 _atom_site_fract_y
 _atom_site_fract_z
 _atom_site_occupancy
  La  La0  1  0.866574  0.664514  0.880720  1
  La  La1  1  0.518442  0.319135  0.901859  1
  La  La2  1  0.019128  0.180511  0.597053  1
  La  La3  1  0.481635  0.679939  0.401909  1
  La  La4  1  0.981336  0.820635  0.099540  1
  La  La5  1  0.481842  0.679502  0.098618  1
  La  La6  1  0.981193  0.820309  0.401776  1
  La  La7  1  0.518001  0.320022  0.597299  1
  La  La8  1  0.018956  0.180279  0.901973  1
  Sm  Sm9  1  0.697257  0.997273  0.748941  1
  Sm  Sm10  1  0.801445  0.496793  0.250779  1
  Sm  Sm11  1  0.300906  0.003222  0.250136  1
  Y  Y12  1  0.362513  0.837190  0.877433  1
  Y  Y13  1  0.863792  0.662412  0.621566  1
  Y  Y14  1  0.636702  0.162181  0.377750  1
  Y  Y15  1  0.136139  0.338655  0.121886  1
  Y  Y16  1  0.634889  0.161961  0.124718  1
  Y  Y17  1  0.136309  0.337041  0.377828  1
  Y  Y18  1  0.363637  0.837825  0.620703  1
  Y  Y19  1  0.199065  0.503407  0.748903  1
  Sn  Sn20  1  0.297900  0.038706  0.042287  1
  Sn  Sn21  1  0.798006  0.460775  0.457724  1
  Sn  Sn22  1  0.702479  0.960926  0.542095  1
  Sn  Sn23  1  0.211305  0.536340  0.958074  1
  Sn  Sn24  1  0.696801  0.967966  0.958926  1
  Sn  Sn25  1  0.201532  0.538847  0.542647  1
  Sn  Sn26  1  0.298160  0.038961  0.457299  1
  Sn  Sn27  1  0.796092  0.456378  0.045949  1
  Sn  Sn28  1  0.559642  0.623375  0.747618  1
  Sn  Sn29  1  0.067491  0.878007  0.747917  1
  Sn  Sn30  1  0.435120  0.374984  0.250286  1
  Sn  Sn31  1  0.935933  0.125031  0.250181  1
  Sn  Sn32  1  0.324981  0.139376  0.749316  1
  Sn  Sn33  1  0.825257  0.358021  0.747883  1
  Sn  Sn34  1  0.674812  0.861217  0.250223  1
  Sn  Sn35  1  0.174724  0.638280  0.250182  1
