# generated using pymatgen
data_Eu4Mg2BiAu10
_symmetry_space_group_name_H-M   'P 1'
_cell_length_a   8.85930653
_cell_length_b   8.85930632
_cell_length_c   10.51254700
_cell_angle_alpha   90.88194154
_cell_angle_beta   89.11805849
_cell_angle_gamma   107.53779596
_symmetry_Int_Tables_number   1
_chemical_formula_structural   Eu4Mg2BiAu10
_chemical_formula_sum   'Eu8 Mg4 Bi2 Au20'
_cell_volume   786.60623405
_cell_formula_units_Z   2
loop_
 _symmetry_equiv_pos_site_id
 _symmetry_equiv_pos_as_xyz
  1  'x, y, z'
loop_
 _atom_site_type_symbol
 _atom_site_label
 _atom_site_symmetry_multiplicity
 _atom_site_fract_x
 _atom_site_fract_y
 _atom_site_fract_z
 _atom_site_occupancy
  Eu  Eu0  1  0.704429  0.300367  0.998370  1
  Eu  Eu1  1  0.295571  0.699633  0.001630  1
  Eu  Eu2  1  0.800367  0.204429  0.501630  1
  Eu  Eu3  1  0.199633  0.795571  0.498370  1
  Eu  Eu4  1  0.296438  0.302766  0.203709  1
  Eu  Eu5  1  0.703562  0.697234  0.796291  1
  Eu  Eu6  1  0.197234  0.203562  0.703709  1
  Eu  Eu7  1  0.802766  0.796438  0.296291  1
  Mg  Mg8  1  0.487554  0.987554  0.750000  1
  Mg  Mg9  1  0.512446  0.012446  0.250000  1
  Mg  Mg10  1  0.000000  0.000000  0.000000  1
  Mg  Mg11  1  0.500000  0.500000  0.500000  1
  Bi  Bi12  1  0.013885  0.513885  0.250000  1
  Bi  Bi13  1  0.986115  0.486115  0.750000  1
  Au  Au14  1  0.094590  0.095147  0.405815  1
  Au  Au15  1  0.905410  0.904853  0.594185  1
  Au  Au16  1  0.404853  0.405410  0.905815  1
  Au  Au17  1  0.595147  0.594590  0.094185  1
  Au  Au18  1  0.874390  0.148296  0.204912  1
  Au  Au19  1  0.125610  0.851704  0.795088  1
  Au  Au20  1  0.590281  0.323040  0.701846  1
  Au  Au21  1  0.648296  0.374390  0.295088  1
  Au  Au22  1  0.409719  0.676960  0.298154  1
  Au  Au23  1  0.351704  0.625610  0.704912  1
  Au  Au24  1  0.823040  0.090281  0.798154  1
  Au  Au25  1  0.176960  0.909719  0.201846  1
  Au  Au26  1  0.929243  0.677755  0.021997  1
  Au  Au27  1  0.070757  0.322245  0.978003  1
  Au  Au28  1  0.567381  0.846698  0.523451  1
  Au  Au29  1  0.177755  0.429243  0.478003  1
  Au  Au30  1  0.432619  0.153302  0.476549  1
  Au  Au31  1  0.822245  0.570757  0.521997  1
  Au  Au32  1  0.346698  0.067381  0.976549  1
  Au  Au33  1  0.653302  0.932619  0.023451  1
