# generated using pymatgen
data_La5ThPaO12
_symmetry_space_group_name_H-M   'P 1'
_cell_length_a   6.91651242
_cell_length_b   6.94603256
_cell_length_c   6.92807447
_cell_angle_alpha   99.26062429
_cell_angle_beta   98.91313259
_cell_angle_gamma   98.84315365
_symmetry_Int_Tables_number   1
_chemical_formula_structural   La5ThPaO12
_chemical_formula_sum   'La5 Th1 Pa1 O12'
_cell_volume   319.04113709
_cell_formula_units_Z   1
loop_
 _symmetry_equiv_pos_site_id
 _symmetry_equiv_pos_as_xyz
  1  'x, y, z'
loop_
 _atom_site_type_symbol
 _atom_site_label
 _atom_site_symmetry_multiplicity
 _atom_site_fract_x
 _atom_site_fract_y
 _atom_site_fract_z
 _atom_site_occupancy
  La  La0  1  0.606234  0.143511  0.307526  1
  La  La1  1  0.394773  0.862179  0.692875  1
  La  La2  1  0.693669  0.393419  0.857435  1
  La  La3  1  0.857943  0.693800  0.395457  1
  La  La4  1  0.140729  0.304447  0.604947  1
  Th  Th5  1  0.305966  0.606197  0.139894  1
  Pa  Pa6  1  0.000734  0.999230  0.001583  1
  O  O7  1  0.437649  0.178769  0.592010  1
  O  O8  1  0.938860  0.691645  0.055186  1
  O  O9  1  0.181822  0.587177  0.425654  1
  O  O10  1  0.824138  0.412836  0.563967  1
  O  O11  1  0.555853  0.818604  0.397712  1
  O  O12  1  0.575278  0.438144  0.176528  1
  O  O13  1  0.404977  0.569011  0.831724  1
  O  O14  1  0.948378  0.067974  0.304931  1
  O  O15  1  0.051236  0.931560  0.696004  1
  O  O16  1  0.697032  0.052967  0.929413  1
  O  O17  1  0.079230  0.309915  0.957368  1
  O  O18  1  0.305498  0.938619  0.069787  1
