# generated using pymatgen
data_Mg(RuO3)2
_symmetry_space_group_name_H-M   'P 1'
_cell_length_a   4.63422000
_cell_length_b   4.63422000
_cell_length_c   9.17809300
_cell_angle_alpha   90.00000000
_cell_angle_beta   90.00000000
_cell_angle_gamma   90.00000000
_symmetry_Int_Tables_number   1
_chemical_formula_structural   Mg(RuO3)2
_chemical_formula_sum   'Mg2 Ru4 O12'
_cell_volume   197.10867945
_cell_formula_units_Z   2
loop_
 _symmetry_equiv_pos_site_id
 _symmetry_equiv_pos_as_xyz
  1  'x, y, z'
loop_
 _atom_site_type_symbol
 _atom_site_label
 _atom_site_symmetry_multiplicity
 _atom_site_fract_x
 _atom_site_fract_y
 _atom_site_fract_z
 _atom_site_occupancy
  Mg  Mg0  1  0.000000  0.000000  0.000000  1
  Mg  Mg1  1  0.500000  0.500000  0.500000  1
  Ru  Ru2  1  0.500000  0.500000  0.829655  1
  Ru  Ru3  1  0.000000  0.000000  0.329655  1
  Ru  Ru4  1  0.500000  0.500000  0.170345  1
  Ru  Ru5  1  0.000000  0.000000  0.670345  1
  O  O6  1  0.705226  0.705226  0.674968  1
  O  O7  1  0.294774  0.294774  0.674968  1
  O  O8  1  0.705226  0.705226  0.325032  1
  O  O9  1  0.205226  0.794774  0.174968  1
  O  O10  1  0.794774  0.205226  0.174968  1
  O  O11  1  0.794774  0.205226  0.825032  1
  O  O12  1  0.317405  0.317405  0.000000  1
  O  O13  1  0.182595  0.817405  0.500000  1
  O  O14  1  0.817405  0.182595  0.500000  1
  O  O15  1  0.682595  0.682595  0.000000  1
  O  O16  1  0.294774  0.294774  0.325032  1
  O  O17  1  0.205226  0.794774  0.825032  1
