# generated using pymatgen
data_Nd3Lu16ThBi12
_symmetry_space_group_name_H-M   'P 1'
_cell_length_a   8.22539373
_cell_length_b   9.39906400
_cell_length_c   11.94037100
_cell_angle_alpha   90.00000000
_cell_angle_beta   89.95330182
_cell_angle_gamma   90.00000000
_symmetry_Int_Tables_number   1
_chemical_formula_structural   Nd3Lu16ThBi12
_chemical_formula_sum   'Nd3 Lu16 Th1 Bi12'
_cell_volume   923.12174099
_cell_formula_units_Z   1
loop_
 _symmetry_equiv_pos_site_id
 _symmetry_equiv_pos_as_xyz
  1  'x, y, z'
loop_
 _atom_site_type_symbol
 _atom_site_label
 _atom_site_symmetry_multiplicity
 _atom_site_fract_x
 _atom_site_fract_y
 _atom_site_fract_z
 _atom_site_occupancy
  Nd  Nd0  1  0.315860  0.250000  0.218777  1
  Nd  Nd1  1  0.816013  0.250000  0.281311  1
  Nd  Nd2  1  0.683571  0.750000  0.780684  1
  Lu  Lu3  1  0.352483  0.750000  0.219660  1
  Lu  Lu4  1  0.852566  0.750000  0.280395  1
  Lu  Lu5  1  0.647266  0.250000  0.780366  1
  Lu  Lu6  1  0.147916  0.250000  0.719587  1
  Lu  Lu7  1  0.690969  0.568150  0.061746  1
  Lu  Lu8  1  0.191099  0.931938  0.439394  1
  Lu  Lu9  1  0.308671  0.066879  0.938037  1
  Lu  Lu10  1  0.809763  0.432479  0.561948  1
  Lu  Lu11  1  0.308671  0.433121  0.938037  1
  Lu  Lu12  1  0.809763  0.067521  0.561948  1
  Lu  Lu13  1  0.690969  0.931850  0.061746  1
  Lu  Lu14  1  0.191099  0.568062  0.439394  1
  Lu  Lu15  1  0.478922  0.250000  0.489332  1
  Lu  Lu16  1  0.978712  0.250000  0.010413  1
  Lu  Lu17  1  0.519960  0.750000  0.511372  1
  Lu  Lu18  1  0.020887  0.750000  0.988449  1
  Th  Th19  1  0.184580  0.750000  0.718856  1
  Bi  Bi20  1  0.401678  0.750000  0.963240  1
  Bi  Bi21  1  0.898789  0.750000  0.536200  1
  Bi  Bi22  1  0.598810  0.250000  0.036092  1
  Bi  Bi23  1  0.099123  0.250000  0.463672  1
  Bi  Bi24  1  0.564906  0.990838  0.328412  1
  Bi  Bi25  1  0.065422  0.509029  0.171637  1
  Bi  Bi26  1  0.435448  0.489026  0.672474  1
  Bi  Bi27  1  0.935153  0.010073  0.827150  1
  Bi  Bi28  1  0.435448  0.010974  0.672474  1
  Bi  Bi29  1  0.935153  0.489927  0.827150  1
  Bi  Bi30  1  0.564906  0.509162  0.328412  1
  Bi  Bi31  1  0.065422  0.990971  0.171637  1
