# generated using pymatgen
data_La2CuTe2(SO7)2
_symmetry_space_group_name_H-M   'P 1'
_cell_length_a   5.38835611
_cell_length_b   8.28023385
_cell_length_c   8.48623812
_cell_angle_alpha   117.49294529
_cell_angle_beta   105.85494303
_cell_angle_gamma   87.95908519
_symmetry_Int_Tables_number   1
_chemical_formula_structural   La2CuTe2(SO7)2
_chemical_formula_sum   'La2 Cu1 Te2 S2 O14'
_cell_volume   321.26952912
_cell_formula_units_Z   1
loop_
 _symmetry_equiv_pos_site_id
 _symmetry_equiv_pos_as_xyz
  1  'x, y, z'
loop_
 _atom_site_type_symbol
 _atom_site_label
 _atom_site_symmetry_multiplicity
 _atom_site_fract_x
 _atom_site_fract_y
 _atom_site_fract_z
 _atom_site_occupancy
  La  La0  1  0.091658  0.250541  0.982091  1
  La  La1  1  0.908342  0.749459  0.017909  1
  Cu  Cu2  1  0.000000  0.000000  0.500000  1
  Te  Te3  1  0.523913  0.254863  0.640780  1
  Te  Te4  1  0.476087  0.745137  0.359220  1
  S  S5  1  0.775032  0.252696  0.254685  1
  S  S6  1  0.224968  0.747304  0.745315  1
  O  O7  1  0.923306  0.404823  0.260872  1
  O  O8  1  0.076694  0.595177  0.739128  1
  O  O9  1  0.866214  0.236965  0.426260  1
  O  O10  1  0.133786  0.763035  0.573740  1
  O  O11  1  0.493998  0.279189  0.217946  1
  O  O12  1  0.506002  0.720811  0.782054  1
  O  O13  1  0.817997  0.081516  0.091483  1
  O  O14  1  0.182003  0.918484  0.908517  1
  O  O15  1  0.743412  0.423662  0.879262  1
  O  O16  1  0.256588  0.576338  0.120738  1
  O  O17  1  0.276592  0.182219  0.727258  1
  O  O18  1  0.723408  0.817781  0.272742  1
  O  O19  1  0.746558  0.066466  0.646215  1
  O  O20  1  0.253442  0.933534  0.353785  1
