# generated using pymatgen
data_Dy5Er(Tm2Bi3)2
_symmetry_space_group_name_H-M   'P 1'
_cell_length_a   8.21954400
_cell_length_b   9.48133701
_cell_length_c   12.02953200
_cell_angle_alpha   90.00214527
_cell_angle_beta   90.00000000
_cell_angle_gamma   90.00000000
_symmetry_Int_Tables_number   1
_chemical_formula_structural   Dy5Er(Tm2Bi3)2
_chemical_formula_sum   'Dy10 Er2 Tm8 Bi12'
_cell_volume   937.48869550
_cell_formula_units_Z   2
loop_
 _symmetry_equiv_pos_site_id
 _symmetry_equiv_pos_as_xyz
  1  'x, y, z'
loop_
 _atom_site_type_symbol
 _atom_site_label
 _atom_site_symmetry_multiplicity
 _atom_site_fract_x
 _atom_site_fract_y
 _atom_site_fract_z
 _atom_site_occupancy
  Dy  Dy0  1  0.186408  0.749740  0.718664  1
  Dy  Dy1  1  0.686408  0.750260  0.781336  1
  Dy  Dy2  1  0.813504  0.249757  0.281392  1
  Dy  Dy3  1  0.313504  0.250243  0.218608  1
  Dy  Dy4  1  0.693436  0.563244  0.059807  1
  Dy  Dy5  1  0.193436  0.936756  0.440193  1
  Dy  Dy6  1  0.306467  0.063373  0.940038  1
  Dy  Dy7  1  0.806467  0.436627  0.559962  1
  Dy  Dy8  1  0.354292  0.750203  0.216187  1
  Dy  Dy9  1  0.854292  0.749797  0.283813  1
  Er  Er10  1  0.645575  0.250217  0.783676  1
  Er  Er11  1  0.145575  0.249783  0.716324  1
  Tm  Tm12  1  0.025195  0.750082  0.988685  1
  Tm  Tm13  1  0.525195  0.749918  0.511315  1
  Tm  Tm14  1  0.974982  0.250075  0.011105  1
  Tm  Tm15  1  0.474982  0.249925  0.488895  1
  Tm  Tm16  1  0.307046  0.433596  0.940245  1
  Tm  Tm17  1  0.807046  0.066404  0.559755  1
  Tm  Tm18  1  0.692868  0.933699  0.059592  1
  Tm  Tm19  1  0.192868  0.566301  0.440408  1
  Bi  Bi20  1  0.434041  0.004162  0.672868  1
  Bi  Bi21  1  0.934041  0.495838  0.827132  1
  Bi  Bi22  1  0.566008  0.503772  0.327273  1
  Bi  Bi23  1  0.066008  0.996228  0.172727  1
  Bi  Bi24  1  0.566753  0.995921  0.327394  1
  Bi  Bi25  1  0.066753  0.504079  0.172606  1
  Bi  Bi26  1  0.433274  0.495530  0.672745  1
  Bi  Bi27  1  0.933274  0.004470  0.827255  1
  Bi  Bi28  1  0.406925  0.747805  0.957620  1
  Bi  Bi29  1  0.906925  0.752195  0.542380  1
  Bi  Bi30  1  0.593227  0.247829  0.041905  1
  Bi  Bi31  1  0.093227  0.252171  0.458095  1
