# generated using pymatgen
data_Yb2Mn3Fe6Co3P7
_symmetry_space_group_name_H-M   'P 1'
_cell_length_a   9.09079000
_cell_length_b   9.09079043
_cell_length_c   3.64389000
_cell_angle_alpha   90.00000000
_cell_angle_beta   90.00000000
_cell_angle_gamma   120.00000571
_symmetry_Int_Tables_number   1
_chemical_formula_structural   Yb2Mn3Fe6Co3P7
_chemical_formula_sum   'Yb2 Mn3 Fe6 Co3 P7'
_cell_volume   260.79492541
_cell_formula_units_Z   1
loop_
 _symmetry_equiv_pos_site_id
 _symmetry_equiv_pos_as_xyz
  1  'x, y, z'
loop_
 _atom_site_type_symbol
 _atom_site_label
 _atom_site_symmetry_multiplicity
 _atom_site_fract_x
 _atom_site_fract_y
 _atom_site_fract_z
 _atom_site_occupancy
  Yb  Yb0  1  0.666667  0.333333  0.000000  1
  Yb  Yb1  1  0.333333  0.666667  0.500000  1
  Mn  Mn2  1  0.219655  0.102481  0.000000  1
  Mn  Mn3  1  0.897519  0.117175  0.000000  1
  Mn  Mn4  1  0.882825  0.780345  0.000000  1
  Fe  Fe5  1  0.424806  0.053490  0.500000  1
  Fe  Fe6  1  0.946510  0.371317  0.500000  1
  Fe  Fe7  1  0.628683  0.575194  0.500000  1
  Fe  Fe8  1  0.155689  0.274142  0.500000  1
  Fe  Fe9  1  0.725858  0.881547  0.500000  1
  Fe  Fe10  1  0.118453  0.844311  0.500000  1
  Co  Co11  1  0.384922  0.436682  0.000000  1
  Co  Co12  1  0.563318  0.948240  0.000000  1
  Co  Co13  1  0.051760  0.615078  0.000000  1
  P  P14  1  0.115991  0.406215  0.000000  1
  P  P15  1  0.593785  0.709776  0.000000  1
  P  P16  1  0.290224  0.884009  0.000000  1
  P  P17  1  0.000000  0.000000  0.500000  1
  P  P18  1  0.415004  0.301726  0.500000  1
  P  P19  1  0.698274  0.113276  0.500000  1
  P  P20  1  0.886724  0.584996  0.500000  1
