# generated using pymatgen
data_EuLuB6Ru
_symmetry_space_group_name_H-M   'P 1'
_cell_length_a   3.66186900
_cell_length_b   9.17267200
_cell_length_c   11.61773900
_cell_angle_alpha   90.00000000
_cell_angle_beta   90.00000000
_cell_angle_gamma   90.00000000
_symmetry_Int_Tables_number   1
_chemical_formula_structural   EuLuB6Ru
_chemical_formula_sum   'Eu4 Lu4 B24 Ru4'
_cell_volume   390.22966709
_cell_formula_units_Z   4
loop_
 _symmetry_equiv_pos_site_id
 _symmetry_equiv_pos_as_xyz
  1  'x, y, z'
loop_
 _atom_site_type_symbol
 _atom_site_label
 _atom_site_symmetry_multiplicity
 _atom_site_fract_x
 _atom_site_fract_y
 _atom_site_fract_z
 _atom_site_occupancy
  Eu  Eu0  1  0.000000  0.323301  0.415265  1
  Eu  Eu1  1  0.000000  0.676699  0.584735  1
  Eu  Eu2  1  0.000000  0.823301  0.084735  1
  Eu  Eu3  1  0.000000  0.176699  0.915265  1
  Lu  Lu4  1  0.000000  0.943101  0.369618  1
  Lu  Lu5  1  0.000000  0.056899  0.630382  1
  Lu  Lu6  1  0.000000  0.443101  0.130382  1
  Lu  Lu7  1  0.000000  0.556899  0.869618  1
  B  B8  1  0.500000  0.555871  0.430418  1
  B  B9  1  0.500000  0.444129  0.569582  1
  B  B10  1  0.500000  0.055871  0.069582  1
  B  B11  1  0.500000  0.944129  0.930418  1
  B  B12  1  0.500000  0.750265  0.416041  1
  B  B13  1  0.500000  0.249735  0.583959  1
  B  B14  1  0.500000  0.250265  0.083959  1
  B  B15  1  0.500000  0.749735  0.916041  1
  B  B16  1  0.500000  0.791921  0.264859  1
  B  B17  1  0.500000  0.208079  0.735141  1
  B  B18  1  0.500000  0.291921  0.235141  1
  B  B19  1  0.500000  0.708079  0.764859  1
  B  B20  1  0.500000  0.630488  0.184648  1
  B  B21  1  0.500000  0.369512  0.815352  1
  B  B22  1  0.500000  0.130488  0.315352  1
  B  B23  1  0.500000  0.869512  0.684648  1
  B  B24  1  0.500000  0.984554  0.213308  1
  B  B25  1  0.500000  0.015446  0.786692  1
  B  B26  1  0.500000  0.484554  0.286692  1
  B  B27  1  0.500000  0.515446  0.713308  1
  B  B28  1  0.500000  0.597379  0.026242  1
  B  B29  1  0.500000  0.402621  0.973758  1
  B  B30  1  0.500000  0.097379  0.473758  1
  B  B31  1  0.500000  0.902621  0.526242  1
  Ru  Ru32  1  0.000000  0.640750  0.317675  1
  Ru  Ru33  1  0.000000  0.359250  0.682325  1
  Ru  Ru34  1  0.000000  0.140750  0.182325  1
  Ru  Ru35  1  0.000000  0.859250  0.817675  1
