# generated using pymatgen
data_Zr16AlCo4Pd3N4
_symmetry_space_group_name_H-M   'P 1'
_cell_length_a   8.75771454
_cell_length_b   8.74146679
_cell_length_c   8.74146700
_cell_angle_alpha   59.99999543
_cell_angle_beta   60.06134766
_cell_angle_gamma   60.06135866
_symmetry_Int_Tables_number   1
_chemical_formula_structural   Zr16AlCo4Pd3N4
_chemical_formula_sum   'Zr16 Al1 Co4 Pd3 N4'
_cell_volume   473.63798981
_cell_formula_units_Z   1
loop_
 _symmetry_equiv_pos_site_id
 _symmetry_equiv_pos_as_xyz
  1  'x, y, z'
loop_
 _atom_site_type_symbol
 _atom_site_label
 _atom_site_symmetry_multiplicity
 _atom_site_fract_x
 _atom_site_fract_y
 _atom_site_fract_z
 _atom_site_occupancy
  Zr  Zr0  1  0.081510  0.639497  0.639497  1
  Zr  Zr1  1  0.643490  0.063617  0.646446  1
  Zr  Zr2  1  0.643490  0.646446  0.063617  1
  Zr  Zr3  1  0.643490  0.646446  0.646446  1
  Zr  Zr4  1  0.814573  0.815858  0.184785  1
  Zr  Zr5  1  0.181155  0.184025  0.817410  1
  Zr  Zr6  1  0.814573  0.184785  0.815858  1
  Zr  Zr7  1  0.181155  0.817410  0.184025  1
  Zr  Zr8  1  0.181155  0.817410  0.817410  1
  Zr  Zr9  1  0.814573  0.184785  0.184785  1
  Zr  Zr10  1  0.432818  0.433644  0.066769  1
  Zr  Zr11  1  0.066541  0.068763  0.432348  1
  Zr  Zr12  1  0.432818  0.066769  0.433644  1
  Zr  Zr13  1  0.066541  0.432348  0.068763  1
  Zr  Zr14  1  0.066541  0.432348  0.432348  1
  Zr  Zr15  1  0.432818  0.066769  0.066769  1
  Al  Al16  1  0.725788  0.424737  0.424737  1
  Co  Co17  1  0.437487  0.854172  0.854172  1
  Co  Co18  1  0.856927  0.441953  0.850561  1
  Co  Co19  1  0.856927  0.850561  0.441953  1
  Co  Co20  1  0.856927  0.850561  0.850561  1
  Pd  Pd21  1  0.422151  0.749048  0.414400  1
  Pd  Pd22  1  0.422151  0.414400  0.749048  1
  Pd  Pd23  1  0.422151  0.414400  0.414400  1
  N  N24  1  0.624723  0.125092  0.125092  1
  N  N25  1  0.125844  0.622542  0.125807  1
  N  N26  1  0.125844  0.125807  0.622542  1
  N  N27  1  0.125844  0.125807  0.125807  1
