# generated using pymatgen
data_Tm2Al8ReSiPd2
_symmetry_space_group_name_H-M   'P 1'
_cell_length_a   7.58562128
_cell_length_b   7.58562201
_cell_length_c   9.35990800
_cell_angle_alpha   90.00000000
_cell_angle_beta   90.00000000
_cell_angle_gamma   119.05579605
_symmetry_Int_Tables_number   1
_chemical_formula_structural   Tm2Al8ReSiPd2
_chemical_formula_sum   'Tm4 Al16 Re2 Si2 Pd4'
_cell_volume   470.80220893
_cell_formula_units_Z   2
loop_
 _symmetry_equiv_pos_site_id
 _symmetry_equiv_pos_as_xyz
  1  'x, y, z'
loop_
 _atom_site_type_symbol
 _atom_site_label
 _atom_site_symmetry_multiplicity
 _atom_site_fract_x
 _atom_site_fract_y
 _atom_site_fract_z
 _atom_site_occupancy
  Tm  Tm0  1  0.994040  0.680080  0.250000  1
  Tm  Tm1  1  0.005960  0.319920  0.750000  1
  Tm  Tm2  1  0.680080  0.994040  0.250000  1
  Tm  Tm3  1  0.319920  0.005960  0.750000  1
  Al  Al4  1  0.000826  0.334787  0.079752  1
  Al  Al5  1  0.999174  0.665213  0.920248  1
  Al  Al6  1  0.999174  0.665213  0.579752  1
  Al  Al7  1  0.334787  0.000826  0.420248  1
  Al  Al8  1  0.000826  0.334787  0.420248  1
  Al  Al9  1  0.665213  0.999174  0.579752  1
  Al  Al10  1  0.665213  0.999174  0.920248  1
  Al  Al11  1  0.334787  0.000826  0.079752  1
  Al  Al12  1  0.331229  0.331229  0.556617  1
  Al  Al13  1  0.668771  0.668771  0.443383  1
  Al  Al14  1  0.668771  0.668771  0.056617  1
  Al  Al15  1  0.331229  0.331229  0.943383  1
  Al  Al16  1  0.339893  0.550769  0.250000  1
  Al  Al17  1  0.660107  0.449231  0.750000  1
  Al  Al18  1  0.550769  0.339893  0.250000  1
  Al  Al19  1  0.449231  0.660107  0.750000  1
  Re  Re20  1  0.000000  0.000000  0.000000  1
  Re  Re21  1  0.000000  0.000000  0.500000  1
  Si  Si22  1  0.125505  0.125505  0.250000  1
  Si  Si23  1  0.874495  0.874495  0.750000  1
  Pd  Pd24  1  0.672124  0.327876  0.000000  1
  Pd  Pd25  1  0.327876  0.672124  0.000000  1
  Pd  Pd26  1  0.327876  0.672124  0.500000  1
  Pd  Pd27  1  0.672124  0.327876  0.500000  1
