# generated using pymatgen
data_ThTcI
_symmetry_space_group_name_H-M   'P 1'
_cell_length_a   4.22941800
_cell_length_b   4.22941899
_cell_length_c   12.87329200
_cell_angle_alpha   90.00000000
_cell_angle_beta   90.00000000
_cell_angle_gamma   120.00000788
_symmetry_Int_Tables_number   1
_chemical_formula_structural   ThTcI
_chemical_formula_sum   'Th2 Tc2 I2'
_cell_volume   199.42588958
_cell_formula_units_Z   2
loop_
 _symmetry_equiv_pos_site_id
 _symmetry_equiv_pos_as_xyz
  1  'x, y, z'
loop_
 _atom_site_type_symbol
 _atom_site_label
 _atom_site_symmetry_multiplicity
 _atom_site_fract_x
 _atom_site_fract_y
 _atom_site_fract_z
 _atom_site_occupancy
  Th  Th0  1  0.000000  0.000000  0.842094  1
  Th  Th1  1  0.000000  0.000000  0.157906  1
  Tc  Tc2  1  0.333333  0.666667  0.977350  1
  Tc  Tc3  1  0.666667  0.333333  0.022650  1
  I  I4  1  0.666667  0.333333  0.664880  1
  I  I5  1  0.333333  0.666667  0.335120  1
