# generated using pymatgen
data_Nb20Pt7Rh3
_symmetry_space_group_name_H-M   'P 1'
_cell_length_a   9.98383012
_cell_length_b   9.98530592
_cell_length_c   5.18667600
_cell_angle_alpha   90.00000000
_cell_angle_beta   90.00000000
_cell_angle_gamma   90.03731885
_symmetry_Int_Tables_number   1
_chemical_formula_structural   Nb20Pt7Rh3
_chemical_formula_sum   'Nb20 Pt7 Rh3'
_cell_volume   517.06790915
_cell_formula_units_Z   1
loop_
 _symmetry_equiv_pos_site_id
 _symmetry_equiv_pos_as_xyz
  1  'x, y, z'
loop_
 _atom_site_type_symbol
 _atom_site_label
 _atom_site_symmetry_multiplicity
 _atom_site_fract_x
 _atom_site_fract_y
 _atom_site_fract_z
 _atom_site_occupancy
  Nb  Nb0  1  0.394369  0.394480  0.000000  1
  Nb  Nb1  1  0.894111  0.105675  0.500000  1
  Nb  Nb2  1  0.105610  0.894842  0.500000  1
  Nb  Nb3  1  0.606357  0.605389  0.000000  1
  Nb  Nb4  1  0.125912  0.461141  0.000000  1
  Nb  Nb5  1  0.960811  0.375419  0.500000  1
  Nb  Nb6  1  0.039966  0.627418  0.500000  1
  Nb  Nb7  1  0.876576  0.540833  0.000000  1
  Nb  Nb8  1  0.374546  0.960021  0.500000  1
  Nb  Nb9  1  0.625170  0.039648  0.500000  1
  Nb  Nb10  1  0.460098  0.124837  0.000000  1
  Nb  Nb11  1  0.539640  0.874063  0.000000  1
  Nb  Nb12  1  0.177002  0.176455  0.253364  1
  Nb  Nb13  1  0.676942  0.322932  0.753254  1
  Nb  Nb14  1  0.321866  0.677105  0.753935  1
  Nb  Nb15  1  0.823954  0.822570  0.253055  1
  Nb  Nb16  1  0.321866  0.677105  0.246065  1
  Nb  Nb17  1  0.676942  0.322932  0.246746  1
  Nb  Nb18  1  0.177002  0.176455  0.746636  1
  Nb  Nb19  1  0.823954  0.822570  0.746945  1
  Pt  Pt20  1  0.261041  0.929502  0.000000  1
  Pt  Pt21  1  0.430943  0.237421  0.500000  1
  Pt  Pt22  1  0.568698  0.762274  0.500000  1
  Pt  Pt23  1  0.737242  0.068547  0.000000  1
  Pt  Pt24  1  0.237332  0.430590  0.500000  1
  Pt  Pt25  1  0.762757  0.569175  0.500000  1
  Pt  Pt26  1  0.930879  0.263570  0.000000  1
  Rh  Rh27  1  0.999818  0.999034  0.000000  1
  Rh  Rh28  1  0.500071  0.500033  0.500000  1
  Rh  Rh29  1  0.068526  0.737965  0.000000  1
