# generated using pymatgen
data_Y20Si12Cl
_symmetry_space_group_name_H-M   'P 1'
_cell_length_a   14.76494400
_cell_length_b   6.39271627
_cell_length_c   8.47658164
_cell_angle_alpha   89.99688172
_cell_angle_beta   90.00000000
_cell_angle_gamma   90.00000000
_symmetry_Int_Tables_number   1
_chemical_formula_structural   Y20Si12Cl
_chemical_formula_sum   'Y20 Si12 Cl1'
_cell_volume   800.08841527
_cell_formula_units_Z   1
loop_
 _symmetry_equiv_pos_site_id
 _symmetry_equiv_pos_as_xyz
  1  'x, y, z'
loop_
 _atom_site_type_symbol
 _atom_site_label
 _atom_site_symmetry_multiplicity
 _atom_site_fract_x
 _atom_site_fract_y
 _atom_site_fract_z
 _atom_site_occupancy
  Y  Y0  1  0.668196  0.500000  0.500000  1
  Y  Y1  1  0.167124  0.500000  0.000000  1
  Y  Y2  1  0.832876  0.500000  0.000000  1
  Y  Y3  1  0.331804  0.500000  0.500000  1
  Y  Y4  1  0.829742  0.000000  0.000000  1
  Y  Y5  1  0.337334  0.000000  0.500000  1
  Y  Y6  1  0.662666  0.000000  0.500000  1
  Y  Y7  1  0.170258  0.000000  0.000000  1
  Y  Y8  1  0.500000  0.253812  0.756400  1
  Y  Y9  1  0.000000  0.235649  0.243450  1
  Y  Y10  1  0.620186  0.250233  0.123028  1
  Y  Y11  1  0.127595  0.234684  0.628091  1
  Y  Y12  1  0.872405  0.234684  0.628091  1
  Y  Y13  1  0.379814  0.250233  0.123028  1
  Y  Y14  1  0.000000  0.764351  0.756550  1
  Y  Y15  1  0.500000  0.746188  0.243600  1
  Y  Y16  1  0.872405  0.765316  0.371909  1
  Y  Y17  1  0.379814  0.749767  0.876972  1
  Y  Y18  1  0.620186  0.749767  0.876972  1
  Y  Y19  1  0.127595  0.765316  0.371909  1
  Si  Si20  1  0.000000  0.243227  0.892177  1
  Si  Si21  1  0.500000  0.256783  0.394336  1
  Si  Si22  1  0.802390  0.244505  0.303521  1
  Si  Si23  1  0.304115  0.249849  0.803832  1
  Si  Si24  1  0.695885  0.249849  0.803832  1
  Si  Si25  1  0.197610  0.244505  0.303521  1
  Si  Si26  1  0.500000  0.743217  0.605664  1
  Si  Si27  1  0.000000  0.756773  0.107823  1
  Si  Si28  1  0.695885  0.750151  0.196168  1
  Si  Si29  1  0.197610  0.755495  0.696479  1
  Si  Si30  1  0.802390  0.755495  0.696479  1
  Si  Si31  1  0.304115  0.750151  0.196168  1
  Cl  Cl32  1  0.000000  0.500000  0.500000  1
