# generated using pymatgen
data_K8Ti6BeBr20
_symmetry_space_group_name_H-M   'P 1'
_cell_length_a   11.56373228
_cell_length_b   11.56373314
_cell_length_c   11.56373300
_cell_angle_alpha   60.00000326
_cell_angle_beta   60.00000081
_cell_angle_gamma   60.00000300
_symmetry_Int_Tables_number   1
_chemical_formula_structural   K8Ti6BeBr20
_chemical_formula_sum   'K8 Ti6 Be1 Br20'
_cell_volume   1093.40025338
_cell_formula_units_Z   1
loop_
 _symmetry_equiv_pos_site_id
 _symmetry_equiv_pos_as_xyz
  1  'x, y, z'
loop_
 _atom_site_type_symbol
 _atom_site_label
 _atom_site_symmetry_multiplicity
 _atom_site_fract_x
 _atom_site_fract_y
 _atom_site_fract_z
 _atom_site_occupancy
  K  K0  1  0.360977  0.360977  0.360977  1
  K  K1  1  0.639023  0.639023  0.639023  1
  K  K2  1  0.360977  0.360977  0.917068  1
  K  K3  1  0.360977  0.917068  0.360977  1
  K  K4  1  0.639023  0.639023  0.082932  1
  K  K5  1  0.639023  0.082932  0.639023  1
  K  K6  1  0.917068  0.360977  0.360977  1
  K  K7  1  0.082932  0.639023  0.639023  1
  Ti  Ti8  1  0.861713  0.138287  0.138287  1
  Ti  Ti9  1  0.138287  0.861713  0.861713  1
  Ti  Ti10  1  0.138287  0.861713  0.138287  1
  Ti  Ti11  1  0.861713  0.138287  0.861713  1
  Ti  Ti12  1  0.138287  0.138287  0.861713  1
  Ti  Ti13  1  0.861713  0.861713  0.138287  1
  Be  Be14  1  0.000000  0.000000  0.000000  1
  Br  Br15  1  0.315308  0.000000  0.000000  1
  Br  Br16  1  0.684692  0.000000  0.000000  1
  Br  Br17  1  0.000000  0.315308  0.684692  1
  Br  Br18  1  0.000000  0.684692  0.315308  1
  Br  Br19  1  0.000000  0.315308  0.000000  1
  Br  Br20  1  0.684692  0.000000  0.315308  1
  Br  Br21  1  0.000000  0.684692  0.000000  1
  Br  Br22  1  0.315308  0.000000  0.684692  1
  Br  Br23  1  0.000000  0.000000  0.315308  1
  Br  Br24  1  0.000000  0.000000  0.684692  1
  Br  Br25  1  0.684692  0.315308  0.000000  1
  Br  Br26  1  0.315308  0.684692  0.000000  1
  Br  Br27  1  0.688112  0.311888  0.311888  1
  Br  Br28  1  0.311888  0.688112  0.688112  1
  Br  Br29  1  0.311888  0.688112  0.311888  1
  Br  Br30  1  0.688112  0.311888  0.688112  1
  Br  Br31  1  0.311888  0.311888  0.688112  1
  Br  Br32  1  0.688112  0.688112  0.311888  1
  Br  Br33  1  0.250000  0.250000  0.250000  1
  Br  Br34  1  0.750000  0.750000  0.750000  1
