# generated using pymatgen
data_Ho6Tm4Si5Sb
_symmetry_space_group_name_H-M   'P 1'
_cell_length_a   8.47438300
_cell_length_b   8.47438183
_cell_length_c   6.30983100
_cell_angle_alpha   90.00000000
_cell_angle_beta   90.00000000
_cell_angle_gamma   120.17604873
_symmetry_Int_Tables_number   1
_chemical_formula_structural   Ho6Tm4Si5Sb
_chemical_formula_sum   'Ho6 Tm4 Si5 Sb1'
_cell_volume   391.73403600
_cell_formula_units_Z   1
loop_
 _symmetry_equiv_pos_site_id
 _symmetry_equiv_pos_as_xyz
  1  'x, y, z'
loop_
 _atom_site_type_symbol
 _atom_site_label
 _atom_site_symmetry_multiplicity
 _atom_site_fract_x
 _atom_site_fract_y
 _atom_site_fract_z
 _atom_site_occupancy
  Ho  Ho0  1  0.764915  0.764915  0.250000  1
  Ho  Ho1  1  0.240806  0.988321  0.250000  1
  Ho  Ho2  1  0.988321  0.240806  0.250000  1
  Ho  Ho3  1  0.242019  0.242019  0.750000  1
  Ho  Ho4  1  0.755132  0.998718  0.750000  1
  Ho  Ho5  1  0.998718  0.755132  0.750000  1
  Tm  Tm6  1  0.674387  0.331223  0.503501  1
  Tm  Tm7  1  0.331223  0.674387  0.503501  1
  Tm  Tm8  1  0.331223  0.674387  0.996499  1
  Tm  Tm9  1  0.674387  0.331223  0.996499  1
  Si  Si10  1  0.603833  0.998817  0.250000  1
  Si  Si11  1  0.998817  0.603833  0.250000  1
  Si  Si12  1  0.605468  0.605468  0.750000  1
  Si  Si13  1  0.394169  0.001858  0.750000  1
  Si  Si14  1  0.001858  0.394169  0.750000  1
  Sb  Sb15  1  0.394723  0.394723  0.250000  1
