# generated using pymatgen
data_TbThHgAu2
_symmetry_space_group_name_H-M   'P 1'
_cell_length_a   8.12053500
_cell_length_b   8.05834800
_cell_length_c   3.81709300
_cell_angle_alpha   90.00000000
_cell_angle_beta   90.00000000
_cell_angle_gamma   90.00000000
_symmetry_Int_Tables_number   1
_chemical_formula_structural   TbThHgAu2
_chemical_formula_sum   'Tb2 Th2 Hg2 Au4'
_cell_volume   249.78330190
_cell_formula_units_Z   2
loop_
 _symmetry_equiv_pos_site_id
 _symmetry_equiv_pos_as_xyz
  1  'x, y, z'
loop_
 _atom_site_type_symbol
 _atom_site_label
 _atom_site_symmetry_multiplicity
 _atom_site_fract_x
 _atom_site_fract_y
 _atom_site_fract_z
 _atom_site_occupancy
  Tb  Tb0  1  0.172090  0.675628  0.500000  1
  Tb  Tb1  1  0.672089  0.824371  0.500000  1
  Th  Th2  1  0.327004  0.169305  0.500000  1
  Th  Th3  1  0.827003  0.330696  0.500000  1
  Hg  Hg4  1  0.999315  0.995496  0.000000  1
  Hg  Hg5  1  0.499315  0.504504  0.000000  1
  Au  Au6  1  0.628199  0.123979  0.000000  1
  Au  Au7  1  0.128200  0.376022  0.000000  1
  Au  Au8  1  0.873394  0.631415  0.000000  1
  Au  Au9  1  0.373394  0.868585  0.000000  1
