# generated using pymatgen
data_La8Pr2C4Cl17
_symmetry_space_group_name_H-M   'P 1'
_cell_length_a   8.87512837
_cell_length_b   9.52218286
_cell_length_c   11.97223400
_cell_angle_alpha   104.59053336
_cell_angle_beta   96.14020147
_cell_angle_gamma   110.90778048
_symmetry_Int_Tables_number   1
_chemical_formula_structural   La8Pr2C4Cl17
_chemical_formula_sum   'La8 Pr2 C4 Cl17'
_cell_volume   892.73061503
_cell_formula_units_Z   1
loop_
 _symmetry_equiv_pos_site_id
 _symmetry_equiv_pos_as_xyz
  1  'x, y, z'
loop_
 _atom_site_type_symbol
 _atom_site_label
 _atom_site_symmetry_multiplicity
 _atom_site_fract_x
 _atom_site_fract_y
 _atom_site_fract_z
 _atom_site_occupancy
  La  La0  1  0.072662  0.422610  0.265503  1
  La  La1  1  0.927376  0.577420  0.734468  1
  La  La2  1  0.408548  0.362616  0.130734  1
  La  La3  1  0.591407  0.637342  0.869247  1
  La  La4  1  0.497703  0.786939  0.342487  1
  La  La5  1  0.502237  0.213042  0.657536  1
  La  La6  1  0.199929  0.090337  0.307894  1
  La  La7  1  0.800124  0.909680  0.692103  1
  Pr  Pr8  1  0.653301  0.484705  0.439105  1
  Pr  Pr9  1  0.346709  0.515300  0.560888  1
  C  C10  1  0.395125  0.525102  0.340282  1
  C  C11  1  0.604874  0.474905  0.659717  1
  C  C12  1  0.323794  0.362548  0.334764  1
  C  C13  1  0.676213  0.637459  0.665240  1
  Cl  Cl14  1  0.099908  0.346768  0.031884  1
  Cl  Cl15  1  0.900104  0.653231  0.968110  1
  Cl  Cl16  1  0.818720  0.815794  0.442838  1
  Cl  Cl17  1  0.181301  0.184236  0.557171  1
  Cl  Cl18  1  0.000008  0.499975  0.500002  1
  Cl  Cl19  1  0.299369  0.035673  0.093889  1
  Cl  Cl20  1  0.700631  0.964307  0.906107  1
  Cl  Cl21  1  0.893325  0.099508  0.248203  1
  Cl  Cl22  1  0.106684  0.900485  0.751810  1
  Cl  Cl23  1  0.546372  0.136014  0.411274  1
  Cl  Cl24  1  0.453633  0.864011  0.588750  1
  Cl  Cl25  1  0.740233  0.415321  0.209923  1
  Cl  Cl26  1  0.259712  0.584655  0.790075  1
  Cl  Cl27  1  0.163630  0.755840  0.287307  1
  Cl  Cl28  1  0.836393  0.244172  0.712680  1
  Cl  Cl29  1  0.535835  0.686349  0.110754  1
  Cl  Cl30  1  0.464143  0.313660  0.889256  1
