# generated using pymatgen
data_Hf9Re4Pt
_symmetry_space_group_name_H-M   'P 1'
_cell_length_a   8.69224800
_cell_length_b   8.69224836
_cell_length_c   8.54933700
_cell_angle_alpha   90.00000000
_cell_angle_beta   90.00000000
_cell_angle_gamma   119.99999863
_symmetry_Int_Tables_number   1
_chemical_formula_structural   Hf9Re4Pt
_chemical_formula_sum   'Hf18 Re8 Pt2'
_cell_volume   559.40624422
_cell_formula_units_Z   2
loop_
 _symmetry_equiv_pos_site_id
 _symmetry_equiv_pos_as_xyz
  1  'x, y, z'
loop_
 _atom_site_type_symbol
 _atom_site_label
 _atom_site_symmetry_multiplicity
 _atom_site_fract_x
 _atom_site_fract_y
 _atom_site_fract_z
 _atom_site_occupancy
  Hf  Hf0  1  0.194210  0.805790  0.447626  1
  Hf  Hf1  1  0.194210  0.388418  0.447626  1
  Hf  Hf2  1  0.611582  0.805790  0.447626  1
  Hf  Hf3  1  0.805790  0.194210  0.552374  1
  Hf  Hf4  1  0.805790  0.611582  0.552374  1
  Hf  Hf5  1  0.388418  0.194210  0.552374  1
  Hf  Hf6  1  0.805790  0.194210  0.947626  1
  Hf  Hf7  1  0.805790  0.611582  0.947626  1
  Hf  Hf8  1  0.388418  0.194210  0.947626  1
  Hf  Hf9  1  0.194210  0.805790  0.052374  1
  Hf  Hf10  1  0.194210  0.388418  0.052374  1
  Hf  Hf11  1  0.611582  0.805790  0.052374  1
  Hf  Hf12  1  0.541746  0.458254  0.250000  1
  Hf  Hf13  1  0.541746  0.083493  0.250000  1
  Hf  Hf14  1  0.916507  0.458254  0.250000  1
  Hf  Hf15  1  0.458254  0.541746  0.750000  1
  Hf  Hf16  1  0.458254  0.916507  0.750000  1
  Hf  Hf17  1  0.083493  0.541746  0.750000  1
  Re  Re18  1  0.889799  0.110201  0.250000  1
  Re  Re19  1  0.889799  0.779597  0.250000  1
  Re  Re20  1  0.220403  0.110201  0.250000  1
  Re  Re21  1  0.110201  0.889799  0.750000  1
  Re  Re22  1  0.110201  0.220403  0.750000  1
  Re  Re23  1  0.779597  0.889799  0.750000  1
  Re  Re24  1  0.000000  0.000000  0.500000  1
  Re  Re25  1  0.000000  0.000000  0.000000  1
  Pt  Pt26  1  0.333333  0.666667  0.250000  1
  Pt  Pt27  1  0.666667  0.333333  0.750000  1
