# generated using pymatgen
data_Dy6Sn6Rh5Au
_symmetry_space_group_name_H-M   'P 1'
_cell_length_a   7.61074600
_cell_length_b   7.61074654
_cell_length_c   7.74418700
_cell_angle_alpha   90.00000000
_cell_angle_beta   90.00000000
_cell_angle_gamma   119.99999766
_symmetry_Int_Tables_number   1
_chemical_formula_structural   Dy6Sn6Rh5Au
_chemical_formula_sum   'Dy6 Sn6 Rh5 Au1'
_cell_volume   388.47310808
_cell_formula_units_Z   1
loop_
 _symmetry_equiv_pos_site_id
 _symmetry_equiv_pos_as_xyz
  1  'x, y, z'
loop_
 _atom_site_type_symbol
 _atom_site_label
 _atom_site_symmetry_multiplicity
 _atom_site_fract_x
 _atom_site_fract_y
 _atom_site_fract_z
 _atom_site_occupancy
  Dy  Dy0  1  0.589383  0.988674  0.744092  1
  Dy  Dy1  1  0.399293  0.410617  0.744092  1
  Dy  Dy2  1  0.011326  0.600707  0.744092  1
  Dy  Dy3  1  0.591946  0.994532  0.255709  1
  Dy  Dy4  1  0.402585  0.408054  0.255709  1
  Dy  Dy5  1  0.005468  0.597415  0.255709  1
  Sn  Sn6  1  0.252234  0.991398  0.000611  1
  Sn  Sn7  1  0.740981  0.736296  0.500399  1
  Sn  Sn8  1  0.995316  0.259019  0.500399  1
  Sn  Sn9  1  0.008602  0.260836  0.000611  1
  Sn  Sn10  1  0.739164  0.747766  0.000611  1
  Sn  Sn11  1  0.263704  0.004684  0.500399  1
  Rh  Rh12  1  0.666667  0.333333  0.503563  1
  Rh  Rh13  1  0.333333  0.666667  0.003818  1
  Rh  Rh14  1  0.333333  0.666667  0.495893  1
  Rh  Rh15  1  0.000000  0.000000  0.749005  1
  Rh  Rh16  1  0.000000  0.000000  0.252295  1
  Au  Au17  1  0.666667  0.333333  0.992994  1
