# generated using pymatgen
data_Tb10Hg8Ir3Pd
_symmetry_space_group_name_H-M   'P 1'
_cell_length_a   7.97856826
_cell_length_b   18.00866443
_cell_length_c   3.71774800
_cell_angle_alpha   90.00000000
_cell_angle_beta   90.00000000
_cell_angle_gamma   90.14428970
_symmetry_Int_Tables_number   1
_chemical_formula_structural   Tb10Hg8Ir3Pd
_chemical_formula_sum   'Tb10 Hg8 Ir3 Pd1'
_cell_volume   534.17682436
_cell_formula_units_Z   1
loop_
 _symmetry_equiv_pos_site_id
 _symmetry_equiv_pos_as_xyz
  1  'x, y, z'
loop_
 _atom_site_type_symbol
 _atom_site_label
 _atom_site_symmetry_multiplicity
 _atom_site_fract_x
 _atom_site_fract_y
 _atom_site_fract_z
 _atom_site_occupancy
  Tb  Tb0  1  0.502559  0.500383  0.000000  1
  Tb  Tb1  1  0.001519  0.000137  0.000000  1
  Tb  Tb2  1  0.722074  0.283123  0.000000  1
  Tb  Tb3  1  0.259915  0.717988  0.000000  1
  Tb  Tb4  1  0.759781  0.781034  0.000000  1
  Tb  Tb5  1  0.250918  0.216144  0.000000  1
  Tb  Tb6  1  0.611847  0.087251  0.000000  1
  Tb  Tb7  1  0.391531  0.910414  0.000000  1
  Tb  Tb8  1  0.889860  0.590285  0.000000  1
  Tb  Tb9  1  0.111285  0.414947  0.000000  1
  Hg  Hg10  1  0.711270  0.937996  0.500000  1
  Hg  Hg11  1  0.288444  0.060318  0.500000  1
  Hg  Hg12  1  0.790764  0.436666  0.500000  1
  Hg  Hg13  1  0.209937  0.561038  0.500000  1
  Hg  Hg14  1  0.580477  0.644570  0.500000  1
  Hg  Hg15  1  0.411395  0.355316  0.500000  1
  Hg  Hg16  1  0.918012  0.147026  0.500000  1
  Hg  Hg17  1  0.082020  0.855417  0.500000  1
  Ir  Ir18  1  0.524726  0.196611  0.500000  1
  Ir  Ir19  1  0.478237  0.801631  0.500000  1
  Ir  Ir20  1  0.979021  0.699653  0.500000  1
  Pd  Pd21  1  0.024407  0.302052  0.500000  1
