# generated using pymatgen
data_Nd8Lu2Ru3Pt
_symmetry_space_group_name_H-M   'P 1'
_cell_length_a   6.55079442
_cell_length_b   7.30107194
_cell_length_c   8.85589909
_cell_angle_alpha   96.55166478
_cell_angle_beta   111.84551533
_cell_angle_gamma   90.04907702
_symmetry_Int_Tables_number   1
_chemical_formula_structural   Nd8Lu2Ru3Pt
_chemical_formula_sum   'Nd8 Lu2 Ru3 Pt1'
_cell_volume   390.14428725
_cell_formula_units_Z   1
loop_
 _symmetry_equiv_pos_site_id
 _symmetry_equiv_pos_as_xyz
  1  'x, y, z'
loop_
 _atom_site_type_symbol
 _atom_site_label
 _atom_site_symmetry_multiplicity
 _atom_site_fract_x
 _atom_site_fract_y
 _atom_site_fract_z
 _atom_site_occupancy
  Nd  Nd0  1  0.522230  0.080955  0.817146  1
  Nd  Nd1  1  0.479304  0.927542  0.180956  1
  Nd  Nd2  1  0.712586  0.415084  0.181906  1
  Nd  Nd3  1  0.293793  0.582778  0.812938  1
  Nd  Nd4  1  0.292879  0.306762  0.435422  1
  Nd  Nd5  1  0.712038  0.688871  0.577028  1
  Nd  Nd6  1  0.860407  0.190365  0.570458  1
  Nd  Nd7  1  0.132096  0.813638  0.431659  1
  Lu  Lu8  1  0.066894  0.246656  0.995699  1
  Lu  Lu9  1  0.930891  0.751920  0.999068  1
  Ru  Ru10  1  0.690970  0.428947  0.790712  1
  Ru  Ru11  1  0.100183  0.927286  0.790297  1
  Ru  Ru12  1  0.905108  0.070336  0.211162  1
  Pt  Pt13  1  0.300621  0.568860  0.205547  1
