# generated using pymatgen
data_Tb2PaAs4Pd7
_symmetry_space_group_name_H-M   'P 1'
_cell_length_a   8.12913522
_cell_length_b   8.12913474
_cell_length_c   9.67133141
_cell_angle_alpha   55.09268675
_cell_angle_beta   55.09268845
_cell_angle_gamma   29.61636236
_symmetry_Int_Tables_number   1
_chemical_formula_structural   Tb2PaAs4Pd7
_chemical_formula_sum   'Tb2 Pa1 As4 Pd7'
_cell_volume   254.56950404
_cell_formula_units_Z   1
loop_
 _symmetry_equiv_pos_site_id
 _symmetry_equiv_pos_as_xyz
  1  'x, y, z'
loop_
 _atom_site_type_symbol
 _atom_site_label
 _atom_site_symmetry_multiplicity
 _atom_site_fract_x
 _atom_site_fract_y
 _atom_site_fract_z
 _atom_site_occupancy
  Tb  Tb0  1  0.678475  0.678475  0.324784  1
  Tb  Tb1  1  0.321525  0.321525  0.675216  1
  Pa  Pa2  1  0.000000  0.000000  0.000000  1
  As  As3  1  0.345678  0.345678  0.243479  1
  As  As4  1  0.654322  0.654322  0.756521  1
  As  As5  1  0.896267  0.896267  0.825253  1
  As  As6  1  0.103733  0.103733  0.174747  1
  Pd  Pd7  1  0.307396  0.307396  0.023256  1
  Pd  Pd8  1  0.692604  0.692604  0.976744  1
  Pd  Pd9  1  0.513297  0.513297  0.701309  1
  Pd  Pd10  1  0.831647  0.831647  0.431397  1
  Pd  Pd11  1  0.486703  0.486703  0.298691  1
  Pd  Pd12  1  0.168353  0.168353  0.568603  1
  Pd  Pd13  1  0.000000  0.000000  0.500000  1
