# generated using pymatgen
data_Ca2Nb3As7Pd9
_symmetry_space_group_name_H-M   'P 1'
_cell_length_a   4.02565100
_cell_length_b   10.25959037
_cell_length_c   10.25959000
_cell_angle_alpha   119.99999881
_cell_angle_beta   90.00000000
_cell_angle_gamma   90.00000000
_symmetry_Int_Tables_number   1
_chemical_formula_structural   Ca2Nb3As7Pd9
_chemical_formula_sum   'Ca2 Nb3 As7 Pd9'
_cell_volume   366.96680878
_cell_formula_units_Z   1
loop_
 _symmetry_equiv_pos_site_id
 _symmetry_equiv_pos_as_xyz
  1  'x, y, z'
loop_
 _atom_site_type_symbol
 _atom_site_label
 _atom_site_symmetry_multiplicity
 _atom_site_fract_x
 _atom_site_fract_y
 _atom_site_fract_z
 _atom_site_occupancy
  Ca  Ca0  1  0.000000  0.666667  0.333333  1
  Ca  Ca1  1  0.500000  0.333333  0.666667  1
  Nb  Nb2  1  0.500000  0.777394  0.899289  1
  Nb  Nb3  1  0.500000  0.121894  0.222606  1
  Nb  Nb4  1  0.500000  0.100711  0.878106  1
  As  As5  1  0.500000  0.708383  0.113844  1
  As  As6  1  0.500000  0.405463  0.291617  1
  As  As7  1  0.500000  0.886156  0.594537  1
  As  As8  1  0.000000  0.000000  0.000000  1
  As  As9  1  0.000000  0.591872  0.709585  1
  As  As10  1  0.000000  0.117714  0.408128  1
  As  As11  1  0.000000  0.290415  0.882286  1
  Pd  Pd12  1  0.000000  0.561356  0.932107  1
  Pd  Pd13  1  0.000000  0.370749  0.438644  1
  Pd  Pd14  1  0.000000  0.067893  0.629251  1
  Pd  Pd15  1  0.000000  0.876108  0.153762  1
  Pd  Pd16  1  0.000000  0.277655  0.123892  1
  Pd  Pd17  1  0.000000  0.846238  0.722345  1
  Pd  Pd18  1  0.500000  0.940646  0.382823  1
  Pd  Pd19  1  0.500000  0.442177  0.059354  1
  Pd  Pd20  1  0.500000  0.617177  0.557823  1
