# generated using pymatgen
data_Ba6AgSn8As
_symmetry_space_group_name_H-M   'P 1'
_cell_length_a   9.20930545
_cell_length_b   9.20930553
_cell_length_c   9.32054709
_cell_angle_alpha   119.60597567
_cell_angle_beta   119.60597259
_cell_angle_gamma   90.00000390
_symmetry_Int_Tables_number   1
_chemical_formula_structural   Ba6AgSn8As
_chemical_formula_sum   'Ba6 Ag1 Sn8 As1'
_cell_volume   565.55172105
_cell_formula_units_Z   1
loop_
 _symmetry_equiv_pos_site_id
 _symmetry_equiv_pos_as_xyz
  1  'x, y, z'
loop_
 _atom_site_type_symbol
 _atom_site_label
 _atom_site_symmetry_multiplicity
 _atom_site_fract_x
 _atom_site_fract_y
 _atom_site_fract_z
 _atom_site_occupancy
  Ba  Ba0  1  0.239465  0.239465  0.478931  1
  Ba  Ba1  1  0.760535  0.760535  0.521069  1
  Ba  Ba2  1  0.677309  0.155888  0.000000  1
  Ba  Ba3  1  0.322691  0.844112  0.000000  1
  Ba  Ba4  1  0.844112  0.677309  0.000000  1
  Ba  Ba5  1  0.155888  0.322691  0.000000  1
  Ag  Ag6  1  0.500000  0.500000  0.000000  1
  Sn  Sn7  1  0.337924  0.831279  0.387315  1
  Sn  Sn8  1  0.662076  0.168721  0.612685  1
  Sn  Sn9  1  0.049392  0.556037  0.387315  1
  Sn  Sn10  1  0.556037  0.337924  0.387315  1
  Sn  Sn11  1  0.168721  0.950608  0.612685  1
  Sn  Sn12  1  0.950608  0.443963  0.612685  1
  Sn  Sn13  1  0.443963  0.662076  0.612685  1
  Sn  Sn14  1  0.831279  0.049392  0.387315  1
  As  As15  1  0.000000  0.000000  0.000000  1
