# generated using pymatgen
data_Tb7Tm3(SiBi)4
_symmetry_space_group_name_H-M   'P 1'
_cell_length_a   8.62815824
_cell_length_b   8.68598939
_cell_length_c   7.92725912
_cell_angle_alpha   90.21419909
_cell_angle_beta   90.09534931
_cell_angle_gamma   125.68763864
_symmetry_Int_Tables_number   1
_chemical_formula_structural   Tb7Tm3(SiBi)4
_chemical_formula_sum   'Tb7 Tm3 Si4 Bi4'
_cell_volume   482.52582569
_cell_formula_units_Z   1
loop_
 _symmetry_equiv_pos_site_id
 _symmetry_equiv_pos_as_xyz
  1  'x, y, z'
loop_
 _atom_site_type_symbol
 _atom_site_label
 _atom_site_symmetry_multiplicity
 _atom_site_fract_x
 _atom_site_fract_y
 _atom_site_fract_z
 _atom_site_occupancy
  Tb  Tb0  1  0.958802  0.715121  0.663426  1
  Tb  Tb1  1  0.459517  0.215251  0.835444  1
  Tb  Tb2  1  0.789816  0.544631  0.165642  1
  Tb  Tb3  1  0.541955  0.788132  0.164768  1
  Tb  Tb4  1  0.210341  0.457485  0.834664  1
  Tb  Tb5  1  0.709118  0.956559  0.665039  1
  Tb  Tb6  1  0.289918  0.043038  0.334978  1
  Tm  Tm7  1  0.041166  0.279220  0.338795  1
  Tm  Tm8  1  0.000015  0.001183  0.000411  1
  Tm  Tm9  1  0.499565  0.498980  0.499543  1
  Si  Si10  1  0.362252  0.363914  0.136323  1
  Si  Si11  1  0.635958  0.637048  0.864557  1
  Si  Si12  1  0.135069  0.135626  0.633071  1
  Si  Si13  1  0.865375  0.865886  0.366512  1
  Bi  Bi14  1  0.795468  0.207750  0.005598  1
  Bi  Bi15  1  0.208406  0.796929  0.996807  1
  Bi  Bi16  1  0.710801  0.294064  0.500368  1
  Bi  Bi17  1  0.286459  0.699183  0.494053  1
