# generated using pymatgen
data_Yb2YLu(Ru2O7)2
_symmetry_space_group_name_H-M   'P 1'
_cell_length_a   7.20864389
_cell_length_b   7.20138835
_cell_length_c   7.20864329
_cell_angle_alpha   60.09682084
_cell_angle_beta   59.99762021
_cell_angle_gamma   60.09682528
_symmetry_Int_Tables_number   1
_chemical_formula_structural   Yb2YLu(Ru2O7)2
_chemical_formula_sum   'Yb2 Y1 Lu1 Ru4 O14'
_cell_volume   264.99308446
_cell_formula_units_Z   1
loop_
 _symmetry_equiv_pos_site_id
 _symmetry_equiv_pos_as_xyz
  1  'x, y, z'
loop_
 _atom_site_type_symbol
 _atom_site_label
 _atom_site_symmetry_multiplicity
 _atom_site_fract_x
 _atom_site_fract_y
 _atom_site_fract_z
 _atom_site_occupancy
  Yb  Yb0  1  0.625000  0.125000  0.125000  1
  Yb  Yb1  1  0.125000  0.125000  0.625000  1
  Y  Y2  1  0.125000  0.125000  0.125000  1
  Lu  Lu3  1  0.125000  0.625000  0.125000  1
  Ru  Ru4  1  0.625000  0.625000  0.625000  1
  Ru  Ru5  1  0.125000  0.625000  0.625000  1
  Ru  Ru6  1  0.625000  0.625000  0.125000  1
  Ru  Ru7  1  0.625000  0.125000  0.625000  1
  O  O8  1  0.006903  0.987704  0.006903  1
  O  O9  1  0.243097  0.262296  0.243097  1
  O  O10  1  0.295314  0.296908  0.704830  1
  O  O11  1  0.542127  0.550037  0.954445  1
  O  O12  1  0.699377  0.300836  0.699377  1
  O  O13  1  0.704830  0.296908  0.295314  1
  O  O14  1  0.295555  0.699963  0.707873  1
  O  O15  1  0.290472  0.705895  0.290472  1
  O  O16  1  0.707873  0.699963  0.295555  1
  O  O17  1  0.954445  0.550037  0.542127  1
  O  O18  1  0.545170  0.953092  0.954686  1
  O  O19  1  0.954686  0.953092  0.545170  1
  O  O20  1  0.959528  0.544105  0.959528  1
  O  O21  1  0.550623  0.949164  0.550623  1
