# generated using pymatgen
data_TmSc15(Ga3Fe)2
_symmetry_space_group_name_H-M   'P 1'
_cell_length_a   9.37398800
_cell_length_b   9.37398786
_cell_length_c   6.48002000
_cell_angle_alpha   90.00000000
_cell_angle_beta   90.00000000
_cell_angle_gamma   120.00000756
_symmetry_Int_Tables_number   1
_chemical_formula_structural   TmSc15(Ga3Fe)2
_chemical_formula_sum   'Tm1 Sc15 Ga6 Fe2'
_cell_volume   493.12352861
_cell_formula_units_Z   1
loop_
 _symmetry_equiv_pos_site_id
 _symmetry_equiv_pos_as_xyz
  1  'x, y, z'
loop_
 _atom_site_type_symbol
 _atom_site_label
 _atom_site_symmetry_multiplicity
 _atom_site_fract_x
 _atom_site_fract_y
 _atom_site_fract_z
 _atom_site_occupancy
  Tm  Tm0  1  0.000000  0.000000  0.771665  1
  Sc  Sc1  1  0.176037  0.823963  0.995918  1
  Sc  Sc2  1  0.351453  0.175727  0.491254  1
  Sc  Sc3  1  0.824273  0.648547  0.491254  1
  Sc  Sc4  1  0.176037  0.352073  0.995918  1
  Sc  Sc5  1  0.647927  0.823963  0.995918  1
  Sc  Sc6  1  0.824273  0.175727  0.491254  1
  Sc  Sc7  1  0.333333  0.666667  0.668735  1
  Sc  Sc8  1  0.666667  0.333333  0.170320  1
  Sc  Sc9  1  0.466829  0.533171  0.290125  1
  Sc  Sc10  1  0.932838  0.466419  0.789922  1
  Sc  Sc11  1  0.533581  0.067162  0.789922  1
  Sc  Sc12  1  0.466829  0.933656  0.290125  1
  Sc  Sc13  1  0.066344  0.533171  0.290125  1
  Sc  Sc14  1  0.533581  0.466419  0.789922  1
  Sc  Sc15  1  0.000000  0.000000  0.270629  1
  Ga  Ga16  1  0.165418  0.834582  0.534787  1
  Ga  Ga17  1  0.329366  0.164682  0.039611  1
  Ga  Ga18  1  0.835318  0.670634  0.039611  1
  Ga  Ga19  1  0.165418  0.330837  0.534787  1
  Ga  Ga20  1  0.669163  0.834582  0.534787  1
  Ga  Ga21  1  0.835318  0.164682  0.039611  1
  Fe  Fe22  1  0.333333  0.666667  0.058624  1
  Fe  Fe23  1  0.666667  0.333333  0.559186  1
