# generated using pymatgen
data_Ho7Er5Th4(MgRu)4
_symmetry_space_group_name_H-M   'P 1'
_cell_length_a   9.72578590
_cell_length_b   9.72558242
_cell_length_c   9.72369301
_cell_angle_alpha   60.01028176
_cell_angle_beta   60.00978616
_cell_angle_gamma   60.02268568
_symmetry_Int_Tables_number   1
_chemical_formula_structural   Ho7Er5Th4(MgRu)4
_chemical_formula_sum   'Ho7 Er5 Th4 Mg4 Ru4'
_cell_volume   650.57420563
_cell_formula_units_Z   1
loop_
 _symmetry_equiv_pos_site_id
 _symmetry_equiv_pos_as_xyz
  1  'x, y, z'
loop_
 _atom_site_type_symbol
 _atom_site_label
 _atom_site_symmetry_multiplicity
 _atom_site_fract_x
 _atom_site_fract_y
 _atom_site_fract_z
 _atom_site_occupancy
  Ho  Ho0  1  0.813713  0.813719  0.186283  1
  Ho  Ho1  1  0.935404  0.564595  0.564685  1
  Ho  Ho2  1  0.564596  0.935397  0.935318  1
  Ho  Ho3  1  0.564595  0.935400  0.564689  1
  Ho  Ho4  1  0.935399  0.564597  0.935320  1
  Ho  Ho5  1  0.564622  0.564624  0.935374  1
  Ho  Ho6  1  0.935357  0.935356  0.564645  1
  Er  Er7  1  0.813814  0.186305  0.186238  1
  Er  Er8  1  0.186312  0.813786  0.813654  1
  Er  Er9  1  0.186312  0.813810  0.186242  1
  Er  Er10  1  0.813777  0.186314  0.813664  1
  Er  Er11  1  0.186256  0.186249  0.813780  1
  Th  Th12  1  0.346268  0.346275  0.346299  1
  Th  Th13  1  0.346268  0.346264  0.961164  1
  Th  Th14  1  0.346160  0.961220  0.346305  1
  Th  Th15  1  0.961238  0.346155  0.346299  1
  Mg  Mg16  1  0.579772  0.579776  0.579848  1
  Mg  Mg17  1  0.579778  0.579782  0.260590  1
  Mg  Mg18  1  0.579795  0.260604  0.579804  1
  Mg  Mg19  1  0.260594  0.579799  0.579803  1
  Ru  Ru20  1  0.143233  0.143234  0.143255  1
  Ru  Ru21  1  0.143231  0.143245  0.570252  1
  Ru  Ru22  1  0.143358  0.570129  0.143252  1
  Ru  Ru23  1  0.570150  0.143362  0.143234  1
