# generated using pymatgen
data_Nd2Co9Mo3As7
_symmetry_space_group_name_H-M   'P 1'
_cell_length_a   3.86720700
_cell_length_b   9.41833170
_cell_length_c   9.41833200
_cell_angle_alpha   119.99999404
_cell_angle_beta   90.00000000
_cell_angle_gamma   90.00000000
_symmetry_Int_Tables_number   1
_chemical_formula_structural   Nd2Co9Mo3As7
_chemical_formula_sum   'Nd2 Co9 Mo3 As7'
_cell_volume   297.08180492
_cell_formula_units_Z   1
loop_
 _symmetry_equiv_pos_site_id
 _symmetry_equiv_pos_as_xyz
  1  'x, y, z'
loop_
 _atom_site_type_symbol
 _atom_site_label
 _atom_site_symmetry_multiplicity
 _atom_site_fract_x
 _atom_site_fract_y
 _atom_site_fract_z
 _atom_site_occupancy
  Nd  Nd0  1  0.000000  0.666667  0.333333  1
  Nd  Nd1  1  0.500000  0.333333  0.666667  1
  Co  Co2  1  0.000000  0.571778  0.941314  1
  Co  Co3  1  0.000000  0.369536  0.428222  1
  Co  Co4  1  0.000000  0.058686  0.630464  1
  Co  Co5  1  0.000000  0.875976  0.155973  1
  Co  Co6  1  0.000000  0.279997  0.124024  1
  Co  Co7  1  0.000000  0.844027  0.720003  1
  Co  Co8  1  0.500000  0.950124  0.381150  1
  Co  Co9  1  0.500000  0.431024  0.049876  1
  Co  Co10  1  0.500000  0.618850  0.568976  1
  Mo  Mo11  1  0.500000  0.783142  0.901702  1
  Mo  Mo12  1  0.500000  0.118560  0.216858  1
  Mo  Mo13  1  0.500000  0.098298  0.881440  1
  As  As14  1  0.000000  0.000000  0.000000  1
  As  As15  1  0.500000  0.706748  0.115849  1
  As  As16  1  0.500000  0.409101  0.293252  1
  As  As17  1  0.500000  0.884151  0.590899  1
  As  As18  1  0.000000  0.588606  0.698823  1
  As  As19  1  0.000000  0.110219  0.411394  1
  As  As20  1  0.000000  0.301177  0.889781  1
