# generated using pymatgen
data_Tb12Ir2PdRh
_symmetry_space_group_name_H-M   'P 1'
_cell_length_a   6.39935700
_cell_length_b   7.19170577
_cell_length_c   9.49438700
_cell_angle_alpha   90.00000000
_cell_angle_beta   90.00000000
_cell_angle_gamma   90.17869288
_symmetry_Int_Tables_number   1
_chemical_formula_structural   Tb12Ir2PdRh
_chemical_formula_sum   'Tb12 Ir2 Pd1 Rh1'
_cell_volume   436.95133207
_cell_formula_units_Z   1
loop_
 _symmetry_equiv_pos_site_id
 _symmetry_equiv_pos_as_xyz
  1  'x, y, z'
loop_
 _atom_site_type_symbol
 _atom_site_label
 _atom_site_symmetry_multiplicity
 _atom_site_fract_x
 _atom_site_fract_y
 _atom_site_fract_z
 _atom_site_occupancy
  Tb  Tb0  1  0.333470  0.674572  0.060081  1
  Tb  Tb1  1  0.173868  0.183539  0.439142  1
  Tb  Tb2  1  0.673466  0.321859  0.563262  1
  Tb  Tb3  1  0.825392  0.822223  0.934149  1
  Tb  Tb4  1  0.673466  0.321859  0.936738  1
  Tb  Tb5  1  0.825392  0.822223  0.565851  1
  Tb  Tb6  1  0.333470  0.674572  0.439919  1
  Tb  Tb7  1  0.173868  0.183539  0.060858  1
  Tb  Tb8  1  0.863513  0.523835  0.250000  1
  Tb  Tb9  1  0.625421  0.036345  0.250000  1
  Tb  Tb10  1  0.133011  0.468119  0.750000  1
  Tb  Tb11  1  0.366919  0.964994  0.750000  1
  Ir  Ir12  1  0.444088  0.384076  0.250000  1
  Ir  Ir13  1  0.550255  0.615676  0.750000  1
  Pd  Pd14  1  0.055742  0.885343  0.250000  1
  Rh  Rh15  1  0.948661  0.117228  0.750000  1
