# generated using pymatgen
data_Ta6V11As
_symmetry_space_group_name_H-M   'P 1'
_cell_length_a   8.74261900
_cell_length_b   8.74261812
_cell_length_c   8.21140100
_cell_angle_alpha   90.00000000
_cell_angle_beta   90.00000000
_cell_angle_gamma   119.99999198
_symmetry_Int_Tables_number   1
_chemical_formula_structural   Ta6V11As
_chemical_formula_sum   'Ta12 V22 As2'
_cell_volume   543.53934809
_cell_formula_units_Z   2
loop_
 _symmetry_equiv_pos_site_id
 _symmetry_equiv_pos_as_xyz
  1  'x, y, z'
loop_
 _atom_site_type_symbol
 _atom_site_label
 _atom_site_symmetry_multiplicity
 _atom_site_fract_x
 _atom_site_fract_y
 _atom_site_fract_z
 _atom_site_occupancy
  Ta  Ta0  1  0.335734  0.000000  0.061704  1
  Ta  Ta1  1  0.664266  0.000000  0.938296  1
  Ta  Ta2  1  0.000000  0.335734  0.061704  1
  Ta  Ta3  1  0.664266  0.000000  0.561704  1
  Ta  Ta4  1  0.000000  0.335734  0.438296  1
  Ta  Ta5  1  0.000000  0.664266  0.938296  1
  Ta  Ta6  1  0.335734  0.000000  0.438296  1
  Ta  Ta7  1  0.000000  0.664266  0.561704  1
  Ta  Ta8  1  0.664266  0.664266  0.061704  1
  Ta  Ta9  1  0.335734  0.335734  0.938296  1
  Ta  Ta10  1  0.335734  0.335734  0.561704  1
  Ta  Ta11  1  0.664266  0.664266  0.438296  1
  V  V12  1  0.163613  0.495490  0.750000  1
  V  V13  1  0.836387  0.504510  0.250000  1
  V  V14  1  0.504510  0.668123  0.750000  1
  V  V15  1  0.495490  0.163613  0.750000  1
  V  V16  1  0.495490  0.331877  0.250000  1
  V  V17  1  0.504510  0.836387  0.250000  1
  V  V18  1  0.331877  0.836387  0.750000  1
  V  V19  1  0.668123  0.504510  0.750000  1
  V  V20  1  0.668123  0.163613  0.250000  1
  V  V21  1  0.331877  0.495490  0.250000  1
  V  V22  1  0.836387  0.331877  0.750000  1
  V  V23  1  0.163613  0.668123  0.250000  1
  V  V24  1  0.333333  0.666667  0.500000  1
  V  V25  1  0.666667  0.333333  0.500000  1
  V  V26  1  0.666667  0.333333  0.000000  1
  V  V27  1  0.333333  0.666667  0.000000  1
  V  V28  1  0.172939  0.000000  0.750000  1
  V  V29  1  0.827061  0.000000  0.250000  1
  V  V30  1  0.000000  0.172939  0.750000  1
  V  V31  1  0.000000  0.827061  0.250000  1
  V  V32  1  0.827061  0.827061  0.750000  1
  V  V33  1  0.172939  0.172939  0.250000  1
  As  As34  1  0.000000  0.000000  0.500000  1
  As  As35  1  0.000000  0.000000  0.000000  1
