# generated using pymatgen
data_Y8GePBr12
_symmetry_space_group_name_H-M   'P 1'
_cell_length_a   4.06001400
_cell_length_b   13.19219723
_cell_length_c   13.97658825
_cell_angle_alpha   89.97839252
_cell_angle_beta   90.00000000
_cell_angle_gamma   90.00000000
_symmetry_Int_Tables_number   1
_chemical_formula_structural   Y8GePBr12
_chemical_formula_sum   'Y8 Ge1 P1 Br12'
_cell_volume   748.59307800
_cell_formula_units_Z   1
loop_
 _symmetry_equiv_pos_site_id
 _symmetry_equiv_pos_as_xyz
  1  'x, y, z'
loop_
 _atom_site_type_symbol
 _atom_site_label
 _atom_site_symmetry_multiplicity
 _atom_site_fract_x
 _atom_site_fract_y
 _atom_site_fract_z
 _atom_site_occupancy
  Y  Y0  1  0.500000  0.115725  0.344579  1
  Y  Y1  1  0.500000  0.884275  0.655421  1
  Y  Y2  1  0.500000  0.620269  0.161537  1
  Y  Y3  1  0.500000  0.379731  0.838463  1
  Y  Y4  1  0.000000  0.112910  0.574869  1
  Y  Y5  1  0.000000  0.887090  0.425131  1
  Y  Y6  1  0.000000  0.620198  0.920112  1
  Y  Y7  1  0.000000  0.379802  0.079888  1
  Ge  Ge8  1  0.500000  0.500000  0.000000  1
  P  P9  1  0.500000  0.000000  0.500000  1
  Br  Br10  1  0.500000  0.243134  0.163285  1
  Br  Br11  1  0.500000  0.756866  0.836715  1
  Br  Br12  1  0.500000  0.745061  0.338013  1
  Br  Br13  1  0.500000  0.254939  0.661987  1
  Br  Br14  1  0.000000  0.255230  0.412011  1
  Br  Br15  1  0.000000  0.744770  0.587989  1
  Br  Br16  1  0.000000  0.756911  0.088379  1
  Br  Br17  1  0.000000  0.243089  0.911621  1
  Br  Br18  1  0.000000  0.001310  0.243603  1
  Br  Br19  1  0.000000  0.998690  0.756397  1
  Br  Br20  1  0.000000  0.501212  0.258219  1
  Br  Br21  1  0.000000  0.498788  0.741781  1
