# generated using pymatgen
data_TbEr4Lu5Pb6
_symmetry_space_group_name_H-M   'P 1'
_cell_length_a   8.95792819
_cell_length_b   8.94161956
_cell_length_c   6.52250800
_cell_angle_alpha   90.00000000
_cell_angle_beta   90.00000000
_cell_angle_gamma   119.95299859
_symmetry_Int_Tables_number   1
_chemical_formula_structural   TbEr4Lu5Pb6
_chemical_formula_sum   'Tb1 Er4 Lu5 Pb6'
_cell_volume   452.66249350
_cell_formula_units_Z   1
loop_
 _symmetry_equiv_pos_site_id
 _symmetry_equiv_pos_as_xyz
  1  'x, y, z'
loop_
 _atom_site_type_symbol
 _atom_site_label
 _atom_site_symmetry_multiplicity
 _atom_site_fract_x
 _atom_site_fract_y
 _atom_site_fract_z
 _atom_site_occupancy
  Tb  Tb0  1  0.999662  0.763810  0.250000  1
  Er  Er1  1  0.762824  0.763924  0.750000  1
  Er  Er2  1  0.237349  0.000995  0.750000  1
  Er  Er3  1  0.000059  0.235081  0.750000  1
  Er  Er4  1  0.236512  0.236297  0.250000  1
  Lu  Lu5  1  0.667369  0.333652  0.999967  1
  Lu  Lu6  1  0.332687  0.666596  0.999977  1
  Lu  Lu7  1  0.332687  0.666596  0.500023  1
  Lu  Lu8  1  0.667369  0.333652  0.500033  1
  Lu  Lu9  1  0.763403  0.999421  0.250000  1
  Pb  Pb10  1  0.395752  0.395911  0.750000  1
  Pb  Pb11  1  0.603835  0.000070  0.750000  1
  Pb  Pb12  1  0.999994  0.604546  0.750000  1
  Pb  Pb13  1  0.602922  0.604750  0.250000  1
  Pb  Pb14  1  0.398249  0.000995  0.250000  1
  Pb  Pb15  1  0.999325  0.393705  0.250000  1
