# generated using pymatgen
data_Lu4Co4ReOs3
_symmetry_space_group_name_H-M   'P 1'
_cell_length_a   5.17790355
_cell_length_b   5.04475990
_cell_length_c   8.57606600
_cell_angle_alpha   90.00000000
_cell_angle_beta   90.00000000
_cell_angle_gamma   120.24050145
_symmetry_Int_Tables_number   1
_chemical_formula_structural   Lu4Co4ReOs3
_chemical_formula_sum   'Lu4 Co4 Re1 Os3'
_cell_volume   193.53325546
_cell_formula_units_Z   1
loop_
 _symmetry_equiv_pos_site_id
 _symmetry_equiv_pos_as_xyz
  1  'x, y, z'
loop_
 _atom_site_type_symbol
 _atom_site_label
 _atom_site_symmetry_multiplicity
 _atom_site_fract_x
 _atom_site_fract_y
 _atom_site_fract_z
 _atom_site_occupancy
  Lu  Lu0  1  0.333435  0.673105  0.433756  1
  Lu  Lu1  1  0.668266  0.340723  0.562844  1
  Lu  Lu2  1  0.668266  0.340723  0.937156  1
  Lu  Lu3  1  0.333435  0.673105  0.066244  1
  Co  Co4  1  0.164511  0.812299  0.750000  1
  Co  Co5  1  0.342822  0.164955  0.250000  1
  Co  Co6  1  0.831569  0.650763  0.250000  1
  Co  Co7  1  0.650180  0.815157  0.750000  1
  Re  Re8  1  0.165072  0.330244  0.750000  1
  Os  Os9  1  0.004391  0.016140  0.999845  1
  Os  Os10  1  0.833661  0.166650  0.250000  1
  Os  Os11  1  0.004391  0.016140  0.500155  1
