# generated using pymatgen
data_NdHoTeAs
_symmetry_space_group_name_H-M   'P 1'
_cell_length_a   7.49025938
_cell_length_b   7.49026024
_cell_length_c   7.49025900
_cell_angle_alpha   32.80787312
_cell_angle_beta   32.80786292
_cell_angle_gamma   32.80786768
_symmetry_Int_Tables_number   1
_chemical_formula_structural   NdHoTeAs
_chemical_formula_sum   'Nd1 Ho1 Te1 As1'
_cell_volume   109.75382090
_cell_formula_units_Z   1
loop_
 _symmetry_equiv_pos_site_id
 _symmetry_equiv_pos_as_xyz
  1  'x, y, z'
loop_
 _atom_site_type_symbol
 _atom_site_label
 _atom_site_symmetry_multiplicity
 _atom_site_fract_x
 _atom_site_fract_y
 _atom_site_fract_z
 _atom_site_occupancy
  Nd  Nd0  1  0.259689  0.259689  0.259689  1
  Ho  Ho1  1  0.740075  0.740075  0.740075  1
  Te  Te2  1  0.496132  0.496132  0.496132  1
  As  As3  1  0.004105  0.004105  0.004105  1
