# generated using pymatgen
data_NdLu4(In2Pt)2
_symmetry_space_group_name_H-M   'P 1'
_cell_length_a   3.59901100
_cell_length_b   8.09584000
_cell_length_c   18.16859300
_cell_angle_alpha   90.00000000
_cell_angle_beta   90.00000000
_cell_angle_gamma   90.00000000
_symmetry_Int_Tables_number   1
_chemical_formula_structural   NdLu4(In2Pt)2
_chemical_formula_sum   'Nd2 Lu8 In8 Pt4'
_cell_volume   529.37860700
_cell_formula_units_Z   2
loop_
 _symmetry_equiv_pos_site_id
 _symmetry_equiv_pos_as_xyz
  1  'x, y, z'
loop_
 _atom_site_type_symbol
 _atom_site_label
 _atom_site_symmetry_multiplicity
 _atom_site_fract_x
 _atom_site_fract_y
 _atom_site_fract_z
 _atom_site_occupancy
  Nd  Nd0  1  0.000000  0.000000  0.000000  1
  Nd  Nd1  1  0.000000  0.500000  0.500000  1
  Lu  Lu2  1  0.000000  0.117932  0.413448  1
  Lu  Lu3  1  0.000000  0.882068  0.586552  1
  Lu  Lu4  1  0.000000  0.382068  0.913448  1
  Lu  Lu5  1  0.000000  0.617932  0.086552  1
  Lu  Lu6  1  0.000000  0.243295  0.220214  1
  Lu  Lu7  1  0.000000  0.756705  0.779786  1
  Lu  Lu8  1  0.000000  0.256705  0.720214  1
  Lu  Lu9  1  0.000000  0.743295  0.279786  1
  In  In10  1  0.500000  0.422116  0.348533  1
  In  In11  1  0.500000  0.577884  0.651467  1
  In  In12  1  0.500000  0.077884  0.848533  1
  In  In13  1  0.500000  0.922116  0.151467  1
  In  In14  1  0.500000  0.298909  0.067850  1
  In  In15  1  0.500000  0.701091  0.932150  1
  In  In16  1  0.500000  0.201091  0.567850  1
  In  In17  1  0.500000  0.798909  0.432150  1
  Pt  Pt18  1  0.500000  0.025658  0.303854  1
  Pt  Pt19  1  0.500000  0.974342  0.696146  1
  Pt  Pt20  1  0.500000  0.474342  0.803854  1
  Pt  Pt21  1  0.500000  0.525658  0.196146  1
