# generated using pymatgen
data_LiNdEu(H6Ir)2
_symmetry_space_group_name_H-M   'P 1'
_cell_length_a   4.91947800
_cell_length_b   4.91947757
_cell_length_c   8.27965800
_cell_angle_alpha   90.00000000
_cell_angle_beta   90.00000000
_cell_angle_gamma   119.99998946
_symmetry_Int_Tables_number   1
_chemical_formula_structural   LiNdEu(H6Ir)2
_chemical_formula_sum   'Li1 Nd1 Eu1 H12 Ir2'
_cell_volume   173.53260383
_cell_formula_units_Z   1
loop_
 _symmetry_equiv_pos_site_id
 _symmetry_equiv_pos_as_xyz
  1  'x, y, z'
loop_
 _atom_site_type_symbol
 _atom_site_label
 _atom_site_symmetry_multiplicity
 _atom_site_fract_x
 _atom_site_fract_y
 _atom_site_fract_z
 _atom_site_occupancy
  Li  Li0  1  0.666667  0.333333  0.330293  1
  Nd  Nd1  1  0.333333  0.666667  0.619486  1
  Eu  Eu2  1  0.000000  0.000000  0.045298  1
  H  H3  1  0.167691  0.832309  0.367871  1
  H  H4  1  0.664618  0.832309  0.367871  1
  H  H5  1  0.167691  0.335382  0.367871  1
  H  H6  1  0.829440  0.170560  0.626840  1
  H  H7  1  0.341122  0.170560  0.626840  1
  H  H8  1  0.829440  0.658878  0.626840  1
  H  H9  1  0.509999  0.019999  0.865069  1
  H  H10  1  0.509999  0.490001  0.865069  1
  H  H11  1  0.980001  0.490001  0.865069  1
  H  H12  1  0.494513  0.989026  0.141273  1
  H  H13  1  0.494513  0.505487  0.141273  1
  H  H14  1  0.010974  0.505487  0.141273  1
  Ir  Ir15  1  0.666667  0.333333  0.742684  1
  Ir  Ir16  1  0.333333  0.666667  0.259077  1
