# generated using pymatgen
data_Li6Gd2PaN6
_symmetry_space_group_name_H-M   'P 1'
_cell_length_a   6.13356600
_cell_length_b   6.13356652
_cell_length_c   5.47607000
_cell_angle_alpha   90.00000000
_cell_angle_beta   90.00000000
_cell_angle_gamma   120.00000796
_symmetry_Int_Tables_number   1
_chemical_formula_structural   Li6Gd2PaN6
_chemical_formula_sum   'Li6 Gd2 Pa1 N6'
_cell_volume   178.41267744
_cell_formula_units_Z   1
loop_
 _symmetry_equiv_pos_site_id
 _symmetry_equiv_pos_as_xyz
  1  'x, y, z'
loop_
 _atom_site_type_symbol
 _atom_site_label
 _atom_site_symmetry_multiplicity
 _atom_site_fract_x
 _atom_site_fract_y
 _atom_site_fract_z
 _atom_site_occupancy
  Li  Li0  1  0.985168  0.655763  0.604500  1
  Li  Li1  1  0.344237  0.329406  0.604500  1
  Li  Li2  1  0.670594  0.014832  0.604500  1
  Li  Li3  1  0.011995  0.338023  0.394111  1
  Li  Li4  1  0.661977  0.673973  0.394111  1
  Li  Li5  1  0.326027  0.988005  0.394111  1
  Gd  Gd6  1  0.000000  0.000000  0.997836  1
  Gd  Gd7  1  0.333333  0.666667  0.992233  1
  Pa  Pa8  1  0.666667  0.333333  0.007427  1
  N  N9  1  0.986578  0.653047  0.229562  1
  N  N10  1  0.346953  0.333531  0.229562  1
  N  N11  1  0.666469  0.013422  0.229562  1
  N  N12  1  0.983047  0.333623  0.772662  1
  N  N13  1  0.666377  0.649424  0.772662  1
  N  N14  1  0.350576  0.016953  0.772662  1
