# generated using pymatgen
data_Lu4Zn2As4Rh7
_symmetry_space_group_name_H-M   'P 1'
_cell_length_a   7.21991968
_cell_length_b   7.20854571
_cell_length_c   7.20854500
_cell_angle_alpha   109.72106039
_cell_angle_beta   109.31476259
_cell_angle_gamma   109.31475874
_symmetry_Int_Tables_number   1
_chemical_formula_structural   Lu4Zn2As4Rh7
_chemical_formula_sum   'Lu4 Zn2 As4 Rh7'
_cell_volume   289.02666698
_cell_formula_units_Z   1
loop_
 _symmetry_equiv_pos_site_id
 _symmetry_equiv_pos_as_xyz
  1  'x, y, z'
loop_
 _atom_site_type_symbol
 _atom_site_label
 _atom_site_symmetry_multiplicity
 _atom_site_fract_x
 _atom_site_fract_y
 _atom_site_fract_z
 _atom_site_occupancy
  Lu  Lu0  1  0.483542  0.487179  0.487179  1
  Lu  Lu1  1  0.991875  0.495937  0.995937  1
  Lu  Lu2  1  0.483542  0.996365  0.996365  1
  Lu  Lu3  1  0.991875  0.995937  0.495937  1
  Zn  Zn4  1  0.692831  0.992689  0.700142  1
  Zn  Zn5  1  0.692831  0.700142  0.992689  1
  As  As6  1  0.327930  0.332577  0.995353  1
  As  As7  1  0.988267  0.682628  0.682628  1
  As  As8  1  0.988267  0.305639  0.305639  1
  As  As9  1  0.327930  0.995353  0.332577  1
  Rh  Rh10  1  0.501574  0.750787  0.250787  1
  Rh  Rh11  1  0.749541  0.247486  0.502055  1
  Rh  Rh12  1  0.244867  0.743785  0.501081  1
  Rh  Rh13  1  0.244867  0.501081  0.743785  1
  Rh  Rh14  1  0.039149  0.019575  0.019575  1
  Rh  Rh15  1  0.501574  0.250787  0.750787  1
  Rh  Rh16  1  0.749541  0.502055  0.247486  1
