# generated using pymatgen
data_Sr4Ho3Er(BO4)4
_symmetry_space_group_name_H-M   'P 1'
_cell_length_a   3.65303200
_cell_length_b   9.72285726
_cell_length_c   10.96564130
_cell_angle_alpha   89.97333800
_cell_angle_beta   90.00000000
_cell_angle_gamma   90.00000000
_symmetry_Int_Tables_number   1
_chemical_formula_structural   Sr4Ho3Er(BO4)4
_chemical_formula_sum   'Sr4 Ho3 Er1 B4 O16'
_cell_volume   389.47660440
_cell_formula_units_Z   1
loop_
 _symmetry_equiv_pos_site_id
 _symmetry_equiv_pos_as_xyz
  1  'x, y, z'
loop_
 _atom_site_type_symbol
 _atom_site_label
 _atom_site_symmetry_multiplicity
 _atom_site_fract_x
 _atom_site_fract_y
 _atom_site_fract_z
 _atom_site_occupancy
  Sr  Sr0  1  0.250000  0.657438  0.084412  1
  Sr  Sr1  1  0.750000  0.342549  0.914986  1
  Sr  Sr2  1  0.750000  0.157884  0.416022  1
  Sr  Sr3  1  0.250000  0.842337  0.584557  1
  Ho  Ho4  1  0.250000  0.080305  0.109811  1
  Ho  Ho5  1  0.750000  0.919742  0.890160  1
  Ho  Ho6  1  0.750000  0.579994  0.390579  1
  Er  Er7  1  0.250000  0.420035  0.609819  1
  B  B8  1  0.250000  0.362729  0.204404  1
  B  B9  1  0.750000  0.637004  0.795340  1
  B  B10  1  0.750000  0.862715  0.295548  1
  B  B11  1  0.250000  0.137586  0.704221  1
  O  O12  1  0.250000  0.487999  0.265490  1
  O  O13  1  0.750000  0.511733  0.734160  1
  O  O14  1  0.750000  0.988063  0.234602  1
  O  O15  1  0.250000  0.012381  0.765448  1
  O  O16  1  0.250000  0.238364  0.268044  1
  O  O17  1  0.750000  0.761527  0.731949  1
  O  O18  1  0.750000  0.738290  0.232067  1
  O  O19  1  0.250000  0.262309  0.767339  1
  O  O20  1  0.250000  0.360028  0.076731  1
  O  O21  1  0.750000  0.639743  0.922967  1
  O  O22  1  0.750000  0.859834  0.423251  1
  O  O23  1  0.250000  0.139970  0.576648  1
  O  O24  1  0.250000  0.612774  0.500774  1
  O  O25  1  0.750000  0.386605  0.500742  1
  O  O26  1  0.750000  0.113516  0.999657  1
  O  O27  1  0.250000  0.886543  0.000273  1
