# generated using pymatgen
data_Dy2PtPbAu
_symmetry_space_group_name_H-M   'P 1'
_cell_length_a   8.16599100
_cell_length_b   8.12329000
_cell_length_c   3.57511200
_cell_angle_alpha   90.00000000
_cell_angle_beta   90.00000000
_cell_angle_gamma   90.00000000
_symmetry_Int_Tables_number   1
_chemical_formula_structural   Dy2PtPbAu
_chemical_formula_sum   'Dy4 Pt2 Pb2 Au2'
_cell_volume   237.15402857
_cell_formula_units_Z   2
loop_
 _symmetry_equiv_pos_site_id
 _symmetry_equiv_pos_as_xyz
  1  'x, y, z'
loop_
 _atom_site_type_symbol
 _atom_site_label
 _atom_site_symmetry_multiplicity
 _atom_site_fract_x
 _atom_site_fract_y
 _atom_site_fract_z
 _atom_site_occupancy
  Dy  Dy0  1  0.680190  0.165540  0.500000  1
  Dy  Dy1  1  0.149743  0.330023  0.500000  1
  Dy  Dy2  1  0.819810  0.665540  0.500000  1
  Dy  Dy3  1  0.350257  0.830023  0.500000  1
  Pt  Pt4  1  0.627020  0.877036  0.000000  1
  Pt  Pt5  1  0.872980  0.377036  0.000000  1
  Pb  Pb6  1  0.997801  0.997469  0.000000  1
  Pb  Pb7  1  0.502199  0.497469  0.000000  1
  Au  Au8  1  0.374062  0.129933  0.000000  1
  Au  Au9  1  0.125938  0.629933  0.000000  1
