# generated using pymatgen
data_Tb12InTc2Ni2Ag
_symmetry_space_group_name_H-M   'P 1'
_cell_length_a   8.46474959
_cell_length_b   8.46475065
_cell_length_c   8.46475048
_cell_angle_alpha   104.06855472
_cell_angle_beta   111.02679155
_cell_angle_gamma   113.46025677
_symmetry_Int_Tables_number   1
_chemical_formula_structural   Tb12InTc2Ni2Ag
_chemical_formula_sum   'Tb12 In1 Tc2 Ni2 Ag1'
_cell_volume   463.59041233
_cell_formula_units_Z   1
loop_
 _symmetry_equiv_pos_site_id
 _symmetry_equiv_pos_as_xyz
  1  'x, y, z'
loop_
 _atom_site_type_symbol
 _atom_site_label
 _atom_site_symmetry_multiplicity
 _atom_site_fract_x
 _atom_site_fract_y
 _atom_site_fract_z
 _atom_site_occupancy
  Tb  Tb0  1  0.694258  0.261388  0.955646  1
  Tb  Tb1  1  0.305742  0.738612  0.044354  1
  Tb  Tb2  1  0.694258  0.738612  0.432871  1
  Tb  Tb3  1  0.305742  0.261388  0.567129  1
  Tb  Tb4  1  0.817233  0.148599  0.331366  1
  Tb  Tb5  1  0.817233  0.485867  0.668634  1
  Tb  Tb6  1  0.182767  0.851401  0.668634  1
  Tb  Tb7  1  0.182767  0.514133  0.331366  1
  Tb  Tb8  1  0.599906  0.783159  0.816746  1
  Tb  Tb9  1  0.966414  0.783159  0.183254  1
  Tb  Tb10  1  0.033586  0.216841  0.816746  1
  Tb  Tb11  1  0.400094  0.216841  0.183254  1
  In  In12  1  0.500000  0.000000  0.500000  1
  Tc  Tc13  1  0.821997  0.500000  0.321997  1
  Tc  Tc14  1  0.178003  0.500000  0.678003  1
  Ni  Ni15  1  0.000000  0.115396  0.115396  1
  Ni  Ni16  1  0.000000  0.884604  0.884604  1
  Ag  Ag17  1  0.500000  0.500000  0.000000  1
