# generated using pymatgen
data_Lu5GaTe4
_symmetry_space_group_name_H-M   'P 1'
_cell_length_a   7.36651540
_cell_length_b   7.36651509
_cell_length_c   10.43478879
_cell_angle_alpha   62.19896853
_cell_angle_beta   62.19895940
_cell_angle_gamma   33.66918850
_symmetry_Int_Tables_number   1
_chemical_formula_structural   Lu5GaTe4
_chemical_formula_sum   'Lu5 Ga1 Te4'
_cell_volume   274.13450205
_cell_formula_units_Z   1
loop_
 _symmetry_equiv_pos_site_id
 _symmetry_equiv_pos_as_xyz
  1  'x, y, z'
loop_
 _atom_site_type_symbol
 _atom_site_label
 _atom_site_symmetry_multiplicity
 _atom_site_fract_x
 _atom_site_fract_y
 _atom_site_fract_z
 _atom_site_occupancy
  Lu  Lu0  1  0.000000  0.000000  0.500000  1
  Lu  Lu1  1  0.584089  0.584089  0.088863  1
  Lu  Lu2  1  0.184146  0.184146  0.730243  1
  Lu  Lu3  1  0.815854  0.815854  0.269757  1
  Lu  Lu4  1  0.415911  0.415911  0.911137  1
  Ga  Ga5  1  0.000000  0.000000  0.000000  1
  Te  Te6  1  0.609290  0.609290  0.587498  1
  Te  Te7  1  0.193659  0.193659  0.196203  1
  Te  Te8  1  0.806341  0.806341  0.803797  1
  Te  Te9  1  0.390710  0.390710  0.412502  1
