# generated using pymatgen
data_Ce3Tm(BRu)16
_symmetry_space_group_name_H-M   'P 1'
_cell_length_a   9.25127406
_cell_length_b   7.49739172
_cell_length_c   7.49739211
_cell_angle_alpha   89.74817176
_cell_angle_beta   114.01586517
_cell_angle_gamma   114.01586096
_symmetry_Int_Tables_number   1
_chemical_formula_structural   Ce3Tm(BRu)16
_chemical_formula_sum   'Ce3 Tm1 B16 Ru16'
_cell_volume   425.70607167
_cell_formula_units_Z   1
loop_
 _symmetry_equiv_pos_site_id
 _symmetry_equiv_pos_as_xyz
  1  'x, y, z'
loop_
 _atom_site_type_symbol
 _atom_site_label
 _atom_site_symmetry_multiplicity
 _atom_site_fract_x
 _atom_site_fract_y
 _atom_site_fract_z
 _atom_site_occupancy
  Ce  Ce0  1  0.750000  0.874999  0.124999  1
  Ce  Ce1  1  0.250000  0.625000  0.375001  1
  Ce  Ce2  1  0.750000  0.375000  0.625000  1
  Tm  Tm3  1  0.250000  0.125000  0.875000  1
  B  B4  1  0.914127  0.288803  0.065978  1
  B  B5  1  0.414808  0.566520  0.125089  1
  B  B6  1  0.085192  0.210280  0.151712  1
  B  B7  1  0.583495  0.149797  0.208737  1
  B  B8  1  0.412876  0.065233  0.287245  1
  B  B9  1  0.914127  0.625325  0.348150  1
  B  B10  1  0.585873  0.651851  0.374675  1
  B  B11  1  0.085192  0.874912  0.433479  1
  B  B12  1  0.916505  0.125242  0.566303  1
  B  B13  1  0.412876  0.347642  0.625630  1
  B  B14  1  0.087124  0.374370  0.652359  1
  B  B15  1  0.585873  0.934023  0.711198  1
  B  B16  1  0.414808  0.848288  0.789719  1
  B  B17  1  0.916505  0.791263  0.850202  1
  B  B18  1  0.583495  0.433697  0.874758  1
  B  B19  1  0.087124  0.712754  0.934766  1
  Ru  Ru20  1  0.872385  0.550900  0.036201  1
  Ru  Ru21  1  0.372071  0.834599  0.050046  1
  Ru  Ru22  1  0.127928  0.949953  0.165402  1
  Ru  Ru23  1  0.626717  0.462057  0.177771  1
  Ru  Ru24  1  0.373092  0.336397  0.321560  1
  Ru  Ru25  1  0.872385  0.321486  0.336183  1
  Ru  Ru26  1  0.627616  0.963799  0.449101  1
  Ru  Ru27  1  0.127928  0.177975  0.462527  1
  Ru  Ru28  1  0.873284  0.822230  0.537944  1
  Ru  Ru29  1  0.373092  0.036695  0.551532  1
  Ru  Ru30  1  0.126907  0.678439  0.663603  1
  Ru  Ru31  1  0.627616  0.663816  0.678513  1
  Ru  Ru32  1  0.372071  0.537473  0.822026  1
  Ru  Ru33  1  0.873284  0.051054  0.835341  1
  Ru  Ru34  1  0.626717  0.164660  0.948946  1
  Ru  Ru35  1  0.126907  0.448468  0.963304  1
