# generated using pymatgen
data_YMgPaNi2
_symmetry_space_group_name_H-M   'P 1'
_cell_length_a   7.52917400
_cell_length_b   7.45123500
_cell_length_c   3.51574000
_cell_angle_alpha   90.00000000
_cell_angle_beta   90.00000000
_cell_angle_gamma   90.00000000
_symmetry_Int_Tables_number   1
_chemical_formula_structural   YMgPaNi2
_chemical_formula_sum   'Y2 Mg2 Pa2 Ni4'
_cell_volume   197.23879679
_cell_formula_units_Z   2
loop_
 _symmetry_equiv_pos_site_id
 _symmetry_equiv_pos_as_xyz
  1  'x, y, z'
loop_
 _atom_site_type_symbol
 _atom_site_label
 _atom_site_symmetry_multiplicity
 _atom_site_fract_x
 _atom_site_fract_y
 _atom_site_fract_z
 _atom_site_occupancy
  Y  Y0  1  0.328179  0.170423  0.500000  1
  Y  Y1  1  0.828179  0.329577  0.500000  1
  Mg  Mg2  1  0.502585  0.495591  0.000000  1
  Mg  Mg3  1  0.002585  0.004409  0.000000  1
  Pa  Pa4  1  0.169451  0.667320  0.500000  1
  Pa  Pa5  1  0.669451  0.832680  0.500000  1
  Ni  Ni6  1  0.872879  0.652341  0.000000  1
  Ni  Ni7  1  0.372879  0.847659  0.000000  1
  Ni  Ni8  1  0.626906  0.096365  0.000000  1
  Ni  Ni9  1  0.126906  0.403635  0.000000  1
