# generated using pymatgen
data_TmMg(TaS2)8
_symmetry_space_group_name_H-M   'P 1'
_cell_length_a   6.70711200
_cell_length_b   6.70710757
_cell_length_c   13.35194000
_cell_angle_alpha   90.00006834
_cell_angle_beta   89.99989749
_cell_angle_gamma   119.99999223
_symmetry_Int_Tables_number   1
_chemical_formula_structural   TmMg(TaS2)8
_chemical_formula_sum   'Tm1 Mg1 Ta8 S16'
_cell_volume   520.17067910
_cell_formula_units_Z   1
loop_
 _symmetry_equiv_pos_site_id
 _symmetry_equiv_pos_as_xyz
  1  'x, y, z'
loop_
 _atom_site_type_symbol
 _atom_site_label
 _atom_site_symmetry_multiplicity
 _atom_site_fract_x
 _atom_site_fract_y
 _atom_site_fract_z
 _atom_site_occupancy
  Tm  Tm0  1  0.000000  0.000000  0.500000  1
  Mg  Mg1  1  0.000000  0.000000  0.000000  1
  Ta  Ta2  1  0.504726  0.495275  0.758232  1
  Ta  Ta3  1  0.009451  0.504726  0.241767  1
  Ta  Ta4  1  0.495273  0.990548  0.241767  1
  Ta  Ta5  1  0.504727  0.009452  0.758233  1
  Ta  Ta6  1  0.990549  0.495274  0.758233  1
  Ta  Ta7  1  0.495274  0.504725  0.241768  1
  Ta  Ta8  1  0.000000  0.000001  0.756483  1
  Ta  Ta9  1  0.000000  0.999999  0.243517  1
  S  S10  1  0.831701  0.168297  0.359789  1
  S  S11  1  0.831701  0.663403  0.359790  1
  S  S12  1  0.336595  0.168297  0.359790  1
  S  S13  1  0.665211  0.832606  0.873962  1
  S  S14  1  0.168299  0.336597  0.640210  1
  S  S15  1  0.167393  0.832607  0.873961  1
  S  S16  1  0.167394  0.334789  0.873962  1
  S  S17  1  0.832607  0.167393  0.126039  1
  S  S18  1  0.334789  0.167394  0.126038  1
  S  S19  1  0.663405  0.831703  0.640210  1
  S  S20  1  0.333334  0.666665  0.123539  1
  S  S21  1  0.666667  0.333334  0.639291  1
  S  S22  1  0.666666  0.333335  0.876461  1
  S  S23  1  0.333333  0.666666  0.360709  1
  S  S24  1  0.832606  0.665211  0.126038  1
  S  S25  1  0.168299  0.831703  0.640211  1
