# generated using pymatgen
data_Sc10In8Ru2PtRh
_symmetry_space_group_name_H-M   'P 1'
_cell_length_a   3.37220000
_cell_length_b   7.70325935
_cell_length_c   17.74613882
_cell_angle_alpha   89.87145228
_cell_angle_beta   90.00000000
_cell_angle_gamma   90.00000000
_symmetry_Int_Tables_number   1
_chemical_formula_structural   Sc10In8Ru2PtRh
_chemical_formula_sum   'Sc10 In8 Ru2 Pt1 Rh1'
_cell_volume   460.98906647
_cell_formula_units_Z   1
loop_
 _symmetry_equiv_pos_site_id
 _symmetry_equiv_pos_as_xyz
  1  'x, y, z'
loop_
 _atom_site_type_symbol
 _atom_site_label
 _atom_site_symmetry_multiplicity
 _atom_site_fract_x
 _atom_site_fract_y
 _atom_site_fract_z
 _atom_site_occupancy
  Sc  Sc0  1  0.000000  0.999937  0.000005  1
  Sc  Sc1  1  0.000000  0.499562  0.500098  1
  Sc  Sc2  1  0.000000  0.755799  0.777967  1
  Sc  Sc3  1  0.000000  0.249974  0.221161  1
  Sc  Sc4  1  0.000000  0.232386  0.721046  1
  Sc  Sc5  1  0.000000  0.762541  0.278977  1
  Sc  Sc6  1  0.000000  0.876156  0.586470  1
  Sc  Sc7  1  0.000000  0.124046  0.411668  1
  Sc  Sc8  1  0.000000  0.374274  0.916373  1
  Sc  Sc9  1  0.000000  0.623601  0.087044  1
  In  In10  1  0.500000  0.794757  0.431932  1
  In  In11  1  0.500000  0.205153  0.567617  1
  In  In12  1  0.500000  0.297245  0.065961  1
  In  In13  1  0.500000  0.703762  0.935621  1
  In  In14  1  0.500000  0.933559  0.148988  1
  In  In15  1  0.500000  0.064354  0.851988  1
  In  In16  1  0.500000  0.433676  0.350068  1
  In  In17  1  0.500000  0.568788  0.648529  1
  Ru  Ru18  1  0.500000  0.962398  0.694671  1
  Ru  Ru19  1  0.500000  0.037276  0.304631  1
  Pt  Pt20  1  0.500000  0.462384  0.805057  1
  Rh  Rh21  1  0.500000  0.538372  0.194128  1
