# generated using pymatgen
data_Pr5DyTl3In3O18
_symmetry_space_group_name_H-M   'P 1'
_cell_length_a   6.65316494
_cell_length_b   6.64927310
_cell_length_c   12.54580001
_cell_angle_alpha   89.91816397
_cell_angle_beta   89.89550074
_cell_angle_gamma   119.98957823
_symmetry_Int_Tables_number   1
_chemical_formula_structural   Pr5DyTl3In3O18
_chemical_formula_sum   'Pr5 Dy1 Tl3 In3 O18'
_cell_volume   480.70068869
_cell_formula_units_Z   1
loop_
 _symmetry_equiv_pos_site_id
 _symmetry_equiv_pos_as_xyz
  1  'x, y, z'
loop_
 _atom_site_type_symbol
 _atom_site_label
 _atom_site_symmetry_multiplicity
 _atom_site_fract_x
 _atom_site_fract_y
 _atom_site_fract_z
 _atom_site_occupancy
  Pr  Pr0  1  0.340389  0.674900  0.230144  1
  Pr  Pr1  1  0.996402  0.996913  0.264127  1
  Pr  Pr2  1  0.997307  0.995482  0.769952  1
  Pr  Pr3  1  0.340824  0.673025  0.729789  1
  Pr  Pr4  1  0.663714  0.329360  0.730882  1
  Dy  Dy5  1  0.661328  0.330329  0.227583  1
  Tl  Tl6  1  0.997833  0.663891  0.493727  1
  Tl  Tl7  1  0.998538  0.334919  0.997468  1
  Tl  Tl8  1  0.335464  0.333359  0.493614  1
  In  In9  1  0.665655  0.663681  0.998209  1
  In  In10  1  0.335615  0.001610  0.998067  1
  In  In11  1  0.667224  0.002926  0.494204  1
  O  O12  1  0.001189  0.692198  0.667134  1
  O  O13  1  0.987099  0.629445  0.322489  1
  O  O14  1  0.000430  0.357547  0.828436  1
  O  O15  1  0.988324  0.311618  0.167703  1
  O  O16  1  0.350126  0.683369  0.026026  1
  O  O17  1  0.985135  0.999869  0.461709  1
  O  O18  1  0.347653  0.681066  0.521112  1
  O  O19  1  0.999916  0.982894  0.971057  1
  O  O20  1  0.307051  0.309004  0.667002  1
  O  O21  1  0.369883  0.356866  0.322382  1
  O  O22  1  0.318941  0.010790  0.167860  1
  O  O23  1  0.639605  0.640009  0.829909  1
  O  O24  1  0.691746  0.680287  0.167910  1
  O  O25  1  0.359978  0.999984  0.829744  1
  O  O26  1  0.666345  0.319632  0.527760  1
  O  O27  1  0.651284  0.332884  0.025734  1
  O  O28  1  0.640179  0.013036  0.324217  1
  O  O29  1  0.694823  0.999106  0.666624  1
