# generated using pymatgen
data_Sr3(TaS4)2
_symmetry_space_group_name_H-M   'P 1'
_cell_length_a   10.90666965
_cell_length_b   10.90666979
_cell_length_c   10.90667011
_cell_angle_alpha   51.49992170
_cell_angle_beta   51.49992067
_cell_angle_gamma   51.49992012
_symmetry_Int_Tables_number   1
_chemical_formula_structural   Sr3(TaS4)2
_chemical_formula_sum   'Sr6 Ta4 S16'
_cell_volume   733.81500329
_cell_formula_units_Z   2
loop_
 _symmetry_equiv_pos_site_id
 _symmetry_equiv_pos_as_xyz
  1  'x, y, z'
loop_
 _atom_site_type_symbol
 _atom_site_label
 _atom_site_symmetry_multiplicity
 _atom_site_fract_x
 _atom_site_fract_y
 _atom_site_fract_z
 _atom_site_occupancy
  Sr  Sr0  1  0.750000  0.429214  0.070785  1
  Sr  Sr1  1  0.570785  0.929214  0.250000  1
  Sr  Sr2  1  0.070785  0.750000  0.429215  1
  Sr  Sr3  1  0.929215  0.250000  0.570785  1
  Sr  Sr4  1  0.429215  0.070786  0.749999  1
  Sr  Sr5  1  0.250000  0.570785  0.929215  1
  Ta  Ta6  1  0.160023  0.160023  0.160023  1
  Ta  Ta7  1  0.339977  0.339977  0.339977  1
  Ta  Ta8  1  0.660022  0.660022  0.660022  1
  Ta  Ta9  1  0.839978  0.839978  0.839978  1
  S  S10  1  0.604566  0.779930  0.052930  1
  S  S11  1  0.078835  0.078835  0.078835  1
  S  S12  1  0.552931  0.279930  0.104565  1
  S  S13  1  0.947070  0.395434  0.220071  1
  S  S14  1  0.104565  0.552930  0.279930  1
  S  S15  1  0.220070  0.947071  0.395434  1
  S  S16  1  0.421164  0.421164  0.421164  1
  S  S17  1  0.720070  0.895435  0.447069  1
  S  S18  1  0.279930  0.104565  0.552931  1
  S  S19  1  0.578835  0.578835  0.578835  1
  S  S20  1  0.779930  0.052930  0.604566  1
  S  S21  1  0.895435  0.447070  0.720070  1
  S  S22  1  0.052930  0.604566  0.779930  1
  S  S23  1  0.447070  0.720070  0.895435  1
  S  S24  1  0.921165  0.921165  0.921165  1
  S  S25  1  0.395435  0.220070  0.947070  1
