# generated using pymatgen
data_Er2TmSn3Ir2Ru
_symmetry_space_group_name_H-M   'P 1'
_cell_length_a   7.57222200
_cell_length_b   7.56972832
_cell_length_c   3.78553900
_cell_angle_alpha   90.00000000
_cell_angle_beta   90.00000000
_cell_angle_gamma   120.01089800
_symmetry_Int_Tables_number   1
_chemical_formula_structural   Er2TmSn3Ir2Ru
_chemical_formula_sum   'Er2 Tm1 Sn3 Ir2 Ru1'
_cell_volume   187.89459374
_cell_formula_units_Z   1
loop_
 _symmetry_equiv_pos_site_id
 _symmetry_equiv_pos_as_xyz
  1  'x, y, z'
loop_
 _atom_site_type_symbol
 _atom_site_label
 _atom_site_symmetry_multiplicity
 _atom_site_fract_x
 _atom_site_fract_y
 _atom_site_fract_z
 _atom_site_occupancy
  Er  Er0  1  0.000035  0.404024  0.500000  1
  Er  Er1  1  0.596011  0.595976  0.500000  1
  Tm  Tm2  1  0.403702  0.000000  0.500000  1
  Sn  Sn3  1  0.000334  0.736939  0.000000  1
  Sn  Sn4  1  0.263396  0.263061  0.000000  1
  Sn  Sn5  1  0.736402  0.000000  0.000000  1
  Ir  Ir6  1  0.333543  0.667204  0.000000  1
  Ir  Ir7  1  0.666339  0.332796  0.000000  1
  Ru  Ru8  1  0.000237  0.000000  0.500000  1
