# generated using pymatgen
data_Cs3Rb9Al3GaTe12
_symmetry_space_group_name_H-M   'P 1'
_cell_length_a   14.89633926
_cell_length_b   9.11140738
_cell_length_c   11.63928346
_cell_angle_alpha   53.17033911
_cell_angle_beta   89.68730417
_cell_angle_gamma   89.71147863
_symmetry_Int_Tables_number   1
_chemical_formula_structural   Cs3Rb9Al3GaTe12
_chemical_formula_sum   'Cs3 Rb9 Al3 Ga1 Te12'
_cell_volume   1264.45187089
_cell_formula_units_Z   1
loop_
 _symmetry_equiv_pos_site_id
 _symmetry_equiv_pos_as_xyz
  1  'x, y, z'
loop_
 _atom_site_type_symbol
 _atom_site_label
 _atom_site_symmetry_multiplicity
 _atom_site_fract_x
 _atom_site_fract_y
 _atom_site_fract_z
 _atom_site_occupancy
  Cs  Cs0  1  0.310153  0.158106  0.065641  1
  Cs  Cs1  1  0.686503  0.842942  0.934643  1
  Cs  Cs2  1  0.814107  0.843541  0.436351  1
  Rb  Rb3  1  0.896494  0.318920  0.401030  1
  Rb  Rb4  1  0.611966  0.361932  0.475896  1
  Rb  Rb5  1  0.111968  0.640367  0.023838  1
  Rb  Rb6  1  0.386660  0.640087  0.525091  1
  Rb  Rb7  1  0.890202  0.358968  0.976229  1
  Rb  Rb8  1  0.606026  0.316428  0.902483  1
  Rb  Rb9  1  0.105899  0.681215  0.598317  1
  Rb  Rb10  1  0.394099  0.684718  0.096486  1
  Rb  Rb11  1  0.187951  0.152249  0.570439  1
  Al  Al12  1  0.563348  0.051653  0.344551  1
  Al  Al13  1  0.432980  0.953913  0.654143  1
  Al  Al14  1  0.936108  0.050894  0.842727  1
  Ga  Ga15  1  0.067355  0.943382  0.158219  1
  Te  Te16  1  0.406001  0.180467  0.366888  1
  Te  Te17  1  0.907791  0.824801  0.130509  1
  Te  Te18  1  0.589778  0.823362  0.632494  1
  Te  Te19  1  0.094412  0.171508  0.865810  1
  Te  Te20  1  0.686613  0.310049  0.205985  1
  Te  Te21  1  0.187940  0.675732  0.299873  1
  Te  Te22  1  0.308563  0.698577  0.790883  1
  Te  Te23  1  0.813493  0.311199  0.705085  1
  Te  Te24  1  0.552346  0.867389  0.238319  1
  Te  Te25  1  0.057611  0.133443  0.261059  1
  Te  Te26  1  0.445486  0.136432  0.761591  1
  Te  Te27  1  0.948147  0.867725  0.735417  1
