# generated using pymatgen
data_Tb6Ga2P11Rh20
_symmetry_space_group_name_H-M   'P 1'
_cell_length_a   13.53280143
_cell_length_b   13.49127476
_cell_length_c   3.89502576
_cell_angle_alpha   90.02186680
_cell_angle_beta   90.10497846
_cell_angle_gamma   119.82334114
_symmetry_Int_Tables_number   1
_chemical_formula_structural   Tb6Ga2P11Rh20
_chemical_formula_sum   'Tb6 Ga2 P11 Rh20'
_cell_volume   616.95118684
_cell_formula_units_Z   1
loop_
 _symmetry_equiv_pos_site_id
 _symmetry_equiv_pos_as_xyz
  1  'x, y, z'
loop_
 _atom_site_type_symbol
 _atom_site_label
 _atom_site_symmetry_multiplicity
 _atom_site_fract_x
 _atom_site_fract_y
 _atom_site_fract_z
 _atom_site_occupancy
  Tb  Tb0  1  0.530312  0.716314  0.249187  1
  Tb  Tb1  1  0.284082  0.814675  0.249055  1
  Tb  Tb2  1  0.186240  0.468977  0.248603  1
  Tb  Tb3  1  0.468558  0.285545  0.750609  1
  Tb  Tb4  1  0.722949  0.189450  0.751317  1
  Tb  Tb5  1  0.814842  0.532277  0.749558  1
  Ga  Ga6  1  0.528624  0.139858  0.251389  1
  Ga  Ga7  1  0.999058  0.999436  0.005749  1
  P  P8  1  0.865528  0.388944  0.249679  1
  P  P9  1  0.611295  0.476698  0.249717  1
  P  P10  1  0.948004  0.718070  0.249661  1
  P  P11  1  0.280312  0.228323  0.248627  1
  P  P12  1  0.768367  0.049551  0.249483  1
  P  P13  1  0.387139  0.525683  0.749635  1
  P  P14  1  0.474250  0.861588  0.748810  1
  P  P15  1  0.140120  0.612794  0.750039  1
  P  P16  1  0.720179  0.771054  0.750898  1
  P  P17  1  0.229209  0.951196  0.749539  1
  P  P18  1  0.051356  0.280356  0.749389  1
  Rh  Rh19  1  0.333985  0.665502  0.752291  1
  Rh  Rh20  1  0.921817  0.250962  0.249080  1
  Rh  Rh21  1  0.746811  0.670779  0.250894  1
  Rh  Rh22  1  0.322964  0.078086  0.249557  1
  Rh  Rh23  1  0.427272  0.009752  0.750270  1
  Rh  Rh24  1  0.975211  0.415944  0.749992  1
  Rh  Rh25  1  0.583085  0.558082  0.750151  1
  Rh  Rh26  1  0.677512  0.347588  0.246753  1
  Rh  Rh27  1  0.095799  0.200209  0.251346  1
  Rh  Rh28  1  0.802848  0.897382  0.254574  1
  Rh  Rh29  1  0.100963  0.902613  0.254060  1
  Rh  Rh30  1  0.029439  0.585194  0.249894  1
  Rh  Rh31  1  0.414684  0.442084  0.249653  1
  Rh  Rh32  1  0.560166  0.968438  0.250186  1
  Rh  Rh33  1  0.670226  0.918455  0.751011  1
  Rh  Rh34  1  0.080250  0.748177  0.750910  1
  Rh  Rh35  1  0.251693  0.331374  0.749082  1
  Rh  Rh36  1  0.904510  0.799397  0.748084  1
  Rh  Rh37  1  0.194403  0.104349  0.745717  1
  Rh  Rh38  1  0.895940  0.094842  0.745550  1
