# generated using pymatgen
data_U4Ni5Ge2Ru
_symmetry_space_group_name_H-M   'P 1'
_cell_length_a   5.23705700
_cell_length_b   5.23705787
_cell_length_c   7.83009700
_cell_angle_alpha   90.00000000
_cell_angle_beta   90.00000000
_cell_angle_gamma   120.79625399
_symmetry_Int_Tables_number   1
_chemical_formula_structural   U4Ni5Ge2Ru
_chemical_formula_sum   'U4 Ni5 Ge2 Ru1'
_cell_volume   184.47249803
_cell_formula_units_Z   1
loop_
 _symmetry_equiv_pos_site_id
 _symmetry_equiv_pos_as_xyz
  1  'x, y, z'
loop_
 _atom_site_type_symbol
 _atom_site_label
 _atom_site_symmetry_multiplicity
 _atom_site_fract_x
 _atom_site_fract_y
 _atom_site_fract_z
 _atom_site_occupancy
  U  U0  1  0.670348  0.329652  0.423933  1
  U  U1  1  0.330339  0.669661  0.577656  1
  U  U2  1  0.330339  0.669661  0.922344  1
  U  U3  1  0.670348  0.329652  0.076067  1
  Ni  Ni4  1  0.174280  0.825720  0.250000  1
  Ni  Ni5  1  0.336953  0.175794  0.750000  1
  Ni  Ni6  1  0.653670  0.825688  0.250000  1
  Ni  Ni7  1  0.824206  0.663047  0.750000  1
  Ni  Ni8  1  0.174312  0.346330  0.250000  1
  Ge  Ge9  1  0.004076  0.995924  0.005142  1
  Ge  Ge10  1  0.004076  0.995924  0.494858  1
  Ru  Ru11  1  0.827052  0.172948  0.750000  1
