# generated using pymatgen
data_Cr3Mo(Pd3Pt)3
_symmetry_space_group_name_H-M   'P 1'
_cell_length_a   6.80402532
_cell_length_b   6.80402596
_cell_length_c   6.80261300
_cell_angle_alpha   109.53436513
_cell_angle_beta   109.53399175
_cell_angle_gamma   109.35401121
_symmetry_Int_Tables_number   1
_chemical_formula_structural   Cr3Mo(Pd3Pt)3
_chemical_formula_sum   'Cr3 Mo1 Pd9 Pt3'
_cell_volume   242.40301212
_cell_formula_units_Z   1
loop_
 _symmetry_equiv_pos_site_id
 _symmetry_equiv_pos_as_xyz
  1  'x, y, z'
loop_
 _atom_site_type_symbol
 _atom_site_label
 _atom_site_symmetry_multiplicity
 _atom_site_fract_x
 _atom_site_fract_y
 _atom_site_fract_z
 _atom_site_occupancy
  Cr  Cr0  1  0.749032  0.749022  0.498047  1
  Cr  Cr1  1  0.251272  0.748982  0.000252  1
  Cr  Cr2  1  0.748982  0.251232  0.000216  1
  Mo  Mo3  1  0.252319  0.252324  0.504643  1
  Pd  Pd4  1  0.499208  0.251297  0.251717  1
  Pd  Pd5  1  0.500163  0.749000  0.748273  1
  Pd  Pd6  1  0.999273  0.248111  0.748273  1
  Pd  Pd7  1  0.248101  0.999267  0.748280  1
  Pd  Pd8  1  0.000419  0.752508  0.251716  1
  Pd  Pd9  1  0.752491  0.000412  0.251711  1
  Pd  Pd10  1  0.251300  0.499220  0.251713  1
  Pd  Pd11  1  0.749011  0.500178  0.748279  1
  Pd  Pd12  1  0.002224  0.002218  0.004443  1
  Pt  Pt13  1  0.496697  0.002786  0.499483  1
  Pt  Pt14  1  0.002801  0.496716  0.499518  1
  Pt  Pt15  1  0.496706  0.496729  0.993435  1
