# generated using pymatgen
data_YbEuAl20Fe3Ni
_symmetry_space_group_name_H-M   'P 1'
_cell_length_a   6.83566623
_cell_length_b   6.83376658
_cell_length_c   9.05984455
_cell_angle_alpha   90.05838714
_cell_angle_beta   90.20836821
_cell_angle_gamma   97.21945341
_symmetry_Int_Tables_number   1
_chemical_formula_structural   YbEuAl20Fe3Ni
_chemical_formula_sum   'Yb1 Eu1 Al20 Fe3 Ni1'
_cell_volume   419.85720979
_cell_formula_units_Z   1
loop_
 _symmetry_equiv_pos_site_id
 _symmetry_equiv_pos_as_xyz
  1  'x, y, z'
loop_
 _atom_site_type_symbol
 _atom_site_label
 _atom_site_symmetry_multiplicity
 _atom_site_fract_x
 _atom_site_fract_y
 _atom_site_fract_z
 _atom_site_occupancy
  Yb  Yb0  1  0.122245  0.876104  0.749378  1
  Eu  Eu1  1  0.880303  0.120203  0.251239  1
  Al  Al2  1  0.224378  0.229489  0.499428  1
  Al  Al3  1  0.774399  0.772515  0.998251  1
  Al  Al4  1  0.776358  0.770637  0.502780  1
  Al  Al5  1  0.225732  0.227207  0.999807  1
  Al  Al6  1  0.373920  0.620411  0.552126  1
  Al  Al7  1  0.625011  0.375966  0.049497  1
  Al  Al8  1  0.585760  0.866066  0.751821  1
  Al  Al9  1  0.411791  0.132346  0.248152  1
  Al  Al10  1  0.869279  0.587140  0.248945  1
  Al  Al11  1  0.132392  0.415372  0.751049  1
  Al  Al12  1  0.476390  0.223966  0.754923  1
  Al  Al13  1  0.522061  0.774498  0.244386  1
  Al  Al14  1  0.221940  0.477705  0.250523  1
  Al  Al15  1  0.779832  0.523716  0.749338  1
  Al  Al16  1  0.159477  0.836367  0.401098  1
  Al  Al17  1  0.839159  0.159485  0.904071  1
  Al  Al18  1  0.841027  0.163158  0.600541  1
  Al  Al19  1  0.160077  0.840657  0.094011  1
  Al  Al20  1  0.374165  0.625001  0.950034  1
  Al  Al21  1  0.626176  0.380240  0.448490  1
  Fe  Fe22  1  0.000443  0.501101  0.501063  1
  Fe  Fe23  1  0.999921  0.500686  0.998890  1
  Fe  Fe24  1  0.498903  0.000088  0.999114  1
  Ni  Ni25  1  0.498861  0.999875  0.501045  1
