# generated using pymatgen
data_Hf3Nb2Al2SiN
_symmetry_space_group_name_H-M   'P 1'
_cell_length_a   7.91548353
_cell_length_b   7.91542980
_cell_length_c   5.43693800
_cell_angle_alpha   90.00000000
_cell_angle_beta   90.00000000
_cell_angle_gamma   119.80460244
_symmetry_Int_Tables_number   1
_chemical_formula_structural   Hf3Nb2Al2SiN
_chemical_formula_sum   'Hf6 Nb4 Al4 Si2 N2'
_cell_volume   295.58929865
_cell_formula_units_Z   2
loop_
 _symmetry_equiv_pos_site_id
 _symmetry_equiv_pos_as_xyz
  1  'x, y, z'
loop_
 _atom_site_type_symbol
 _atom_site_label
 _atom_site_symmetry_multiplicity
 _atom_site_fract_x
 _atom_site_fract_y
 _atom_site_fract_z
 _atom_site_occupancy
  Hf  Hf0  1  0.230605  0.995726  0.250000  1
  Hf  Hf1  1  0.995714  0.230600  0.250000  1
  Hf  Hf2  1  0.770290  0.770286  0.250000  1
  Hf  Hf3  1  0.768257  0.000117  0.750000  1
  Hf  Hf4  1  0.000102  0.768251  0.750000  1
  Hf  Hf5  1  0.227369  0.227365  0.750000  1
  Nb  Nb6  1  0.671366  0.332720  0.001720  1
  Nb  Nb7  1  0.332719  0.671362  0.001731  1
  Nb  Nb8  1  0.671366  0.332720  0.498280  1
  Nb  Nb9  1  0.332719  0.671362  0.498269  1
  Al  Al10  1  0.410565  0.410542  0.250000  1
  Al  Al11  1  0.411075  0.002302  0.750000  1
  Al  Al12  1  0.002250  0.411049  0.750000  1
  Al  Al13  1  0.586847  0.586823  0.750000  1
  Si  Si14  1  0.589667  0.000187  0.250000  1
  Si  Si15  1  0.000150  0.589650  0.250000  1
  N  N16  1  0.999469  0.999469  0.000481  1
  N  N17  1  0.999469  0.999469  0.499519  1
