# generated using pymatgen
data_Ba3ScTiFeO9
_symmetry_space_group_name_H-M   'P 1'
_cell_length_a   5.82898900
_cell_length_b   5.82898877
_cell_length_c   14.27558300
_cell_angle_alpha   90.00000000
_cell_angle_beta   90.00000000
_cell_angle_gamma   120.00000697
_symmetry_Int_Tables_number   1
_chemical_formula_structural   Ba3ScTiFeO9
_chemical_formula_sum   'Ba6 Sc2 Ti2 Fe2 O18'
_cell_volume   420.05959479
_cell_formula_units_Z   2
loop_
 _symmetry_equiv_pos_site_id
 _symmetry_equiv_pos_as_xyz
  1  'x, y, z'
loop_
 _atom_site_type_symbol
 _atom_site_label
 _atom_site_symmetry_multiplicity
 _atom_site_fract_x
 _atom_site_fract_y
 _atom_site_fract_z
 _atom_site_occupancy
  Ba  Ba0  1  0.666667  0.333333  0.403420  1
  Ba  Ba1  1  0.333333  0.666667  0.596580  1
  Ba  Ba2  1  0.333333  0.666667  0.909985  1
  Ba  Ba3  1  0.666667  0.333333  0.090015  1
  Ba  Ba4  1  0.000000  0.000000  0.244925  1
  Ba  Ba5  1  0.000000  0.000000  0.755075  1
  Sc  Sc6  1  0.000000  0.000000  0.500000  1
  Sc  Sc7  1  0.000000  0.000000  0.000000  1
  Ti  Ti8  1  0.666667  0.333333  0.651257  1
  Ti  Ti9  1  0.333333  0.666667  0.348743  1
  Fe  Fe10  1  0.333333  0.666667  0.156624  1
  Fe  Fe11  1  0.666667  0.333333  0.843376  1
  O  O12  1  0.658651  0.829325  0.413880  1
  O  O13  1  0.170675  0.829325  0.413880  1
  O  O14  1  0.170675  0.341349  0.413880  1
  O  O15  1  0.341349  0.170675  0.586120  1
  O  O16  1  0.829325  0.170675  0.586120  1
  O  O17  1  0.829325  0.658651  0.586120  1
  O  O18  1  0.347871  0.173936  0.915298  1
  O  O19  1  0.826064  0.173936  0.915298  1
  O  O20  1  0.826064  0.652129  0.915298  1
  O  O21  1  0.652129  0.826064  0.084702  1
  O  O22  1  0.173936  0.826064  0.084702  1
  O  O23  1  0.173936  0.347871  0.084702  1
  O  O24  1  0.040733  0.520367  0.244301  1
  O  O25  1  0.479633  0.520367  0.244301  1
  O  O26  1  0.479633  0.959267  0.244301  1
  O  O27  1  0.959267  0.479633  0.755699  1
  O  O28  1  0.520367  0.479633  0.755699  1
  O  O29  1  0.520367  0.040733  0.755699  1
