# generated using pymatgen
data_Hf8TaNbCuSn7
_symmetry_space_group_name_H-M   'P 1'
_cell_length_a   5.79767400
_cell_length_b   8.63044768
_cell_length_c   8.63042500
_cell_angle_alpha   120.00009211
_cell_angle_beta   89.99951576
_cell_angle_gamma   90.00095247
_symmetry_Int_Tables_number   1
_chemical_formula_structural   Hf8TaNbCuSn7
_chemical_formula_sum   'Hf8 Ta1 Nb1 Cu1 Sn7'
_cell_volume   373.98099013
_cell_formula_units_Z   1
loop_
 _symmetry_equiv_pos_site_id
 _symmetry_equiv_pos_as_xyz
  1  'x, y, z'
loop_
 _atom_site_type_symbol
 _atom_site_label
 _atom_site_symmetry_multiplicity
 _atom_site_fract_x
 _atom_site_fract_y
 _atom_site_fract_z
 _atom_site_occupancy
  Hf  Hf0  1  0.000002  0.666662  0.333328  1
  Hf  Hf1  1  0.000002  0.333335  0.666673  1
  Hf  Hf2  1  0.736556  0.274379  0.999849  1
  Hf  Hf3  1  0.736570  0.725481  0.725614  1
  Hf  Hf4  1  0.736569  0.000170  0.274537  1
  Hf  Hf5  1  0.263438  0.725474  0.999849  1
  Hf  Hf6  1  0.263432  0.274367  0.274535  1
  Hf  Hf7  1  0.263431  0.000135  0.725616  1
  Ta  Ta8  1  0.500000  0.333337  0.666673  1
  Nb  Nb9  1  0.500000  0.666663  0.333326  1
  Cu  Cu10  1  0.499999  0.000001  0.000000  1
  Sn  Sn11  1  0.750905  0.613849  0.000017  1
  Sn  Sn12  1  0.750909  0.386196  0.386181  1
  Sn  Sn13  1  0.750908  0.999979  0.613801  1
  Sn  Sn14  1  0.249094  0.386170  0.000017  1
  Sn  Sn15  1  0.249094  0.613819  0.613800  1
  Sn  Sn16  1  0.249093  0.999983  0.386182  1
  Sn  Sn17  1  0.999998  0.000001  0.000000  1
