# generated using pymatgen
data_SrPr3Os6O19
_symmetry_space_group_name_H-M   'P 1'
_cell_length_a   7.97501746
_cell_length_b   7.97501714
_cell_length_c   7.82345300
_cell_angle_alpha   109.08669268
_cell_angle_beta   109.08669187
_cell_angle_gamma   109.85299783
_symmetry_Int_Tables_number   1
_chemical_formula_structural   SrPr3Os6O19
_chemical_formula_sum   'Sr1 Pr3 Os6 O19'
_cell_volume   384.83880957
_cell_formula_units_Z   1
loop_
 _symmetry_equiv_pos_site_id
 _symmetry_equiv_pos_as_xyz
  1  'x, y, z'
loop_
 _atom_site_type_symbol
 _atom_site_label
 _atom_site_symmetry_multiplicity
 _atom_site_fract_x
 _atom_site_fract_y
 _atom_site_fract_z
 _atom_site_occupancy
  Sr  Sr0  1  0.000000  0.000000  0.324433  1
  Pr  Pr1  1  0.989781  0.298871  0.990969  1
  Pr  Pr2  1  0.701129  0.690910  0.692100  1
  Pr  Pr3  1  0.309090  0.010219  0.001189  1
  Os  Os4  1  0.367042  0.502102  0.862444  1
  Os  Os5  1  0.865109  0.362713  0.503591  1
  Os  Os6  1  0.497604  0.134891  0.638482  1
  Os  Os7  1  0.135060  0.632958  0.495402  1
  Os  Os8  1  0.497898  0.864940  0.360342  1
  Os  Os9  1  0.637287  0.502396  0.140878  1
  O  O10  1  0.328810  0.003664  0.323109  1
  O  O11  1  0.328190  0.334003  0.009165  1
  O  O12  1  0.005812  0.671810  0.680974  1
  O  O13  1  0.674855  0.671190  0.994299  1
  O  O14  1  0.996336  0.325145  0.319446  1
  O  O15  1  0.665997  0.994188  0.675162  1
  O  O16  1  0.000000  0.000000  0.973722  1
  O  O17  1  0.359675  0.292102  0.637419  1
  O  O18  1  0.064979  0.339982  0.712781  1
  O  O19  1  0.731205  0.370358  0.675588  1
  O  O20  1  0.371176  0.649805  0.705406  1
  O  O21  1  0.275002  0.935021  0.647800  1
  O  O22  1  0.629642  0.360846  0.305228  1
  O  O23  1  0.278630  0.628824  0.334230  1
  O  O24  1  0.707898  0.067572  0.345316  1
  O  O25  1  0.932428  0.640325  0.277744  1
  O  O26  1  0.660018  0.724998  0.372798  1
  O  O27  1  0.639154  0.268795  0.944383  1
  O  O28  1  0.350195  0.721370  0.055600  1
