# generated using pymatgen
data_Ho2Pa(Co3B2)3
_symmetry_space_group_name_H-M   'P 1'
_cell_length_a   5.82692485
_cell_length_b   5.82692500
_cell_length_c   5.82692478
_cell_angle_alpha   94.95462214
_cell_angle_beta   94.95462343
_cell_angle_gamma   94.95463807
_symmetry_Int_Tables_number   1
_chemical_formula_structural   Ho2Pa(Co3B2)3
_chemical_formula_sum   'Ho2 Pa1 Co9 B6'
_cell_volume   195.48679668
_cell_formula_units_Z   1
loop_
 _symmetry_equiv_pos_site_id
 _symmetry_equiv_pos_as_xyz
  1  'x, y, z'
loop_
 _atom_site_type_symbol
 _atom_site_label
 _atom_site_symmetry_multiplicity
 _atom_site_fract_x
 _atom_site_fract_y
 _atom_site_fract_z
 _atom_site_occupancy
  Ho  Ho0  1  0.665557  0.665557  0.665557  1
  Ho  Ho1  1  0.334443  0.334443  0.334443  1
  Pa  Pa2  1  0.000000  0.000000  0.000000  1
  Co  Co3  1  0.000000  0.000000  0.500000  1
  Co  Co4  1  0.500000  0.000000  0.000000  1
  Co  Co5  1  0.000000  0.500000  0.000000  1
  Co  Co6  1  0.676632  0.173440  0.676632  1
  Co  Co7  1  0.676632  0.676632  0.173440  1
  Co  Co8  1  0.173440  0.676632  0.676632  1
  Co  Co9  1  0.323368  0.826560  0.323368  1
  Co  Co10  1  0.323368  0.323368  0.826560  1
  Co  Co11  1  0.826560  0.323368  0.323368  1
  B  B12  1  0.656698  0.343302  0.000000  1
  B  B13  1  0.000000  0.656698  0.343302  1
  B  B14  1  0.343302  0.000000  0.656698  1
  B  B15  1  0.000000  0.343302  0.656698  1
  B  B16  1  0.656698  0.000000  0.343302  1
  B  B17  1  0.343302  0.656698  0.000000  1
