# generated using pymatgen
data_TmLu9In8(CoPt)2
_symmetry_space_group_name_H-M   'P 1'
_cell_length_a   3.53196300
_cell_length_b   7.97050043
_cell_length_c   17.83871723
_cell_angle_alpha   90.03545312
_cell_angle_beta   90.00000000
_cell_angle_gamma   90.00000000
_symmetry_Int_Tables_number   1
_chemical_formula_structural   TmLu9In8(CoPt)2
_chemical_formula_sum   'Tm1 Lu9 In8 Co2 Pt2'
_cell_volume   502.18677710
_cell_formula_units_Z   1
loop_
 _symmetry_equiv_pos_site_id
 _symmetry_equiv_pos_as_xyz
  1  'x, y, z'
loop_
 _atom_site_type_symbol
 _atom_site_label
 _atom_site_symmetry_multiplicity
 _atom_site_fract_x
 _atom_site_fract_y
 _atom_site_fract_z
 _atom_site_occupancy
  Tm  Tm0  1  0.000000  0.500000  0.500000  1
  Lu  Lu1  1  0.000000  0.113472  0.409888  1
  Lu  Lu2  1  0.000000  0.886528  0.590112  1
  Lu  Lu3  1  0.000000  0.381431  0.913794  1
  Lu  Lu4  1  0.000000  0.618569  0.086206  1
  Lu  Lu5  1  0.000000  0.234493  0.223773  1
  Lu  Lu6  1  0.000000  0.765507  0.776227  1
  Lu  Lu7  1  0.000000  0.243794  0.719946  1
  Lu  Lu8  1  0.000000  0.756206  0.280054  1
  Lu  Lu9  1  0.000000  0.000000  0.000000  1
  In  In10  1  0.500000  0.422894  0.352117  1
  In  In11  1  0.500000  0.577106  0.647883  1
  In  In12  1  0.500000  0.070888  0.848947  1
  In  In13  1  0.500000  0.929112  0.151053  1
  In  In14  1  0.500000  0.291959  0.066530  1
  In  In15  1  0.500000  0.708041  0.933470  1
  In  In16  1  0.500000  0.203653  0.567719  1
  In  In17  1  0.500000  0.796347  0.432281  1
  Co  Co18  1  0.500000  0.021980  0.304638  1
  Co  Co19  1  0.500000  0.978020  0.695362  1
  Pt  Pt20  1  0.500000  0.476121  0.802945  1
  Pt  Pt21  1  0.500000  0.523879  0.197055  1
