# generated using pymatgen
data_Pa2Nb8Al4Ga
_symmetry_space_group_name_H-M   'P 1'
_cell_length_a   10.00780500
_cell_length_b   10.00780500
_cell_length_c   5.47497200
_cell_angle_alpha   90.00000000
_cell_angle_beta   90.00000000
_cell_angle_gamma   90.00000000
_symmetry_Int_Tables_number   1
_chemical_formula_structural   Pa2Nb8Al4Ga
_chemical_formula_sum   'Pa4 Nb16 Al8 Ga2'
_cell_volume   548.35217665
_cell_formula_units_Z   2
loop_
 _symmetry_equiv_pos_site_id
 _symmetry_equiv_pos_as_xyz
  1  'x, y, z'
loop_
 _atom_site_type_symbol
 _atom_site_label
 _atom_site_symmetry_multiplicity
 _atom_site_fract_x
 _atom_site_fract_y
 _atom_site_fract_z
 _atom_site_occupancy
  Pa  Pa0  1  0.394956  0.394956  0.000000  1
  Pa  Pa1  1  0.894956  0.105044  0.500000  1
  Pa  Pa2  1  0.105044  0.894956  0.500000  1
  Pa  Pa3  1  0.605044  0.605044  0.000000  1
  Nb  Nb4  1  0.134591  0.462483  0.000000  1
  Nb  Nb5  1  0.962483  0.365409  0.500000  1
  Nb  Nb6  1  0.037517  0.634591  0.500000  1
  Nb  Nb7  1  0.865409  0.537517  0.000000  1
  Nb  Nb8  1  0.365409  0.962483  0.500000  1
  Nb  Nb9  1  0.634591  0.037517  0.500000  1
  Nb  Nb10  1  0.462483  0.134591  0.000000  1
  Nb  Nb11  1  0.537517  0.865409  0.000000  1
  Nb  Nb12  1  0.183656  0.183656  0.251107  1
  Nb  Nb13  1  0.683656  0.316344  0.751107  1
  Nb  Nb14  1  0.316344  0.683656  0.751107  1
  Nb  Nb15  1  0.816344  0.816344  0.251107  1
  Nb  Nb16  1  0.316344  0.683656  0.248893  1
  Nb  Nb17  1  0.683656  0.316344  0.248893  1
  Nb  Nb18  1  0.183656  0.183656  0.748893  1
  Nb  Nb19  1  0.816344  0.816344  0.748893  1
  Al  Al20  1  0.269094  0.935535  0.000000  1
  Al  Al21  1  0.435535  0.230906  0.500000  1
  Al  Al22  1  0.564465  0.769094  0.500000  1
  Al  Al23  1  0.730906  0.064465  0.000000  1
  Al  Al24  1  0.230906  0.435535  0.500000  1
  Al  Al25  1  0.769094  0.564465  0.500000  1
  Al  Al26  1  0.935535  0.269094  0.000000  1
  Al  Al27  1  0.064465  0.730906  0.000000  1
  Ga  Ga28  1  0.000000  0.000000  0.000000  1
  Ga  Ga29  1  0.500000  0.500000  0.500000  1
