# generated using pymatgen
data_Nd3Ga8SnPd2
_symmetry_space_group_name_H-M   'P 1'
_cell_length_a   8.45591410
_cell_length_b   8.45591326
_cell_length_c   8.45591385
_cell_angle_alpha   150.26889930
_cell_angle_beta   105.87929455
_cell_angle_gamma   81.83790711
_symmetry_Int_Tables_number   1
_chemical_formula_structural   Nd3Ga8SnPd2
_chemical_formula_sum   'Nd3 Ga8 Sn1 Pd2'
_cell_volume   282.55245501
_cell_formula_units_Z   1
loop_
 _symmetry_equiv_pos_site_id
 _symmetry_equiv_pos_as_xyz
  1  'x, y, z'
loop_
 _atom_site_type_symbol
 _atom_site_label
 _atom_site_symmetry_multiplicity
 _atom_site_fract_x
 _atom_site_fract_y
 _atom_site_fract_z
 _atom_site_occupancy
  Nd  Nd0  1  0.500000  0.500000  0.000000  1
  Nd  Nd1  1  0.186837  0.186837  0.000000  1
  Nd  Nd2  1  0.813163  0.813163  0.000000  1
  Ga  Ga3  1  0.634020  0.363946  0.270074  1
  Ga  Ga4  1  0.365980  0.636054  0.729926  1
  Ga  Ga5  1  0.093873  0.363946  0.729926  1
  Ga  Ga6  1  0.906127  0.636054  0.270074  1
  Ga  Ga7  1  0.539484  0.166517  0.372967  1
  Ga  Ga8  1  0.460516  0.833483  0.627033  1
  Ga  Ga9  1  0.793550  0.166517  0.627033  1
  Ga  Ga10  1  0.206450  0.833483  0.372967  1
  Sn  Sn11  1  0.000000  0.500000  0.500000  1
  Pd  Pd12  1  0.228359  0.000000  0.228359  1
  Pd  Pd13  1  0.771641  0.000000  0.771641  1
