# generated using pymatgen
data_TbU4Re3C8
_symmetry_space_group_name_H-M   'P 1'
_cell_length_a   11.37700000
_cell_length_b   11.37700000
_cell_length_c   3.27534300
_cell_angle_alpha   90.00000000
_cell_angle_beta   90.00000000
_cell_angle_gamma   90.00000000
_symmetry_Int_Tables_number   1
_chemical_formula_structural   TbU4Re3C8
_chemical_formula_sum   'Tb2 U8 Re6 C16'
_cell_volume   423.94771907
_cell_formula_units_Z   2
loop_
 _symmetry_equiv_pos_site_id
 _symmetry_equiv_pos_as_xyz
  1  'x, y, z'
loop_
 _atom_site_type_symbol
 _atom_site_label
 _atom_site_symmetry_multiplicity
 _atom_site_fract_x
 _atom_site_fract_y
 _atom_site_fract_z
 _atom_site_occupancy
  Tb  Tb0  1  0.000000  0.500000  0.000000  1
  Tb  Tb1  1  0.500000  0.000000  0.000000  1
  U  U2  1  0.271427  0.542090  0.500000  1
  U  U3  1  0.728573  0.457910  0.500000  1
  U  U4  1  0.542090  0.728573  0.500000  1
  U  U5  1  0.771427  0.957910  0.500000  1
  U  U6  1  0.228573  0.042090  0.500000  1
  U  U7  1  0.957910  0.228573  0.500000  1
  U  U8  1  0.457910  0.271427  0.500000  1
  U  U9  1  0.042090  0.771427  0.500000  1
  Re  Re10  1  0.203699  0.296301  0.000000  1
  Re  Re11  1  0.703699  0.203699  0.000000  1
  Re  Re12  1  0.296301  0.796301  0.000000  1
  Re  Re13  1  0.500000  0.500000  0.000000  1
  Re  Re14  1  0.796301  0.703699  0.000000  1
  Re  Re15  1  0.000000  0.000000  0.000000  1
  C  C16  1  0.347243  0.402901  0.000000  1
  C  C17  1  0.620041  0.120041  0.500000  1
  C  C18  1  0.902901  0.847243  0.000000  1
  C  C19  1  0.656015  0.843985  0.000000  1
  C  C20  1  0.343985  0.156015  0.000000  1
  C  C21  1  0.120041  0.379959  0.500000  1
  C  C22  1  0.152757  0.902901  0.000000  1
  C  C23  1  0.843985  0.343985  0.000000  1
  C  C24  1  0.652757  0.597099  0.000000  1
  C  C25  1  0.597099  0.347243  0.000000  1
  C  C26  1  0.879959  0.620041  0.500000  1
  C  C27  1  0.847243  0.097099  0.000000  1
  C  C28  1  0.379959  0.879959  0.500000  1
  C  C29  1  0.156015  0.656015  0.000000  1
  C  C30  1  0.097099  0.152757  0.000000  1
  C  C31  1  0.402901  0.652757  0.000000  1
