# generated using pymatgen
data_TbHoHf2(NiP)4
_symmetry_space_group_name_H-M   'P 1'
_cell_length_a   3.84578800
_cell_length_b   3.84578877
_cell_length_c   14.59635900
_cell_angle_alpha   90.00000000
_cell_angle_beta   90.00000000
_cell_angle_gamma   119.99999334
_symmetry_Int_Tables_number   1
_chemical_formula_structural   TbHoHf2(NiP)4
_chemical_formula_sum   'Tb1 Ho1 Hf2 Ni4 P4'
_cell_volume   186.95882272
_cell_formula_units_Z   1
loop_
 _symmetry_equiv_pos_site_id
 _symmetry_equiv_pos_as_xyz
  1  'x, y, z'
loop_
 _atom_site_type_symbol
 _atom_site_label
 _atom_site_symmetry_multiplicity
 _atom_site_fract_x
 _atom_site_fract_y
 _atom_site_fract_z
 _atom_site_occupancy
  Tb  Tb0  1  0.000000  0.000000  0.500000  1
  Ho  Ho1  1  0.000000  0.000000  0.000000  1
  Hf  Hf2  1  0.000000  0.000000  0.249560  1
  Hf  Hf3  1  0.000000  0.000000  0.750440  1
  Ni  Ni4  1  0.333333  0.666667  0.149424  1
  Ni  Ni5  1  0.666667  0.333333  0.850576  1
  Ni  Ni6  1  0.666667  0.333333  0.650324  1
  Ni  Ni7  1  0.333333  0.666667  0.349676  1
  P  P8  1  0.333333  0.666667  0.626013  1
  P  P9  1  0.666667  0.333333  0.373987  1
  P  P10  1  0.666667  0.333333  0.124613  1
  P  P11  1  0.333333  0.666667  0.875387  1
