# generated using pymatgen
data_GdTmBe25Co
_symmetry_space_group_name_H-M   'P 1'
_cell_length_a   7.20119426
_cell_length_b   7.24527580
_cell_length_c   7.18538800
_cell_angle_alpha   59.86851110
_cell_angle_beta   59.92541828
_cell_angle_gamma   59.65260997
_symmetry_Int_Tables_number   1
_chemical_formula_structural   GdTmBe25Co
_chemical_formula_sum   'Gd1 Tm1 Be25 Co1'
_cell_volume   263.97737050
_cell_formula_units_Z   1
loop_
 _symmetry_equiv_pos_site_id
 _symmetry_equiv_pos_as_xyz
  1  'x, y, z'
loop_
 _atom_site_type_symbol
 _atom_site_label
 _atom_site_symmetry_multiplicity
 _atom_site_fract_x
 _atom_site_fract_y
 _atom_site_fract_z
 _atom_site_occupancy
  Gd  Gd0  1  0.749867  0.751835  0.753018  1
  Tm  Tm1  1  0.246186  0.255424  0.250090  1
  Be  Be2  1  0.502485  0.501439  0.497482  1
  Be  Be3  1  0.998922  0.002945  0.001245  1
  Be  Be4  1  0.203288  0.440116  0.797438  1
  Be  Be5  1  0.566067  0.788165  0.433485  1
  Be  Be6  1  0.434651  0.208093  0.564799  1
  Be  Be7  1  0.291161  0.934787  0.708185  1
  Be  Be8  1  0.706800  0.064028  0.292808  1
  Be  Be9  1  0.934675  0.288489  0.066143  1
  Be  Be10  1  0.066559  0.713959  0.934123  1
  Be  Be11  1  0.206320  0.796326  0.561429  1
  Be  Be12  1  0.792145  0.207096  0.436298  1
  Be  Be13  1  0.438174  0.563535  0.793984  1
  Be  Be14  1  0.562840  0.434971  0.208571  1
  Be  Be15  1  0.710036  0.285053  0.934733  1
  Be  Be16  1  0.288541  0.711816  0.064251  1
  Be  Be17  1  0.065639  0.930124  0.289405  1
  Be  Be18  1  0.936252  0.065030  0.710920  1
  Be  Be19  1  0.559194  0.209076  0.794382  1
  Be  Be20  1  0.438679  0.791690  0.206733  1
  Be  Be21  1  0.794082  0.436445  0.560817  1
  Be  Be22  1  0.206158  0.562064  0.440226  1
  Be  Be23  1  0.936947  0.709160  0.289161  1
  Be  Be24  1  0.065287  0.289108  0.708570  1
  Be  Be25  1  0.290815  0.063399  0.935132  1
  Be  Be26  1  0.710152  0.935991  0.063798  1
  Co  Co27  1  0.798081  0.559833  0.202778  1
