# generated using pymatgen
data_NaMnCdGaS4
_symmetry_space_group_name_H-M   'P 1'
_cell_length_a   6.59893522
_cell_length_b   6.89617400
_cell_length_c   8.45092529
_cell_angle_alpha   90.00000000
_cell_angle_beta   89.97008529
_cell_angle_gamma   90.00000000
_symmetry_Int_Tables_number   1
_chemical_formula_structural   NaMnCdGaS4
_chemical_formula_sum   'Na2 Mn2 Cd2 Ga2 S8'
_cell_volume   384.57963173
_cell_formula_units_Z   2
loop_
 _symmetry_equiv_pos_site_id
 _symmetry_equiv_pos_as_xyz
  1  'x, y, z'
loop_
 _atom_site_type_symbol
 _atom_site_label
 _atom_site_symmetry_multiplicity
 _atom_site_fract_x
 _atom_site_fract_y
 _atom_site_fract_z
 _atom_site_occupancy
  Na  Na0  1  0.996383  0.335265  0.499770  1
  Na  Na1  1  0.496383  0.664735  0.999770  1
  Mn  Mn2  1  0.490148  0.174269  0.747079  1
  Mn  Mn3  1  0.990148  0.825731  0.247079  1
  Cd  Cd4  1  0.491783  0.174190  0.253664  1
  Cd  Cd5  1  0.991783  0.825810  0.753664  1
  Ga  Ga6  1  0.489308  0.685563  0.499784  1
  Ga  Ga7  1  0.989308  0.314437  0.999784  1
  S  S8  1  0.076528  0.640272  0.011094  1
  S  S9  1  0.576528  0.359728  0.511094  1
  S  S10  1  0.140938  0.710066  0.488421  1
  S  S11  1  0.640938  0.289934  0.988421  1
  S  S12  1  0.627531  0.824937  0.277947  1
  S  S13  1  0.127531  0.175063  0.777947  1
  S  S14  1  0.103143  0.157235  0.222240  1
  S  S15  1  0.603143  0.842765  0.722240  1
