# generated using pymatgen
data_Li3Ni9P7Ru2
_symmetry_space_group_name_H-M   'P 1'
_cell_length_a   9.06215079
_cell_length_b   9.00634834
_cell_length_c   3.57696200
_cell_angle_alpha   90.00000000
_cell_angle_beta   90.00000000
_cell_angle_gamma   119.18946595
_symmetry_Int_Tables_number   1
_chemical_formula_structural   Li3Ni9P7Ru2
_chemical_formula_sum   'Li3 Ni9 P7 Ru2'
_cell_volume   254.86749095
_cell_formula_units_Z   1
loop_
 _symmetry_equiv_pos_site_id
 _symmetry_equiv_pos_as_xyz
  1  'x, y, z'
loop_
 _atom_site_type_symbol
 _atom_site_label
 _atom_site_symmetry_multiplicity
 _atom_site_fract_x
 _atom_site_fract_y
 _atom_site_fract_z
 _atom_site_occupancy
  Li  Li0  1  0.222508  0.100906  0.500000  1
  Li  Li1  1  0.331793  0.665738  0.000000  1
  Li  Li2  1  0.664265  0.333784  0.500000  1
  Ni  Ni3  1  0.709716  0.877347  0.000000  1
  Ni  Ni4  1  0.166687  0.280384  0.000000  1
  Ni  Ni5  1  0.124848  0.843290  0.000000  1
  Ni  Ni6  1  0.626693  0.565347  0.000000  1
  Ni  Ni7  1  0.936739  0.373152  0.000000  1
  Ni  Ni8  1  0.433181  0.057576  0.000000  1
  Ni  Ni9  1  0.559967  0.947035  0.500000  1
  Ni  Ni10  1  0.388005  0.437185  0.500000  1
  Ni  Ni11  1  0.055183  0.612077  0.500000  1
  P  P12  1  0.584992  0.708315  0.500000  1
  P  P13  1  0.123564  0.410981  0.500000  1
  P  P14  1  0.290889  0.870512  0.500000  1
  P  P15  1  0.992558  0.997535  0.000000  1
  P  P16  1  0.879596  0.586148  0.000000  1
  P  P17  1  0.703346  0.124029  0.000000  1
  P  P18  1  0.425177  0.300062  0.000000  1
  Ru  Ru19  1  0.875391  0.783856  0.500000  1
  Ru  Ru20  1  0.904902  0.124740  0.500000  1
