# generated using pymatgen
data_PrNd7(DySn3)2
_symmetry_space_group_name_H-M   'P 1'
_cell_length_a   9.24835801
_cell_length_b   9.24835820
_cell_length_c   6.79729000
_cell_angle_alpha   89.99773874
_cell_angle_beta   89.99773874
_cell_angle_gamma   120.05146869
_symmetry_Int_Tables_number   1
_chemical_formula_structural   PrNd7(DySn3)2
_chemical_formula_sum   'Pr1 Nd7 Dy2 Sn6'
_cell_volume   503.23429640
_cell_formula_units_Z   1
loop_
 _symmetry_equiv_pos_site_id
 _symmetry_equiv_pos_as_xyz
  1  'x, y, z'
loop_
 _atom_site_type_symbol
 _atom_site_label
 _atom_site_symmetry_multiplicity
 _atom_site_fract_x
 _atom_site_fract_y
 _atom_site_fract_z
 _atom_site_occupancy
  Pr  Pr0  1  0.759130  0.759130  0.248710  1
  Nd  Nd1  1  0.000011  0.241380  0.248629  1
  Nd  Nd2  1  0.758609  0.000063  0.751399  1
  Nd  Nd3  1  0.333318  0.666651  0.500053  1
  Nd  Nd4  1  0.241380  0.000011  0.248629  1
  Nd  Nd5  1  0.666651  0.333318  0.500053  1
  Nd  Nd6  1  0.000063  0.758609  0.751399  1
  Nd  Nd7  1  0.241211  0.241211  0.751437  1
  Dy  Dy8  1  0.333256  0.666647  0.999896  1
  Dy  Dy9  1  0.666647  0.333256  0.999896  1
  Sn  Sn10  1  0.602936  0.602936  0.757583  1
  Sn  Sn11  1  0.397023  0.000036  0.757659  1
  Sn  Sn12  1  0.602607  0.000605  0.242331  1
  Sn  Sn13  1  0.000036  0.397023  0.757659  1
  Sn  Sn14  1  0.396520  0.396520  0.242337  1
  Sn  Sn15  1  0.000605  0.602607  0.242331  1
