# generated using pymatgen
data_RbSm2ErCBr6
_symmetry_space_group_name_H-M   'P 1'
_cell_length_a   8.95984842
_cell_length_b   8.99069296
_cell_length_c   9.54658200
_cell_angle_alpha   70.93865012
_cell_angle_beta   84.88262317
_cell_angle_gamma   89.17809920
_symmetry_Int_Tables_number   1
_chemical_formula_structural   RbSm2ErCBr6
_chemical_formula_sum   'Rb2 Sm4 Er2 C2 Br12'
_cell_volume   723.87453838
_cell_formula_units_Z   2
loop_
 _symmetry_equiv_pos_site_id
 _symmetry_equiv_pos_as_xyz
  1  'x, y, z'
loop_
 _atom_site_type_symbol
 _atom_site_label
 _atom_site_symmetry_multiplicity
 _atom_site_fract_x
 _atom_site_fract_y
 _atom_site_fract_z
 _atom_site_occupancy
  Rb  Rb0  1  0.467354  0.361286  0.331350  1
  Rb  Rb1  1  0.532647  0.638714  0.668650  1
  Sm  Sm2  1  0.915430  0.741133  0.003996  1
  Sm  Sm3  1  0.084570  0.258867  0.996003  1
  Sm  Sm4  1  0.739939  0.086819  0.000934  1
  Sm  Sm5  1  0.260060  0.913181  0.999067  1
  Er  Er6  1  0.973034  0.888375  0.320945  1
  Er  Er7  1  0.026965  0.111625  0.679056  1
  C  C8  1  0.006479  0.026716  0.921275  1
  C  C9  1  0.993520  0.973284  0.078725  1
  Br  Br10  1  0.073954  0.189700  0.333475  1
  Br  Br11  1  0.926046  0.810300  0.666525  1
  Br  Br12  1  0.207025  0.590622  0.000590  1
  Br  Br13  1  0.792976  0.409378  0.999410  1
  Br  Br14  1  0.405008  0.202978  0.002350  1
  Br  Br15  1  0.594991  0.797023  0.997649  1
  Br  Br16  1  0.671810  0.998568  0.329891  1
  Br  Br17  1  0.328190  0.001432  0.670109  1
  Br  Br18  1  0.273612  0.776392  0.326567  1
  Br  Br19  1  0.726388  0.223608  0.673433  1
  Br  Br20  1  0.853120  0.595346  0.330110  1
  Br  Br21  1  0.146879  0.404654  0.669890  1
