# generated using pymatgen
data_Th5Cd(GePd)6
_symmetry_space_group_name_H-M   'P 1'
_cell_length_a   4.43331100
_cell_length_b   7.66471918
_cell_length_c   22.79752600
_cell_angle_alpha   90.19453658
_cell_angle_beta   90.00000000
_cell_angle_gamma   90.00000000
_symmetry_Int_Tables_number   1
_chemical_formula_structural   Th5Cd(GePd)6
_chemical_formula_sum   'Th10 Cd2 Ge12 Pd12'
_cell_volume   774.65737990
_cell_formula_units_Z   2
loop_
 _symmetry_equiv_pos_site_id
 _symmetry_equiv_pos_as_xyz
  1  'x, y, z'
loop_
 _atom_site_type_symbol
 _atom_site_label
 _atom_site_symmetry_multiplicity
 _atom_site_fract_x
 _atom_site_fract_y
 _atom_site_fract_z
 _atom_site_occupancy
  Th  Th0  1  0.250000  0.748582  0.343613  1
  Th  Th1  1  0.750000  0.251418  0.656387  1
  Th  Th2  1  0.750000  0.248467  0.171653  1
  Th  Th3  1  0.250000  0.751533  0.828347  1
  Th  Th4  1  0.250000  0.753131  0.171858  1
  Th  Th5  1  0.750000  0.246869  0.828142  1
  Th  Th6  1  0.750000  0.254163  0.344805  1
  Th  Th7  1  0.250000  0.745837  0.655195  1
  Th  Th8  1  0.250000  0.748728  0.000218  1
  Th  Th9  1  0.750000  0.251272  0.999782  1
  Cd  Cd10  1  0.750000  0.229985  0.501132  1
  Cd  Cd11  1  0.250000  0.770015  0.498868  1
  Ge  Ge12  1  0.250000  0.084325  0.080426  1
  Ge  Ge13  1  0.750000  0.915675  0.919574  1
  Ge  Ge14  1  0.750000  0.580214  0.424467  1
  Ge  Ge15  1  0.250000  0.419786  0.575533  1
  Ge  Ge16  1  0.250000  0.084892  0.254531  1
  Ge  Ge17  1  0.750000  0.915108  0.745469  1
  Ge  Ge18  1  0.750000  0.583851  0.253734  1
  Ge  Ge19  1  0.250000  0.416149  0.746266  1
  Ge  Ge20  1  0.250000  0.088546  0.419776  1
  Ge  Ge21  1  0.750000  0.911454  0.580224  1
  Ge  Ge22  1  0.750000  0.583589  0.082202  1
  Ge  Ge23  1  0.250000  0.416411  0.917798  1
  Pd  Pd24  1  0.250000  0.418272  0.263432  1
  Pd  Pd25  1  0.750000  0.581728  0.736568  1
  Pd  Pd26  1  0.750000  0.917457  0.263619  1
  Pd  Pd27  1  0.250000  0.082543  0.736381  1
  Pd  Pd28  1  0.250000  0.420467  0.452912  1
  Pd  Pd29  1  0.750000  0.579533  0.547088  1
  Pd  Pd30  1  0.750000  0.917503  0.089083  1
  Pd  Pd31  1  0.250000  0.082497  0.910917  1
  Pd  Pd32  1  0.250000  0.417544  0.090133  1
  Pd  Pd33  1  0.750000  0.582456  0.909867  1
  Pd  Pd34  1  0.750000  0.914363  0.436474  1
  Pd  Pd35  1  0.250000  0.085637  0.563526  1
