# generated using pymatgen
data_Rb8TaAlSe8
_symmetry_space_group_name_H-M   'P 1'
_cell_length_a   8.64707155
_cell_length_b   10.25675200
_cell_length_c   15.25477900
_cell_angle_alpha   90.00000000
_cell_angle_beta   91.59171817
_cell_angle_gamma   90.00000000
_symmetry_Int_Tables_number   1
_chemical_formula_structural   Rb8TaAlSe8
_chemical_formula_sum   'Rb16 Ta2 Al2 Se16'
_cell_volume   1352.43754541
_cell_formula_units_Z   2
loop_
 _symmetry_equiv_pos_site_id
 _symmetry_equiv_pos_as_xyz
  1  'x, y, z'
loop_
 _atom_site_type_symbol
 _atom_site_label
 _atom_site_symmetry_multiplicity
 _atom_site_fract_x
 _atom_site_fract_y
 _atom_site_fract_z
 _atom_site_occupancy
  Rb  Rb0  1  0.000000  0.000000  0.000000  1
  Rb  Rb1  1  0.500000  0.000000  0.500000  1
  Rb  Rb2  1  0.000000  0.500000  0.000000  1
  Rb  Rb3  1  0.500000  0.500000  0.500000  1
  Rb  Rb4  1  0.001704  0.750000  0.439483  1
  Rb  Rb5  1  0.481022  0.250000  0.088818  1
  Rb  Rb6  1  0.998296  0.250000  0.560517  1
  Rb  Rb7  1  0.518978  0.750000  0.911182  1
  Rb  Rb8  1  0.839705  0.062493  0.283970  1
  Rb  Rb9  1  0.332160  0.959746  0.227410  1
  Rb  Rb10  1  0.160295  0.562493  0.716030  1
  Rb  Rb11  1  0.667840  0.459746  0.772590  1
  Rb  Rb12  1  0.160295  0.937507  0.716030  1
  Rb  Rb13  1  0.667840  0.040254  0.772590  1
  Rb  Rb14  1  0.839705  0.437507  0.283970  1
  Rb  Rb15  1  0.332160  0.540254  0.227410  1
  Ta  Ta16  1  0.738815  0.750000  0.163270  1
  Ta  Ta17  1  0.261185  0.250000  0.836730  1
  Al  Al18  1  0.764007  0.750000  0.667670  1
  Al  Al19  1  0.235993  0.250000  0.332330  1
  Se  Se20  1  0.981240  0.250000  0.830354  1
  Se  Se21  1  0.518696  0.250000  0.320231  1
  Se  Se22  1  0.481304  0.750000  0.679769  1
  Se  Se23  1  0.018760  0.750000  0.169646  1
  Se  Se24  1  0.647199  0.557829  0.087265  1
  Se  Se25  1  0.156784  0.444322  0.407355  1
  Se  Se26  1  0.352801  0.057829  0.912735  1
  Se  Se27  1  0.843216  0.944322  0.592645  1
  Se  Se28  1  0.352801  0.442171  0.912735  1
  Se  Se29  1  0.843216  0.555678  0.592645  1
  Se  Se30  1  0.647199  0.942171  0.087265  1
  Se  Se31  1  0.156784  0.055678  0.407355  1
  Se  Se32  1  0.638166  0.750000  0.309477  1
  Se  Se33  1  0.120341  0.250000  0.179622  1
  Se  Se34  1  0.361834  0.250000  0.690523  1
  Se  Se35  1  0.879659  0.750000  0.820378  1
