# generated using pymatgen
data_YHo5Fe16(CoP6)2
_symmetry_space_group_name_H-M   'P 1'
_cell_length_a   3.70453700
_cell_length_b   10.47036600
_cell_length_c   12.17855600
_cell_angle_alpha   90.00000000
_cell_angle_beta   90.00000000
_cell_angle_gamma   90.00000000
_symmetry_Int_Tables_number   1
_chemical_formula_structural   YHo5Fe16(CoP6)2
_chemical_formula_sum   'Y1 Ho5 Fe16 Co2 P12'
_cell_volume   472.38010382
_cell_formula_units_Z   1
loop_
 _symmetry_equiv_pos_site_id
 _symmetry_equiv_pos_as_xyz
  1  'x, y, z'
loop_
 _atom_site_type_symbol
 _atom_site_label
 _atom_site_symmetry_multiplicity
 _atom_site_fract_x
 _atom_site_fract_y
 _atom_site_fract_z
 _atom_site_occupancy
  Y  Y0  1  0.500000  0.000000  0.474717  1
  Ho  Ho1  1  0.000000  0.500000  0.525230  1
  Ho  Ho2  1  0.500000  0.819694  0.207023  1
  Ho  Ho3  1  0.500000  0.180306  0.207023  1
  Ho  Ho4  1  0.000000  0.680147  0.792956  1
  Ho  Ho5  1  0.000000  0.319853  0.792956  1
  Fe  Fe6  1  0.500000  0.500000  0.152636  1
  Fe  Fe7  1  0.000000  0.000000  0.847594  1
  Fe  Fe8  1  0.000000  0.500000  0.988845  1
  Fe  Fe9  1  0.500000  0.000000  0.011026  1
  Fe  Fe10  1  0.500000  0.327522  0.996689  1
  Fe  Fe11  1  0.500000  0.672478  0.996689  1
  Fe  Fe12  1  0.000000  0.172722  0.003323  1
  Fe  Fe13  1  0.000000  0.827278  0.003323  1
  Fe  Fe14  1  0.500000  0.299328  0.429930  1
  Fe  Fe15  1  0.500000  0.700672  0.429930  1
  Fe  Fe16  1  0.000000  0.201421  0.570103  1
  Fe  Fe17  1  0.000000  0.798579  0.570103  1
  Fe  Fe18  1  0.500000  0.882179  0.709164  1
  Fe  Fe19  1  0.500000  0.117821  0.709164  1
  Fe  Fe20  1  0.000000  0.617599  0.290995  1
  Fe  Fe21  1  0.000000  0.382401  0.290995  1
  Co  Co22  1  0.500000  0.500000  0.700218  1
  Co  Co23  1  0.000000  0.000000  0.299136  1
  P  P24  1  0.500000  0.500000  0.884253  1
  P  P25  1  0.000000  0.000000  0.115467  1
  P  P26  1  0.500000  0.500000  0.340863  1
  P  P27  1  0.000000  0.000000  0.659759  1
  P  P28  1  0.500000  0.306348  0.614166  1
  P  P29  1  0.500000  0.693652  0.614166  1
  P  P30  1  0.000000  0.194398  0.385654  1
  P  P31  1  0.000000  0.805602  0.385654  1
  P  P32  1  0.500000  0.850824  0.888411  1
  P  P33  1  0.500000  0.149176  0.888411  1
  P  P34  1  0.000000  0.648967  0.111714  1
  P  P35  1  0.000000  0.351033  0.111714  1
