# generated using pymatgen
data_Zr8Mn9Ir7
_symmetry_space_group_name_H-M   'P 1'
_cell_length_a   5.09071884
_cell_length_b   5.11984090
_cell_length_c   17.09570265
_cell_angle_alpha   89.97015122
_cell_angle_beta   90.02175086
_cell_angle_gamma   120.56430499
_symmetry_Int_Tables_number   1
_chemical_formula_structural   Zr8Mn9Ir7
_chemical_formula_sum   'Zr8 Mn9 Ir7'
_cell_volume   383.66782065
_cell_formula_units_Z   1
loop_
 _symmetry_equiv_pos_site_id
 _symmetry_equiv_pos_as_xyz
  1  'x, y, z'
loop_
 _atom_site_type_symbol
 _atom_site_label
 _atom_site_symmetry_multiplicity
 _atom_site_fract_x
 _atom_site_fract_y
 _atom_site_fract_z
 _atom_site_occupancy
  Zr  Zr0  1  0.338697  0.662832  0.842189  1
  Zr  Zr1  1  0.661195  0.337885  0.343323  1
  Zr  Zr2  1  0.661211  0.337841  0.156539  1
  Zr  Zr3  1  0.338714  0.662759  0.657939  1
  Zr  Zr4  1  0.995434  0.002998  0.091321  1
  Zr  Zr5  1  0.005816  0.997410  0.594059  1
  Zr  Zr6  1  0.005939  0.997399  0.906080  1
  Zr  Zr7  1  0.995508  0.002958  0.408540  1
  Mn  Mn8  1  0.502171  0.003833  0.997504  1
  Mn  Mn9  1  0.502095  0.003827  0.502470  1
  Mn  Mn10  1  0.002129  0.502010  0.998166  1
  Mn  Mn11  1  0.002132  0.501972  0.501819  1
  Mn  Mn12  1  0.845706  0.675890  0.750034  1
  Mn  Mn13  1  0.657713  0.828885  0.249993  1
  Mn  Mn14  1  0.151453  0.828135  0.249987  1
  Mn  Mn15  1  0.848381  0.153550  0.750034  1
  Mn  Mn16  1  0.324204  0.154537  0.750036  1
  Ir  Ir17  1  0.327617  0.688268  0.124981  1
  Ir  Ir18  1  0.676150  0.325637  0.630476  1
  Ir  Ir19  1  0.676185  0.325625  0.869560  1
  Ir  Ir20  1  0.327650  0.688075  0.374971  1
  Ir  Ir21  1  0.501846  0.502237  0.998700  1
  Ir  Ir22  1  0.501912  0.502287  0.501299  1
  Ir  Ir23  1  0.149942  0.313152  0.249977  1
