# generated using pymatgen
data_LiY2Th2Pd11
_symmetry_space_group_name_H-M   'P 1'
_cell_length_a   5.93831600
_cell_length_b   5.89667458
_cell_length_c   9.67002600
_cell_angle_alpha   90.00000000
_cell_angle_beta   90.00000000
_cell_angle_gamma   120.23386904
_symmetry_Int_Tables_number   1
_chemical_formula_structural   LiY2Th2Pd11
_chemical_formula_sum   'Li1 Y2 Th2 Pd11'
_cell_volume   292.55022781
_cell_formula_units_Z   1
loop_
 _symmetry_equiv_pos_site_id
 _symmetry_equiv_pos_as_xyz
  1  'x, y, z'
loop_
 _atom_site_type_symbol
 _atom_site_label
 _atom_site_symmetry_multiplicity
 _atom_site_fract_x
 _atom_site_fract_y
 _atom_site_fract_z
 _atom_site_occupancy
  Li  Li0  1  0.795136  0.590271  0.250000  1
  Y  Y1  1  0.332576  0.665153  0.250000  1
  Y  Y2  1  0.668390  0.336778  0.750000  1
  Th  Th3  1  0.004047  0.008094  0.504480  1
  Th  Th4  1  0.004047  0.008094  0.995520  1
  Pd  Pd5  1  0.505756  0.507016  0.496960  1
  Pd  Pd6  1  0.502181  0.004362  0.496986  1
  Pd  Pd7  1  0.001260  0.507016  0.496960  1
  Pd  Pd8  1  0.505756  0.507016  0.003040  1
  Pd  Pd9  1  0.502181  0.004362  0.003014  1
  Pd  Pd10  1  0.001260  0.507016  0.003040  1
  Pd  Pd11  1  0.344976  0.171969  0.250000  1
  Pd  Pd12  1  0.826993  0.171969  0.250000  1
  Pd  Pd13  1  0.176310  0.352621  0.750000  1
  Pd  Pd14  1  0.651600  0.829131  0.750000  1
  Pd  Pd15  1  0.177531  0.829131  0.750000  1
