# generated using pymatgen
data_La2Ho(TmSn2)2
_symmetry_space_group_name_H-M   'P 1'
_cell_length_a   8.20653900
_cell_length_b   8.34328000
_cell_length_c   15.77936000
_cell_angle_alpha   90.00000000
_cell_angle_beta   90.00000000
_cell_angle_gamma   90.00000000
_symmetry_Int_Tables_number   1
_chemical_formula_structural   La2Ho(TmSn2)2
_chemical_formula_sum   'La8 Ho4 Tm8 Sn16'
_cell_volume   1080.40414328
_cell_formula_units_Z   4
loop_
 _symmetry_equiv_pos_site_id
 _symmetry_equiv_pos_as_xyz
  1  'x, y, z'
loop_
 _atom_site_type_symbol
 _atom_site_label
 _atom_site_symmetry_multiplicity
 _atom_site_fract_x
 _atom_site_fract_y
 _atom_site_fract_z
 _atom_site_occupancy
  La  La0  1  0.516835  0.321563  0.903555  1
  La  La1  1  0.016835  0.178437  0.596445  1
  La  La2  1  0.483165  0.678437  0.403555  1
  La  La3  1  0.983165  0.821563  0.096445  1
  La  La4  1  0.482733  0.678245  0.096570  1
  La  La5  1  0.982733  0.821755  0.403430  1
  La  La6  1  0.517267  0.321755  0.596570  1
  La  La7  1  0.017267  0.178245  0.903430  1
  Ho  Ho8  1  0.362212  0.837624  0.876783  1
  Ho  Ho9  1  0.862212  0.662376  0.623217  1
  Ho  Ho10  1  0.637788  0.162376  0.376783  1
  Ho  Ho11  1  0.137788  0.337624  0.123217  1
  Tm  Tm12  1  0.638460  0.161972  0.123466  1
  Tm  Tm13  1  0.138460  0.338028  0.376534  1
  Tm  Tm14  1  0.361540  0.838028  0.623466  1
  Tm  Tm15  1  0.861540  0.661972  0.876534  1
  Tm  Tm16  1  0.196108  0.505127  0.749803  1
  Tm  Tm17  1  0.696108  0.994873  0.750197  1
  Tm  Tm18  1  0.803892  0.494873  0.249803  1
  Tm  Tm19  1  0.303892  0.005127  0.250197  1
  Sn  Sn20  1  0.304724  0.041537  0.043975  1
  Sn  Sn21  1  0.804724  0.458463  0.456025  1
  Sn  Sn22  1  0.695276  0.958463  0.543975  1
  Sn  Sn23  1  0.195276  0.541537  0.956025  1
  Sn  Sn24  1  0.697332  0.958069  0.956730  1
  Sn  Sn25  1  0.197332  0.541931  0.543270  1
  Sn  Sn26  1  0.302668  0.041931  0.456730  1
  Sn  Sn27  1  0.802668  0.458069  0.043270  1
  Sn  Sn28  1  0.560637  0.626812  0.749922  1
  Sn  Sn29  1  0.060637  0.873188  0.750078  1
  Sn  Sn30  1  0.439363  0.373188  0.249922  1
  Sn  Sn31  1  0.939363  0.126812  0.250078  1
  Sn  Sn32  1  0.326485  0.141547  0.749762  1
  Sn  Sn33  1  0.826485  0.358453  0.750238  1
  Sn  Sn34  1  0.673515  0.858453  0.249762  1
  Sn  Sn35  1  0.173515  0.641547  0.250238  1
