# generated using pymatgen
data_Tm6Co(Si2Ru)3
_symmetry_space_group_name_H-M   'P 1'
_cell_length_a   5.64856604
_cell_length_b   5.64856610
_cell_length_c   13.54931077
_cell_angle_alpha   89.76886696
_cell_angle_beta   90.23113260
_cell_angle_gamma   136.99995365
_symmetry_Int_Tables_number   1
_chemical_formula_structural   Tm6Co(Si2Ru)3
_chemical_formula_sum   'Tm6 Co1 Si6 Ru3'
_cell_volume   294.83107487
_cell_formula_units_Z   1
loop_
 _symmetry_equiv_pos_site_id
 _symmetry_equiv_pos_as_xyz
  1  'x, y, z'
loop_
 _atom_site_type_symbol
 _atom_site_label
 _atom_site_symmetry_multiplicity
 _atom_site_fract_x
 _atom_site_fract_y
 _atom_site_fract_z
 _atom_site_occupancy
  Tm  Tm0  1  0.641521  0.358479  0.249557  1
  Tm  Tm1  1  0.358881  0.641119  0.749464  1
  Tm  Tm2  1  0.920162  0.079838  0.111850  1
  Tm  Tm3  1  0.076321  0.923679  0.885472  1
  Tm  Tm4  1  0.077680  0.922320  0.616552  1
  Tm  Tm5  1  0.923443  0.076557  0.385342  1
  Co  Co6  1  0.787573  0.212427  0.921956  1
  Si  Si7  1  0.331222  0.668778  0.249349  1
  Si  Si8  1  0.669485  0.330515  0.754333  1
  Si  Si9  1  0.616844  0.383156  0.035454  1
  Si  Si10  1  0.381282  0.618718  0.958495  1
  Si  Si11  1  0.386141  0.613859  0.538294  1
  Si  Si12  1  0.615286  0.384714  0.462876  1
  Ru  Ru13  1  0.789513  0.210487  0.583799  1
  Ru  Ru14  1  0.212181  0.787819  0.418639  1
  Ru  Ru15  1  0.212464  0.787536  0.078569  1
