# generated using pymatgen
data_Hf2Ni3As2P
_symmetry_space_group_name_H-M   'P 1'
_cell_length_a   3.67497100
_cell_length_b   10.23215300
_cell_length_c   12.55429600
_cell_angle_alpha   90.00000000
_cell_angle_beta   90.00000000
_cell_angle_gamma   90.00000000
_symmetry_Int_Tables_number   1
_chemical_formula_structural   Hf2Ni3As2P
_chemical_formula_sum   'Hf8 Ni12 As8 P4'
_cell_volume   472.07750447
_cell_formula_units_Z   4
loop_
 _symmetry_equiv_pos_site_id
 _symmetry_equiv_pos_as_xyz
  1  'x, y, z'
loop_
 _atom_site_type_symbol
 _atom_site_label
 _atom_site_symmetry_multiplicity
 _atom_site_fract_x
 _atom_site_fract_y
 _atom_site_fract_z
 _atom_site_occupancy
  Hf  Hf0  1  0.250000  0.327268  0.994626  1
  Hf  Hf1  1  0.250000  0.172732  0.494626  1
  Hf  Hf2  1  0.750000  0.672732  0.005374  1
  Hf  Hf3  1  0.750000  0.827268  0.505374  1
  Hf  Hf4  1  0.250000  0.433701  0.705125  1
  Hf  Hf5  1  0.250000  0.066299  0.205125  1
  Hf  Hf6  1  0.750000  0.566299  0.294875  1
  Hf  Hf7  1  0.750000  0.933701  0.794875  1
  Ni  Ni8  1  0.250000  0.912486  0.987273  1
  Ni  Ni9  1  0.250000  0.587514  0.487273  1
  Ni  Ni10  1  0.750000  0.087514  0.012727  1
  Ni  Ni11  1  0.750000  0.412486  0.512727  1
  Ni  Ni12  1  0.250000  0.137425  0.722550  1
  Ni  Ni13  1  0.250000  0.362575  0.222550  1
  Ni  Ni14  1  0.750000  0.862575  0.277450  1
  Ni  Ni15  1  0.750000  0.637425  0.777450  1
  Ni  Ni16  1  0.250000  0.782993  0.158829  1
  Ni  Ni17  1  0.250000  0.717007  0.658829  1
  Ni  Ni18  1  0.750000  0.217007  0.841171  1
  Ni  Ni19  1  0.750000  0.282993  0.341171  1
  As  As20  1  0.250000  0.742690  0.855431  1
  As  As21  1  0.250000  0.757310  0.355431  1
  As  As22  1  0.750000  0.257310  0.144569  1
  As  As23  1  0.750000  0.242690  0.644569  1
  As  As24  1  0.250000  0.552883  0.125524  1
  As  As25  1  0.250000  0.947117  0.625524  1
  As  As26  1  0.750000  0.447117  0.874476  1
  As  As27  1  0.750000  0.052883  0.374476  1
  P  P28  1  0.250000  0.101296  0.898309  1
  P  P29  1  0.250000  0.398704  0.398309  1
  P  P30  1  0.750000  0.898704  0.101691  1
  P  P31  1  0.750000  0.601296  0.601691  1
