# generated using pymatgen
data_Er8Ti8Nb3Si16Pd
_symmetry_space_group_name_H-M   'P 1'
_cell_length_a   7.03760435
_cell_length_b   7.03760425
_cell_length_c   12.85909939
_cell_angle_alpha   90.20746567
_cell_angle_beta   89.79253409
_cell_angle_gamma   89.61097779
_symmetry_Int_Tables_number   1
_chemical_formula_structural   Er8Ti8Nb3Si16Pd
_chemical_formula_sum   'Er8 Ti8 Nb3 Si16 Pd1'
_cell_volume   636.86077088
_cell_formula_units_Z   1
loop_
 _symmetry_equiv_pos_site_id
 _symmetry_equiv_pos_as_xyz
  1  'x, y, z'
loop_
 _atom_site_type_symbol
 _atom_site_label
 _atom_site_symmetry_multiplicity
 _atom_site_fract_x
 _atom_site_fract_y
 _atom_site_fract_z
 _atom_site_occupancy
  Er  Er0  1  0.341276  0.000874  0.467360  1
  Er  Er1  1  0.498250  0.841565  0.717920  1
  Er  Er2  1  0.501272  0.157870  0.215156  1
  Er  Er3  1  0.841565  0.498250  0.282080  1
  Er  Er4  1  0.157870  0.501272  0.784844  1
  Er  Er5  1  0.657739  0.000459  0.968361  1
  Er  Er6  1  0.000874  0.341276  0.532640  1
  Er  Er7  1  0.000459  0.657739  0.031639  1
  Ti  Ti8  1  0.147490  0.004840  0.875204  1
  Ti  Ti9  1  0.492790  0.654343  0.124232  1
  Ti  Ti10  1  0.508805  0.350171  0.626723  1
  Ti  Ti11  1  0.654343  0.492790  0.875768  1
  Ti  Ti12  1  0.350171  0.508805  0.373277  1
  Ti  Ti13  1  0.849460  0.990798  0.374048  1
  Ti  Ti14  1  0.004840  0.147490  0.124796  1
  Ti  Ti15  1  0.990798  0.849460  0.625952  1
  Nb  Nb16  1  0.174937  0.825922  0.248356  1
  Nb  Nb17  1  0.825922  0.174937  0.751644  1
  Nb  Nb18  1  0.673113  0.673113  0.500000  1
  Si  Si19  1  0.203838  0.132703  0.683493  1
  Si  Si20  1  0.372474  0.711020  0.931153  1
  Si  Si21  1  0.630688  0.294715  0.432846  1
  Si  Si22  1  0.711020  0.372474  0.068847  1
  Si  Si23  1  0.294715  0.630688  0.567154  1
  Si  Si24  1  0.796385  0.866904  0.182445  1
  Si  Si25  1  0.132703  0.203838  0.316507  1
  Si  Si26  1  0.866904  0.796385  0.817555  1
  Si  Si27  1  0.288650  0.947226  0.061993  1
  Si  Si28  1  0.547704  0.793415  0.313751  1
  Si  Si29  1  0.449148  0.208611  0.814388  1
  Si  Si30  1  0.793415  0.547704  0.686249  1
  Si  Si31  1  0.208611  0.449148  0.185612  1
  Si  Si32  1  0.707069  0.048006  0.563842  1
  Si  Si33  1  0.947226  0.288650  0.938007  1
  Si  Si34  1  0.048006  0.707069  0.436158  1
  Pd  Pd35  1  0.329475  0.329475  0.000000  1
