# generated using pymatgen
data_Sr6AcY13Sn16
_symmetry_space_group_name_H-M   'P 1'
_cell_length_a   8.06267048
_cell_length_b   8.47690329
_cell_length_c   16.01197200
_cell_angle_alpha   89.99952011
_cell_angle_beta   90.46408219
_cell_angle_gamma   89.98502633
_symmetry_Int_Tables_number   1
_chemical_formula_structural   Sr6AcY13Sn16
_chemical_formula_sum   'Sr6 Ac1 Y13 Sn16'
_cell_volume   1094.32595490
_cell_formula_units_Z   1
loop_
 _symmetry_equiv_pos_site_id
 _symmetry_equiv_pos_as_xyz
  1  'x, y, z'
loop_
 _atom_site_type_symbol
 _atom_site_label
 _atom_site_symmetry_multiplicity
 _atom_site_fract_x
 _atom_site_fract_y
 _atom_site_fract_z
 _atom_site_occupancy
  Sr  Sr0  1  0.002539  0.176051  0.598242  1
  Sr  Sr1  1  0.500612  0.676365  0.408145  1
  Sr  Sr2  1  0.000426  0.821220  0.089596  1
  Sr  Sr3  1  0.499117  0.677723  0.088789  1
  Sr  Sr4  1  0.000744  0.823710  0.407989  1
  Sr  Sr5  1  0.502179  0.324585  0.596347  1
  Ac  Ac6  1  0.000715  0.175404  0.905162  1
  Y  Y7  1  0.332872  0.834809  0.874218  1
  Y  Y8  1  0.827935  0.664083  0.627562  1
  Y  Y9  1  0.669138  0.163823  0.376494  1
  Y  Y10  1  0.167100  0.338897  0.122728  1
  Y  Y11  1  0.666209  0.163978  0.123280  1
  Y  Y12  1  0.169018  0.335734  0.376461  1
  Y  Y13  1  0.328907  0.835782  0.628441  1
  Y  Y14  1  0.832263  0.663253  0.875776  1
  Y  Y15  1  0.501440  0.317925  0.901741  1
  Y  Y16  1  0.168027  0.495785  0.750724  1
  Y  Y17  1  0.667662  0.004170  0.750413  1
  Y  Y18  1  0.829026  0.505806  0.248994  1
  Y  Y19  1  0.330242  0.994881  0.249011  1
  Sn  Sn20  1  0.332976  0.051336  0.036716  1
  Sn  Sn21  1  0.836416  0.458793  0.458908  1
  Sn  Sn22  1  0.664428  0.959570  0.544411  1
  Sn  Sn23  1  0.179082  0.533433  0.953198  1
  Sn  Sn24  1  0.665201  0.967427  0.954151  1
  Sn  Sn25  1  0.163921  0.540670  0.544338  1
  Sn  Sn26  1  0.336167  0.041121  0.459286  1
  Sn  Sn27  1  0.823582  0.452414  0.037522  1
  Sn  Sn28  1  0.528983  0.626465  0.753089  1
  Sn  Sn29  1  0.028294  0.868847  0.752193  1
  Sn  Sn30  1  0.466332  0.367821  0.249928  1
  Sn  Sn31  1  0.966820  0.131766  0.249196  1
  Sn  Sn32  1  0.309486  0.144202  0.755806  1
  Sn  Sn33  1  0.798167  0.361509  0.754535  1
  Sn  Sn34  1  0.702100  0.866024  0.248427  1
  Sn  Sn35  1  0.201875  0.634622  0.248191  1
