# generated using pymatgen
data_Dy3Y(Si2Os)2
_symmetry_space_group_name_H-M   'P 1'
_cell_length_a   5.74571883
_cell_length_b   5.74571877
_cell_length_c   10.05407325
_cell_angle_alpha   63.11263872
_cell_angle_beta   63.11262872
_cell_angle_gamma   43.20249351
_symmetry_Int_Tables_number   1
_chemical_formula_structural   Dy3Y(Si2Os)2
_chemical_formula_sum   'Dy3 Y1 Si4 Os2'
_cell_volume   198.53404748
_cell_formula_units_Z   1
loop_
 _symmetry_equiv_pos_site_id
 _symmetry_equiv_pos_as_xyz
  1  'x, y, z'
loop_
 _atom_site_type_symbol
 _atom_site_label
 _atom_site_symmetry_multiplicity
 _atom_site_fract_x
 _atom_site_fract_y
 _atom_site_fract_z
 _atom_site_occupancy
  Dy  Dy0  1  0.007668  0.007668  0.321834  1
  Dy  Dy1  1  0.185301  0.185301  0.889159  1
  Dy  Dy2  1  0.992026  0.992026  0.678394  1
  Y  Y3  1  0.814868  0.814868  0.110137  1
  Si  Si4  1  0.354852  0.354852  0.561000  1
  Si  Si5  1  0.497043  0.497043  0.875605  1
  Si  Si6  1  0.645270  0.645270  0.438984  1
  Si  Si7  1  0.503054  0.503054  0.124433  1
  Os  Os8  1  0.728501  0.728501  0.627258  1
  Os  Os9  1  0.271417  0.271417  0.373195  1
