# generated using pymatgen
data_Tb3Fe8Os
_symmetry_space_group_name_H-M   'P 1'
_cell_length_a   8.75686800
_cell_length_b   8.75686769
_cell_length_c   8.75686848
_cell_angle_alpha   33.97176236
_cell_angle_beta   33.97176435
_cell_angle_gamma   33.97176471
_symmetry_Int_Tables_number   1
_chemical_formula_structural   Tb3Fe8Os
_chemical_formula_sum   'Tb3 Fe8 Os1'
_cell_volume   186.88539712
_cell_formula_units_Z   1
loop_
 _symmetry_equiv_pos_site_id
 _symmetry_equiv_pos_as_xyz
  1  'x, y, z'
loop_
 _atom_site_type_symbol
 _atom_site_label
 _atom_site_symmetry_multiplicity
 _atom_site_fract_x
 _atom_site_fract_y
 _atom_site_fract_z
 _atom_site_occupancy
  Tb  Tb0  1  0.000000  0.000000  0.000000  1
  Tb  Tb1  1  0.141941  0.141941  0.141941  1
  Tb  Tb2  1  0.858059  0.858059  0.858059  1
  Fe  Fe3  1  0.332524  0.332524  0.332524  1
  Fe  Fe4  1  0.667476  0.667476  0.667476  1
  Fe  Fe5  1  0.078436  0.580974  0.580974  1
  Fe  Fe6  1  0.580974  0.580974  0.078436  1
  Fe  Fe7  1  0.580974  0.078436  0.580974  1
  Fe  Fe8  1  0.419026  0.921564  0.419026  1
  Fe  Fe9  1  0.921564  0.419026  0.419026  1
  Fe  Fe10  1  0.419026  0.419026  0.921564  1
  Os  Os11  1  0.500000  0.500000  0.500000  1
