# generated using pymatgen
data_Dy3Lu5Re2(OsC4)2
_symmetry_space_group_name_H-M   'P 1'
_cell_length_a   5.03097900
_cell_length_b   6.50231568
_cell_length_c   9.67489619
_cell_angle_alpha   89.55373622
_cell_angle_beta   90.00000000
_cell_angle_gamma   90.00000000
_symmetry_Int_Tables_number   1
_chemical_formula_structural   Dy3Lu5Re2(OsC4)2
_chemical_formula_sum   'Dy3 Lu5 Re2 Os2 C8'
_cell_volume   316.48541100
_cell_formula_units_Z   1
loop_
 _symmetry_equiv_pos_site_id
 _symmetry_equiv_pos_as_xyz
  1  'x, y, z'
loop_
 _atom_site_type_symbol
 _atom_site_label
 _atom_site_symmetry_multiplicity
 _atom_site_fract_x
 _atom_site_fract_y
 _atom_site_fract_z
 _atom_site_occupancy
  Dy  Dy0  1  0.750000  0.466870  0.785080  1
  Dy  Dy1  1  0.750000  0.968839  0.712179  1
  Dy  Dy2  1  0.250000  0.031480  0.287320  1
  Lu  Lu3  1  0.250000  0.674276  0.556316  1
  Lu  Lu4  1  0.750000  0.327347  0.442881  1
  Lu  Lu5  1  0.750000  0.824191  0.057700  1
  Lu  Lu6  1  0.250000  0.174131  0.943080  1
  Lu  Lu7  1  0.250000  0.533188  0.216504  1
  Re  Re8  1  0.250000  0.720906  0.867828  1
  Re  Re9  1  0.750000  0.279537  0.132317  1
  Os  Os10  1  0.750000  0.776411  0.366221  1
  Os  Os11  1  0.250000  0.224125  0.632718  1
  C  C12  1  0.250000  0.455133  0.760879  1
  C  C13  1  0.750000  0.545737  0.238277  1
  C  C14  1  0.750000  0.045599  0.259119  1
  C  C15  1  0.250000  0.955331  0.741088  1
  C  C16  1  0.250000  0.824985  0.055399  1
  C  C17  1  0.750000  0.169844  0.946532  1
  C  C18  1  0.750000  0.668361  0.552770  1
  C  C19  1  0.250000  0.333710  0.445792  1
