# generated using pymatgen
data_MnCrAg2(P2O7)2
_symmetry_space_group_name_H-M   'P 1'
_cell_length_a   8.01189288
_cell_length_b   6.28736828
_cell_length_c   6.17043743
_cell_angle_alpha   107.72001381
_cell_angle_beta   101.56271170
_cell_angle_gamma   97.09188689
_symmetry_Int_Tables_number   1
_chemical_formula_structural   MnCrAg2(P2O7)2
_chemical_formula_sum   'Mn1 Cr1 Ag2 P4 O14'
_cell_volume   284.34866208
_cell_formula_units_Z   1
loop_
 _symmetry_equiv_pos_site_id
 _symmetry_equiv_pos_as_xyz
  1  'x, y, z'
loop_
 _atom_site_type_symbol
 _atom_site_label
 _atom_site_symmetry_multiplicity
 _atom_site_fract_x
 _atom_site_fract_y
 _atom_site_fract_z
 _atom_site_occupancy
  Mn  Mn0  1  0.236361  0.688116  0.364908  1
  Cr  Cr1  1  0.775756  0.315791  0.624676  1
  Ag  Ag2  1  0.916366  0.958035  0.106281  1
  Ag  Ag3  1  0.504718  0.988976  0.989877  1
  P  P4  1  0.200128  0.542608  0.808167  1
  P  P5  1  0.331632  0.240448  0.457447  1
  P  P6  1  0.684883  0.770986  0.542282  1
  P  P7  1  0.795790  0.458530  0.174313  1
  O  O8  1  0.031590  0.385290  0.775129  1
  O  O9  1  0.189473  0.711263  0.671344  1
  O  O10  1  0.214248  0.008894  0.401996  1
  O  O11  1  0.241287  0.362866  0.298750  1
  O  O12  1  0.340160  0.387567  0.726336  1
  O  O13  1  0.293832  0.682235  0.067154  1
  O  O14  1  0.504835  0.792969  0.580298  1
  O  O15  1  0.517867  0.224603  0.440300  1
  O  O16  1  0.703305  0.317682  0.917808  1
  O  O17  1  0.653564  0.597070  0.273275  1
  O  O18  1  0.784146  0.655998  0.703018  1
  O  O19  1  0.796577  0.991706  0.557469  1
  O  O20  1  0.825603  0.289219  0.310039  1
  O  O21  1  0.957874  0.629151  0.209135  1
