# generated using pymatgen
data_NaPr(SmB12)2
_symmetry_space_group_name_H-M   'P 1'
_cell_length_a   7.15817812
_cell_length_b   7.15817845
_cell_length_c   5.84935500
_cell_angle_alpha   90.00000000
_cell_angle_beta   90.00000000
_cell_angle_gamma   109.42597560
_symmetry_Int_Tables_number   1
_chemical_formula_structural   NaPr(SmB12)2
_chemical_formula_sum   'Na1 Pr1 Sm2 B24'
_cell_volume   282.65575986
_cell_formula_units_Z   1
loop_
 _symmetry_equiv_pos_site_id
 _symmetry_equiv_pos_as_xyz
  1  'x, y, z'
loop_
 _atom_site_type_symbol
 _atom_site_label
 _atom_site_symmetry_multiplicity
 _atom_site_fract_x
 _atom_site_fract_y
 _atom_site_fract_z
 _atom_site_occupancy
  Na  Na0  1  0.748409  0.251591  0.500000  1
  Pr  Pr1  1  0.998970  0.001030  0.000000  1
  Sm  Sm2  1  0.500428  0.499572  0.000000  1
  Sm  Sm3  1  0.251500  0.748500  0.500000  1
  B  B4  1  0.175417  0.325640  0.649285  1
  B  B5  1  0.925038  0.574329  0.150269  1
  B  B6  1  0.674360  0.824583  0.649285  1
  B  B7  1  0.425671  0.074962  0.150269  1
  B  B8  1  0.175417  0.325640  0.350715  1
  B  B9  1  0.925038  0.574329  0.849731  1
  B  B10  1  0.674360  0.824583  0.350715  1
  B  B11  1  0.425671  0.074962  0.849731  1
  B  B12  1  0.400989  0.399211  0.500000  1
  B  B13  1  0.149769  0.650040  0.000000  1
  B  B14  1  0.898800  0.900205  0.500000  1
  B  B15  1  0.649704  0.149514  0.000000  1
  B  B16  1  0.325832  0.175467  0.649318  1
  B  B17  1  0.075098  0.425748  0.150310  1
  B  B18  1  0.824533  0.674168  0.649318  1
  B  B19  1  0.574252  0.924902  0.150310  1
  B  B20  1  0.099795  0.101200  0.500000  1
  B  B21  1  0.850486  0.350296  0.000000  1
  B  B22  1  0.600789  0.599011  0.500000  1
  B  B23  1  0.349960  0.850231  0.000000  1
  B  B24  1  0.325832  0.175467  0.350682  1
  B  B25  1  0.075098  0.425748  0.849690  1
  B  B26  1  0.824533  0.674168  0.350682  1
  B  B27  1  0.574252  0.924902  0.849690  1
