# generated using pymatgen
data_PrNd4(B3Ru)2
_symmetry_space_group_name_H-M   'P 1'
_cell_length_a   8.80065933
_cell_length_b   8.80065915
_cell_length_c   8.80066037
_cell_angle_alpha   37.09945964
_cell_angle_beta   37.09946277
_cell_angle_gamma   37.09944875
_symmetry_Int_Tables_number   1
_chemical_formula_structural   PrNd4(B3Ru)2
_chemical_formula_sum   'Pr1 Nd4 B6 Ru2'
_cell_volume   222.26039521
_cell_formula_units_Z   1
loop_
 _symmetry_equiv_pos_site_id
 _symmetry_equiv_pos_as_xyz
  1  'x, y, z'
loop_
 _atom_site_type_symbol
 _atom_site_label
 _atom_site_symmetry_multiplicity
 _atom_site_fract_x
 _atom_site_fract_y
 _atom_site_fract_z
 _atom_site_occupancy
  Pr  Pr0  1  0.000000  0.000000  0.000000  1
  Nd  Nd1  1  0.582412  0.582412  0.582412  1
  Nd  Nd2  1  0.417588  0.417588  0.417588  1
  Nd  Nd3  1  0.751080  0.751080  0.751080  1
  Nd  Nd4  1  0.248920  0.248920  0.248920  1
  B  B5  1  0.500000  0.827517  0.172483  1
  B  B6  1  0.172483  0.500000  0.827517  1
  B  B7  1  0.827517  0.172483  0.500000  1
  B  B8  1  0.500000  0.172483  0.827517  1
  B  B9  1  0.827517  0.500000  0.172483  1
  B  B10  1  0.172483  0.827517  0.500000  1
  Ru  Ru11  1  0.883716  0.883716  0.883716  1
  Ru  Ru12  1  0.116284  0.116284  0.116284  1
