# generated using pymatgen
data_Yb6Y2SiPd24
_symmetry_space_group_name_H-M   'P 1'
_cell_length_a   8.29103714
_cell_length_b   8.29103714
_cell_length_c   8.29103714
_cell_angle_alpha   89.98516896
_cell_angle_beta   90.01483104
_cell_angle_gamma   90.01483104
_symmetry_Int_Tables_number   1
_chemical_formula_structural   Yb6Y2SiPd24
_chemical_formula_sum   'Yb6 Y2 Si1 Pd24'
_cell_volume   569.93658779
_cell_formula_units_Z   1
loop_
 _symmetry_equiv_pos_site_id
 _symmetry_equiv_pos_as_xyz
  1  'x, y, z'
loop_
 _atom_site_type_symbol
 _atom_site_label
 _atom_site_symmetry_multiplicity
 _atom_site_fract_x
 _atom_site_fract_y
 _atom_site_fract_z
 _atom_site_occupancy
  Yb  Yb0  1  0.252819  0.252788  0.252788  1
  Yb  Yb1  1  0.747181  0.747212  0.747212  1
  Yb  Yb2  1  0.747212  0.747181  0.252788  1
  Yb  Yb3  1  0.747212  0.252788  0.747181  1
  Yb  Yb4  1  0.252788  0.252819  0.747212  1
  Yb  Yb5  1  0.252788  0.747212  0.252819  1
  Y  Y6  1  0.253240  0.746760  0.746760  1
  Y  Y7  1  0.746760  0.253240  0.253240  1
  Si  Si8  1  0.000000  0.000000  0.000000  1
  Pd  Pd9  1  0.257701  0.499544  0.000635  1
  Pd  Pd10  1  0.742299  0.500456  0.999365  1
  Pd  Pd11  1  0.000635  0.257701  0.500456  1
  Pd  Pd12  1  0.499544  0.257701  0.999365  1
  Pd  Pd13  1  0.999365  0.742299  0.499544  1
  Pd  Pd14  1  0.500456  0.742299  0.000635  1
  Pd  Pd15  1  0.499544  0.999365  0.257701  1
  Pd  Pd16  1  0.257701  0.000635  0.499544  1
  Pd  Pd17  1  0.500456  0.000635  0.742299  1
  Pd  Pd18  1  0.742299  0.999365  0.500456  1
  Pd  Pd19  1  0.000635  0.500456  0.257701  1
  Pd  Pd20  1  0.999365  0.499544  0.742299  1
  Pd  Pd21  1  0.252459  0.499299  0.499299  1
  Pd  Pd22  1  0.747541  0.500701  0.500701  1
  Pd  Pd23  1  0.499299  0.252459  0.500701  1
  Pd  Pd24  1  0.500701  0.747541  0.499299  1
  Pd  Pd25  1  0.499299  0.500701  0.252459  1
  Pd  Pd26  1  0.500701  0.499299  0.747541  1
  Pd  Pd27  1  0.281331  0.000757  0.000757  1
  Pd  Pd28  1  0.718669  0.999243  0.999243  1
  Pd  Pd29  1  0.000757  0.281331  0.999243  1
  Pd  Pd30  1  0.999243  0.718669  0.000757  1
  Pd  Pd31  1  0.000757  0.999243  0.281331  1
  Pd  Pd32  1  0.999243  0.000757  0.718669  1
