# generated using pymatgen
data_Ho4Ga4PdRh3
_symmetry_space_group_name_H-M   'P 1'
_cell_length_a   4.34252900
_cell_length_b   6.85306031
_cell_length_c   7.74038404
_cell_angle_alpha   89.93476912
_cell_angle_beta   90.00000000
_cell_angle_gamma   90.00000000
_symmetry_Int_Tables_number   1
_chemical_formula_structural   Ho4Ga4PdRh3
_chemical_formula_sum   'Ho4 Ga4 Pd1 Rh3'
_cell_volume   230.35068549
_cell_formula_units_Z   1
loop_
 _symmetry_equiv_pos_site_id
 _symmetry_equiv_pos_as_xyz
  1  'x, y, z'
loop_
 _atom_site_type_symbol
 _atom_site_label
 _atom_site_symmetry_multiplicity
 _atom_site_fract_x
 _atom_site_fract_y
 _atom_site_fract_z
 _atom_site_occupancy
  Ho  Ho0  1  0.250000  0.029304  0.809860  1
  Ho  Ho1  1  0.250000  0.522518  0.686032  1
  Ho  Ho2  1  0.750000  0.980196  0.195105  1
  Ho  Ho3  1  0.750000  0.478066  0.308383  1
  Ga  Ga4  1  0.250000  0.158374  0.426738  1
  Ga  Ga5  1  0.250000  0.657884  0.074843  1
  Ga  Ga6  1  0.750000  0.845214  0.572034  1
  Ga  Ga7  1  0.750000  0.334915  0.925978  1
  Pd  Pd8  1  0.750000  0.723384  0.897026  1
  Rh  Rh9  1  0.250000  0.769118  0.395218  1
  Rh  Rh10  1  0.250000  0.269039  0.104087  1
  Rh  Rh11  1  0.750000  0.231987  0.604699  1
