# generated using pymatgen
data_Eu4H9Pt2F3
_symmetry_space_group_name_H-M   'P 1'
_cell_length_a   7.43414118
_cell_length_b   7.43414149
_cell_length_c   5.61250309
_cell_angle_alpha   90.02650042
_cell_angle_beta   89.97350386
_cell_angle_gamma   135.65139490
_symmetry_Int_Tables_number   1
_chemical_formula_structural   Eu4H9Pt2F3
_chemical_formula_sum   'Eu4 H9 Pt2 F3'
_cell_volume   216.82488041
_cell_formula_units_Z   1
loop_
 _symmetry_equiv_pos_site_id
 _symmetry_equiv_pos_as_xyz
  1  'x, y, z'
loop_
 _atom_site_type_symbol
 _atom_site_label
 _atom_site_symmetry_multiplicity
 _atom_site_fract_x
 _atom_site_fract_y
 _atom_site_fract_z
 _atom_site_occupancy
  Eu  Eu0  1  0.361263  0.645632  0.002869  1
  Eu  Eu1  1  0.854741  0.138794  0.496653  1
  Eu  Eu2  1  0.638794  0.354741  0.003347  1
  Eu  Eu3  1  0.145632  0.861263  0.497131  1
  H  H4  1  0.499895  0.999895  0.250000  1
  H  H5  1  0.126290  0.884698  0.003982  1
  H  H6  1  0.615330  0.374180  0.497017  1
  H  H7  1  0.874180  0.115330  0.002983  1
  H  H8  1  0.384698  0.626290  0.496018  1
  H  H9  1  0.781584  0.780328  0.216232  1
  H  H10  1  0.218352  0.218656  0.784548  1
  H  H11  1  0.718656  0.718352  0.715452  1
  H  H12  1  0.280328  0.281584  0.283768  1
  Pt  Pt13  1  0.000084  0.999864  0.001019  1
  Pt  Pt14  1  0.499864  0.500084  0.498981  1
  F  F15  1  0.999463  0.499463  0.250000  1
  F  F16  1  0.500409  0.000409  0.750000  1
  F  F17  1  0.000435  0.500435  0.750000  1
