# generated using pymatgen
data_Pr8Dy11HoPb16
_symmetry_space_group_name_H-M   'P 1'
_cell_length_a   8.30176892
_cell_length_b   8.42868707
_cell_length_c   15.88547400
_cell_angle_alpha   90.00000000
_cell_angle_beta   90.00000000
_cell_angle_gamma   90.15840890
_symmetry_Int_Tables_number   1
_chemical_formula_structural   Pr8Dy11HoPb16
_chemical_formula_sum   'Pr8 Dy11 Ho1 Pb16'
_cell_volume   1111.55021962
_cell_formula_units_Z   1
loop_
 _symmetry_equiv_pos_site_id
 _symmetry_equiv_pos_as_xyz
  1  'x, y, z'
loop_
 _atom_site_type_symbol
 _atom_site_label
 _atom_site_symmetry_multiplicity
 _atom_site_fract_x
 _atom_site_fract_y
 _atom_site_fract_z
 _atom_site_occupancy
  Pr  Pr0  1  0.477485  0.677734  0.597263  1
  Pr  Pr1  1  0.977521  0.822254  0.902761  1
  Pr  Pr2  1  0.522589  0.322111  0.097330  1
  Pr  Pr3  1  0.022459  0.177569  0.402656  1
  Pr  Pr4  1  0.522589  0.322111  0.402670  1
  Pr  Pr5  1  0.022459  0.177569  0.097344  1
  Pr  Pr6  1  0.477485  0.677734  0.902737  1
  Pr  Pr7  1  0.977521  0.822254  0.597239  1
  Dy  Dy8  1  0.635013  0.158883  0.622349  1
  Dy  Dy9  1  0.135030  0.341168  0.877595  1
  Dy  Dy10  1  0.365066  0.841217  0.122349  1
  Dy  Dy11  1  0.864901  0.658858  0.377648  1
  Dy  Dy12  1  0.365066  0.841217  0.377651  1
  Dy  Dy13  1  0.864901  0.658858  0.122352  1
  Dy  Dy14  1  0.635013  0.158883  0.877651  1
  Dy  Dy15  1  0.135030  0.341168  0.622405  1
  Dy  Dy16  1  0.800195  0.495385  0.750000  1
  Dy  Dy17  1  0.300186  0.004638  0.750000  1
  Dy  Dy18  1  0.199809  0.504593  0.250000  1
  Ho  Ho19  1  0.699795  0.995227  0.250000  1
  Pb  Pb20  1  0.704402  0.959089  0.456641  1
  Pb  Pb21  1  0.204438  0.540848  0.043249  1
  Pb  Pb22  1  0.295736  0.041010  0.956669  1
  Pb  Pb23  1  0.795736  0.459178  0.543344  1
  Pb  Pb24  1  0.295736  0.041010  0.543331  1
  Pb  Pb25  1  0.795736  0.459178  0.956656  1
  Pb  Pb26  1  0.704402  0.959089  0.043359  1
  Pb  Pb27  1  0.204438  0.540848  0.456751  1
  Pb  Pb28  1  0.437960  0.371846  0.750000  1
  Pb  Pb29  1  0.938010  0.128868  0.750000  1
  Pb  Pb30  1  0.562051  0.628710  0.250000  1
  Pb  Pb31  1  0.061697  0.871366  0.250000  1
  Pb  Pb32  1  0.665397  0.850371  0.750000  1
  Pb  Pb33  1  0.165198  0.649866  0.750000  1
  Pb  Pb34  1  0.334378  0.149454  0.250000  1
  Pb  Pb35  1  0.834570  0.349838  0.250000  1
