# generated using pymatgen
data_YbDy3Ir7Ru
_symmetry_space_group_name_H-M   'P 1'
_cell_length_a   5.33478446
_cell_length_b   5.35411327
_cell_length_c   8.73235086
_cell_angle_alpha   89.99990709
_cell_angle_beta   89.95732621
_cell_angle_gamma   120.11743012
_symmetry_Int_Tables_number   1
_chemical_formula_structural   YbDy3Ir7Ru
_chemical_formula_sum   'Yb1 Dy3 Ir7 Ru1'
_cell_volume   215.75007773
_cell_formula_units_Z   1
loop_
 _symmetry_equiv_pos_site_id
 _symmetry_equiv_pos_as_xyz
  1  'x, y, z'
loop_
 _atom_site_type_symbol
 _atom_site_label
 _atom_site_symmetry_multiplicity
 _atom_site_fract_x
 _atom_site_fract_y
 _atom_site_fract_z
 _atom_site_occupancy
  Yb  Yb0  1  0.666597  0.333314  0.934739  1
  Dy  Dy1  1  0.666777  0.333406  0.574696  1
  Dy  Dy2  1  0.333459  0.666725  0.431308  1
  Dy  Dy3  1  0.333119  0.666552  0.062506  1
  Ir  Ir4  1  0.002320  0.001172  0.498833  1
  Ir  Ir5  1  0.002032  0.001013  0.999766  1
  Ir  Ir6  1  0.169507  0.338939  0.749181  1
  Ir  Ir7  1  0.169518  0.830570  0.749178  1
  Ir  Ir8  1  0.659299  0.829656  0.749133  1
  Ir  Ir9  1  0.827954  0.658895  0.250331  1
  Ir  Ir10  1  0.827950  0.169039  0.250321  1
  Ru  Ru11  1  0.341469  0.170720  0.250007  1
