# generated using pymatgen
data_Np2H13
_symmetry_space_group_name_H-M   'P 1'
_cell_length_a   3.58320013
_cell_length_b   3.60686291
_cell_length_c   14.00906534
_cell_angle_alpha   98.90897100
_cell_angle_beta   67.38481184
_cell_angle_gamma   120.34232357
_symmetry_Int_Tables_number   1
_chemical_formula_structural   Np2H13
_chemical_formula_sum   'Np2 H13'
_cell_volume   144.06323712
_cell_formula_units_Z   1
loop_
 _symmetry_equiv_pos_site_id
 _symmetry_equiv_pos_as_xyz
  1  'x, y, z'
loop_
 _atom_site_type_symbol
 _atom_site_label
 _atom_site_symmetry_multiplicity
 _atom_site_fract_x
 _atom_site_fract_y
 _atom_site_fract_z
 _atom_site_occupancy
  Np  Np0  1  0.766341  0.866655  0.087539  1
  Np  Np1  1  0.480378  0.574127  0.844068  1
  H  H2  1  0.858149  0.904771  0.380669  1
  H  H3  1  0.007852  0.005146  0.326884  1
  H  H4  1  0.617352  0.223344  0.969558  1
  H  H5  1  0.910963  0.254234  0.782296  1
  H  H6  1  0.899383  0.699228  0.652530  1
  H  H7  1  0.970900  0.516179  0.166998  1
  H  H8  1  0.692770  0.474544  0.654876  1
  H  H9  1  0.284209  0.233101  0.489958  1
  H  H10  1  0.214664  0.547334  0.013315  1
  H  H11  1  0.333878  0.187550  0.150535  1
  H  H12  1  0.269948  0.926845  0.767086  1
  H  H13  1  0.028477  0.895955  0.920258  1
  H  H14  1  0.496910  0.287027  0.499738  1
