# generated using pymatgen
data_La9Pr5Rh6
_symmetry_space_group_name_H-M   'P 1'
_cell_length_a   6.49256888
_cell_length_b   10.24755519
_cell_length_c   10.24755565
_cell_angle_alpha   120.23123761
_cell_angle_beta   90.10978872
_cell_angle_gamma   89.89021446
_symmetry_Int_Tables_number   1
_chemical_formula_structural   La9Pr5Rh6
_chemical_formula_sum   'La9 Pr5 Rh6'
_cell_volume   589.07421530
_cell_formula_units_Z   1
loop_
 _symmetry_equiv_pos_site_id
 _symmetry_equiv_pos_as_xyz
  1  'x, y, z'
loop_
 _atom_site_type_symbol
 _atom_site_label
 _atom_site_symmetry_multiplicity
 _atom_site_fract_x
 _atom_site_fract_y
 _atom_site_fract_z
 _atom_site_occupancy
  La  La0  1  0.469663  0.333169  0.666831  1
  La  La1  1  0.968988  0.667426  0.332574  1
  La  La2  1  0.254206  0.125914  0.874086  1
  La  La3  1  0.253563  0.748714  0.875361  1
  La  La4  1  0.253563  0.124639  0.251286  1
  La  La5  1  0.753751  0.874467  0.125533  1
  La  La6  1  0.753351  0.250858  0.125291  1
  La  La7  1  0.753351  0.874709  0.749142  1
  La  La8  1  0.434580  0.541498  0.458502  1
  Pr  Pr9  1  0.440987  0.919237  0.458717  1
  Pr  Pr10  1  0.440987  0.541283  0.080763  1
  Pr  Pr11  1  0.938572  0.458904  0.541096  1
  Pr  Pr12  1  0.940425  0.081895  0.540573  1
  Pr  Pr13  1  0.940425  0.459427  0.918105  1
  Rh  Rh14  1  0.180544  0.811897  0.188103  1
  Rh  Rh15  1  0.183537  0.377978  0.191606  1
  Rh  Rh16  1  0.183537  0.808394  0.622022  1
  Rh  Rh17  1  0.681442  0.188071  0.811929  1
  Rh  Rh18  1  0.680265  0.623696  0.812176  1
  Rh  Rh19  1  0.680265  0.187824  0.376304  1
