# generated using pymatgen
data_Y10Sn3BiPb2
_symmetry_space_group_name_H-M   'P 1'
_cell_length_a   9.04897210
_cell_length_b   9.05377920
_cell_length_c   6.57775600
_cell_angle_alpha   90.00000000
_cell_angle_beta   90.00000000
_cell_angle_gamma   120.03673216
_symmetry_Int_Tables_number   1
_chemical_formula_structural   Y10Sn3BiPb2
_chemical_formula_sum   'Y10 Sn3 Bi1 Pb2'
_cell_volume   466.52687952
_cell_formula_units_Z   1
loop_
 _symmetry_equiv_pos_site_id
 _symmetry_equiv_pos_as_xyz
  1  'x, y, z'
loop_
 _atom_site_type_symbol
 _atom_site_label
 _atom_site_symmetry_multiplicity
 _atom_site_fract_x
 _atom_site_fract_y
 _atom_site_fract_z
 _atom_site_occupancy
  Y  Y0  1  0.762564  0.760383  0.250000  1
  Y  Y1  1  0.999802  0.241683  0.250000  1
  Y  Y2  1  0.761816  0.005320  0.750000  1
  Y  Y3  1  0.328294  0.667035  0.501677  1
  Y  Y4  1  0.238377  0.997610  0.250000  1
  Y  Y5  1  0.668965  0.331455  0.501690  1
  Y  Y6  1  0.005593  0.760912  0.750000  1
  Y  Y7  1  0.328294  0.667035  0.998323  1
  Y  Y8  1  0.236373  0.236168  0.750000  1
  Y  Y9  1  0.668965  0.331455  0.998310  1
  Sn  Sn10  1  0.395133  0.000705  0.750000  1
  Sn  Sn11  1  0.000615  0.395253  0.750000  1
  Sn  Sn12  1  0.998489  0.605403  0.250000  1
  Bi  Bi13  1  0.607444  0.607797  0.750000  1
  Pb  Pb14  1  0.605555  0.998166  0.250000  1
  Pb  Pb15  1  0.393722  0.393623  0.250000  1
