# generated using pymatgen
data_Ho11ErIn20
_symmetry_space_group_name_H-M   'P 1'
_cell_length_a   6.51653001
_cell_length_b   10.39335000
_cell_length_c   12.18963600
_cell_angle_alpha   90.00000000
_cell_angle_beta   89.99615773
_cell_angle_gamma   90.00000000
_symmetry_Int_Tables_number   1
_chemical_formula_structural   Ho11ErIn20
_chemical_formula_sum   'Ho11 Er1 In20'
_cell_volume   825.58670135
_cell_formula_units_Z   1
loop_
 _symmetry_equiv_pos_site_id
 _symmetry_equiv_pos_as_xyz
  1  'x, y, z'
loop_
 _atom_site_type_symbol
 _atom_site_label
 _atom_site_symmetry_multiplicity
 _atom_site_fract_x
 _atom_site_fract_y
 _atom_site_fract_z
 _atom_site_occupancy
  Ho  Ho0  1  0.852368  0.750000  0.055393  1
  Ho  Ho1  1  0.648233  0.750000  0.555109  1
  Ho  Ho2  1  0.147867  0.250000  0.944376  1
  Ho  Ho3  1  0.890505  0.509725  0.358691  1
  Ho  Ho4  1  0.609428  0.991339  0.858534  1
  Ho  Ho5  1  0.110623  0.009890  0.640777  1
  Ho  Ho6  1  0.389776  0.490669  0.141169  1
  Ho  Ho7  1  0.110623  0.490110  0.640777  1
  Ho  Ho8  1  0.389776  0.009331  0.141169  1
  Ho  Ho9  1  0.890505  0.990275  0.358691  1
  Ho  Ho10  1  0.609428  0.508661  0.858534  1
  Er  Er11  1  0.351244  0.250000  0.445534  1
  In  In12  1  0.873306  0.043728  0.099520  1
  In  In13  1  0.627182  0.456218  0.599087  1
  In  In14  1  0.126217  0.543767  0.900603  1
  In  In15  1  0.373695  0.956749  0.400602  1
  In  In16  1  0.126217  0.956233  0.900603  1
  In  In17  1  0.373695  0.543251  0.400602  1
  In  In18  1  0.873306  0.456272  0.099520  1
  In  In19  1  0.627182  0.043782  0.599087  1
  In  In20  1  0.155278  0.750000  0.244443  1
  In  In21  1  0.345258  0.750000  0.744101  1
  In  In22  1  0.845072  0.250000  0.755287  1
  In  In23  1  0.652796  0.250000  0.256704  1
  In  In24  1  0.386017  0.750000  0.007239  1
  In  In25  1  0.114803  0.750000  0.507929  1
  In  In26  1  0.614109  0.250000  0.993499  1
  In  In27  1  0.886768  0.250000  0.491902  1
  In  In28  1  0.624719  0.750000  0.283377  1
  In  In29  1  0.874307  0.750000  0.783194  1
  In  In30  1  0.375311  0.250000  0.716274  1
  In  In31  1  0.124384  0.250000  0.217668  1
