# generated using pymatgen
data_CeNd5OsI10
_symmetry_space_group_name_H-M   'P 1'
_cell_length_a   7.96753261
_cell_length_b   9.97772073
_cell_length_c   10.00270600
_cell_angle_alpha   107.26734169
_cell_angle_beta   97.24782235
_cell_angle_gamma   104.80959048
_symmetry_Int_Tables_number   1
_chemical_formula_structural   CeNd5OsI10
_chemical_formula_sum   'Ce1 Nd5 Os1 I10'
_cell_volume   716.33428304
_cell_formula_units_Z   1
loop_
 _symmetry_equiv_pos_site_id
 _symmetry_equiv_pos_as_xyz
  1  'x, y, z'
loop_
 _atom_site_type_symbol
 _atom_site_label
 _atom_site_symmetry_multiplicity
 _atom_site_fract_x
 _atom_site_fract_y
 _atom_site_fract_z
 _atom_site_occupancy
  Ce  Ce0  1  0.888230  0.958845  0.234331  1
  Nd  Nd1  1  0.110089  0.041012  0.775952  1
  Nd  Nd2  1  0.030932  0.703394  0.909983  1
  Nd  Nd3  1  0.967045  0.294891  0.089597  1
  Nd  Nd4  1  0.637213  0.868575  0.824426  1
  Nd  Nd5  1  0.360600  0.130885  0.178598  1
  Os  Os6  1  0.992719  0.996514  0.014484  1
  I  I7  1  0.647232  0.543774  0.716302  1
  I  I8  1  0.358881  0.458220  0.266265  1
  I  I9  1  0.745565  0.915853  0.540250  1
  I  I10  1  0.263480  0.088275  0.462067  1
  I  I11  1  0.086121  0.366392  0.817056  1
  I  I12  1  0.916018  0.629900  0.178076  1
  I  I13  1  0.456565  0.814217  0.086721  1
  I  I14  1  0.539654  0.183655  0.907951  1
  I  I15  1  0.207683  0.741442  0.646982  1
  I  I16  1  0.791973  0.264155  0.350961  1
