# generated using pymatgen
data_Li2CrSn3S8
_symmetry_space_group_name_H-M   'P 1'
_cell_length_a   7.43914890
_cell_length_b   7.43914949
_cell_length_c   7.43914829
_cell_angle_alpha   61.05490455
_cell_angle_beta   61.05490064
_cell_angle_gamma   61.05490329
_symmetry_Int_Tables_number   1
_chemical_formula_structural   Li2CrSn3S8
_chemical_formula_sum   'Li2 Cr1 Sn3 S8'
_cell_volume   298.02302533
_cell_formula_units_Z   1
loop_
 _symmetry_equiv_pos_site_id
 _symmetry_equiv_pos_as_xyz
  1  'x, y, z'
loop_
 _atom_site_type_symbol
 _atom_site_label
 _atom_site_symmetry_multiplicity
 _atom_site_fract_x
 _atom_site_fract_y
 _atom_site_fract_z
 _atom_site_occupancy
  Li  Li0  1  0.381408  0.381408  0.381408  1
  Li  Li1  1  0.618592  0.618592  0.618592  1
  Cr  Cr2  1  0.000000  0.000000  0.000000  1
  Sn  Sn3  1  0.000000  0.500000  0.000000  1
  Sn  Sn4  1  0.000000  0.000000  0.500000  1
  Sn  Sn5  1  0.500000  0.000000  0.000000  1
  S  S6  1  0.772446  0.219840  0.772446  1
  S  S7  1  0.751169  0.751169  0.751169  1
  S  S8  1  0.780160  0.227554  0.227554  1
  S  S9  1  0.227554  0.227554  0.780160  1
  S  S10  1  0.227554  0.780160  0.227554  1
  S  S11  1  0.248831  0.248831  0.248831  1
  S  S12  1  0.219840  0.772446  0.772446  1
  S  S13  1  0.772446  0.772446  0.219840  1
