# generated using pymatgen
data_EuMnAs4F24
_symmetry_space_group_name_H-M   'P 1'
_cell_length_a   9.90662998
_cell_length_b   9.90662935
_cell_length_c   9.90662904
_cell_angle_alpha   132.08432258
_cell_angle_beta   132.08431457
_cell_angle_gamma   70.09588700
_symmetry_Int_Tables_number   1
_chemical_formula_structural   EuMnAs4F24
_chemical_formula_sum   'Eu1 Mn1 As4 F24'
_cell_volume   524.97335811
_cell_formula_units_Z   1
loop_
 _symmetry_equiv_pos_site_id
 _symmetry_equiv_pos_as_xyz
  1  'x, y, z'
loop_
 _atom_site_type_symbol
 _atom_site_label
 _atom_site_symmetry_multiplicity
 _atom_site_fract_x
 _atom_site_fract_y
 _atom_site_fract_z
 _atom_site_occupancy
  Eu  Eu0  1  0.750000  0.250000  0.500000  1
  Mn  Mn1  1  0.000000  0.000000  0.000000  1
  As  As2  1  0.788409  0.788409  0.000000  1
  As  As3  1  0.211591  0.211591  0.000000  1
  As  As4  1  0.975764  0.475764  0.500000  1
  As  As5  1  0.524236  0.024236  0.500000  1
  F  F6  1  0.868247  0.764494  0.200272  1
  F  F7  1  0.564221  0.667975  0.799728  1
  F  F8  1  0.425633  0.795578  0.316783  1
  F  F9  1  0.332025  0.131753  0.896247  1
  F  F10  1  0.235506  0.435779  0.103753  1
  F  F11  1  0.204422  0.521204  0.630054  1
  F  F12  1  0.632862  0.255003  0.672890  1
  F  F13  1  0.744997  0.417887  0.377859  1
  F  F14  1  0.040029  0.367138  0.622141  1
  F  F15  1  0.086704  0.270436  0.101190  1
  F  F16  1  0.169245  0.985513  0.898810  1
  F  F17  1  0.582113  0.959971  0.327110  1
  F  F18  1  0.729564  0.830755  0.816268  1
  F  F19  1  0.014487  0.913296  0.183732  1
  F  F20  1  0.302833  0.065148  0.312981  1
  F  F21  1  0.934852  0.247833  0.237685  1
  F  F22  1  0.010147  0.697167  0.762315  1
  F  F23  1  0.425819  0.276028  0.281528  1
  F  F24  1  0.994501  0.144291  0.718472  1
  F  F25  1  0.752167  0.989853  0.687019  1
  F  F26  1  0.723972  0.005499  0.149790  1
  F  F27  1  0.855709  0.574181  0.850210  1
  F  F28  1  0.478796  0.108849  0.683217  1
  F  F29  1  0.891151  0.574367  0.369946  1
