# generated using pymatgen
data_Lu5P12IrRh18
_symmetry_space_group_name_H-M   'P 1'
_cell_length_a   12.66639400
_cell_length_b   12.66639315
_cell_length_c   3.89563800
_cell_angle_alpha   90.00000000
_cell_angle_beta   90.00000000
_cell_angle_gamma   120.00000221
_symmetry_Int_Tables_number   1
_chemical_formula_structural   Lu5P12IrRh18
_chemical_formula_sum   'Lu5 P12 Ir1 Rh18'
_cell_volume   541.27151508
_cell_formula_units_Z   1
loop_
 _symmetry_equiv_pos_site_id
 _symmetry_equiv_pos_as_xyz
  1  'x, y, z'
loop_
 _atom_site_type_symbol
 _atom_site_label
 _atom_site_symmetry_multiplicity
 _atom_site_fract_x
 _atom_site_fract_y
 _atom_site_fract_z
 _atom_site_occupancy
  Lu  Lu0  1  0.666667  0.333333  0.000000  1
  Lu  Lu1  1  0.333333  0.666667  0.000000  1
  Lu  Lu2  1  0.813032  0.813032  0.500000  1
  Lu  Lu3  1  0.186968  0.000000  0.500000  1
  Lu  Lu4  1  0.000000  0.186968  0.500000  1
  P  P5  1  0.684630  0.167935  0.500000  1
  P  P6  1  0.832065  0.516695  0.500000  1
  P  P7  1  0.483305  0.315370  0.500000  1
  P  P8  1  0.167935  0.684630  0.500000  1
  P  P9  1  0.516695  0.832065  0.500000  1
  P  P10  1  0.315370  0.483305  0.500000  1
  P  P11  1  0.637845  0.637845  0.000000  1
  P  P12  1  0.362155  0.000000  0.000000  1
  P  P13  1  0.000000  0.362155  0.000000  1
  P  P14  1  0.179073  0.179073  0.000000  1
  P  P15  1  0.820927  0.000000  0.000000  1
  P  P16  1  0.000000  0.820927  0.000000  1
  Ir  Ir17  1  0.000000  0.000000  0.000000  1
  Rh  Rh18  1  0.805987  0.180184  0.000000  1
  Rh  Rh19  1  0.819816  0.625803  0.000000  1
  Rh  Rh20  1  0.374197  0.194013  0.000000  1
  Rh  Rh21  1  0.180184  0.805987  0.000000  1
  Rh  Rh22  1  0.625803  0.819816  0.000000  1
  Rh  Rh23  1  0.194013  0.374197  0.000000  1
  Rh  Rh24  1  0.455420  0.455420  0.000000  1
  Rh  Rh25  1  0.544580  0.000000  0.000000  1
  Rh  Rh26  1  0.000000  0.544580  0.000000  1
  Rh  Rh27  1  0.281841  0.281841  0.500000  1
  Rh  Rh28  1  0.718159  0.000000  0.500000  1
  Rh  Rh29  1  0.000000  0.718159  0.500000  1
  Rh  Rh30  1  0.866500  0.357520  0.500000  1
  Rh  Rh31  1  0.642480  0.508982  0.500000  1
  Rh  Rh32  1  0.491018  0.133500  0.500000  1
  Rh  Rh33  1  0.357520  0.866500  0.500000  1
  Rh  Rh34  1  0.508982  0.642480  0.500000  1
  Rh  Rh35  1  0.133500  0.491018  0.500000  1
