# generated using pymatgen
data_YHo19Cd6TcPd
_symmetry_space_group_name_H-M   'P 1'
_cell_length_a   9.56453507
_cell_length_b   9.56248111
_cell_length_c   9.86398100
_cell_angle_alpha   90.00000000
_cell_angle_beta   90.00000000
_cell_angle_gamma   119.99293208
_symmetry_Int_Tables_number   1
_chemical_formula_structural   YHo19Cd6TcPd
_chemical_formula_sum   'Y1 Ho19 Cd6 Tc1 Pd1'
_cell_volume   781.35471942
_cell_formula_units_Z   1
loop_
 _symmetry_equiv_pos_site_id
 _symmetry_equiv_pos_as_xyz
  1  'x, y, z'
loop_
 _atom_site_type_symbol
 _atom_site_label
 _atom_site_symmetry_multiplicity
 _atom_site_fract_x
 _atom_site_fract_y
 _atom_site_fract_z
 _atom_site_occupancy
  Y  Y0  1  0.919714  0.459857  0.750000  1
  Ho  Ho1  1  0.209878  0.791020  0.940865  1
  Ho  Ho2  1  0.209878  0.418858  0.940864  1
  Ho  Ho3  1  0.581174  0.790587  0.940669  1
  Ho  Ho4  1  0.791544  0.207811  0.057271  1
  Ho  Ho5  1  0.791544  0.583733  0.057271  1
  Ho  Ho6  1  0.416500  0.208250  0.056884  1
  Ho  Ho7  1  0.791544  0.207811  0.442729  1
  Ho  Ho8  1  0.791544  0.583733  0.442729  1
  Ho  Ho9  1  0.416500  0.208250  0.443116  1
  Ho  Ho10  1  0.209878  0.791020  0.559135  1
  Ho  Ho11  1  0.209878  0.418858  0.559136  1
  Ho  Ho12  1  0.581174  0.790587  0.559331  1
  Ho  Ho13  1  0.539432  0.460258  0.750000  1
  Ho  Ho14  1  0.539432  0.079175  0.750000  1
  Ho  Ho15  1  0.457019  0.542941  0.250000  1
  Ho  Ho16  1  0.457020  0.914078  0.250000  1
  Ho  Ho17  1  0.085927  0.542963  0.250000  1
  Ho  Ho18  1  0.000042  0.000021  0.001263  1
  Ho  Ho19  1  0.000042  0.000021  0.498737  1
  Cd  Cd20  1  0.884895  0.114295  0.750000  1
  Cd  Cd21  1  0.884894  0.770600  0.750000  1
  Cd  Cd22  1  0.229990  0.114995  0.750000  1
  Cd  Cd23  1  0.114954  0.885094  0.250000  1
  Cd  Cd24  1  0.114954  0.229860  0.250000  1
  Cd  Cd25  1  0.770107  0.885053  0.250000  1
  Tc  Tc26  1  0.333860  0.666930  0.750000  1
  Pd  Pd27  1  0.666683  0.333342  0.250000  1
