# generated using pymatgen
data_Pr2Nd2Ga24PdRh
_symmetry_space_group_name_H-M   'P 1'
_cell_length_a   6.17399500
_cell_length_b   6.17399500
_cell_length_c   15.55753300
_cell_angle_alpha   90.00000000
_cell_angle_beta   90.00000000
_cell_angle_gamma   90.00000000
_symmetry_Int_Tables_number   1
_chemical_formula_structural   Pr2Nd2Ga24PdRh
_chemical_formula_sum   'Pr2 Nd2 Ga24 Pd1 Rh1'
_cell_volume   593.02537625
_cell_formula_units_Z   1
loop_
 _symmetry_equiv_pos_site_id
 _symmetry_equiv_pos_as_xyz
  1  'x, y, z'
loop_
 _atom_site_type_symbol
 _atom_site_label
 _atom_site_symmetry_multiplicity
 _atom_site_fract_x
 _atom_site_fract_y
 _atom_site_fract_z
 _atom_site_occupancy
  Pr  Pr0  1  0.250000  0.750000  0.243027  1
  Pr  Pr1  1  0.250000  0.750000  0.756973  1
  Nd  Nd2  1  0.750000  0.250000  0.244817  1
  Nd  Nd3  1  0.750000  0.250000  0.755183  1
  Ga  Ga4  1  0.250000  0.250000  0.187583  1
  Ga  Ga5  1  0.750000  0.750000  0.187583  1
  Ga  Ga6  1  0.750000  0.750000  0.812417  1
  Ga  Ga7  1  0.250000  0.250000  0.812417  1
  Ga  Ga8  1  0.250000  0.250000  0.347101  1
  Ga  Ga9  1  0.750000  0.750000  0.347101  1
  Ga  Ga10  1  0.750000  0.750000  0.652899  1
  Ga  Ga11  1  0.250000  0.250000  0.652899  1
  Ga  Ga12  1  0.502725  0.002725  0.912133  1
  Ga  Ga13  1  0.997182  0.002818  0.912376  1
  Ga  Ga14  1  0.502818  0.497182  0.912376  1
  Ga  Ga15  1  0.997275  0.497275  0.912133  1
  Ga  Ga16  1  0.502818  0.002818  0.087624  1
  Ga  Ga17  1  0.997275  0.002725  0.087867  1
  Ga  Ga18  1  0.502725  0.497275  0.087867  1
  Ga  Ga19  1  0.997182  0.497182  0.087624  1
  Ga  Ga20  1  0.583057  0.083057  0.432170  1
  Ga  Ga21  1  0.083852  0.916148  0.431544  1
  Ga  Ga22  1  0.416148  0.583852  0.431544  1
  Ga  Ga23  1  0.916943  0.416943  0.432170  1
  Ga  Ga24  1  0.416148  0.916148  0.568456  1
  Ga  Ga25  1  0.916943  0.083057  0.567830  1
  Ga  Ga26  1  0.583057  0.416943  0.567830  1
  Ga  Ga27  1  0.083852  0.583852  0.568456  1
  Pd  Pd28  1  0.250000  0.750000  0.000000  1
  Rh  Rh29  1  0.750000  0.250000  0.000000  1
