# generated using pymatgen
data_Yb2PuO5
_symmetry_space_group_name_H-M   'P 1'
_cell_length_a   5.62658801
_cell_length_b   6.52653085
_cell_length_c   7.88846692
_cell_angle_alpha   67.80251590
_cell_angle_beta   90.01005387
_cell_angle_gamma   64.47362350
_symmetry_Int_Tables_number   1
_chemical_formula_structural   Yb2PuO5
_chemical_formula_sum   'Yb4 Pu2 O10'
_cell_volume   237.38161035
_cell_formula_units_Z   2
loop_
 _symmetry_equiv_pos_site_id
 _symmetry_equiv_pos_as_xyz
  1  'x, y, z'
loop_
 _atom_site_type_symbol
 _atom_site_label
 _atom_site_symmetry_multiplicity
 _atom_site_fract_x
 _atom_site_fract_y
 _atom_site_fract_z
 _atom_site_occupancy
  Yb  Yb0  1  0.635814  0.732896  0.750528  1
  Yb  Yb1  1  0.632020  0.732920  0.250621  1
  Yb  Yb2  1  0.369131  0.266202  0.750896  1
  Yb  Yb3  1  0.365264  0.266228  0.250997  1
  Pu  Pu4  1  0.000539  0.999591  0.500736  1
  Pu  Pu5  1  0.000624  0.999488  0.000767  1
  O  O6  1  0.754537  0.858990  0.958781  1
  O  O7  1  0.386979  0.859152  0.458656  1
  O  O8  1  0.031081  0.665230  0.644975  1
  O  O9  1  0.696996  0.333815  0.856295  1
  O  O10  1  0.304315  0.665197  0.145207  1
  O  O11  1  0.970003  0.333957  0.356537  1
  O  O12  1  0.614070  0.139990  0.542791  1
  O  O13  1  0.191197  0.999423  0.750789  1
  O  O14  1  0.246542  0.140045  0.042782  1
  O  O15  1  0.809896  0.999721  0.250698  1
