# generated using pymatgen
data_BiSb7Au4
_symmetry_space_group_name_H-M   'P 1'
_cell_length_a   6.82376213
_cell_length_b   6.82376213
_cell_length_c   6.82376213
_cell_angle_alpha   89.71228689
_cell_angle_beta   90.28771311
_cell_angle_gamma   89.71228689
_symmetry_Int_Tables_number   1
_chemical_formula_structural   BiSb7Au4
_chemical_formula_sum   'Bi1 Sb7 Au4'
_cell_volume   317.72775560
_cell_formula_units_Z   1
loop_
 _symmetry_equiv_pos_site_id
 _symmetry_equiv_pos_as_xyz
  1  'x, y, z'
loop_
 _atom_site_type_symbol
 _atom_site_label
 _atom_site_symmetry_multiplicity
 _atom_site_fract_x
 _atom_site_fract_y
 _atom_site_fract_z
 _atom_site_occupancy
  Bi  Bi0  1  0.374210  0.125790  0.874210  1
  Sb  Sb1  1  0.124004  0.876429  0.376348  1
  Sb  Sb2  1  0.876348  0.375996  0.123571  1
  Sb  Sb3  1  0.623571  0.623652  0.624004  1
  Sb  Sb4  1  0.376326  0.376647  0.376093  1
  Sb  Sb5  1  0.123353  0.623907  0.876326  1
  Sb  Sb6  1  0.876093  0.123674  0.623353  1
  Sb  Sb7  1  0.628231  0.871769  0.128231  1
  Au  Au8  1  0.000070  0.499930  0.500070  1
  Au  Au9  1  0.502433  0.507083  0.002443  1
  Au  Au10  1  0.502443  0.997567  0.492917  1
  Au  Au11  1  0.992917  0.997557  0.002433  1
