# generated using pymatgen
data_FePb4W3O13
_symmetry_space_group_name_H-M   'P 1'
_cell_length_a   7.45401822
_cell_length_b   7.45401698
_cell_length_c   7.45401758
_cell_angle_alpha   61.07957129
_cell_angle_beta   61.07957231
_cell_angle_gamma   61.07957752
_symmetry_Int_Tables_number   1
_chemical_formula_structural   FePb4W3O13
_chemical_formula_sum   'Fe1 Pb4 W3 O13'
_cell_volume   299.97507263
_cell_formula_units_Z   1
loop_
 _symmetry_equiv_pos_site_id
 _symmetry_equiv_pos_as_xyz
  1  'x, y, z'
loop_
 _atom_site_type_symbol
 _atom_site_label
 _atom_site_symmetry_multiplicity
 _atom_site_fract_x
 _atom_site_fract_y
 _atom_site_fract_z
 _atom_site_occupancy
  Fe  Fe0  1  0.499869  0.499869  0.499869  1
  Pb  Pb1  1  0.996279  0.996279  0.996279  1
  Pb  Pb2  1  0.500836  0.998806  0.998806  1
  Pb  Pb3  1  0.998806  0.998806  0.500836  1
  Pb  Pb4  1  0.998806  0.500836  0.998806  1
  W  W5  1  0.001067  0.499763  0.499763  1
  W  W6  1  0.499763  0.499763  0.001067  1
  W  W7  1  0.499763  0.001067  0.499763  1
  O  O8  1  0.824602  0.430845  0.430845  1
  O  O9  1  0.423561  0.825135  0.825135  1
  O  O10  1  0.430845  0.430845  0.824602  1
  O  O11  1  0.825135  0.825135  0.423561  1
  O  O12  1  0.825135  0.423561  0.825135  1
  O  O13  1  0.430845  0.824602  0.430845  1
  O  O14  1  0.178551  0.567019  0.567019  1
  O  O15  1  0.574893  0.178355  0.178355  1
  O  O16  1  0.567019  0.567019  0.178551  1
  O  O17  1  0.178355  0.178355  0.574893  1
  O  O18  1  0.178355  0.574893  0.178355  1
  O  O19  1  0.567019  0.178551  0.567019  1
  O  O20  1  0.125497  0.125497  0.125497  1
