# generated using pymatgen
data_SmDyHfIr3
_symmetry_space_group_name_H-M   'P 1'
_cell_length_a   5.30293694
_cell_length_b   5.30293793
_cell_length_c   5.30293700
_cell_angle_alpha   65.03674140
_cell_angle_beta   65.03673645
_cell_angle_gamma   65.03674209
_symmetry_Int_Tables_number   1
_chemical_formula_structural   SmDyHfIr3
_chemical_formula_sum   'Sm1 Dy1 Hf1 Ir3'
_cell_volume   117.04117493
_cell_formula_units_Z   1
loop_
 _symmetry_equiv_pos_site_id
 _symmetry_equiv_pos_as_xyz
  1  'x, y, z'
loop_
 _atom_site_type_symbol
 _atom_site_label
 _atom_site_symmetry_multiplicity
 _atom_site_fract_x
 _atom_site_fract_y
 _atom_site_fract_z
 _atom_site_occupancy
  Sm  Sm0  1  0.000704  0.000704  0.000704  1
  Dy  Dy1  1  0.251628  0.251628  0.251628  1
  Hf  Hf2  1  0.624777  0.624777  0.624777  1
  Ir  Ir3  1  0.623988  0.623988  0.124912  1
  Ir  Ir4  1  0.623988  0.124912  0.623988  1
  Ir  Ir5  1  0.124912  0.623988  0.623988  1
