# generated using pymatgen
data_Tb10HgBi5Cl2
_symmetry_space_group_name_H-M   'P 1'
_cell_length_a   9.24648194
_cell_length_b   9.24648229
_cell_length_c   6.54653100
_cell_angle_alpha   90.00000000
_cell_angle_beta   90.00000000
_cell_angle_gamma   119.50309252
_symmetry_Int_Tables_number   1
_chemical_formula_structural   Tb10HgBi5Cl2
_chemical_formula_sum   'Tb10 Hg1 Bi5 Cl2'
_cell_volume   487.13328968
_cell_formula_units_Z   1
loop_
 _symmetry_equiv_pos_site_id
 _symmetry_equiv_pos_as_xyz
  1  'x, y, z'
loop_
 _atom_site_type_symbol
 _atom_site_label
 _atom_site_symmetry_multiplicity
 _atom_site_fract_x
 _atom_site_fract_y
 _atom_site_fract_z
 _atom_site_occupancy
  Tb  Tb0  1  0.662203  0.334721  0.499779  1
  Tb  Tb1  1  0.334721  0.662203  0.499779  1
  Tb  Tb2  1  0.334721  0.662203  0.000221  1
  Tb  Tb3  1  0.662203  0.334721  0.000221  1
  Tb  Tb4  1  0.730494  0.730494  0.250000  1
  Tb  Tb5  1  0.267273  0.008211  0.250000  1
  Tb  Tb6  1  0.008211  0.267273  0.250000  1
  Tb  Tb7  1  0.268993  0.268993  0.750000  1
  Tb  Tb8  1  0.735542  0.999599  0.750000  1
  Tb  Tb9  1  0.999599  0.735542  0.750000  1
  Hg  Hg10  1  0.387474  0.387474  0.250000  1
  Bi  Bi11  1  0.614121  0.001958  0.250000  1
  Bi  Bi12  1  0.001958  0.614121  0.250000  1
  Bi  Bi13  1  0.612815  0.612815  0.750000  1
  Bi  Bi14  1  0.385543  0.998770  0.750000  1
  Bi  Bi15  1  0.998770  0.385543  0.750000  1
  Cl  Cl16  1  0.997679  0.997679  0.501077  1
  Cl  Cl17  1  0.997679  0.997679  0.998923  1
