# generated using pymatgen
data_Y5Tm(SnIr)6
_symmetry_space_group_name_H-M   'P 1'
_cell_length_a   7.46528704
_cell_length_b   7.54257989
_cell_length_c   7.93428900
_cell_angle_alpha   90.00000000
_cell_angle_beta   90.00000000
_cell_angle_gamma   120.38162294
_symmetry_Int_Tables_number   1
_chemical_formula_structural   Y5Tm(SnIr)6
_chemical_formula_sum   'Y5 Tm1 Sn6 Ir6'
_cell_volume   385.40924305
_cell_formula_units_Z   1
loop_
 _symmetry_equiv_pos_site_id
 _symmetry_equiv_pos_as_xyz
  1  'x, y, z'
loop_
 _atom_site_type_symbol
 _atom_site_label
 _atom_site_symmetry_multiplicity
 _atom_site_fract_x
 _atom_site_fract_y
 _atom_site_fract_z
 _atom_site_occupancy
  Y  Y0  1  0.406814  0.004819  0.250000  1
  Y  Y1  1  0.595769  0.594545  0.750000  1
  Y  Y2  1  0.594238  0.596268  0.250000  1
  Y  Y3  1  0.001235  0.405709  0.750000  1
  Y  Y4  1  0.403901  0.997711  0.750000  1
  Tm  Tm5  1  0.998621  0.401093  0.250000  1
  Sn  Sn6  1  0.260753  0.259885  0.500598  1
  Sn  Sn7  1  0.260753  0.259885  0.999402  1
  Sn  Sn8  1  0.738933  0.998421  0.999559  1
  Sn  Sn9  1  0.000262  0.743324  0.496563  1
  Sn  Sn10  1  0.738933  0.998421  0.500441  1
  Sn  Sn11  1  0.000262  0.743324  0.003437  1
  Ir  Ir12  1  0.673928  0.335017  0.498333  1
  Ir  Ir13  1  0.673928  0.335017  0.001667  1
  Ir  Ir14  1  0.325914  0.661390  0.005122  1
  Ir  Ir15  1  0.325914  0.661390  0.494878  1
  Ir  Ir16  1  0.999932  0.999220  0.750000  1
  Ir  Ir17  1  0.999906  0.004558  0.250000  1
