# generated using pymatgen
data_Zr6Ti2Al14CoSiRh6
_symmetry_space_group_name_H-M   'P 1'
_cell_length_a   8.81808819
_cell_length_b   8.81808706
_cell_length_c   8.81808800
_cell_angle_alpha   120.26348144
_cell_angle_beta   119.71974790
_cell_angle_gamma   90.01516844
_symmetry_Int_Tables_number   1
_chemical_formula_structural   Zr6Ti2Al14CoSiRh6
_chemical_formula_sum   'Zr6 Ti2 Al14 Co1 Si1 Rh6'
_cell_volume   484.89874455
_cell_formula_units_Z   1
loop_
 _symmetry_equiv_pos_site_id
 _symmetry_equiv_pos_as_xyz
  1  'x, y, z'
loop_
 _atom_site_type_symbol
 _atom_site_label
 _atom_site_symmetry_multiplicity
 _atom_site_fract_x
 _atom_site_fract_y
 _atom_site_fract_z
 _atom_site_occupancy
  Zr  Zr0  1  0.797059  0.294607  0.085397  1
  Zr  Zr1  1  0.207365  0.293002  0.496500  1
  Zr  Zr2  1  0.202204  0.705143  0.500020  1
  Zr  Zr3  1  0.208210  0.712135  0.913681  1
  Zr  Zr4  1  0.799069  0.713371  0.503584  1
  Zr  Zr5  1  0.791214  0.289383  0.499788  1
  Ti  Ti6  1  0.374632  0.121190  0.739251  1
  Ti  Ti7  1  0.379821  0.636521  0.256138  1
  Al  Al8  1  0.163486  0.336579  0.173699  1
  Al  Al9  1  0.161129  0.992134  0.822815  1
  Al  Al10  1  0.156862  0.331656  0.816744  1
  Al  Al11  1  0.516664  0.337719  0.178385  1
  Al  Al12  1  0.835905  0.662423  0.826259  1
  Al  Al13  1  0.838661  0.007940  0.178039  1
  Al  Al14  1  0.837822  0.669339  0.176810  1
  Al  Al15  1  0.490841  0.662822  0.827466  1
  Al  Al16  1  0.379868  0.120451  0.258945  1
  Al  Al17  1  0.861230  0.119794  0.738320  1
  Al  Al18  1  0.622566  0.879319  0.260345  1
  Al  Al19  1  0.620206  0.361985  0.742514  1
  Al  Al20  1  0.618315  0.878661  0.740999  1
  Al  Al21  1  0.137414  0.879133  0.262145  1
  Co  Co22  1  0.007048  0.001361  0.504396  1
  Si  Si23  1  0.996758  0.496770  0.499672  1
  Rh  Rh24  1  0.498730  0.000530  0.999086  1
  Rh  Rh25  1  0.497293  0.498425  0.000485  1
  Rh  Rh26  1  0.498777  0.499971  0.497824  1
  Rh  Rh27  1  0.002597  0.499723  0.001490  1
  Rh  Rh28  1  0.000650  0.000735  0.999839  1
  Rh  Rh29  1  0.497604  0.997178  0.499362  1
