# generated using pymatgen
data_Eu6Be(P3Rh5)4
_symmetry_space_group_name_H-M   'P 1'
_cell_length_a   13.49041400
_cell_length_b   13.49041330
_cell_length_c   3.94821300
_cell_angle_alpha   90.00000000
_cell_angle_beta   90.00000000
_cell_angle_gamma   119.99999681
_symmetry_Int_Tables_number   1
_chemical_formula_structural   Eu6Be(P3Rh5)4
_chemical_formula_sum   'Eu6 Be1 P12 Rh20'
_cell_volume   622.27413909
_cell_formula_units_Z   1
loop_
 _symmetry_equiv_pos_site_id
 _symmetry_equiv_pos_as_xyz
  1  'x, y, z'
loop_
 _atom_site_type_symbol
 _atom_site_label
 _atom_site_symmetry_multiplicity
 _atom_site_fract_x
 _atom_site_fract_y
 _atom_site_fract_z
 _atom_site_occupancy
  Eu  Eu0  1  0.528569  0.718053  0.249524  1
  Eu  Eu1  1  0.281947  0.810516  0.249524  1
  Eu  Eu2  1  0.189484  0.471431  0.249524  1
  Eu  Eu3  1  0.471431  0.281947  0.750476  1
  Eu  Eu4  1  0.718053  0.189484  0.750476  1
  Eu  Eu5  1  0.810516  0.528569  0.750476  1
  Be  Be6  1  0.000000  0.000000  0.000000  1
  P  P7  1  0.521941  0.135038  0.250883  1
  P  P8  1  0.864962  0.386905  0.250883  1
  P  P9  1  0.613095  0.478059  0.250883  1
  P  P10  1  0.948863  0.723095  0.251759  1
  P  P11  1  0.276905  0.225768  0.251759  1
  P  P12  1  0.774232  0.051137  0.251759  1
  P  P13  1  0.386905  0.521941  0.749117  1
  P  P14  1  0.478059  0.864962  0.749117  1
  P  P15  1  0.135038  0.613095  0.749117  1
  P  P16  1  0.723095  0.774232  0.748241  1
  P  P17  1  0.225768  0.948863  0.748241  1
  P  P18  1  0.051137  0.276905  0.748241  1
  Rh  Rh19  1  0.333333  0.666667  0.749777  1
  Rh  Rh20  1  0.925963  0.250053  0.252694  1
  Rh  Rh21  1  0.749947  0.675909  0.252694  1
  Rh  Rh22  1  0.324091  0.074037  0.252694  1
  Rh  Rh23  1  0.440225  0.024797  0.750462  1
  Rh  Rh24  1  0.975203  0.415429  0.750462  1
  Rh  Rh25  1  0.584571  0.559775  0.750462  1
  Rh  Rh26  1  0.666667  0.333333  0.250223  1
  Rh  Rh27  1  0.091083  0.186569  0.242184  1
  Rh  Rh28  1  0.813431  0.904513  0.242184  1
  Rh  Rh29  1  0.095487  0.908917  0.242184  1
  Rh  Rh30  1  0.024797  0.584571  0.249538  1
  Rh  Rh31  1  0.415429  0.440225  0.249538  1
  Rh  Rh32  1  0.559775  0.975203  0.249538  1
  Rh  Rh33  1  0.675909  0.925963  0.747306  1
  Rh  Rh34  1  0.074037  0.749947  0.747306  1
  Rh  Rh35  1  0.250053  0.324091  0.747306  1
  Rh  Rh36  1  0.908917  0.813431  0.757816  1
  Rh  Rh37  1  0.186569  0.095487  0.757816  1
  Rh  Rh38  1  0.904513  0.091083  0.757816  1
