# generated using pymatgen
data_NaSmPbBr6
_symmetry_space_group_name_H-M   'P 1'
_cell_length_a   8.27860102
_cell_length_b   8.27851749
_cell_length_c   8.27863300
_cell_angle_alpha   54.15292803
_cell_angle_beta   54.15197105
_cell_angle_gamma   54.15222922
_symmetry_Int_Tables_number   1
_chemical_formula_structural   NaSmPbBr6
_chemical_formula_sum   'Na1 Sm1 Pb1 Br6'
_cell_volume   346.42641315
_cell_formula_units_Z   1
loop_
 _symmetry_equiv_pos_site_id
 _symmetry_equiv_pos_as_xyz
  1  'x, y, z'
loop_
 _atom_site_type_symbol
 _atom_site_label
 _atom_site_symmetry_multiplicity
 _atom_site_fract_x
 _atom_site_fract_y
 _atom_site_fract_z
 _atom_site_occupancy
  Na  Na0  1  0.669613  0.669636  0.669616  1
  Sm  Sm1  1  0.999910  0.999915  0.999921  1
  Pb  Pb2  1  0.330858  0.330798  0.330847  1
  Br  Br3  1  0.241998  0.611413  0.916089  1
  Br  Br4  1  0.611415  0.916091  0.241974  1
  Br  Br5  1  0.916077  0.241991  0.611426  1
  Br  Br6  1  0.759194  0.389778  0.081166  1
  Br  Br7  1  0.389769  0.081175  0.759196  1
  Br  Br8  1  0.081167  0.759204  0.389765  1
