# generated using pymatgen
data_Y8Be3Si12Pd
_symmetry_space_group_name_H-M   'P 1'
_cell_length_a   7.94313500
_cell_length_b   7.94313415
_cell_length_c   8.09939700
_cell_angle_alpha   90.00000000
_cell_angle_beta   90.00000000
_cell_angle_gamma   119.99999939
_symmetry_Int_Tables_number   1
_chemical_formula_structural   Y8Be3Si12Pd
_chemical_formula_sum   'Y8 Be3 Si12 Pd1'
_cell_volume   442.55490875
_cell_formula_units_Z   1
loop_
 _symmetry_equiv_pos_site_id
 _symmetry_equiv_pos_as_xyz
  1  'x, y, z'
loop_
 _atom_site_type_symbol
 _atom_site_label
 _atom_site_symmetry_multiplicity
 _atom_site_fract_x
 _atom_site_fract_y
 _atom_site_fract_z
 _atom_site_occupancy
  Y  Y0  1  0.502349  0.004698  0.247649  1
  Y  Y1  1  0.501031  0.002061  0.752223  1
  Y  Y2  1  0.995302  0.497651  0.247649  1
  Y  Y3  1  0.997939  0.498969  0.752223  1
  Y  Y4  1  0.502349  0.497651  0.247649  1
  Y  Y5  1  0.501031  0.498969  0.752223  1
  Y  Y6  1  0.000000  0.000000  0.248903  1
  Y  Y7  1  0.000000  0.000000  0.750863  1
  Be  Be8  1  0.333333  0.666667  0.003437  1
  Be  Be9  1  0.666667  0.333333  0.997490  1
  Be  Be10  1  0.666667  0.333333  0.502300  1
  Si  Si11  1  0.172188  0.344374  0.000457  1
  Si  Si12  1  0.826734  0.653468  0.999337  1
  Si  Si13  1  0.655626  0.827812  0.000457  1
  Si  Si14  1  0.828199  0.656399  0.500626  1
  Si  Si15  1  0.346532  0.173266  0.999337  1
  Si  Si16  1  0.166118  0.332238  0.499524  1
  Si  Si17  1  0.172188  0.827812  0.000457  1
  Si  Si18  1  0.343601  0.171801  0.500626  1
  Si  Si19  1  0.826734  0.173266  0.999337  1
  Si  Si20  1  0.667762  0.833882  0.499524  1
  Si  Si21  1  0.828199  0.171801  0.500626  1
  Si  Si22  1  0.166118  0.833882  0.499524  1
  Pd  Pd23  1  0.333333  0.666667  0.497560  1
