# generated using pymatgen
data_LiLuU2Ge6Ru7
_symmetry_space_group_name_H-M   'P 1'
_cell_length_a   7.07808096
_cell_length_b   7.14376560
_cell_length_c   7.15039175
_cell_angle_alpha   109.60362504
_cell_angle_beta   109.44892546
_cell_angle_gamma   109.19383322
_symmetry_Int_Tables_number   1
_chemical_formula_structural   LiLuU2Ge6Ru7
_chemical_formula_sum   'Li1 Lu1 U2 Ge6 Ru7'
_cell_volume   278.89438002
_cell_formula_units_Z   1
loop_
 _symmetry_equiv_pos_site_id
 _symmetry_equiv_pos_as_xyz
  1  'x, y, z'
loop_
 _atom_site_type_symbol
 _atom_site_label
 _atom_site_symmetry_multiplicity
 _atom_site_fract_x
 _atom_site_fract_y
 _atom_site_fract_z
 _atom_site_occupancy
  Li  Li0  1  0.000000  0.000000  0.500000  1
  Lu  Lu1  1  0.500000  0.000000  0.000000  1
  U  U2  1  0.000000  0.500000  0.000000  1
  U  U3  1  0.500000  0.500000  0.500000  1
  Ge  Ge4  1  0.698910  0.704036  0.018176  1
  Ge  Ge5  1  0.304723  0.000000  0.316268  1
  Ge  Ge6  1  0.994874  0.295964  0.314140  1
  Ge  Ge7  1  0.301090  0.295964  0.981824  1
  Ge  Ge8  1  0.695277  0.000000  0.683732  1
  Ge  Ge9  1  0.005126  0.704036  0.685860  1
  Ru  Ru10  1  0.754573  0.262212  0.511888  1
  Ru  Ru11  1  0.751237  0.502474  0.251237  1
  Ru  Ru12  1  0.507638  0.262212  0.750323  1
  Ru  Ru13  1  0.248763  0.497526  0.748763  1
  Ru  Ru14  1  0.245427  0.737788  0.488112  1
  Ru  Ru15  1  0.492362  0.737788  0.249677  1
  Ru  Ru16  1  0.000000  0.000000  0.000000  1
