# generated using pymatgen
data_Ho6AlCuOs
_symmetry_space_group_name_H-M   'P 1'
_cell_length_a   8.40804964
_cell_length_b   8.40805006
_cell_length_c   8.40805050
_cell_angle_alpha   112.96024917
_cell_angle_beta   110.89394667
_cell_angle_gamma   104.67099098
_symmetry_Int_Tables_number   1
_chemical_formula_structural   Ho6AlCuOs
_chemical_formula_sum   'Ho12 Al2 Cu2 Os2'
_cell_volume   455.03256560
_cell_formula_units_Z   2
loop_
 _symmetry_equiv_pos_site_id
 _symmetry_equiv_pos_as_xyz
  1  'x, y, z'
loop_
 _atom_site_type_symbol
 _atom_site_label
 _atom_site_symmetry_multiplicity
 _atom_site_fract_x
 _atom_site_fract_y
 _atom_site_fract_z
 _atom_site_occupancy
  Ho  Ho0  1  0.433686  0.240699  0.192987  1
  Ho  Ho1  1  0.566314  0.759301  0.807013  1
  Ho  Ho2  1  0.047712  0.240699  0.807013  1
  Ho  Ho3  1  0.952288  0.759301  0.192987  1
  Ho  Ho4  1  0.184948  0.274755  0.459702  1
  Ho  Ho5  1  0.815052  0.725245  0.540298  1
  Ho  Ho6  1  0.184948  0.725245  0.910194  1
  Ho  Ho7  1  0.815052  0.274755  0.089806  1
  Ho  Ho8  1  0.333774  0.643875  0.310101  1
  Ho  Ho9  1  0.666226  0.356125  0.689899  1
  Ho  Ho10  1  0.333774  0.023672  0.689899  1
  Ho  Ho11  1  0.666226  0.976328  0.310101  1
  Al  Al12  1  0.500000  0.500000  0.000000  1
  Al  Al13  1  0.000000  0.000000  0.000000  1
  Cu  Cu14  1  0.119982  0.619982  0.500000  1
  Cu  Cu15  1  0.880018  0.380018  0.500000  1
  Os  Os16  1  0.326989  0.000000  0.326989  1
  Os  Os17  1  0.673011  0.000000  0.673011  1
