# generated using pymatgen
data_U4Si6Mo2Ru5
_symmetry_space_group_name_H-M   'P 1'
_cell_length_a   7.12630907
_cell_length_b   7.12630974
_cell_length_c   7.12631004
_cell_angle_alpha   109.77104993
_cell_angle_beta   109.77104319
_cell_angle_gamma   108.87321426
_symmetry_Int_Tables_number   1
_chemical_formula_structural   U4Si6Mo2Ru5
_chemical_formula_sum   'U4 Si6 Mo2 Ru5'
_cell_volume   278.57154686
_cell_formula_units_Z   1
loop_
 _symmetry_equiv_pos_site_id
 _symmetry_equiv_pos_as_xyz
  1  'x, y, z'
loop_
 _atom_site_type_symbol
 _atom_site_label
 _atom_site_symmetry_multiplicity
 _atom_site_fract_x
 _atom_site_fract_y
 _atom_site_fract_z
 _atom_site_occupancy
  U  U0  1  0.504212  0.495788  0.500000  1
  U  U1  1  0.995788  0.004212  0.500000  1
  U  U2  1  0.504212  0.004212  0.008424  1
  U  U3  1  0.995788  0.495788  0.991576  1
  Si  Si4  1  0.316784  0.316784  0.000000  1
  Si  Si5  1  0.006164  0.319540  0.313376  1
  Si  Si6  1  0.006164  0.692789  0.686624  1
  Si  Si7  1  0.680460  0.993836  0.686624  1
  Si  Si8  1  0.307211  0.993836  0.313376  1
  Si  Si9  1  0.683216  0.683216  0.000000  1
  Mo  Mo10  1  0.750000  0.250000  0.500000  1
  Mo  Mo11  1  0.000000  0.000000  0.000000  1
  Ru  Ru12  1  0.498255  0.247714  0.749459  1
  Ru  Ru13  1  0.498255  0.748795  0.250541  1
  Ru  Ru14  1  0.251205  0.501745  0.749459  1
  Ru  Ru15  1  0.752286  0.501745  0.250541  1
  Ru  Ru16  1  0.250000  0.750000  0.500000  1
