# generated using pymatgen
data_Sr3Tc4(P3Ru)2
_symmetry_space_group_name_H-M   'P 1'
_cell_length_a   8.53057974
_cell_length_b   8.53057927
_cell_length_c   8.53057970
_cell_angle_alpha   151.88604793
_cell_angle_beta   100.40758837
_cell_angle_gamma   86.40740568
_symmetry_Int_Tables_number   1
_chemical_formula_structural   Sr3Tc4(P3Ru)2
_chemical_formula_sum   'Sr3 Tc4 P6 Ru2'
_cell_volume   281.38544574
_cell_formula_units_Z   1
loop_
 _symmetry_equiv_pos_site_id
 _symmetry_equiv_pos_as_xyz
  1  'x, y, z'
loop_
 _atom_site_type_symbol
 _atom_site_label
 _atom_site_symmetry_multiplicity
 _atom_site_fract_x
 _atom_site_fract_y
 _atom_site_fract_z
 _atom_site_occupancy
  Sr  Sr0  1  0.332269  0.332269  0.000000  1
  Sr  Sr1  1  0.666572  0.666572  0.000000  1
  Sr  Sr2  1  0.001136  0.001136  0.000000  1
  Tc  Tc3  1  0.583724  0.832433  0.751289  1
  Tc  Tc4  1  0.252083  0.500892  0.751191  1
  Tc  Tc5  1  0.749701  0.500892  0.248809  1
  Tc  Tc6  1  0.081145  0.832433  0.248711  1
  P  P7  1  0.315527  0.666688  0.648838  1
  P  P8  1  0.684711  0.334018  0.350693  1
  P  P9  1  0.983324  0.334018  0.649307  1
  P  P10  1  0.349888  0.999286  0.350602  1
  P  P11  1  0.017851  0.666688  0.351162  1
  P  P12  1  0.648684  0.999286  0.649398  1
  Ru  Ru13  1  0.414963  0.166694  0.248271  1
  Ru  Ru14  1  0.918422  0.166694  0.751729  1
