# generated using pymatgen
data_Lu3HfFe4(Co4P3)4
_symmetry_space_group_name_H-M   'P 1'
_cell_length_a   3.62553300
_cell_length_b   10.17259073
_cell_length_c   11.69254601
_cell_angle_alpha   89.97584422
_cell_angle_beta   90.00000000
_cell_angle_gamma   90.00000000
_symmetry_Int_Tables_number   1
_chemical_formula_structural   Lu3HfFe4(Co4P3)4
_chemical_formula_sum   'Lu3 Hf1 Fe4 Co16 P12'
_cell_volume   431.23349223
_cell_formula_units_Z   1
loop_
 _symmetry_equiv_pos_site_id
 _symmetry_equiv_pos_as_xyz
  1  'x, y, z'
loop_
 _atom_site_type_symbol
 _atom_site_label
 _atom_site_symmetry_multiplicity
 _atom_site_fract_x
 _atom_site_fract_y
 _atom_site_fract_z
 _atom_site_occupancy
  Lu  Lu0  1  0.250000  0.918514  0.203596  1
  Lu  Lu1  1  0.750000  0.418695  0.296469  1
  Lu  Lu2  1  0.750000  0.081342  0.796337  1
  Hf  Hf3  1  0.250000  0.580695  0.702412  1
  Fe  Fe4  1  0.250000  0.711619  0.988295  1
  Fe  Fe5  1  0.250000  0.787895  0.488531  1
  Fe  Fe6  1  0.750000  0.289344  0.010627  1
  Fe  Fe7  1  0.750000  0.211641  0.512897  1
  Co  Co8  1  0.250000  0.408920  0.487930  1
  Co  Co9  1  0.250000  0.093442  0.986130  1
  Co  Co10  1  0.750000  0.593651  0.517866  1
  Co  Co11  1  0.750000  0.906445  0.013646  1
  Co  Co12  1  0.250000  0.221815  0.176970  1
  Co  Co13  1  0.250000  0.279054  0.677518  1
  Co  Co14  1  0.750000  0.776111  0.822100  1
  Co  Co15  1  0.750000  0.720493  0.323951  1
  Co  Co16  1  0.250000  0.880698  0.699463  1
  Co  Co17  1  0.250000  0.616819  0.198626  1
  Co  Co18  1  0.750000  0.117231  0.301460  1
  Co  Co19  1  0.750000  0.386241  0.798563  1
  Co  Co20  1  0.250000  0.468010  0.929662  1
  Co  Co21  1  0.250000  0.033382  0.433245  1
  Co  Co22  1  0.750000  0.533707  0.065713  1
  Co  Co23  1  0.750000  0.964999  0.568158  1
  P  P24  1  0.250000  0.419180  0.112868  1
  P  P25  1  0.250000  0.080536  0.614671  1
  P  P26  1  0.750000  0.581072  0.883363  1
  P  P27  1  0.750000  0.918614  0.386236  1
  P  P28  1  0.250000  0.267709  0.868012  1
  P  P29  1  0.250000  0.232713  0.368716  1
  P  P30  1  0.750000  0.731913  0.132192  1
  P  P31  1  0.750000  0.765561  0.633349  1
  P  P32  1  0.250000  0.600528  0.390830  1
  P  P33  1  0.250000  0.899545  0.891363  1
  P  P34  1  0.750000  0.400856  0.609414  1
  P  P35  1  0.750000  0.101010  0.108825  1
