# generated using pymatgen
data_Er8Ge(Pd5Pt)4
_symmetry_space_group_name_H-M   'P 1'
_cell_length_a   8.32857600
_cell_length_b   8.32857600
_cell_length_c   8.32515500
_cell_angle_alpha   90.00000000
_cell_angle_beta   90.00000000
_cell_angle_gamma   90.00000000
_symmetry_Int_Tables_number   1
_chemical_formula_structural   Er8Ge(Pd5Pt)4
_chemical_formula_sum   'Er8 Ge1 Pd20 Pt4'
_cell_volume   577.47586002
_cell_formula_units_Z   1
loop_
 _symmetry_equiv_pos_site_id
 _symmetry_equiv_pos_as_xyz
  1  'x, y, z'
loop_
 _atom_site_type_symbol
 _atom_site_label
 _atom_site_symmetry_multiplicity
 _atom_site_fract_x
 _atom_site_fract_y
 _atom_site_fract_z
 _atom_site_occupancy
  Er  Er0  1  0.253613  0.253613  0.253859  1
  Er  Er1  1  0.746387  0.746387  0.746141  1
  Er  Er2  1  0.746387  0.746387  0.253859  1
  Er  Er3  1  0.746387  0.253613  0.746141  1
  Er  Er4  1  0.253613  0.253613  0.746141  1
  Er  Er5  1  0.253613  0.746387  0.253859  1
  Er  Er6  1  0.253613  0.746387  0.746141  1
  Er  Er7  1  0.746387  0.253613  0.253859  1
  Ge  Ge8  1  0.000000  0.000000  0.000000  1
  Pd  Pd9  1  0.259760  0.500000  0.000000  1
  Pd  Pd10  1  0.740240  0.500000  0.000000  1
  Pd  Pd11  1  0.000000  0.259851  0.500000  1
  Pd  Pd12  1  0.500000  0.259760  0.000000  1
  Pd  Pd13  1  0.000000  0.740149  0.500000  1
  Pd  Pd14  1  0.500000  0.740240  0.000000  1
  Pd  Pd15  1  0.500000  0.000000  0.259652  1
  Pd  Pd16  1  0.259851  0.000000  0.500000  1
  Pd  Pd17  1  0.500000  0.000000  0.740348  1
  Pd  Pd18  1  0.740149  0.000000  0.500000  1
  Pd  Pd19  1  0.000000  0.500000  0.259652  1
  Pd  Pd20  1  0.000000  0.500000  0.740348  1
  Pd  Pd21  1  0.500000  0.500000  0.252787  1
  Pd  Pd22  1  0.500000  0.500000  0.747213  1
  Pd  Pd23  1  0.289322  0.000000  0.000000  1
  Pd  Pd24  1  0.710678  0.000000  0.000000  1
  Pd  Pd25  1  0.000000  0.289322  0.000000  1
  Pd  Pd26  1  0.000000  0.710678  0.000000  1
  Pd  Pd27  1  0.000000  0.000000  0.289086  1
  Pd  Pd28  1  0.000000  0.000000  0.710914  1
  Pt  Pt29  1  0.253050  0.500000  0.500000  1
  Pt  Pt30  1  0.746950  0.500000  0.500000  1
  Pt  Pt31  1  0.500000  0.253050  0.500000  1
  Pt  Pt32  1  0.500000  0.746950  0.500000  1
