# generated using pymatgen
data_La2Sn5PdAu
_symmetry_space_group_name_H-M   'P 1'
_cell_length_a   4.61415100
_cell_length_b   9.40464555
_cell_length_c   10.39787200
_cell_angle_alpha   89.42260002
_cell_angle_beta   90.00000000
_cell_angle_gamma   90.00000000
_symmetry_Int_Tables_number   1
_chemical_formula_structural   La2Sn5PdAu
_chemical_formula_sum   'La4 Sn10 Pd2 Au2'
_cell_volume   451.18707358
_cell_formula_units_Z   2
loop_
 _symmetry_equiv_pos_site_id
 _symmetry_equiv_pos_as_xyz
  1  'x, y, z'
loop_
 _atom_site_type_symbol
 _atom_site_label
 _atom_site_symmetry_multiplicity
 _atom_site_fract_x
 _atom_site_fract_y
 _atom_site_fract_z
 _atom_site_occupancy
  La  La0  1  0.750000  0.633830  0.248100  1
  La  La1  1  0.250000  0.366170  0.751900  1
  La  La2  1  0.750000  0.104733  0.250726  1
  La  La3  1  0.250000  0.895267  0.749274  1
  Sn  Sn4  1  0.250000  0.129225  0.483483  1
  Sn  Sn5  1  0.750000  0.870775  0.516517  1
  Sn  Sn6  1  0.250000  0.368982  0.246994  1
  Sn  Sn7  1  0.750000  0.631018  0.753006  1
  Sn  Sn8  1  0.250000  0.605178  0.512402  1
  Sn  Sn9  1  0.750000  0.394822  0.487598  1
  Sn  Sn10  1  0.250000  0.613247  0.986521  1
  Sn  Sn11  1  0.750000  0.386753  0.013479  1
  Sn  Sn12  1  0.750000  0.110081  0.874660  1
  Sn  Sn13  1  0.250000  0.889919  0.125340  1
  Pd  Pd14  1  0.750000  0.146391  0.617282  1
  Pd  Pd15  1  0.250000  0.853609  0.382718  1
  Au  Au16  1  0.750000  0.826870  0.971572  1
  Au  Au17  1  0.250000  0.173130  0.028428  1
