# generated using pymatgen
data_Tb4Ho2CuTcSn
_symmetry_space_group_name_H-M   'P 1'
_cell_length_a   8.53069325
_cell_length_b   8.53055350
_cell_length_c   8.53069309
_cell_angle_alpha   113.62938146
_cell_angle_beta   110.93276365
_cell_angle_gamma   103.99987501
_symmetry_Int_Tables_number   1
_chemical_formula_structural   Tb4Ho2CuTcSn
_chemical_formula_sum   'Tb8 Ho4 Cu2 Tc2 Sn2'
_cell_volume   474.36326482
_cell_formula_units_Z   2
loop_
 _symmetry_equiv_pos_site_id
 _symmetry_equiv_pos_as_xyz
  1  'x, y, z'
loop_
 _atom_site_type_symbol
 _atom_site_label
 _atom_site_symmetry_multiplicity
 _atom_site_fract_x
 _atom_site_fract_y
 _atom_site_fract_z
 _atom_site_occupancy
  Tb  Tb0  1  0.438401  0.239067  0.199333  1
  Tb  Tb1  1  0.561599  0.760933  0.800667  1
  Tb  Tb2  1  0.039732  0.239067  0.800667  1
  Tb  Tb3  1  0.960268  0.760933  0.199333  1
  Tb  Tb4  1  0.186662  0.282087  0.468752  1
  Tb  Tb5  1  0.813338  0.717913  0.531248  1
  Tb  Tb6  1  0.186664  0.717913  0.904576  1
  Tb  Tb7  1  0.813336  0.282087  0.095424  1
  Ho  Ho8  1  0.336167  0.651261  0.315094  1
  Ho  Ho9  1  0.663833  0.348739  0.684906  1
  Ho  Ho10  1  0.336166  0.021071  0.684905  1
  Ho  Ho11  1  0.663834  0.978929  0.315095  1
  Cu  Cu12  1  0.120283  0.620282  0.499999  1
  Cu  Cu13  1  0.879717  0.379718  0.500001  1
  Tc  Tc14  1  0.325918  0.000000  0.325918  1
  Tc  Tc15  1  0.674082  0.000000  0.674082  1
  Sn  Sn16  1  0.500000  0.500000  0.000000  1
  Sn  Sn17  1  0.000000  0.000000  0.000000  1
