# generated using pymatgen
data_ErLuZrGa5
_symmetry_space_group_name_H-M   'P 1'
_cell_length_a   5.86497300
_cell_length_b   9.41067700
_cell_length_c   11.38434500
_cell_angle_alpha   90.00000000
_cell_angle_beta   90.00000000
_cell_angle_gamma   90.00000000
_symmetry_Int_Tables_number   1
_chemical_formula_structural   ErLuZrGa5
_chemical_formula_sum   'Er4 Lu4 Zr4 Ga20'
_cell_volume   628.34032614
_cell_formula_units_Z   4
loop_
 _symmetry_equiv_pos_site_id
 _symmetry_equiv_pos_as_xyz
  1  'x, y, z'
loop_
 _atom_site_type_symbol
 _atom_site_label
 _atom_site_symmetry_multiplicity
 _atom_site_fract_x
 _atom_site_fract_y
 _atom_site_fract_z
 _atom_site_occupancy
  Er  Er0  1  0.885621  0.500646  0.352719  1
  Er  Er1  1  0.614379  0.999354  0.852719  1
  Er  Er2  1  0.114379  0.000646  0.647281  1
  Er  Er3  1  0.385621  0.499354  0.147281  1
  Lu  Lu4  1  0.113734  0.499492  0.647528  1
  Lu  Lu5  1  0.386266  0.000508  0.147528  1
  Lu  Lu6  1  0.886266  0.999492  0.352472  1
  Lu  Lu7  1  0.613734  0.500508  0.852472  1
  Zr  Zr8  1  0.857973  0.749795  0.072667  1
  Zr  Zr9  1  0.642027  0.750205  0.572667  1
  Zr  Zr10  1  0.142027  0.249795  0.927333  1
  Zr  Zr11  1  0.357973  0.250205  0.427333  1
  Ga  Ga12  1  0.874583  0.052432  0.090696  1
  Ga  Ga13  1  0.625417  0.447568  0.590696  1
  Ga  Ga14  1  0.125417  0.552432  0.909304  1
  Ga  Ga15  1  0.374583  0.947568  0.409304  1
  Ga  Ga16  1  0.124738  0.946858  0.911099  1
  Ga  Ga17  1  0.375262  0.553142  0.411099  1
  Ga  Ga18  1  0.875262  0.446858  0.088901  1
  Ga  Ga19  1  0.624738  0.053142  0.588901  1
  Ga  Ga20  1  0.151437  0.751747  0.257038  1
  Ga  Ga21  1  0.348563  0.748253  0.757038  1
  Ga  Ga22  1  0.848563  0.251747  0.742962  1
  Ga  Ga23  1  0.651437  0.248253  0.242962  1
  Ga  Ga24  1  0.394287  0.750821  0.999706  1
  Ga  Ga25  1  0.105713  0.749179  0.499706  1
  Ga  Ga26  1  0.605713  0.250821  0.000294  1
  Ga  Ga27  1  0.894287  0.249179  0.500294  1
  Ga  Ga28  1  0.615099  0.751652  0.294490  1
  Ga  Ga29  1  0.884901  0.748348  0.794490  1
  Ga  Ga30  1  0.384901  0.251652  0.705510  1
  Ga  Ga31  1  0.115099  0.248348  0.205510  1
