# generated using pymatgen
data_Tb11Tm(Hg2Pd)4
_symmetry_space_group_name_H-M   'P 1'
_cell_length_a   13.16892100
_cell_length_b   13.16892024
_cell_length_c   3.74369400
_cell_angle_alpha   90.00000000
_cell_angle_beta   90.00000000
_cell_angle_gamma   112.39375355
_symmetry_Int_Tables_number   1
_chemical_formula_structural   Tb11Tm(Hg2Pd)4
_chemical_formula_sum   'Tb11 Tm1 Hg8 Pd4'
_cell_volume   600.27292459
_cell_formula_units_Z   1
loop_
 _symmetry_equiv_pos_site_id
 _symmetry_equiv_pos_as_xyz
  1  'x, y, z'
loop_
 _atom_site_type_symbol
 _atom_site_label
 _atom_site_symmetry_multiplicity
 _atom_site_fract_x
 _atom_site_fract_y
 _atom_site_fract_z
 _atom_site_occupancy
  Tb  Tb0  1  0.422797  0.085772  0.000000  1
  Tb  Tb1  1  0.577203  0.914228  0.000000  1
  Tb  Tb2  1  0.085772  0.422797  0.000000  1
  Tb  Tb3  1  0.914228  0.577203  0.000000  1
  Tb  Tb4  1  0.165878  0.834122  0.000000  1
  Tb  Tb5  1  0.834122  0.165878  0.000000  1
  Tb  Tb6  1  0.351279  0.648721  0.000000  1
  Tb  Tb7  1  0.648721  0.351279  0.000000  1
  Tb  Tb8  1  0.281753  0.281753  0.000000  1
  Tb  Tb9  1  0.718247  0.718247  0.000000  1
  Tb  Tb10  1  0.000000  0.000000  0.000000  1
  Tm  Tm11  1  0.500000  0.500000  0.500000  1
  Hg  Hg12  1  0.368112  0.856245  0.500000  1
  Hg  Hg13  1  0.631888  0.143755  0.500000  1
  Hg  Hg14  1  0.856247  0.368112  0.500000  1
  Hg  Hg15  1  0.143753  0.631888  0.500000  1
  Hg  Hg16  1  0.212595  0.052113  0.500000  1
  Hg  Hg17  1  0.787405  0.947887  0.500000  1
  Hg  Hg18  1  0.052112  0.212594  0.500000  1
  Hg  Hg19  1  0.947888  0.787406  0.500000  1
  Pd  Pd20  1  0.452329  0.263494  0.500000  1
  Pd  Pd21  1  0.547671  0.736506  0.500000  1
  Pd  Pd22  1  0.263495  0.452329  0.500000  1
  Pd  Pd23  1  0.736505  0.547671  0.500000  1
