# generated using pymatgen
data_Lu4As5PtRh7
_symmetry_space_group_name_H-M   'P 1'
_cell_length_a   7.22540951
_cell_length_b   7.22540966
_cell_length_c   7.22541003
_cell_angle_alpha   110.51297850
_cell_angle_beta   107.40721602
_cell_angle_gamma   110.51297957
_symmetry_Int_Tables_number   1
_chemical_formula_structural   Lu4As5PtRh7
_chemical_formula_sum   'Lu4 As5 Pt1 Rh7'
_cell_volume   290.09785650
_cell_formula_units_Z   1
loop_
 _symmetry_equiv_pos_site_id
 _symmetry_equiv_pos_as_xyz
  1  'x, y, z'
loop_
 _atom_site_type_symbol
 _atom_site_label
 _atom_site_symmetry_multiplicity
 _atom_site_fract_x
 _atom_site_fract_y
 _atom_site_fract_z
 _atom_site_occupancy
  Lu  Lu0  1  0.499729  0.515382  0.499729  1
  Lu  Lu1  1  0.984346  0.484618  0.984346  1
  Lu  Lu2  1  0.499729  0.000000  0.984346  1
  Lu  Lu3  1  0.984346  0.000000  0.499729  1
  As  As4  1  0.684932  0.686177  0.998755  1
  As  As5  1  0.312579  0.313823  0.998755  1
  As  As6  1  0.998755  0.686177  0.684932  1
  As  As7  1  0.998755  0.313823  0.312579  1
  As  As8  1  0.331467  0.000000  0.331467  1
  Pt  Pt9  1  0.712963  0.000000  0.712963  1
  Rh  Rh10  1  0.746433  0.500000  0.246433  1
  Rh  Rh11  1  0.490650  0.252597  0.743247  1
  Rh  Rh12  1  0.743247  0.252597  0.490650  1
  Rh  Rh13  1  0.238054  0.747403  0.490650  1
  Rh  Rh14  1  0.246433  0.500000  0.746433  1
  Rh  Rh15  1  0.490650  0.747403  0.238054  1
  Rh  Rh16  1  0.036931  0.000000  0.036931  1
