# generated using pymatgen
data_Y6Cr3Ni15P13Pt2
_symmetry_space_group_name_H-M   'P 1'
_cell_length_a   12.87216600
_cell_length_b   12.87216621
_cell_length_c   3.74874500
_cell_angle_alpha   90.00000000
_cell_angle_beta   90.00000000
_cell_angle_gamma   119.99999946
_symmetry_Int_Tables_number   1
_chemical_formula_structural   Y6Cr3Ni15P13Pt2
_chemical_formula_sum   'Y6 Cr3 Ni15 P13 Pt2'
_cell_volume   537.92261657
_cell_formula_units_Z   1
loop_
 _symmetry_equiv_pos_site_id
 _symmetry_equiv_pos_as_xyz
  1  'x, y, z'
loop_
 _atom_site_type_symbol
 _atom_site_label
 _atom_site_symmetry_multiplicity
 _atom_site_fract_x
 _atom_site_fract_y
 _atom_site_fract_z
 _atom_site_occupancy
  Y  Y0  1  0.465638  0.184542  0.000000  1
  Y  Y1  1  0.718905  0.534362  0.000000  1
  Y  Y2  1  0.815458  0.281095  0.000000  1
  Y  Y3  1  0.535691  0.816223  0.500000  1
  Y  Y4  1  0.280533  0.464309  0.500000  1
  Y  Y5  1  0.183777  0.719467  0.500000  1
  Cr  Cr6  1  0.847914  0.930911  0.500000  1
  Cr  Cr7  1  0.082997  0.152086  0.500000  1
  Cr  Cr8  1  0.069089  0.917003  0.500000  1
  Ni  Ni9  1  0.197171  0.091126  0.000000  1
  Ni  Ni10  1  0.893953  0.802829  0.000000  1
  Ni  Ni11  1  0.908874  0.106047  0.000000  1
  Ni  Ni12  1  0.435726  0.415727  0.000000  1
  Ni  Ni13  1  0.980002  0.564274  0.000000  1
  Ni  Ni14  1  0.584273  0.019998  0.000000  1
  Ni  Ni15  1  0.567522  0.589352  0.500000  1
  Ni  Ni16  1  0.021830  0.432478  0.500000  1
  Ni  Ni17  1  0.410648  0.978170  0.500000  1
  Ni  Ni18  1  0.077484  0.316811  0.000000  1
  Ni  Ni19  1  0.239327  0.922516  0.000000  1
  Ni  Ni20  1  0.683189  0.760673  0.000000  1
  Ni  Ni21  1  0.927914  0.682404  0.500000  1
  Ni  Ni22  1  0.754490  0.072086  0.500000  1
  Ni  Ni23  1  0.317596  0.245510  0.500000  1
  P  P24  1  0.231878  0.279436  0.000000  1
  P  P25  1  0.047559  0.768122  0.000000  1
  P  P26  1  0.720564  0.952441  0.000000  1
  P  P27  1  0.770184  0.722665  0.500000  1
  P  P28  1  0.952482  0.229816  0.500000  1
  P  P29  1  0.277335  0.047518  0.500000  1
  P  P30  1  0.484901  0.613639  0.000000  1
  P  P31  1  0.128737  0.515099  0.000000  1
  P  P32  1  0.386361  0.871263  0.000000  1
  P  P33  1  0.516833  0.388408  0.500000  1
  P  P34  1  0.871576  0.483167  0.500000  1
  P  P35  1  0.611592  0.128424  0.500000  1
  P  P36  1  0.000000  0.000000  0.000000  1
  Pt  Pt37  1  0.333333  0.666667  0.000000  1
  Pt  Pt38  1  0.666667  0.333333  0.500000  1
