# generated using pymatgen
data_Sc4Be8Ru7Rh3
_symmetry_space_group_name_H-M   'P 1'
_cell_length_a   3.20196800
_cell_length_b   8.57445632
_cell_length_c   10.23710471
_cell_angle_alpha   89.88908766
_cell_angle_beta   90.00000000
_cell_angle_gamma   90.00000000
_symmetry_Int_Tables_number   1
_chemical_formula_structural   Sc4Be8Ru7Rh3
_chemical_formula_sum   'Sc4 Be8 Ru7 Rh3'
_cell_volume   281.06056259
_cell_formula_units_Z   1
loop_
 _symmetry_equiv_pos_site_id
 _symmetry_equiv_pos_as_xyz
  1  'x, y, z'
loop_
 _atom_site_type_symbol
 _atom_site_label
 _atom_site_symmetry_multiplicity
 _atom_site_fract_x
 _atom_site_fract_y
 _atom_site_fract_z
 _atom_site_occupancy
  Sc  Sc0  1  0.500000  0.842978  0.188203  1
  Sc  Sc1  1  0.500000  0.158405  0.814102  1
  Sc  Sc2  1  0.500000  0.658950  0.679813  1
  Sc  Sc3  1  0.500000  0.340762  0.315919  1
  Be  Be4  1  0.500000  0.963344  0.594365  1
  Be  Be5  1  0.500000  0.037463  0.406614  1
  Be  Be6  1  0.500000  0.845095  0.901713  1
  Be  Be7  1  0.500000  0.157660  0.098007  1
  Be  Be8  1  0.500000  0.657371  0.401886  1
  Be  Be9  1  0.500000  0.342880  0.597785  1
  Be  Be10  1  0.500000  0.460849  0.905213  1
  Be  Be11  1  0.500000  0.533540  0.096752  1
  Ru  Ru12  1  0.000000  0.342342  0.045546  1
  Ru  Ru13  1  0.000000  0.841195  0.453608  1
  Ru  Ru14  1  0.000000  0.158883  0.546488  1
  Ru  Ru15  1  0.000000  0.402960  0.756872  1
  Ru  Ru16  1  0.000000  0.597397  0.243179  1
  Ru  Ru17  1  0.000000  0.901362  0.742725  1
  Ru  Ru18  1  0.000000  0.097388  0.257518  1
  Rh  Rh19  1  0.000000  0.659924  0.954548  1
  Rh  Rh20  1  0.000000  0.999926  0.000105  1
  Rh  Rh21  1  0.000000  0.499326  0.499038  1
