# generated using pymatgen
data_LuPa3(CoP)4
_symmetry_space_group_name_H-M   'P 1'
_cell_length_a   3.87250900
_cell_length_b   7.56133952
_cell_length_c   6.71113060
_cell_angle_alpha   89.83363101
_cell_angle_beta   90.00000000
_cell_angle_gamma   90.00000000
_symmetry_Int_Tables_number   1
_chemical_formula_structural   LuPa3(CoP)4
_chemical_formula_sum   'Lu1 Pa3 Co4 P4'
_cell_volume   196.51017143
_cell_formula_units_Z   1
loop_
 _symmetry_equiv_pos_site_id
 _symmetry_equiv_pos_as_xyz
  1  'x, y, z'
loop_
 _atom_site_type_symbol
 _atom_site_label
 _atom_site_symmetry_multiplicity
 _atom_site_fract_x
 _atom_site_fract_y
 _atom_site_fract_z
 _atom_site_occupancy
  Lu  Lu0  1  0.250000  0.999962  0.750025  1
  Pa  Pa1  1  0.250000  0.499930  0.749886  1
  Pa  Pa2  1  0.750000  0.999881  0.249849  1
  Pa  Pa3  1  0.750000  0.500208  0.250140  1
  Co  Co4  1  0.250000  0.272606  0.414386  1
  Co  Co5  1  0.250000  0.727616  0.085711  1
  Co  Co6  1  0.750000  0.724985  0.581825  1
  Co  Co7  1  0.750000  0.274895  0.918104  1
  P  P8  1  0.250000  0.233547  0.079405  1
  P  P9  1  0.250000  0.766803  0.420825  1
  P  P10  1  0.750000  0.765643  0.913527  1
  P  P11  1  0.750000  0.233925  0.586318  1
