# generated using pymatgen
data_Ta3Nb3Co4(WC)2
_symmetry_space_group_name_H-M   'P 1'
_cell_length_a   8.19540233
_cell_length_b   8.19506576
_cell_length_c   8.19540201
_cell_angle_alpha   60.00136065
_cell_angle_beta   59.99693636
_cell_angle_gamma   60.00135863
_symmetry_Int_Tables_number   1
_chemical_formula_structural   Ta3Nb3Co4(WC)2
_chemical_formula_sum   'Ta6 Nb6 Co8 W4 C4'
_cell_volume   389.20360454
_cell_formula_units_Z   2
loop_
 _symmetry_equiv_pos_site_id
 _symmetry_equiv_pos_as_xyz
  1  'x, y, z'
loop_
 _atom_site_type_symbol
 _atom_site_label
 _atom_site_symmetry_multiplicity
 _atom_site_fract_x
 _atom_site_fract_y
 _atom_site_fract_z
 _atom_site_occupancy
  Ta  Ta0  1  0.691936  0.308064  0.691936  1
  Ta  Ta1  1  0.941269  0.558941  0.558786  1
  Ta  Ta2  1  0.558786  0.941003  0.941269  1
  Ta  Ta3  1  0.940370  0.559630  0.940370  1
  Ta  Ta4  1  0.558786  0.558941  0.941269  1
  Ta  Ta5  1  0.941269  0.941003  0.558786  1
  Nb  Nb6  1  0.690437  0.690500  0.309674  1
  Nb  Nb7  1  0.309674  0.690500  0.690437  1
  Nb  Nb8  1  0.690437  0.309388  0.309674  1
  Nb  Nb9  1  0.309674  0.309388  0.690437  1
  Nb  Nb10  1  0.560401  0.939599  0.560401  1
  Nb  Nb11  1  0.308836  0.691164  0.308836  1
  Co  Co12  1  0.326161  0.328455  0.326161  1
  Co  Co13  1  0.231733  0.922261  0.923745  1
  Co  Co14  1  0.921476  0.233373  0.921476  1
  Co  Co15  1  0.923745  0.922261  0.231733  1
  Co  Co16  1  0.326161  0.019223  0.326161  1
  Co  Co17  1  0.328345  0.326901  0.017853  1
  Co  Co18  1  0.017853  0.326901  0.328345  1
  Co  Co19  1  0.921476  0.923676  0.921476  1
  W  W20  1  0.124192  0.126215  0.124192  1
  W  W21  1  0.624542  0.124445  0.126568  1
  W  W22  1  0.124192  0.625401  0.124192  1
  W  W23  1  0.126568  0.124445  0.624542  1
  C  C24  1  0.626574  0.622560  0.626574  1
  C  C25  1  0.122707  0.625735  0.625824  1
  C  C26  1  0.626574  0.124293  0.626574  1
  C  C27  1  0.625824  0.625735  0.122707  1
