# generated using pymatgen
data_Zr5Tc23Os
_symmetry_space_group_name_H-M   'P 1'
_cell_length_a   8.42810981
_cell_length_b   8.43888525
_cell_length_c   8.42811022
_cell_angle_alpha   109.52648152
_cell_angle_beta   109.32277220
_cell_angle_gamma   109.52648465
_symmetry_Int_Tables_number   1
_chemical_formula_structural   Zr5Tc23Os
_chemical_formula_sum   'Zr5 Tc23 Os1'
_cell_volume   461.66325094
_cell_formula_units_Z   1
loop_
 _symmetry_equiv_pos_site_id
 _symmetry_equiv_pos_as_xyz
  1  'x, y, z'
loop_
 _atom_site_type_symbol
 _atom_site_label
 _atom_site_symmetry_multiplicity
 _atom_site_fract_x
 _atom_site_fract_y
 _atom_site_fract_z
 _atom_site_occupancy
  Zr  Zr0  1  0.999935  0.000320  0.999935  1
  Zr  Zr1  1  0.623764  0.999541  0.999307  1
  Zr  Zr2  1  0.999165  0.625030  0.999165  1
  Zr  Zr3  1  0.999307  0.999541  0.623764  1
  Zr  Zr4  1  0.375323  0.375205  0.375323  1
  Tc  Tc5  1  0.393604  0.673416  0.999393  1
  Tc  Tc6  1  0.719938  0.326276  0.326333  1
  Tc  Tc7  1  0.394839  0.999023  0.673360  1
  Tc  Tc8  1  0.674536  0.393318  0.999690  1
  Tc  Tc9  1  0.999690  0.393318  0.674536  1
  Tc  Tc10  1  0.325210  0.718533  0.325210  1
  Tc  Tc11  1  0.326333  0.326276  0.719938  1
  Tc  Tc12  1  0.999393  0.673416  0.393604  1
  Tc  Tc13  1  0.673360  0.999023  0.394839  1
  Tc  Tc14  1  0.605886  0.608030  0.282404  1
  Tc  Tc15  1  0.282404  0.608030  0.605886  1
  Tc  Tc16  1  0.607249  0.282095  0.607249  1
  Tc  Tc17  1  0.375385  0.194943  0.000048  1
  Tc  Tc18  1  0.179530  0.804470  0.804590  1
  Tc  Tc19  1  0.375636  0.000064  0.194717  1
  Tc  Tc20  1  0.194357  0.374909  0.999590  1
  Tc  Tc21  1  0.999590  0.374909  0.194357  1
  Tc  Tc22  1  0.805565  0.181628  0.805565  1
  Tc  Tc23  1  0.804590  0.804470  0.179530  1
  Tc  Tc24  1  0.000048  0.194943  0.375385  1
  Tc  Tc25  1  0.194717  0.000064  0.375636  1
  Tc  Tc26  1  0.624627  0.625051  0.819680  1
  Tc  Tc27  1  0.819680  0.625051  0.624627  1
  Os  Os28  1  0.626341  0.819106  0.626341  1
