# generated using pymatgen
data_Zr4Ta2B4IrRu9
_symmetry_space_group_name_H-M   'P 1'
_cell_length_a   9.53203841
_cell_length_b   9.52082441
_cell_length_c   3.11046700
_cell_angle_alpha   90.00000000
_cell_angle_beta   90.00000000
_cell_angle_gamma   90.03366862
_symmetry_Int_Tables_number   1
_chemical_formula_structural   Zr4Ta2B4IrRu9
_chemical_formula_sum   'Zr4 Ta2 B4 Ir1 Ru9'
_cell_volume   282.28373987
_cell_formula_units_Z   1
loop_
 _symmetry_equiv_pos_site_id
 _symmetry_equiv_pos_as_xyz
  1  'x, y, z'
loop_
 _atom_site_type_symbol
 _atom_site_label
 _atom_site_symmetry_multiplicity
 _atom_site_fract_x
 _atom_site_fract_y
 _atom_site_fract_z
 _atom_site_occupancy
  Zr  Zr0  1  0.828349  0.675526  0.000000  1
  Zr  Zr1  1  0.175617  0.323711  0.000000  1
  Zr  Zr2  1  0.320294  0.825967  0.000000  1
  Zr  Zr3  1  0.676554  0.176618  0.000000  1
  Ta  Ta4  1  0.498534  0.495326  0.000000  1
  Ta  Ta5  1  0.999887  0.000889  0.000000  1
  B  B6  1  0.622645  0.883476  0.000000  1
  B  B7  1  0.377842  0.120129  0.000000  1
  B  B8  1  0.121287  0.620930  0.000000  1
  B  B9  1  0.879314  0.378833  0.000000  1
  Ir  Ir10  1  0.570128  0.717883  0.500000  1
  Ru  Ru11  1  0.429879  0.280204  0.500000  1
  Ru  Ru12  1  0.070408  0.781912  0.500000  1
  Ru  Ru13  1  0.928505  0.218347  0.500000  1
  Ru  Ru14  1  0.282505  0.571468  0.500000  1
  Ru  Ru15  1  0.718533  0.431590  0.500000  1
  Ru  Ru16  1  0.217835  0.070474  0.500000  1
  Ru  Ru17  1  0.781206  0.928191  0.500000  1
  Ru  Ru18  1  0.499726  0.998789  0.500000  1
  Ru  Ru19  1  0.000954  0.499739  0.500000  1
