# generated using pymatgen
data_Dy2Lu3V3(P3Ir4)4
_symmetry_space_group_name_H-M   'P 1'
_cell_length_a   12.66040001
_cell_length_b   12.65953483
_cell_length_c   3.94428700
_cell_angle_alpha   90.00000000
_cell_angle_beta   90.00000000
_cell_angle_gamma   119.99773504
_symmetry_Int_Tables_number   1
_chemical_formula_structural   Dy2Lu3V3(P3Ir4)4
_chemical_formula_sum   'Dy2 Lu3 V3 P12 Ir16'
_cell_volume   547.48752386
_cell_formula_units_Z   1
loop_
 _symmetry_equiv_pos_site_id
 _symmetry_equiv_pos_as_xyz
  1  'x, y, z'
loop_
 _atom_site_type_symbol
 _atom_site_label
 _atom_site_symmetry_multiplicity
 _atom_site_fract_x
 _atom_site_fract_y
 _atom_site_fract_z
 _atom_site_occupancy
  Dy  Dy0  1  0.188490  0.188507  0.000000  1
  Dy  Dy1  1  0.811510  0.000017  0.000000  1
  Lu  Lu2  1  0.333375  0.666657  0.500000  1
  Lu  Lu3  1  0.666625  0.333281  0.500000  1
  Lu  Lu4  1  0.000000  0.811535  0.000000  1
  V  V5  1  0.000000  0.451384  0.500000  1
  V  V6  1  0.548980  0.548906  0.500000  1
  V  V7  1  0.451020  0.999927  0.500000  1
  P  P8  1  0.000000  0.636621  0.500000  1
  P  P9  1  0.364176  0.364199  0.500000  1
  P  P10  1  0.635824  0.000023  0.500000  1
  P  P11  1  0.516317  0.683808  0.000000  1
  P  P12  1  0.316318  0.832382  0.000000  1
  P  P13  1  0.167554  0.483903  0.000000  1
  P  P14  1  0.483683  0.167492  0.000000  1
  P  P15  1  0.683682  0.516065  0.000000  1
  P  P16  1  0.832446  0.316350  0.000000  1
  P  P17  1  0.000000  0.176858  0.500000  1
  P  P18  1  0.823100  0.822545  0.500000  1
  P  P19  1  0.176900  0.999445  0.500000  1
  Ir  Ir20  1  0.508265  0.866047  0.000000  1
  Ir  Ir21  1  0.134077  0.642396  0.000000  1
  Ir  Ir22  1  0.357863  0.491891  0.000000  1
  Ir  Ir23  1  0.491735  0.357781  0.000000  1
  Ir  Ir24  1  0.865923  0.508318  0.000000  1
  Ir  Ir25  1  0.642137  0.134028  0.000000  1
  Ir  Ir26  1  0.000000  0.285287  0.000000  1
  Ir  Ir27  1  0.715238  0.714807  0.000000  1
  Ir  Ir28  1  0.284762  0.999569  0.000000  1
  Ir  Ir29  1  0.624892  0.803698  0.500000  1
  Ir  Ir30  1  0.194491  0.820871  0.500000  1
  Ir  Ir31  1  0.178886  0.375116  0.500000  1
  Ir  Ir32  1  0.375108  0.178806  0.500000  1
  Ir  Ir33  1  0.805509  0.626380  0.500000  1
  Ir  Ir34  1  0.821114  0.196231  0.500000  1
  Ir  Ir35  1  0.000000  0.998872  0.500000  1
