# generated using pymatgen
data_PrHo(NiAs)2
_symmetry_space_group_name_H-M   'P 1'
_cell_length_a   4.11309200
_cell_length_b   4.11309186
_cell_length_c   16.00321700
_cell_angle_alpha   90.00000000
_cell_angle_beta   90.00000000
_cell_angle_gamma   120.00000112
_symmetry_Int_Tables_number   1
_chemical_formula_structural   PrHo(NiAs)2
_chemical_formula_sum   'Pr2 Ho2 Ni4 As4'
_cell_volume   234.46323555
_cell_formula_units_Z   2
loop_
 _symmetry_equiv_pos_site_id
 _symmetry_equiv_pos_as_xyz
  1  'x, y, z'
loop_
 _atom_site_type_symbol
 _atom_site_label
 _atom_site_symmetry_multiplicity
 _atom_site_fract_x
 _atom_site_fract_y
 _atom_site_fract_z
 _atom_site_occupancy
  Pr  Pr0  1  0.000000  0.000000  0.001343  1
  Pr  Pr1  1  0.000000  0.000000  0.498657  1
  Ho  Ho2  1  0.000000  0.000000  0.250000  1
  Ho  Ho3  1  0.000000  0.000000  0.750000  1
  Ni  Ni4  1  0.333333  0.666667  0.142161  1
  Ni  Ni5  1  0.666667  0.333333  0.861741  1
  Ni  Ni6  1  0.666667  0.333333  0.638259  1
  Ni  Ni7  1  0.333333  0.666667  0.357839  1
  As  As8  1  0.333333  0.666667  0.626386  1
  As  As9  1  0.666667  0.333333  0.372946  1
  As  As10  1  0.666667  0.333333  0.127054  1
  As  As11  1  0.333333  0.666667  0.873614  1
