# generated using pymatgen
data_Dy4ErBiAu2
_symmetry_space_group_name_H-M   'P 1'
_cell_length_a   8.71731563
_cell_length_b   8.71731530
_cell_length_c   8.71731554
_cell_angle_alpha   124.26700870
_cell_angle_beta   124.26700491
_cell_angle_gamma   82.75568600
_symmetry_Int_Tables_number   1
_chemical_formula_structural   Dy4ErBiAu2
_chemical_formula_sum   'Dy8 Er2 Bi2 Au4'
_cell_volume   434.39354179
_cell_formula_units_Z   2
loop_
 _symmetry_equiv_pos_site_id
 _symmetry_equiv_pos_as_xyz
  1  'x, y, z'
loop_
 _atom_site_type_symbol
 _atom_site_label
 _atom_site_symmetry_multiplicity
 _atom_site_fract_x
 _atom_site_fract_y
 _atom_site_fract_z
 _atom_site_occupancy
  Dy  Dy0  1  0.513972  0.013972  0.808916  1
  Dy  Dy1  1  0.205055  0.705055  0.191084  1
  Dy  Dy2  1  0.013972  0.205055  0.500000  1
  Dy  Dy3  1  0.705055  0.513972  0.500000  1
  Dy  Dy4  1  0.486028  0.986028  0.191084  1
  Dy  Dy5  1  0.794945  0.294945  0.808916  1
  Dy  Dy6  1  0.986028  0.794945  0.500000  1
  Dy  Dy7  1  0.294945  0.486028  0.500000  1
  Er  Er8  1  0.500000  0.500000  0.000000  1
  Er  Er9  1  0.000000  0.000000  0.000000  1
  Bi  Bi10  1  0.250000  0.250000  0.000000  1
  Bi  Bi11  1  0.750000  0.750000  0.000000  1
  Au  Au12  1  0.139203  0.639203  0.778405  1
  Au  Au13  1  0.860797  0.360797  0.221595  1
  Au  Au14  1  0.639203  0.860797  0.500000  1
  Au  Au15  1  0.360797  0.139203  0.500000  1
