# generated using pymatgen
data_Sc4Al18CuRh5
_symmetry_space_group_name_H-M   'P 1'
_cell_length_a   7.48304301
_cell_length_b   7.48304320
_cell_length_c   9.27275854
_cell_angle_alpha   90.15060494
_cell_angle_beta   90.15060538
_cell_angle_gamma   119.82097606
_symmetry_Int_Tables_number   1
_chemical_formula_structural   Sc4Al18CuRh5
_chemical_formula_sum   'Sc4 Al18 Cu1 Rh5'
_cell_volume   450.47504308
_cell_formula_units_Z   1
loop_
 _symmetry_equiv_pos_site_id
 _symmetry_equiv_pos_as_xyz
  1  'x, y, z'
loop_
 _atom_site_type_symbol
 _atom_site_label
 _atom_site_symmetry_multiplicity
 _atom_site_fract_x
 _atom_site_fract_y
 _atom_site_fract_z
 _atom_site_occupancy
  Sc  Sc0  1  0.994749  0.671679  0.249752  1
  Sc  Sc1  1  0.005251  0.328321  0.750248  1
  Sc  Sc2  1  0.671679  0.994749  0.249752  1
  Sc  Sc3  1  0.328321  0.005251  0.750248  1
  Al  Al4  1  0.123445  0.123445  0.249958  1
  Al  Al5  1  0.876555  0.876555  0.750042  1
  Al  Al6  1  0.997055  0.337545  0.079432  1
  Al  Al7  1  0.002945  0.662455  0.920568  1
  Al  Al8  1  0.003268  0.665322  0.577502  1
  Al  Al9  1  0.334678  0.996732  0.422498  1
  Al  Al10  1  0.996732  0.334678  0.422498  1
  Al  Al11  1  0.665322  0.003268  0.577502  1
  Al  Al12  1  0.662455  0.002945  0.920568  1
  Al  Al13  1  0.337545  0.997055  0.079432  1
  Al  Al14  1  0.330605  0.330605  0.556808  1
  Al  Al15  1  0.669395  0.669395  0.443192  1
  Al  Al16  1  0.668522  0.668522  0.057241  1
  Al  Al17  1  0.331478  0.331478  0.942759  1
  Al  Al18  1  0.339617  0.554161  0.250208  1
  Al  Al19  1  0.660383  0.445839  0.749792  1
  Al  Al20  1  0.554161  0.339617  0.250208  1
  Al  Al21  1  0.445839  0.660383  0.749792  1
  Cu  Cu22  1  0.000000  0.000000  0.000000  1
  Rh  Rh23  1  0.671978  0.328022  0.000000  1
  Rh  Rh24  1  0.328022  0.671978  0.000000  1
  Rh  Rh25  1  0.327828  0.672172  0.500000  1
  Rh  Rh26  1  0.672172  0.327828  0.500000  1
  Rh  Rh27  1  0.000000  0.000000  0.500000  1
