# generated using pymatgen
data_YbErGa9Ir2Pd
_symmetry_space_group_name_H-M   'P 1'
_cell_length_a   7.61463421
_cell_length_b   7.59985341
_cell_length_c   9.53237400
_cell_angle_alpha   90.00000000
_cell_angle_beta   90.00000000
_cell_angle_gamma   119.94346527
_symmetry_Int_Tables_number   1
_chemical_formula_structural   YbErGa9Ir2Pd
_chemical_formula_sum   'Yb2 Er2 Ga18 Ir4 Pd2'
_cell_volume   478.00572066
_cell_formula_units_Z   2
loop_
 _symmetry_equiv_pos_site_id
 _symmetry_equiv_pos_as_xyz
  1  'x, y, z'
loop_
 _atom_site_type_symbol
 _atom_site_label
 _atom_site_symmetry_multiplicity
 _atom_site_fract_x
 _atom_site_fract_y
 _atom_site_fract_z
 _atom_site_occupancy
  Yb  Yb0  1  0.996970  0.667769  0.750000  1
  Yb  Yb1  1  0.003030  0.332231  0.250000  1
  Er  Er2  1  0.668495  0.997333  0.750000  1
  Er  Er3  1  0.331505  0.002667  0.250000  1
  Ga  Ga4  1  0.127736  0.127596  0.750000  1
  Ga  Ga5  1  0.872264  0.872404  0.250000  1
  Ga  Ga6  1  0.998774  0.338651  0.580537  1
  Ga  Ga7  1  0.001226  0.661349  0.419463  1
  Ga  Ga8  1  0.001226  0.661349  0.080537  1
  Ga  Ga9  1  0.335903  0.998165  0.918303  1
  Ga  Ga10  1  0.998774  0.338651  0.919463  1
  Ga  Ga11  1  0.664097  0.001835  0.081697  1
  Ga  Ga12  1  0.664097  0.001835  0.418303  1
  Ga  Ga13  1  0.335903  0.998165  0.581697  1
  Ga  Ga14  1  0.334560  0.335506  0.067414  1
  Ga  Ga15  1  0.665440  0.664494  0.932586  1
  Ga  Ga16  1  0.665440  0.664494  0.567414  1
  Ga  Ga17  1  0.334560  0.335506  0.432586  1
  Ga  Ga18  1  0.336725  0.547604  0.750000  1
  Ga  Ga19  1  0.663275  0.452396  0.250000  1
  Ga  Ga20  1  0.547822  0.337042  0.750000  1
  Ga  Ga21  1  0.452178  0.662958  0.250000  1
  Ir  Ir22  1  0.669579  0.327347  0.499893  1
  Ir  Ir23  1  0.330421  0.672653  0.500107  1
  Ir  Ir24  1  0.330421  0.672653  0.999893  1
  Ir  Ir25  1  0.669579  0.327347  0.000107  1
  Pd  Pd26  1  0.000000  0.000000  0.500000  1
  Pd  Pd27  1  0.000000  0.000000  0.000000  1
