# generated using pymatgen
data_Y8Ho12PdRh11
_symmetry_space_group_name_H-M   'P 1'
_cell_length_a   10.90266800
_cell_length_b   10.90280149
_cell_length_c   6.35874900
_cell_angle_alpha   89.99095064
_cell_angle_beta   90.00120870
_cell_angle_gamma   90.08623712
_symmetry_Int_Tables_number   1
_chemical_formula_structural   Y8Ho12PdRh11
_chemical_formula_sum   'Y8 Ho12 Pd1 Rh11'
_cell_volume   755.86124266
_cell_formula_units_Z   1
loop_
 _symmetry_equiv_pos_site_id
 _symmetry_equiv_pos_as_xyz
  1  'x, y, z'
loop_
 _atom_site_type_symbol
 _atom_site_label
 _atom_site_symmetry_multiplicity
 _atom_site_fract_x
 _atom_site_fract_y
 _atom_site_fract_z
 _atom_site_occupancy
  Y  Y0  1  0.289737  0.090147  0.378862  1
  Y  Y1  1  0.289365  0.913419  0.879583  1
  Y  Y2  1  0.710155  0.089895  0.878671  1
  Y  Y3  1  0.709925  0.910316  0.378689  1
  Y  Y4  1  0.592352  0.790762  0.879411  1
  Y  Y5  1  0.590056  0.209668  0.377689  1
  Y  Y6  1  0.411500  0.792185  0.373464  1
  Y  Y7  1  0.410127  0.210626  0.878154  1
  Ho  Ho8  1  0.207224  0.408369  0.618523  1
  Ho  Ho9  1  0.205764  0.586664  0.125931  1
  Ho  Ho10  1  0.792331  0.411544  0.121032  1
  Ho  Ho11  1  0.791151  0.588636  0.620398  1
  Ho  Ho12  1  0.911305  0.708841  0.119475  1
  Ho  Ho13  1  0.911716  0.291623  0.619832  1
  Ho  Ho14  1  0.083734  0.709113  0.619061  1
  Ho  Ho15  1  0.088257  0.291620  0.119640  1
  Ho  Ho16  1  0.999776  0.000325  0.501094  1
  Ho  Ho17  1  0.999926  0.000298  0.002040  1
  Ho  Ho18  1  0.502450  0.497782  0.002582  1
  Ho  Ho19  1  0.502451  0.497732  0.500845  1
  Pd  Pd20  1  0.344162  0.651799  0.751226  1
  Rh  Rh21  1  0.849064  0.155713  0.250896  1
  Rh  Rh22  1  0.848850  0.844831  0.750918  1
  Rh  Rh23  1  0.150886  0.155688  0.751005  1
  Rh  Rh24  1  0.151909  0.843229  0.250962  1
  Rh  Rh25  1  0.656060  0.348713  0.750943  1
  Rh  Rh26  1  0.654843  0.650848  0.250549  1
  Rh  Rh27  1  0.344568  0.349741  0.251372  1
  Rh  Rh28  1  0.499404  0.999617  0.125093  1
  Rh  Rh29  1  0.499773  0.999182  0.626528  1
  Rh  Rh30  1  0.000757  0.500343  0.872126  1
  Rh  Rh31  1  0.000422  0.500727  0.373406  1
