# generated using pymatgen
data_Nd2Gd4IrCl10
_symmetry_space_group_name_H-M   'P 1'
_cell_length_a   7.27815572
_cell_length_b   9.07718232
_cell_length_c   9.21035791
_cell_angle_alpha   109.13180116
_cell_angle_beta   96.42721238
_cell_angle_gamma   107.16274076
_symmetry_Int_Tables_number   1
_chemical_formula_structural   Nd2Gd4IrCl10
_chemical_formula_sum   'Nd2 Gd4 Ir1 Cl10'
_cell_volume   534.40172393
_cell_formula_units_Z   1
loop_
 _symmetry_equiv_pos_site_id
 _symmetry_equiv_pos_as_xyz
  1  'x, y, z'
loop_
 _atom_site_type_symbol
 _atom_site_label
 _atom_site_symmetry_multiplicity
 _atom_site_fract_x
 _atom_site_fract_y
 _atom_site_fract_z
 _atom_site_occupancy
  Nd  Nd0  1  0.142087  0.057074  0.751738  1
  Nd  Nd1  1  0.857913  0.942926  0.248262  1
  Gd  Gd2  1  0.975557  0.311757  0.104595  1
  Gd  Gd3  1  0.024443  0.688243  0.895405  1
  Gd  Gd4  1  0.624942  0.850511  0.805638  1
  Gd  Gd5  1  0.375058  0.149489  0.194362  1
  Ir  Ir6  1  0.000000  0.000000  0.000000  1
  Cl  Cl7  1  0.554202  0.169568  0.928821  1
  Cl  Cl8  1  0.445798  0.830432  0.071179  1
  Cl  Cl9  1  0.754609  0.918997  0.552559  1
  Cl  Cl10  1  0.245391  0.081003  0.447441  1
  Cl  Cl11  1  0.085608  0.372984  0.842594  1
  Cl  Cl12  1  0.914392  0.627016  0.157406  1
  Cl  Cl13  1  0.207288  0.743679  0.655848  1
  Cl  Cl14  1  0.792712  0.256321  0.344152  1
  Cl  Cl15  1  0.643534  0.542009  0.725152  1
  Cl  Cl16  1  0.356466  0.457991  0.274848  1
