# generated using pymatgen
data_ThPa5(Fe3P2)6
_symmetry_space_group_name_H-M   'P 1'
_cell_length_a   3.74799300
_cell_length_b   10.61998900
_cell_length_c   12.23755700
_cell_angle_alpha   90.00000000
_cell_angle_beta   90.00000000
_cell_angle_gamma   90.00000000
_symmetry_Int_Tables_number   1
_chemical_formula_structural   ThPa5(Fe3P2)6
_chemical_formula_sum   'Th1 Pa5 Fe18 P12'
_cell_volume   487.09936755
_cell_formula_units_Z   1
loop_
 _symmetry_equiv_pos_site_id
 _symmetry_equiv_pos_as_xyz
  1  'x, y, z'
loop_
 _atom_site_type_symbol
 _atom_site_label
 _atom_site_symmetry_multiplicity
 _atom_site_fract_x
 _atom_site_fract_y
 _atom_site_fract_z
 _atom_site_occupancy
  Th  Th0  1  0.500000  0.000000  0.477934  1
  Pa  Pa1  1  0.000000  0.500000  0.523887  1
  Pa  Pa2  1  0.500000  0.819080  0.206027  1
  Pa  Pa3  1  0.500000  0.180920  0.206027  1
  Pa  Pa4  1  0.000000  0.681889  0.793697  1
  Pa  Pa5  1  0.000000  0.318111  0.793697  1
  Fe  Fe6  1  0.500000  0.500000  0.150671  1
  Fe  Fe7  1  0.000000  0.000000  0.849790  1
  Fe  Fe8  1  0.500000  0.500000  0.701956  1
  Fe  Fe9  1  0.000000  0.000000  0.292350  1
  Fe  Fe10  1  0.000000  0.500000  0.986152  1
  Fe  Fe11  1  0.500000  0.000000  0.012492  1
  Fe  Fe12  1  0.500000  0.333371  0.993906  1
  Fe  Fe13  1  0.500000  0.666629  0.993906  1
  Fe  Fe14  1  0.000000  0.167646  0.005594  1
  Fe  Fe15  1  0.000000  0.832354  0.005594  1
  Fe  Fe16  1  0.500000  0.305625  0.428126  1
  Fe  Fe17  1  0.500000  0.694375  0.428126  1
  Fe  Fe18  1  0.000000  0.203284  0.573800  1
  Fe  Fe19  1  0.000000  0.796716  0.573800  1
  Fe  Fe20  1  0.500000  0.879074  0.717471  1
  Fe  Fe21  1  0.500000  0.120926  0.717471  1
  Fe  Fe22  1  0.000000  0.619115  0.283278  1
  Fe  Fe23  1  0.000000  0.380885  0.283278  1
  P  P24  1  0.500000  0.500000  0.886208  1
  P  P25  1  0.000000  0.000000  0.111304  1
  P  P26  1  0.500000  0.500000  0.337363  1
  P  P27  1  0.000000  0.000000  0.665517  1
  P  P28  1  0.500000  0.305346  0.612966  1
  P  P29  1  0.500000  0.694654  0.612966  1
  P  P30  1  0.000000  0.199410  0.386987  1
  P  P31  1  0.000000  0.800590  0.386987  1
  P  P32  1  0.500000  0.846998  0.897936  1
  P  P33  1  0.500000  0.153002  0.897936  1
  P  P34  1  0.000000  0.652411  0.102401  1
  P  P35  1  0.000000  0.347589  0.102401  1
