# generated using pymatgen
data_Hf8Al14Os7S
_symmetry_space_group_name_H-M   'P 1'
_cell_length_a   8.85321296
_cell_length_b   8.85332393
_cell_length_c   8.85321300
_cell_angle_alpha   120.07483161
_cell_angle_beta   119.89493024
_cell_angle_gamma   90.02292362
_symmetry_Int_Tables_number   1
_chemical_formula_structural   Hf8Al14Os7S
_chemical_formula_sum   'Hf8 Al14 Os7 S1'
_cell_volume   490.79900884
_cell_formula_units_Z   1
loop_
 _symmetry_equiv_pos_site_id
 _symmetry_equiv_pos_as_xyz
  1  'x, y, z'
loop_
 _atom_site_type_symbol
 _atom_site_label
 _atom_site_symmetry_multiplicity
 _atom_site_fract_x
 _atom_site_fract_y
 _atom_site_fract_z
 _atom_site_occupancy
  Hf  Hf0  1  0.807138  0.299928  0.094899  1
  Hf  Hf1  1  0.205031  0.299949  0.492792  1
  Hf  Hf2  1  0.196077  0.696084  0.499984  1
  Hf  Hf3  1  0.205030  0.712244  0.905109  1
  Hf  Hf4  1  0.807158  0.712240  0.507215  1
  Hf  Hf5  1  0.788931  0.288937  0.500008  1
  Hf  Hf6  1  0.379405  0.118577  0.739181  1
  Hf  Hf7  1  0.379400  0.640217  0.260818  1
  Al  Al8  1  0.163857  0.331418  0.167554  1
  Al  Al9  1  0.163859  0.996287  0.832432  1
  Al  Al10  1  0.158162  0.336562  0.821598  1
  Al  Al11  1  0.514962  0.336560  0.178397  1
  Al  Al12  1  0.835298  0.664680  0.829372  1
  Al  Al13  1  0.835307  0.005934  0.170634  1
  Al  Al14  1  0.834553  0.664637  0.169913  1
  Al  Al15  1  0.494713  0.664644  0.830080  1
  Al  Al16  1  0.378475  0.119660  0.258832  1
  Al  Al17  1  0.860829  0.119652  0.741167  1
  Al  Al18  1  0.620445  0.877418  0.256994  1
  Al  Al19  1  0.620430  0.363444  0.743013  1
  Al  Al20  1  0.622181  0.881032  0.741137  1
  Al  Al21  1  0.139900  0.881054  0.258869  1
  Os  Os22  1  0.995567  0.998161  0.498731  1
  Os  Os23  1  0.499438  0.998162  0.002626  1
  Os  Os24  1  0.499820  0.499807  0.999999  1
  Os  Os25  1  0.499430  0.496830  0.501282  1
  Os  Os26  1  0.995531  0.496812  0.997369  1
  Os  Os27  1  0.999222  0.999233  0.999998  1
  Os  Os28  1  0.506501  0.006496  0.499990  1
  S  S29  1  0.993342  0.493340  0.500006  1
