# generated using pymatgen
data_Y3MnFe6(CoP3)2
_symmetry_space_group_name_H-M   'P 1'
_cell_length_a   3.73371900
_cell_length_b   10.56242800
_cell_length_c   12.21298000
_cell_angle_alpha   90.00000000
_cell_angle_beta   90.00000000
_cell_angle_gamma   90.00000000
_symmetry_Int_Tables_number   1
_chemical_formula_structural   Y3MnFe6(CoP3)2
_chemical_formula_sum   'Y6 Mn2 Fe12 Co4 P12'
_cell_volume   481.64497899
_cell_formula_units_Z   2
loop_
 _symmetry_equiv_pos_site_id
 _symmetry_equiv_pos_as_xyz
  1  'x, y, z'
loop_
 _atom_site_type_symbol
 _atom_site_label
 _atom_site_symmetry_multiplicity
 _atom_site_fract_x
 _atom_site_fract_y
 _atom_site_fract_z
 _atom_site_occupancy
  Y  Y0  1  0.000000  0.500000  0.524470  1
  Y  Y1  1  0.500000  0.000000  0.474309  1
  Y  Y2  1  0.500000  0.820616  0.207025  1
  Y  Y3  1  0.500000  0.179384  0.207025  1
  Y  Y4  1  0.000000  0.679142  0.793433  1
  Y  Y5  1  0.000000  0.320858  0.793433  1
  Mn  Mn6  1  0.500000  0.500000  0.153331  1
  Mn  Mn7  1  0.000000  0.000000  0.849442  1
  Fe  Fe8  1  0.000000  0.500000  0.989386  1
  Fe  Fe9  1  0.500000  0.000000  0.011153  1
  Fe  Fe10  1  0.500000  0.328664  0.997647  1
  Fe  Fe11  1  0.500000  0.671336  0.997647  1
  Fe  Fe12  1  0.000000  0.171589  0.002899  1
  Fe  Fe13  1  0.000000  0.828411  0.002899  1
  Fe  Fe14  1  0.500000  0.298432  0.429261  1
  Fe  Fe15  1  0.500000  0.701568  0.429261  1
  Fe  Fe16  1  0.000000  0.201255  0.570015  1
  Fe  Fe17  1  0.000000  0.798745  0.570015  1
  Fe  Fe18  1  0.500000  0.882579  0.709027  1
  Fe  Fe19  1  0.500000  0.117421  0.709027  1
  Co  Co20  1  0.500000  0.500000  0.700524  1
  Co  Co21  1  0.000000  0.000000  0.299428  1
  Co  Co22  1  0.000000  0.618717  0.289853  1
  Co  Co23  1  0.000000  0.381283  0.289853  1
  P  P24  1  0.500000  0.500000  0.885852  1
  P  P25  1  0.000000  0.000000  0.114045  1
  P  P26  1  0.500000  0.500000  0.344088  1
  P  P27  1  0.000000  0.000000  0.656133  1
  P  P28  1  0.500000  0.305703  0.614332  1
  P  P29  1  0.500000  0.694297  0.614332  1
  P  P30  1  0.000000  0.193953  0.386382  1
  P  P31  1  0.000000  0.806047  0.386382  1
  P  P32  1  0.500000  0.847213  0.890796  1
  P  P33  1  0.500000  0.152787  0.890796  1
  P  P34  1  0.000000  0.652245  0.108249  1
  P  P35  1  0.000000  0.347755  0.108249  1
