# generated using pymatgen
data_YbEr4In4IrPd
_symmetry_space_group_name_H-M   'P 1'
_cell_length_a   3.61401000
_cell_length_b   8.06522492
_cell_length_c   18.35600892
_cell_angle_alpha   90.10338830
_cell_angle_beta   90.00000000
_cell_angle_gamma   90.00000000
_symmetry_Int_Tables_number   1
_chemical_formula_structural   YbEr4In4IrPd
_chemical_formula_sum   'Yb2 Er8 In8 Ir2 Pd2'
_cell_volume   535.03647054
_cell_formula_units_Z   2
loop_
 _symmetry_equiv_pos_site_id
 _symmetry_equiv_pos_as_xyz
  1  'x, y, z'
loop_
 _atom_site_type_symbol
 _atom_site_label
 _atom_site_symmetry_multiplicity
 _atom_site_fract_x
 _atom_site_fract_y
 _atom_site_fract_z
 _atom_site_occupancy
  Yb  Yb0  1  0.000000  0.500000  0.500000  1
  Yb  Yb1  1  0.000000  0.000000  0.000000  1
  Er  Er2  1  0.000000  0.732877  0.277790  1
  Er  Er3  1  0.000000  0.267123  0.722210  1
  Er  Er4  1  0.000000  0.739926  0.780094  1
  Er  Er5  1  0.000000  0.260074  0.219906  1
  Er  Er6  1  0.000000  0.619774  0.087969  1
  Er  Er7  1  0.000000  0.380226  0.912031  1
  Er  Er8  1  0.000000  0.878035  0.586040  1
  Er  Er9  1  0.000000  0.121965  0.413960  1
  In  In10  1  0.500000  0.703943  0.931509  1
  In  In11  1  0.500000  0.296057  0.068491  1
  In  In12  1  0.500000  0.796495  0.432954  1
  In  In13  1  0.500000  0.203505  0.567046  1
  In  In14  1  0.500000  0.572287  0.649755  1
  In  In15  1  0.500000  0.427713  0.350245  1
  In  In16  1  0.500000  0.931600  0.151483  1
  In  In17  1  0.500000  0.068400  0.848517  1
  Ir  Ir18  1  0.500000  0.525213  0.195466  1
  Ir  Ir19  1  0.500000  0.474787  0.804534  1
  Pd  Pd20  1  0.500000  0.976058  0.695211  1
  Pd  Pd21  1  0.500000  0.023942  0.304789  1
