# generated using pymatgen
data_Er20Bi8Os3Ru
_symmetry_space_group_name_H-M   'P 1'
_cell_length_a   7.88746983
_cell_length_b   8.97817300
_cell_length_c   12.42287030
_cell_angle_alpha   90.00000000
_cell_angle_beta   90.05242044
_cell_angle_gamma   90.00000000
_symmetry_Int_Tables_number   1
_chemical_formula_structural   Er20Bi8Os3Ru
_chemical_formula_sum   'Er20 Bi8 Os3 Ru1'
_cell_volume   879.72604459
_cell_formula_units_Z   1
loop_
 _symmetry_equiv_pos_site_id
 _symmetry_equiv_pos_as_xyz
  1  'x, y, z'
loop_
 _atom_site_type_symbol
 _atom_site_label
 _atom_site_symmetry_multiplicity
 _atom_site_fract_x
 _atom_site_fract_y
 _atom_site_fract_z
 _atom_site_occupancy
  Er  Er0  1  0.661614  0.750000  0.707920  1
  Er  Er1  1  0.338268  0.250000  0.291843  1
  Er  Er2  1  0.161536  0.250000  0.791733  1
  Er  Er3  1  0.838515  0.750000  0.208131  1
  Er  Er4  1  0.127654  0.750000  0.811428  1
  Er  Er5  1  0.872502  0.250000  0.188399  1
  Er  Er6  1  0.627686  0.250000  0.688325  1
  Er  Er7  1  0.373027  0.750000  0.312416  1
  Er  Er8  1  0.557164  0.750000  0.995205  1
  Er  Er9  1  0.442636  0.250000  0.004708  1
  Er  Er10  1  0.056971  0.250000  0.504762  1
  Er  Er11  1  0.944601  0.750000  0.495174  1
  Er  Er12  1  0.827901  0.458648  0.934056  1
  Er  Er13  1  0.172309  0.541386  0.066062  1
  Er  Er14  1  0.327398  0.540989  0.566009  1
  Er  Er15  1  0.172309  0.958614  0.066062  1
  Er  Er16  1  0.672195  0.458126  0.433902  1
  Er  Er17  1  0.827901  0.041352  0.934056  1
  Er  Er18  1  0.672195  0.041874  0.433902  1
  Er  Er19  1  0.327398  0.959011  0.566009  1
  Bi  Bi20  1  0.936116  0.005342  0.672493  1
  Bi  Bi21  1  0.063785  0.994480  0.327461  1
  Bi  Bi22  1  0.436368  0.994534  0.827288  1
  Bi  Bi23  1  0.063785  0.505520  0.327461  1
  Bi  Bi24  1  0.563451  0.005321  0.172779  1
  Bi  Bi25  1  0.936116  0.494658  0.672493  1
  Bi  Bi26  1  0.563451  0.494679  0.172779  1
  Bi  Bi27  1  0.436368  0.505466  0.827288  1
  Os  Os28  1  0.925487  0.750000  0.991252  1
  Os  Os29  1  0.074508  0.250000  0.008547  1
  Os  Os30  1  0.425818  0.250000  0.508665  1
  Ru  Ru31  1  0.572966  0.750000  0.491390  1
