# generated using pymatgen
data_RbPu(SO4)2
_symmetry_space_group_name_H-M   'P 1'
_cell_length_a   5.22695986
_cell_length_b   4.57655906
_cell_length_c   10.30654432
_cell_angle_alpha   62.27080442
_cell_angle_beta   80.58218155
_cell_angle_gamma   65.22048490
_symmetry_Int_Tables_number   1
_chemical_formula_structural   RbPu(SO4)2
_chemical_formula_sum   'Rb1 Pu1 S2 O8'
_cell_volume   197.98903964
_cell_formula_units_Z   1
loop_
 _symmetry_equiv_pos_site_id
 _symmetry_equiv_pos_as_xyz
  1  'x, y, z'
loop_
 _atom_site_type_symbol
 _atom_site_label
 _atom_site_symmetry_multiplicity
 _atom_site_fract_x
 _atom_site_fract_y
 _atom_site_fract_z
 _atom_site_occupancy
  Rb  Rb0  1  0.000053  0.500031  0.999956  1
  Pu  Pu1  1  0.999976  0.000104  0.499934  1
  S  S2  1  0.612613  0.804692  0.280969  1
  S  S3  1  0.387375  0.195274  0.719064  1
  O  O4  1  0.689624  0.012092  0.134827  1
  O  O5  1  0.645712  0.444005  0.301203  1
  O  O6  1  0.313154  0.006151  0.306921  1
  O  O7  1  0.804544  0.710315  0.402394  1
  O  O8  1  0.195440  0.289680  0.597609  1
  O  O9  1  0.686882  0.993778  0.693103  1
  O  O10  1  0.354254  0.556018  0.698830  1
  O  O11  1  0.310371  0.987861  0.865189  1
