# generated using pymatgen
data_Pr4Nd2Al24Os7Pt
_symmetry_space_group_name_H-M   'P 1'
_cell_length_a   8.92374400
_cell_length_b   8.93352576
_cell_length_c   9.73189819
_cell_angle_alpha   90.07368226
_cell_angle_beta   90.00000000
_cell_angle_gamma   119.96378596
_symmetry_Int_Tables_number   1
_chemical_formula_structural   Pr4Nd2Al24Os7Pt
_chemical_formula_sum   'Pr4 Nd2 Al24 Os7 Pt1'
_cell_volume   672.13432210
_cell_formula_units_Z   1
loop_
 _symmetry_equiv_pos_site_id
 _symmetry_equiv_pos_as_xyz
  1  'x, y, z'
loop_
 _atom_site_type_symbol
 _atom_site_label
 _atom_site_symmetry_multiplicity
 _atom_site_fract_x
 _atom_site_fract_y
 _atom_site_fract_z
 _atom_site_occupancy
  Pr  Pr0  1  0.617489  0.807408  0.250549  1
  Pr  Pr1  1  0.382511  0.192592  0.749451  1
  Pr  Pr2  1  0.189918  0.807408  0.250549  1
  Pr  Pr3  1  0.810082  0.192592  0.749451  1
  Nd  Nd4  1  0.192691  0.385380  0.252422  1
  Nd  Nd5  1  0.807309  0.614620  0.747578  1
  Al  Al6  1  0.330915  0.661830  0.013737  1
  Al  Al7  1  0.669085  0.338170  0.986263  1
  Al  Al8  1  0.666462  0.332925  0.512824  1
  Al  Al9  1  0.333538  0.667075  0.487176  1
  Al  Al10  1  0.163981  0.327960  0.574121  1
  Al  Al11  1  0.836019  0.672040  0.425879  1
  Al  Al12  1  0.672856  0.836660  0.574070  1
  Al  Al13  1  0.836421  0.672843  0.074080  1
  Al  Al14  1  0.327144  0.163340  0.425930  1
  Al  Al15  1  0.163579  0.327157  0.925920  1
  Al  Al16  1  0.163805  0.836660  0.574070  1
  Al  Al17  1  0.325403  0.168000  0.075793  1
  Al  Al18  1  0.836195  0.163340  0.425930  1
  Al  Al19  1  0.674597  0.832000  0.924207  1
  Al  Al20  1  0.842596  0.168000  0.075793  1
  Al  Al21  1  0.157404  0.832000  0.924207  1
  Al  Al22  1  0.563116  0.126231  0.252552  1
  Al  Al23  1  0.436884  0.873769  0.747448  1
  Al  Al24  1  0.875289  0.437560  0.249387  1
  Al  Al25  1  0.124711  0.562440  0.750613  1
  Al  Al26  1  0.562273  0.437560  0.249387  1
  Al  Al27  1  0.437727  0.562440  0.750613  1
  Al  Al28  1  0.000438  0.000875  0.250064  1
  Al  Al29  1  0.999562  0.999125  0.749936  1
  Os  Os30  1  0.000000  0.500000  0.000000  1
  Os  Os31  1  0.500000  0.000000  0.500000  1
  Os  Os32  1  0.500000  0.500000  0.000000  1
  Os  Os33  1  0.000000  0.500000  0.500000  1
  Os  Os34  1  0.500000  0.500000  0.500000  1
  Os  Os35  1  0.000000  0.000000  0.000000  1
  Os  Os36  1  0.000000  0.000000  0.500000  1
  Pt  Pt37  1  0.500000  0.000000  0.000000  1
