# generated using pymatgen
data_Nd2B8OsRu6
_symmetry_space_group_name_H-M   'P 1'
_cell_length_a   6.47169700
_cell_length_b   6.47169700
_cell_length_c   10.12872200
_cell_angle_alpha   90.00000000
_cell_angle_beta   90.00000000
_cell_angle_gamma   90.00000000
_symmetry_Int_Tables_number   1
_chemical_formula_structural   Nd2B8OsRu6
_chemical_formula_sum   'Nd4 B16 Os2 Ru12'
_cell_volume   424.21986637
_cell_formula_units_Z   2
loop_
 _symmetry_equiv_pos_site_id
 _symmetry_equiv_pos_as_xyz
  1  'x, y, z'
loop_
 _atom_site_type_symbol
 _atom_site_label
 _atom_site_symmetry_multiplicity
 _atom_site_fract_x
 _atom_site_fract_y
 _atom_site_fract_z
 _atom_site_occupancy
  Nd  Nd0  1  0.734749  0.877461  0.000000  1
  Nd  Nd1  1  0.122539  0.734749  0.500000  1
  Nd  Nd2  1  0.877461  0.265251  0.500000  1
  Nd  Nd3  1  0.265251  0.122539  0.000000  1
  B  B4  1  0.500000  0.000000  0.588896  1
  B  B5  1  0.500000  0.000000  0.411104  1
  B  B6  1  0.897603  0.273097  0.166987  1
  B  B7  1  0.102397  0.726903  0.833013  1
  B  B8  1  0.500000  0.500000  0.340670  1
  B  B9  1  0.500000  0.500000  0.840670  1
  B  B10  1  0.273097  0.102397  0.666987  1
  B  B11  1  0.102397  0.726903  0.166987  1
  B  B12  1  0.273097  0.102397  0.333013  1
  B  B13  1  0.897603  0.273097  0.833013  1
  B  B14  1  0.500000  0.500000  0.659330  1
  B  B15  1  0.500000  0.500000  0.159330  1
  B  B16  1  0.000000  0.500000  0.911104  1
  B  B17  1  0.726903  0.897603  0.666987  1
  B  B18  1  0.726903  0.897603  0.333013  1
  B  B19  1  0.000000  0.500000  0.088896  1
  Os  Os20  1  0.000000  0.000000  0.250000  1
  Os  Os21  1  0.000000  0.000000  0.750000  1
  Ru  Ru22  1  0.204256  0.399659  0.752203  1
  Ru  Ru23  1  0.399824  0.287668  0.500000  1
  Ru  Ru24  1  0.399659  0.795744  0.252203  1
  Ru  Ru25  1  0.204256  0.399659  0.247797  1
  Ru  Ru26  1  0.600176  0.712332  0.500000  1
  Ru  Ru27  1  0.600341  0.204256  0.747797  1
  Ru  Ru28  1  0.287668  0.600176  0.000000  1
  Ru  Ru29  1  0.712332  0.399824  0.000000  1
  Ru  Ru30  1  0.795744  0.600341  0.247797  1
  Ru  Ru31  1  0.795744  0.600341  0.752203  1
  Ru  Ru32  1  0.399659  0.795744  0.747797  1
  Ru  Ru33  1  0.600341  0.204256  0.252203  1
