# generated using pymatgen
data_Ho2Er14Cd4Ir3Os
_symmetry_space_group_name_H-M   'P 1'
_cell_length_a   9.60222435
_cell_length_b   9.60222485
_cell_length_c   9.60023486
_cell_angle_alpha   59.49977404
_cell_angle_beta   59.49977300
_cell_angle_gamma   59.48503358
_symmetry_Int_Tables_number   1
_chemical_formula_structural   Ho2Er14Cd4Ir3Os
_chemical_formula_sum   'Ho2 Er14 Cd4 Ir3 Os1'
_cell_volume   618.71728082
_cell_formula_units_Z   1
loop_
 _symmetry_equiv_pos_site_id
 _symmetry_equiv_pos_as_xyz
  1  'x, y, z'
loop_
 _atom_site_type_symbol
 _atom_site_label
 _atom_site_symmetry_multiplicity
 _atom_site_fract_x
 _atom_site_fract_y
 _atom_site_fract_z
 _atom_site_occupancy
  Ho  Ho0  1  0.811843  0.811843  0.188396  1
  Ho  Ho1  1  0.189036  0.189036  0.807651  1
  Er  Er2  1  0.599259  0.599259  0.599323  1
  Er  Er3  1  0.598843  0.598843  0.205828  1
  Er  Er4  1  0.598847  0.205868  0.598776  1
  Er  Er5  1  0.205868  0.598847  0.598776  1
  Er  Er6  1  0.061418  0.438867  0.438941  1
  Er  Er7  1  0.437765  0.059873  0.059931  1
  Er  Er8  1  0.438867  0.061418  0.438941  1
  Er  Er9  1  0.059873  0.437765  0.059931  1
  Er  Er10  1  0.438954  0.438954  0.061452  1
  Er  Er11  1  0.059810  0.059810  0.437932  1
  Er  Er12  1  0.188594  0.811655  0.811507  1
  Er  Er13  1  0.807444  0.189234  0.189209  1
  Er  Er14  1  0.811655  0.188594  0.811507  1
  Er  Er15  1  0.189234  0.807444  0.189209  1
  Cd  Cd16  1  0.830081  0.830081  0.829857  1
  Cd  Cd17  1  0.830754  0.830754  0.506482  1
  Cd  Cd18  1  0.830480  0.506579  0.830748  1
  Cd  Cd19  1  0.506579  0.830480  0.830748  1
  Ir  Ir20  1  0.393267  0.393267  0.826680  1
  Ir  Ir21  1  0.393085  0.826631  0.393292  1
  Ir  Ir22  1  0.826631  0.393085  0.393292  1
  Os  Os23  1  0.391812  0.391812  0.391590  1
