# generated using pymatgen
data_CaTb5Mn3CrC12
_symmetry_space_group_name_H-M   'P 1'
_cell_length_a   8.11227494
_cell_length_b   8.12129274
_cell_length_c   5.01799248
_cell_angle_alpha   89.95291201
_cell_angle_beta   90.03881335
_cell_angle_gamma   120.08359048
_symmetry_Int_Tables_number   1
_chemical_formula_structural   CaTb5Mn3CrC12
_chemical_formula_sum   'Ca1 Tb5 Mn3 Cr1 C12'
_cell_volume   286.06311848
_cell_formula_units_Z   1
loop_
 _symmetry_equiv_pos_site_id
 _symmetry_equiv_pos_as_xyz
  1  'x, y, z'
loop_
 _atom_site_type_symbol
 _atom_site_label
 _atom_site_symmetry_multiplicity
 _atom_site_fract_x
 _atom_site_fract_y
 _atom_site_fract_z
 _atom_site_occupancy
  Ca  Ca0  1  0.609995  0.681229  0.748260  1
  Tb  Tb1  1  0.933897  0.621423  0.251477  1
  Tb  Tb2  1  0.685212  0.065700  0.251859  1
  Tb  Tb3  1  0.314322  0.934422  0.748991  1
  Tb  Tb4  1  0.065852  0.381221  0.748729  1
  Tb  Tb5  1  0.381170  0.316526  0.251309  1
  Mn  Mn6  1  0.998445  0.999087  0.999084  1
  Mn  Mn7  1  0.666966  0.330525  0.751963  1
  Mn  Mn8  1  0.333100  0.667198  0.248229  1
  Cr  Cr9  1  0.998800  0.999562  0.499109  1
  C  C10  1  0.962062  0.769572  0.749824  1
  C  C11  1  0.191037  0.963115  0.250720  1
  C  C12  1  0.772696  0.813925  0.250027  1
  C  C13  1  0.229810  0.192456  0.749681  1
  C  C14  1  0.815905  0.040459  0.749565  1
  C  C15  1  0.038191  0.227744  0.251114  1
  C  C16  1  0.860444  0.576130  0.752675  1
  C  C17  1  0.286269  0.863651  0.247671  1
  C  C18  1  0.578174  0.716383  0.246342  1
  C  C19  1  0.424249  0.282937  0.752744  1
  C  C20  1  0.137534  0.422757  0.247568  1
  C  C21  1  0.715871  0.133979  0.753059  1
