# generated using pymatgen
data_Pr8Gd3Er9Si16
_symmetry_space_group_name_H-M   'P 1'
_cell_length_a   7.50945572
_cell_length_b   7.79423209
_cell_length_c   14.80963500
_cell_angle_alpha   90.01672364
_cell_angle_beta   89.91783446
_cell_angle_gamma   90.04821006
_symmetry_Int_Tables_number   1
_chemical_formula_structural   Pr8Gd3Er9Si16
_chemical_formula_sum   'Pr8 Gd3 Er9 Si16'
_cell_volume   866.81322915
_cell_formula_units_Z   1
loop_
 _symmetry_equiv_pos_site_id
 _symmetry_equiv_pos_as_xyz
  1  'x, y, z'
loop_
 _atom_site_type_symbol
 _atom_site_label
 _atom_site_symmetry_multiplicity
 _atom_site_fract_x
 _atom_site_fract_y
 _atom_site_fract_z
 _atom_site_occupancy
  Pr  Pr0  1  0.024619  0.178790  0.403089  1
  Pr  Pr1  1  0.524677  0.320840  0.403110  1
  Pr  Pr2  1  0.475153  0.679813  0.900950  1
  Pr  Pr3  1  0.475816  0.678794  0.597594  1
  Pr  Pr4  1  0.975338  0.820936  0.597602  1
  Pr  Pr5  1  0.974874  0.820904  0.900508  1
  Pr  Pr6  1  0.524337  0.321664  0.098728  1
  Pr  Pr7  1  0.024639  0.179379  0.098764  1
  Gd  Gd8  1  0.317482  0.178156  0.876102  1
  Gd  Gd9  1  0.183173  0.676669  0.122722  1
  Gd  Gd10  1  0.682962  0.821825  0.123580  1
  Er  Er11  1  0.318071  0.177772  0.622815  1
  Er  Er12  1  0.682180  0.822569  0.377974  1
  Er  Er13  1  0.648235  0.991171  0.749454  1
  Er  Er14  1  0.181674  0.677532  0.378093  1
  Er  Er15  1  0.817342  0.322726  0.875490  1
  Er  Er16  1  0.818419  0.322303  0.622770  1
  Er  Er17  1  0.851321  0.491048  0.250954  1
  Er  Er18  1  0.351295  0.009188  0.250089  1
  Er  Er19  1  0.149111  0.509813  0.749423  1
  Si  Si20  1  0.268215  0.877889  0.748360  1
  Si  Si21  1  0.477267  0.612090  0.252643  1
  Si  Si22  1  0.020951  0.113779  0.747886  1
  Si  Si23  1  0.524107  0.387695  0.748355  1
  Si  Si24  1  0.144064  0.468409  0.540375  1
  Si  Si25  1  0.977443  0.887163  0.252584  1
  Si  Si26  1  0.731895  0.121647  0.251661  1
  Si  Si27  1  0.855971  0.528983  0.038881  1
  Si  Si28  1  0.358560  0.970326  0.040378  1
  Si  Si29  1  0.139328  0.468771  0.958000  1
  Si  Si30  1  0.643224  0.031090  0.540661  1
  Si  Si31  1  0.356306  0.968437  0.460681  1
  Si  Si32  1  0.856266  0.530999  0.460030  1
  Si  Si33  1  0.768655  0.620601  0.748983  1
  Si  Si34  1  0.232039  0.378346  0.251940  1
  Si  Si35  1  0.644987  0.031882  0.958773  1
