# generated using pymatgen
data_La16Cd4IrRu2Pt
_symmetry_space_group_name_H-M   'P 1'
_cell_length_a   10.15363153
_cell_length_b   10.15339263
_cell_length_c   10.10584569
_cell_angle_alpha   59.93448018
_cell_angle_beta   59.93493473
_cell_angle_gamma   60.00300133
_symmetry_Int_Tables_number   1
_chemical_formula_structural   La16Cd4IrRu2Pt
_chemical_formula_sum   'La16 Cd4 Ir1 Ru2 Pt1'
_cell_volume   735.98805415
_cell_formula_units_Z   1
loop_
 _symmetry_equiv_pos_site_id
 _symmetry_equiv_pos_as_xyz
  1  'x, y, z'
loop_
 _atom_site_type_symbol
 _atom_site_label
 _atom_site_symmetry_multiplicity
 _atom_site_fract_x
 _atom_site_fract_y
 _atom_site_fract_z
 _atom_site_occupancy
  La  La0  1  0.901184  0.901125  0.908436  1
  La  La1  1  0.438484  0.438562  0.061660  1
  La  La2  1  0.058468  0.058496  0.437458  1
  La  La3  1  0.442212  0.061080  0.059935  1
  La  La4  1  0.309316  0.689846  0.310276  1
  La  La5  1  0.688915  0.688928  0.309721  1
  La  La6  1  0.689820  0.309314  0.310282  1
  La  La7  1  0.293869  0.899224  0.906274  1
  La  La8  1  0.899225  0.293852  0.906306  1
  La  La9  1  0.309069  0.687727  0.690670  1
  La  La10  1  0.904060  0.903981  0.288766  1
  La  La11  1  0.061041  0.442295  0.059888  1
  La  La12  1  0.309542  0.309498  0.692178  1
  La  La13  1  0.060253  0.448029  0.433692  1
  La  La14  1  0.447970  0.060248  0.433760  1
  La  La15  1  0.687759  0.308993  0.690689  1
  Cd  Cd16  1  0.670431  0.670419  0.988788  1
  Cd  Cd17  1  0.988378  0.670343  0.670465  1
  Cd  Cd18  1  0.670347  0.988375  0.670466  1
  Cd  Cd19  1  0.671304  0.671283  0.670975  1
  Ir  Ir20  1  0.110399  0.110395  0.106380  1
  Ru  Ru21  1  0.112605  0.666900  0.109484  1
  Ru  Ru22  1  0.666922  0.112610  0.109456  1
  Pt  Pt23  1  0.108425  0.108474  0.673996  1
