# generated using pymatgen
data_Tb6Zn19Pt4S
_symmetry_space_group_name_H-M   'P 1'
_cell_length_a   9.05683744
_cell_length_b   9.05683557
_cell_length_c   9.05683600
_cell_angle_alpha   59.93749975
_cell_angle_beta   59.93751391
_cell_angle_gamma   59.93749862
_symmetry_Int_Tables_number   1
_chemical_formula_structural   Tb6Zn19Pt4S
_chemical_formula_sum   'Tb6 Zn19 Pt4 S1'
_cell_volume   524.56403937
_cell_formula_units_Z   1
loop_
 _symmetry_equiv_pos_site_id
 _symmetry_equiv_pos_as_xyz
  1  'x, y, z'
loop_
 _atom_site_type_symbol
 _atom_site_label
 _atom_site_symmetry_multiplicity
 _atom_site_fract_x
 _atom_site_fract_y
 _atom_site_fract_z
 _atom_site_occupancy
  Tb  Tb0  1  0.708824  0.285243  0.285243  1
  Tb  Tb1  1  0.291176  0.714757  0.714757  1
  Tb  Tb2  1  0.285243  0.708824  0.285243  1
  Tb  Tb3  1  0.714757  0.291176  0.714757  1
  Tb  Tb4  1  0.285243  0.285243  0.708824  1
  Tb  Tb5  1  0.714757  0.714757  0.291176  1
  Zn  Zn6  1  0.120699  0.120699  0.120699  1
  Zn  Zn7  1  0.879301  0.879301  0.879301  1
  Zn  Zn8  1  0.122227  0.122227  0.633042  1
  Zn  Zn9  1  0.122227  0.633042  0.122227  1
  Zn  Zn10  1  0.877773  0.877773  0.366958  1
  Zn  Zn11  1  0.877773  0.366958  0.877773  1
  Zn  Zn12  1  0.633042  0.122227  0.122227  1
  Zn  Zn13  1  0.366958  0.877773  0.877773  1
  Zn  Zn14  1  0.500000  0.000000  0.000000  1
  Zn  Zn15  1  0.000000  0.500000  0.000000  1
  Zn  Zn16  1  0.000000  0.000000  0.500000  1
  Zn  Zn17  1  0.327258  0.327258  0.327258  1
  Zn  Zn18  1  0.672742  0.672742  0.672742  1
  Zn  Zn19  1  0.328908  0.328908  0.009546  1
  Zn  Zn20  1  0.328908  0.009546  0.328908  1
  Zn  Zn21  1  0.671092  0.671092  0.990454  1
  Zn  Zn22  1  0.671092  0.990454  0.671092  1
  Zn  Zn23  1  0.009546  0.328908  0.328908  1
  Zn  Zn24  1  0.990454  0.671092  0.671092  1
  Pt  Pt25  1  0.000000  0.500000  0.500000  1
  Pt  Pt26  1  0.500000  0.000000  0.500000  1
  Pt  Pt27  1  0.500000  0.500000  0.000000  1
  Pt  Pt28  1  0.000000  0.000000  0.000000  1
  S  S29  1  0.500000  0.500000  0.500000  1
