# generated using pymatgen
data_KRb7Sn8(AuSe3)8
_symmetry_space_group_name_H-M   'P 1'
_cell_length_a   8.83764800
_cell_length_b   8.83764800
_cell_length_c   20.29440200
_cell_angle_alpha   90.00000000
_cell_angle_beta   90.00000000
_cell_angle_gamma   90.00000000
_symmetry_Int_Tables_number   1
_chemical_formula_structural   KRb7Sn8(AuSe3)8
_chemical_formula_sum   'K1 Rb7 Sn8 Au8 Se24'
_cell_volume   1585.07442377
_cell_formula_units_Z   1
loop_
 _symmetry_equiv_pos_site_id
 _symmetry_equiv_pos_as_xyz
  1  'x, y, z'
loop_
 _atom_site_type_symbol
 _atom_site_label
 _atom_site_symmetry_multiplicity
 _atom_site_fract_x
 _atom_site_fract_y
 _atom_site_fract_z
 _atom_site_occupancy
  K  K0  1  0.000000  0.000000  0.106425  1
  Rb  Rb1  1  0.500000  0.500000  0.236569  1
  Rb  Rb2  1  0.500000  0.500000  0.737887  1
  Rb  Rb3  1  0.000000  0.000000  0.397231  1
  Rb  Rb4  1  0.000000  0.000000  0.898317  1
  Rb  Rb5  1  0.000000  0.000000  0.602004  1
  Rb  Rb6  1  0.500000  0.500000  0.452185  1
  Rb  Rb7  1  0.500000  0.500000  0.952131  1
  Sn  Sn8  1  0.000000  0.500000  0.088660  1
  Sn  Sn9  1  0.500000  0.000000  0.088660  1
  Sn  Sn10  1  0.000000  0.500000  0.588925  1
  Sn  Sn11  1  0.500000  0.000000  0.588925  1
  Sn  Sn12  1  0.000000  0.500000  0.912128  1
  Sn  Sn13  1  0.500000  0.000000  0.912128  1
  Sn  Sn14  1  0.000000  0.500000  0.412119  1
  Sn  Sn15  1  0.500000  0.000000  0.412119  1
  Au  Au16  1  0.994568  0.675817  0.249667  1
  Au  Au17  1  0.005432  0.324183  0.249667  1
  Au  Au18  1  0.324183  0.994568  0.249667  1
  Au  Au19  1  0.675817  0.005432  0.249667  1
  Au  Au20  1  0.003646  0.674646  0.750072  1
  Au  Au21  1  0.996354  0.325354  0.750072  1
  Au  Au22  1  0.674646  0.996354  0.750072  1
  Au  Au23  1  0.325354  0.003646  0.750072  1
  Se  Se24  1  0.340101  0.148768  0.500300  1
  Se  Se25  1  0.659899  0.851232  0.500300  1
  Se  Se26  1  0.851232  0.340101  0.500300  1
  Se  Se27  1  0.148768  0.659899  0.500300  1
  Se  Se28  1  0.660382  0.148645  0.000339  1
  Se  Se29  1  0.339618  0.851355  0.000339  1
  Se  Se30  1  0.148645  0.339618  0.000339  1
  Se  Se31  1  0.851355  0.660382  0.000339  1
  Se  Se32  1  0.330846  0.820898  0.344660  1
  Se  Se33  1  0.669154  0.179102  0.344660  1
  Se  Se34  1  0.179102  0.330846  0.344660  1
  Se  Se35  1  0.820898  0.669154  0.344660  1
  Se  Se36  1  0.669902  0.821513  0.844733  1
  Se  Se37  1  0.330098  0.178487  0.844733  1
  Se  Se38  1  0.821513  0.330098  0.844733  1
  Se  Se39  1  0.178487  0.669902  0.844733  1
  Se  Se40  1  0.673826  0.173347  0.656447  1
  Se  Se41  1  0.326174  0.826653  0.656447  1
  Se  Se42  1  0.826653  0.673826  0.656447  1
  Se  Se43  1  0.173347  0.326174  0.656447  1
  Se  Se44  1  0.321251  0.170103  0.155628  1
  Se  Se45  1  0.678749  0.829897  0.155628  1
  Se  Se46  1  0.170103  0.678749  0.155628  1
  Se  Se47  1  0.829897  0.321251  0.155628  1
