# generated using pymatgen
data_Lu3Hf(Ga3Rh)6
_symmetry_space_group_name_H-M   'P 1'
_cell_length_a   7.52636175
_cell_length_b   7.50909468
_cell_length_c   9.42590000
_cell_angle_alpha   90.00000000
_cell_angle_beta   90.00000000
_cell_angle_gamma   119.81193307
_symmetry_Int_Tables_number   1
_chemical_formula_structural   Lu3Hf(Ga3Rh)6
_chemical_formula_sum   'Lu3 Hf1 Ga18 Rh6'
_cell_volume   462.21713223
_cell_formula_units_Z   1
loop_
 _symmetry_equiv_pos_site_id
 _symmetry_equiv_pos_as_xyz
  1  'x, y, z'
loop_
 _atom_site_type_symbol
 _atom_site_label
 _atom_site_symmetry_multiplicity
 _atom_site_fract_x
 _atom_site_fract_y
 _atom_site_fract_z
 _atom_site_occupancy
  Lu  Lu0  1  0.004145  0.329012  0.750000  1
  Lu  Lu1  1  0.670803  0.998754  0.250000  1
  Lu  Lu2  1  0.329874  0.003438  0.750000  1
  Hf  Hf3  1  0.996755  0.669758  0.250000  1
  Ga  Ga4  1  0.337223  0.549826  0.250000  1
  Ga  Ga5  1  0.662016  0.451565  0.750000  1
  Ga  Ga6  1  0.552165  0.340079  0.250000  1
  Ga  Ga7  1  0.450152  0.660183  0.750000  1
  Ga  Ga8  1  0.998683  0.337958  0.083927  1
  Ga  Ga9  1  0.001038  0.664619  0.921585  1
  Ga  Ga10  1  0.001038  0.664619  0.578415  1
  Ga  Ga11  1  0.331851  0.996437  0.415623  1
  Ga  Ga12  1  0.998683  0.337958  0.416073  1
  Ga  Ga13  1  0.665085  0.000232  0.580421  1
  Ga  Ga14  1  0.665085  0.000232  0.919579  1
  Ga  Ga15  1  0.331851  0.996437  0.084377  1
  Ga  Ga16  1  0.332521  0.332211  0.566210  1
  Ga  Ga17  1  0.670805  0.668875  0.428027  1
  Ga  Ga18  1  0.670805  0.668875  0.071973  1
  Ga  Ga19  1  0.332521  0.332211  0.933790  1
  Ga  Ga20  1  0.124470  0.124072  0.250000  1
  Ga  Ga21  1  0.872446  0.871873  0.750000  1
  Rh  Rh22  1  0.671861  0.328299  0.001072  1
  Rh  Rh23  1  0.328274  0.672517  0.001807  1
  Rh  Rh24  1  0.328274  0.672517  0.498193  1
  Rh  Rh25  1  0.671861  0.328299  0.498928  1
  Rh  Rh26  1  0.999858  0.999571  0.001050  1
  Rh  Rh27  1  0.999858  0.999571  0.498950  1
