# generated using pymatgen
data_YHf6(ZrSn2)3
_symmetry_space_group_name_H-M   'P 1'
_cell_length_a   8.58492088
_cell_length_b   8.58492275
_cell_length_c   5.80671400
_cell_angle_alpha   90.00000000
_cell_angle_beta   90.00000000
_cell_angle_gamma   120.96890874
_symmetry_Int_Tables_number   1
_chemical_formula_structural   YHf6(ZrSn2)3
_chemical_formula_sum   'Y1 Hf6 Zr3 Sn6'
_cell_volume   366.95282561
_cell_formula_units_Z   1
loop_
 _symmetry_equiv_pos_site_id
 _symmetry_equiv_pos_as_xyz
  1  'x, y, z'
loop_
 _atom_site_type_symbol
 _atom_site_label
 _atom_site_symmetry_multiplicity
 _atom_site_fract_x
 _atom_site_fract_y
 _atom_site_fract_z
 _atom_site_occupancy
  Y  Y0  1  0.232072  0.232072  0.250000  1
  Hf  Hf1  1  0.748377  0.998415  0.250000  1
  Hf  Hf2  1  0.998415  0.748377  0.250000  1
  Hf  Hf3  1  0.666471  0.334975  0.999521  1
  Hf  Hf4  1  0.334975  0.666471  0.999521  1
  Hf  Hf5  1  0.334975  0.666471  0.500479  1
  Hf  Hf6  1  0.666471  0.334975  0.500479  1
  Zr  Zr7  1  0.763139  0.763139  0.750000  1
  Zr  Zr8  1  0.251306  0.999321  0.750000  1
  Zr  Zr9  1  0.999321  0.251306  0.750000  1
  Sn  Sn10  1  0.394344  0.394344  0.750000  1
  Sn  Sn11  1  0.608965  0.000657  0.750000  1
  Sn  Sn12  1  0.000657  0.608965  0.750000  1
  Sn  Sn13  1  0.609680  0.609680  0.250000  1
  Sn  Sn14  1  0.394545  0.996288  0.250000  1
  Sn  Sn15  1  0.996288  0.394545  0.250000  1
