# generated using pymatgen
data_Cs3Na2ZrSb3
_symmetry_space_group_name_H-M   'P 1'
_cell_length_a   11.84658635
_cell_length_b   11.84658577
_cell_length_c   17.67614400
_cell_angle_alpha   90.00000000
_cell_angle_beta   90.00000000
_cell_angle_gamma   142.95590029
_symmetry_Int_Tables_number   1
_chemical_formula_structural   Cs3Na2ZrSb3
_chemical_formula_sum   'Cs12 Na8 Zr4 Sb12'
_cell_volume   1494.44597511
_cell_formula_units_Z   4
loop_
 _symmetry_equiv_pos_site_id
 _symmetry_equiv_pos_as_xyz
  1  'x, y, z'
loop_
 _atom_site_type_symbol
 _atom_site_label
 _atom_site_symmetry_multiplicity
 _atom_site_fract_x
 _atom_site_fract_y
 _atom_site_fract_z
 _atom_site_occupancy
  Cs  Cs0  1  0.945712  0.607321  0.826365  1
  Cs  Cs1  1  0.554288  0.892679  0.326365  1
  Cs  Cs2  1  0.392679  0.054288  0.173635  1
  Cs  Cs3  1  0.054288  0.392679  0.173635  1
  Cs  Cs4  1  0.892679  0.554288  0.326365  1
  Cs  Cs5  1  0.445712  0.107321  0.673635  1
  Cs  Cs6  1  0.607321  0.945712  0.826365  1
  Cs  Cs7  1  0.277325  0.277325  0.318540  1
  Cs  Cs8  1  0.777325  0.777325  0.181460  1
  Cs  Cs9  1  0.222675  0.222675  0.818540  1
  Cs  Cs10  1  0.722675  0.722675  0.681460  1
  Cs  Cs11  1  0.107321  0.445712  0.673635  1
  Na  Na12  1  0.919520  0.080480  0.000000  1
  Na  Na13  1  0.580480  0.419520  0.500000  1
  Na  Na14  1  0.080480  0.919520  0.000000  1
  Na  Na15  1  0.419520  0.580480  0.500000  1
  Na  Na16  1  0.754193  0.245807  0.000000  1
  Na  Na17  1  0.745807  0.254193  0.500000  1
  Na  Na18  1  0.245807  0.754193  0.000000  1
  Na  Na19  1  0.254193  0.745807  0.500000  1
  Zr  Zr20  1  0.585974  0.414026  0.000000  1
  Zr  Zr21  1  0.914026  0.085974  0.500000  1
  Zr  Zr22  1  0.414026  0.585974  0.000000  1
  Zr  Zr23  1  0.085974  0.914026  0.500000  1
  Sb  Sb24  1  0.876623  0.561849  0.093478  1
  Sb  Sb25  1  0.438151  0.123377  0.906522  1
  Sb  Sb26  1  0.623377  0.938151  0.593478  1
  Sb  Sb27  1  0.938151  0.623377  0.593478  1
  Sb  Sb28  1  0.123377  0.438151  0.906522  1
  Sb  Sb29  1  0.561849  0.876623  0.093478  1
  Sb  Sb30  1  0.376623  0.061849  0.406522  1
  Sb  Sb31  1  0.204875  0.204875  0.586335  1
  Sb  Sb32  1  0.704875  0.704875  0.913665  1
  Sb  Sb33  1  0.295125  0.295125  0.086335  1
  Sb  Sb34  1  0.061849  0.376623  0.406522  1
  Sb  Sb35  1  0.795125  0.795125  0.413665  1
