# generated using pymatgen
data_Tb2Al9CoPt2
_symmetry_space_group_name_H-M   'P 1'
_cell_length_a   7.55326401
_cell_length_b   7.55326384
_cell_length_c   9.40455700
_cell_angle_alpha   90.00000000
_cell_angle_beta   90.00000000
_cell_angle_gamma   119.38505842
_symmetry_Int_Tables_number   1
_chemical_formula_structural   Tb2Al9CoPt2
_chemical_formula_sum   'Tb4 Al18 Co2 Pt4'
_cell_volume   467.51571202
_cell_formula_units_Z   2
loop_
 _symmetry_equiv_pos_site_id
 _symmetry_equiv_pos_as_xyz
  1  'x, y, z'
loop_
 _atom_site_type_symbol
 _atom_site_label
 _atom_site_symmetry_multiplicity
 _atom_site_fract_x
 _atom_site_fract_y
 _atom_site_fract_z
 _atom_site_occupancy
  Tb  Tb0  1  0.994066  0.673078  0.250226  1
  Tb  Tb1  1  0.005934  0.326922  0.750226  1
  Tb  Tb2  1  0.673078  0.994066  0.249774  1
  Tb  Tb3  1  0.326922  0.005934  0.749774  1
  Al  Al4  1  0.137165  0.137165  0.250000  1
  Al  Al5  1  0.862835  0.862835  0.750000  1
  Al  Al6  1  0.340669  0.333651  0.552225  1
  Al  Al7  1  0.659331  0.666349  0.052225  1
  Al  Al8  1  0.333651  0.340669  0.947775  1
  Al  Al9  1  0.666349  0.659331  0.447775  1
  Al  Al10  1  0.340442  0.553661  0.242698  1
  Al  Al11  1  0.659558  0.446339  0.742698  1
  Al  Al12  1  0.553661  0.340442  0.257302  1
  Al  Al13  1  0.446339  0.659558  0.757302  1
  Al  Al14  1  0.008300  0.344473  0.074721  1
  Al  Al15  1  0.991700  0.655527  0.574721  1
  Al  Al16  1  0.344473  0.008300  0.425279  1
  Al  Al17  1  0.655527  0.991700  0.925279  1
  Al  Al18  1  0.010791  0.664502  0.924950  1
  Al  Al19  1  0.989209  0.335498  0.424950  1
  Al  Al20  1  0.664502  0.010791  0.575050  1
  Al  Al21  1  0.335498  0.989209  0.075050  1
  Co  Co22  1  0.329670  0.670330  0.000000  1
  Co  Co23  1  0.670330  0.329670  0.500000  1
  Pt  Pt24  1  0.000244  0.999756  0.000000  1
  Pt  Pt25  1  0.999756  0.000244  0.500000  1
  Pt  Pt26  1  0.672001  0.327999  0.000000  1
  Pt  Pt27  1  0.327999  0.672001  0.500000  1
