# generated using pymatgen
data_Pr2Al5(Fe6C)2
_symmetry_space_group_name_H-M   'P 1'
_cell_length_a   6.66896647
_cell_length_b   6.66896762
_cell_length_c   6.56485235
_cell_angle_alpha   83.71087572
_cell_angle_beta   83.71087795
_cell_angle_gamma   84.49907681
_symmetry_Int_Tables_number   1
_chemical_formula_structural   Pr2Al5(Fe6C)2
_chemical_formula_sum   'Pr2 Al5 Fe12 C2'
_cell_volume   287.42782810
_cell_formula_units_Z   1
loop_
 _symmetry_equiv_pos_site_id
 _symmetry_equiv_pos_as_xyz
  1  'x, y, z'
loop_
 _atom_site_type_symbol
 _atom_site_label
 _atom_site_symmetry_multiplicity
 _atom_site_fract_x
 _atom_site_fract_y
 _atom_site_fract_z
 _atom_site_occupancy
  Pr  Pr0  1  0.347139  0.347139  0.339601  1
  Pr  Pr1  1  0.652861  0.652861  0.660399  1
  Al  Al2  1  0.668522  0.668522  0.153491  1
  Al  Al3  1  0.331478  0.331478  0.846509  1
  Al  Al4  1  0.000000  0.000000  0.500000  1
  Al  Al5  1  0.733217  0.266783  0.000000  1
  Al  Al6  1  0.266783  0.733217  0.000000  1
  Fe  Fe7  1  0.658164  0.140894  0.659081  1
  Fe  Fe8  1  0.140894  0.658164  0.659081  1
  Fe  Fe9  1  0.341836  0.859106  0.340919  1
  Fe  Fe10  1  0.859106  0.341836  0.340919  1
  Fe  Fe11  1  0.095025  0.095025  0.091695  1
  Fe  Fe12  1  0.904975  0.904975  0.908305  1
  Fe  Fe13  1  0.000000  0.500000  0.000000  1
  Fe  Fe14  1  0.500000  0.000000  0.000000  1
  Fe  Fe15  1  0.287571  0.999318  0.709296  1
  Fe  Fe16  1  0.000682  0.712429  0.290704  1
  Fe  Fe17  1  0.712429  0.000682  0.290704  1
  Fe  Fe18  1  0.999318  0.287571  0.709296  1
  C  C19  1  0.500000  0.000000  0.500000  1
  C  C20  1  0.000000  0.500000  0.500000  1
