# generated using pymatgen
data_Y2Fe6Co
_symmetry_space_group_name_H-M   'P 1'
_cell_length_a   5.07995064
_cell_length_b   5.07968125
_cell_length_c   12.42016502
_cell_angle_alpha   78.26429277
_cell_angle_beta   78.19951657
_cell_angle_gamma   59.99823035
_symmetry_Int_Tables_number   1
_chemical_formula_structural   Y2Fe6Co
_chemical_formula_sum   'Y4 Fe12 Co2'
_cell_volume   269.74663183
_cell_formula_units_Z   2
loop_
 _symmetry_equiv_pos_site_id
 _symmetry_equiv_pos_as_xyz
  1  'x, y, z'
loop_
 _atom_site_type_symbol
 _atom_site_label
 _atom_site_symmetry_multiplicity
 _atom_site_fract_x
 _atom_site_fract_y
 _atom_site_fract_z
 _atom_site_occupancy
  Y  Y0  1  0.051920  0.051998  0.844162  1
  Y  Y1  1  0.948241  0.948077  0.155442  1
  Y  Y2  1  0.149878  0.148945  0.551300  1
  Y  Y3  1  0.850665  0.851295  0.447374  1
  Fe  Fe4  1  0.278646  0.278016  0.164692  1
  Fe  Fe5  1  0.722032  0.720934  0.835002  1
  Fe  Fe6  1  0.387823  0.388302  0.836054  1
  Fe  Fe7  1  0.611788  0.612519  0.163904  1
  Fe  Fe8  1  0.500193  0.500046  0.999989  1
  Fe  Fe9  1  0.499849  0.000286  0.000017  1
  Fe  Fe10  1  0.999773  0.500046  0.999989  1
  Fe  Fe11  1  0.109035  0.609529  0.672091  1
  Fe  Fe12  1  0.609346  0.609529  0.672091  1
  Fe  Fe13  1  0.609746  0.108407  0.672102  1
  Fe  Fe14  1  0.890432  0.390556  0.328452  1
  Fe  Fe15  1  0.390560  0.390556  0.328452  1
  Co  Co16  1  0.499653  0.499669  0.501026  1
  Co  Co17  1  0.390422  0.891296  0.327861  1
