# generated using pymatgen
data_Nb12Al4GaPd3N4
_symmetry_space_group_name_H-M   'P 1'
_cell_length_a   7.07326398
_cell_length_b   7.07326343
_cell_length_c   7.07326411
_cell_angle_alpha   90.28191883
_cell_angle_beta   90.28191575
_cell_angle_gamma   90.28191517
_symmetry_Int_Tables_number   1
_chemical_formula_structural   Nb12Al4GaPd3N4
_chemical_formula_sum   'Nb12 Al4 Ga1 Pd3 N4'
_cell_volume   353.87000353
_cell_formula_units_Z   1
loop_
 _symmetry_equiv_pos_site_id
 _symmetry_equiv_pos_as_xyz
  1  'x, y, z'
loop_
 _atom_site_type_symbol
 _atom_site_label
 _atom_site_symmetry_multiplicity
 _atom_site_fract_x
 _atom_site_fract_y
 _atom_site_fract_z
 _atom_site_occupancy
  Nb  Nb0  1  0.787506  0.956887  0.379841  1
  Nb  Nb1  1  0.709967  0.041519  0.871297  1
  Nb  Nb2  1  0.211326  0.456003  0.124412  1
  Nb  Nb3  1  0.290675  0.543604  0.624470  1
  Nb  Nb4  1  0.956887  0.379841  0.787506  1
  Nb  Nb5  1  0.041519  0.871297  0.709967  1
  Nb  Nb6  1  0.456003  0.124412  0.211326  1
  Nb  Nb7  1  0.543604  0.624470  0.290675  1
  Nb  Nb8  1  0.379841  0.787506  0.956887  1
  Nb  Nb9  1  0.871297  0.709967  0.041519  1
  Nb  Nb10  1  0.124412  0.211326  0.456003  1
  Nb  Nb11  1  0.624470  0.290675  0.543604  1
  Al  Al12  1  0.571546  0.419566  0.933543  1
  Al  Al13  1  0.419566  0.933543  0.571546  1
  Al  Al14  1  0.933543  0.571546  0.419566  1
  Al  Al15  1  0.073461  0.073461  0.073461  1
  Ga  Ga16  1  0.677060  0.677060  0.677060  1
  Pd  Pd17  1  0.177643  0.822932  0.318633  1
  Pd  Pd18  1  0.318633  0.177643  0.822932  1
  Pd  Pd19  1  0.822932  0.318633  0.177643  1
  N  N20  1  0.880447  0.126091  0.625179  1
  N  N21  1  0.625179  0.880447  0.126091  1
  N  N22  1  0.126091  0.625179  0.880447  1
  N  N23  1  0.376394  0.376394  0.376394  1
