# generated using pymatgen
data_La3NdMg3Au10
_symmetry_space_group_name_H-M   'P 1'
_cell_length_a   8.76185911
_cell_length_b   8.76185893
_cell_length_c   10.40456306
_cell_angle_alpha   89.99283131
_cell_angle_beta   89.99283015
_cell_angle_gamma   108.43935236
_symmetry_Int_Tables_number   1
_chemical_formula_structural   La3NdMg3Au10
_chemical_formula_sum   'La6 Nd2 Mg6 Au20'
_cell_volume   757.75094373
_cell_formula_units_Z   2
loop_
 _symmetry_equiv_pos_site_id
 _symmetry_equiv_pos_as_xyz
  1  'x, y, z'
loop_
 _atom_site_type_symbol
 _atom_site_label
 _atom_site_symmetry_multiplicity
 _atom_site_fract_x
 _atom_site_fract_y
 _atom_site_fract_z
 _atom_site_occupancy
  La  La0  1  0.799342  0.200658  0.500000  1
  La  La1  1  0.200658  0.799342  0.500000  1
  La  La2  1  0.302016  0.302016  0.202519  1
  La  La3  1  0.697984  0.697984  0.797481  1
  La  La4  1  0.198889  0.198889  0.704335  1
  La  La5  1  0.801111  0.801111  0.295665  1
  Nd  Nd6  1  0.700163  0.299837  0.000000  1
  Nd  Nd7  1  0.299837  0.700163  0.000000  1
  Mg  Mg8  1  0.012543  0.511999  0.249354  1
  Mg  Mg9  1  0.987457  0.488001  0.750646  1
  Mg  Mg10  1  0.488001  0.987457  0.750646  1
  Mg  Mg11  1  0.511999  0.012543  0.249354  1
  Mg  Mg12  1  0.000000  0.000000  0.000000  1
  Mg  Mg13  1  0.500000  0.500000  0.500000  1
  Au  Au14  1  0.096662  0.096662  0.403229  1
  Au  Au15  1  0.903338  0.903338  0.596771  1
  Au  Au16  1  0.402061  0.402061  0.905924  1
  Au  Au17  1  0.597939  0.597939  0.094076  1
  Au  Au18  1  0.884602  0.167202  0.203825  1
  Au  Au19  1  0.115398  0.832798  0.796175  1
  Au  Au20  1  0.614359  0.332339  0.707448  1
  Au  Au21  1  0.667661  0.385641  0.292552  1
  Au  Au22  1  0.385641  0.667661  0.292552  1
  Au  Au23  1  0.332339  0.614359  0.707448  1
  Au  Au24  1  0.832798  0.115398  0.796175  1
  Au  Au25  1  0.167202  0.884602  0.203825  1
  Au  Au26  1  0.935700  0.656020  0.022773  1
  Au  Au27  1  0.064300  0.343980  0.977227  1
  Au  Au28  1  0.565173  0.841073  0.522696  1
  Au  Au29  1  0.158927  0.434827  0.477304  1
  Au  Au30  1  0.434827  0.158927  0.477304  1
  Au  Au31  1  0.841073  0.565173  0.522696  1
  Au  Au32  1  0.343980  0.064300  0.977227  1
  Au  Au33  1  0.656020  0.935700  0.022773  1
