# generated using pymatgen
data_Nb3AlZn2C
_symmetry_space_group_name_H-M   'P 1'
_cell_length_a   8.36581634
_cell_length_b   8.36581717
_cell_length_c   8.36581600
_cell_angle_alpha   59.99999671
_cell_angle_beta   59.99999345
_cell_angle_gamma   59.99999889
_symmetry_Int_Tables_number   1
_chemical_formula_structural   Nb3AlZn2C
_chemical_formula_sum   'Nb12 Al4 Zn8 C4'
_cell_volume   414.00917889
_cell_formula_units_Z   4
loop_
 _symmetry_equiv_pos_site_id
 _symmetry_equiv_pos_as_xyz
  1  'x, y, z'
loop_
 _atom_site_type_symbol
 _atom_site_label
 _atom_site_symmetry_multiplicity
 _atom_site_fract_x
 _atom_site_fract_y
 _atom_site_fract_z
 _atom_site_occupancy
  Nb  Nb0  1  0.817696  0.182304  0.817696  1
  Nb  Nb1  1  0.067696  0.432304  0.432304  1
  Nb  Nb2  1  0.432304  0.067696  0.067696  1
  Nb  Nb3  1  0.067696  0.432304  0.067696  1
  Nb  Nb4  1  0.432304  0.432304  0.067696  1
  Nb  Nb5  1  0.067696  0.067696  0.432304  1
  Nb  Nb6  1  0.817696  0.817696  0.182304  1
  Nb  Nb7  1  0.182304  0.817696  0.817696  1
  Nb  Nb8  1  0.817696  0.182304  0.182304  1
  Nb  Nb9  1  0.182304  0.182304  0.817696  1
  Nb  Nb10  1  0.432304  0.067696  0.432304  1
  Nb  Nb11  1  0.182304  0.817696  0.182304  1
  Al  Al12  1  0.625000  0.625000  0.625000  1
  Al  Al13  1  0.125000  0.625000  0.625000  1
  Al  Al14  1  0.625000  0.125000  0.625000  1
  Al  Al15  1  0.625000  0.625000  0.125000  1
  Zn  Zn16  1  0.416241  0.416241  0.416241  1
  Zn  Zn17  1  0.498725  0.833759  0.833759  1
  Zn  Zn18  1  0.833759  0.498725  0.833759  1
  Zn  Zn19  1  0.833759  0.833759  0.498725  1
  Zn  Zn20  1  0.416241  0.751275  0.416241  1
  Zn  Zn21  1  0.416241  0.416241  0.751275  1
  Zn  Zn22  1  0.751275  0.416241  0.416241  1
  Zn  Zn23  1  0.833759  0.833759  0.833759  1
  C  C24  1  0.125000  0.125000  0.125000  1
  C  C25  1  0.625000  0.125000  0.125000  1
  C  C26  1  0.125000  0.625000  0.125000  1
  C  C27  1  0.125000  0.125000  0.625000  1
