# generated using pymatgen
data_CsNa(CO3)2
_symmetry_space_group_name_H-M   'P 1'
_cell_length_a   5.54896700
_cell_length_b   7.36549185
_cell_length_c   9.14067943
_cell_angle_alpha   73.71363272
_cell_angle_beta   89.99979550
_cell_angle_gamma   90.00015675
_symmetry_Int_Tables_number   1
_chemical_formula_structural   CsNa(CO3)2
_chemical_formula_sum   'Cs2 Na2 C4 O12'
_cell_volume   358.59622836
_cell_formula_units_Z   2
loop_
 _symmetry_equiv_pos_site_id
 _symmetry_equiv_pos_as_xyz
  1  'x, y, z'
loop_
 _atom_site_type_symbol
 _atom_site_label
 _atom_site_symmetry_multiplicity
 _atom_site_fract_x
 _atom_site_fract_y
 _atom_site_fract_z
 _atom_site_occupancy
  Cs  Cs0  1  0.003410  0.715189  0.649522  1
  Cs  Cs1  1  0.503416  0.284815  0.350476  1
  Na  Na2  1  0.499851  0.216872  0.887408  1
  Na  Na3  1  0.999863  0.783116  0.112592  1
  C  C4  1  0.004559  0.254628  0.094628  1
  C  C5  1  0.494153  0.759471  0.358678  1
  C  C6  1  0.504557  0.745371  0.905390  1
  C  C7  1  0.994152  0.240535  0.641304  1
  O  O8  1  0.987669  0.412012  0.127602  1
  O  O9  1  0.789498  0.286878  0.684986  1
  O  O10  1  0.289504  0.713113  0.315002  1
  O  O11  1  0.689274  0.712715  0.303705  1
  O  O12  1  0.189261  0.287283  0.696293  1
  O  O13  1  0.314419  0.835153  0.924083  1
  O  O14  1  0.487658  0.587996  0.872411  1
  O  O15  1  0.713185  0.816244  0.915356  1
  O  O16  1  0.503982  0.846370  0.461905  1
  O  O17  1  0.814413  0.164855  0.075924  1
  O  O18  1  0.213189  0.183755  0.084651  1
  O  O19  1  0.003988  0.153629  0.538085  1
