# generated using pymatgen
data_YbPr2Pt9
_symmetry_space_group_name_H-M   'P 1'
_cell_length_a   9.45905346
_cell_length_b   9.45905385
_cell_length_c   9.45905335
_cell_angle_alpha   33.54606380
_cell_angle_beta   33.54606069
_cell_angle_gamma   33.54605788
_symmetry_Int_Tables_number   1
_chemical_formula_structural   YbPr2Pt9
_chemical_formula_sum   'Yb1 Pr2 Pt9'
_cell_volume   230.20300851
_cell_formula_units_Z   1
loop_
 _symmetry_equiv_pos_site_id
 _symmetry_equiv_pos_as_xyz
  1  'x, y, z'
loop_
 _atom_site_type_symbol
 _atom_site_label
 _atom_site_symmetry_multiplicity
 _atom_site_fract_x
 _atom_site_fract_y
 _atom_site_fract_z
 _atom_site_occupancy
  Yb  Yb0  1  0.860523  0.860523  0.860523  1
  Pr  Pr1  1  0.997206  0.997206  0.997206  1
  Pr  Pr2  1  0.142417  0.142417  0.142417  1
  Pt  Pt3  1  0.586374  0.586374  0.081130  1
  Pt  Pt4  1  0.332669  0.332669  0.332669  1
  Pt  Pt5  1  0.917864  0.413904  0.413905  1
  Pt  Pt6  1  0.413904  0.917864  0.413905  1
  Pt  Pt7  1  0.500303  0.500303  0.500303  1
  Pt  Pt8  1  0.586375  0.081129  0.586374  1
  Pt  Pt9  1  0.081129  0.586375  0.586374  1
  Pt  Pt10  1  0.667329  0.667329  0.667329  1
  Pt  Pt11  1  0.413905  0.413905  0.917864  1
