# generated using pymatgen
data_ZrBeAl6Cu5
_symmetry_space_group_name_H-M   'P 1'
_cell_length_a   6.50675449
_cell_length_b   6.50675402
_cell_length_c   6.50675228
_cell_angle_alpha   133.94656125
_cell_angle_beta   98.64728575
_cell_angle_gamma   98.95516128
_symmetry_Int_Tables_number   1
_chemical_formula_structural   ZrBeAl6Cu5
_chemical_formula_sum   'Zr1 Be1 Al6 Cu5'
_cell_volume   182.53910270
_cell_formula_units_Z   1
loop_
 _symmetry_equiv_pos_site_id
 _symmetry_equiv_pos_as_xyz
  1  'x, y, z'
loop_
 _atom_site_type_symbol
 _atom_site_label
 _atom_site_symmetry_multiplicity
 _atom_site_fract_x
 _atom_site_fract_y
 _atom_site_fract_z
 _atom_site_occupancy
  Zr  Zr0  1  0.996198  0.000000  0.996198  1
  Be  Be1  1  0.763910  0.500000  0.263910  1
  Al  Al2  1  0.340320  0.000000  0.340320  1
  Al  Al3  1  0.650932  0.000000  0.650932  1
  Al  Al4  1  0.654341  0.656360  0.997981  1
  Al  Al5  1  0.341622  0.343640  0.997981  1
  Al  Al6  1  0.186524  0.682900  0.503624  1
  Al  Al7  1  0.820724  0.317100  0.503624  1
  Cu  Cu8  1  0.237173  0.500000  0.737173  1
  Cu  Cu9  1  0.991027  0.986059  0.499161  1
  Cu  Cu10  1  0.991027  0.491866  0.004968  1
  Cu  Cu11  1  0.513101  0.013941  0.004968  1
  Cu  Cu12  1  0.513101  0.508134  0.499161  1
