# generated using pymatgen
data_TmLu5Ni2
_symmetry_space_group_name_H-M   'P 1'
_cell_length_a   6.20810541
_cell_length_b   6.67510007
_cell_length_c   9.33230300
_cell_angle_alpha   90.00000000
_cell_angle_beta   90.00000000
_cell_angle_gamma   90.02894622
_symmetry_Int_Tables_number   1
_chemical_formula_structural   TmLu5Ni2
_chemical_formula_sum   'Tm2 Lu10 Ni4'
_cell_volume   386.72801919
_cell_formula_units_Z   2
loop_
 _symmetry_equiv_pos_site_id
 _symmetry_equiv_pos_as_xyz
  1  'x, y, z'
loop_
 _atom_site_type_symbol
 _atom_site_label
 _atom_site_symmetry_multiplicity
 _atom_site_fract_x
 _atom_site_fract_y
 _atom_site_fract_z
 _atom_site_occupancy
  Tm  Tm0  1  0.634791  0.031023  0.250000  1
  Tm  Tm1  1  0.365209  0.968977  0.750000  1
  Lu  Lu2  1  0.133286  0.467213  0.750000  1
  Lu  Lu3  1  0.866714  0.532787  0.250000  1
  Lu  Lu4  1  0.180788  0.180600  0.065293  1
  Lu  Lu5  1  0.819212  0.819400  0.934707  1
  Lu  Lu6  1  0.681514  0.320438  0.935437  1
  Lu  Lu7  1  0.819212  0.819400  0.565293  1
  Lu  Lu8  1  0.318486  0.679562  0.064563  1
  Lu  Lu9  1  0.180788  0.180600  0.434707  1
  Lu  Lu10  1  0.318486  0.679562  0.435437  1
  Lu  Lu11  1  0.681514  0.320438  0.564563  1
  Ni  Ni12  1  0.452003  0.396152  0.250000  1
  Ni  Ni13  1  0.547997  0.603848  0.750000  1
  Ni  Ni14  1  0.946917  0.106373  0.750000  1
  Ni  Ni15  1  0.053083  0.893627  0.250000  1
