# generated using pymatgen
data_Dy3Lu3ReBi2
_symmetry_space_group_name_H-M   'P 1'
_cell_length_a   8.18839400
_cell_length_b   8.18839344
_cell_length_c   4.31212200
_cell_angle_alpha   90.00000000
_cell_angle_beta   90.00000000
_cell_angle_gamma   120.00001033
_symmetry_Int_Tables_number   1
_chemical_formula_structural   Dy3Lu3ReBi2
_chemical_formula_sum   'Dy3 Lu3 Re1 Bi2'
_cell_volume   250.39119872
_cell_formula_units_Z   1
loop_
 _symmetry_equiv_pos_site_id
 _symmetry_equiv_pos_as_xyz
  1  'x, y, z'
loop_
 _atom_site_type_symbol
 _atom_site_label
 _atom_site_symmetry_multiplicity
 _atom_site_fract_x
 _atom_site_fract_y
 _atom_site_fract_z
 _atom_site_occupancy
  Dy  Dy0  1  0.612295  0.000000  0.000000  1
  Dy  Dy1  1  0.000000  0.612295  0.000000  1
  Dy  Dy2  1  0.387705  0.387705  0.000000  1
  Lu  Lu3  1  0.229273  0.000000  0.500000  1
  Lu  Lu4  1  0.000000  0.229273  0.500000  1
  Lu  Lu5  1  0.770727  0.770727  0.500000  1
  Re  Re6  1  0.000000  0.000000  0.000000  1
  Bi  Bi7  1  0.333333  0.666667  0.500000  1
  Bi  Bi8  1  0.666667  0.333333  0.500000  1
