# generated using pymatgen
data_NdSmRe2F14
_symmetry_space_group_name_H-M   'P 1'
_cell_length_a   5.73823900
_cell_length_b   9.16329463
_cell_length_c   12.30582384
_cell_angle_alpha   62.21161090
_cell_angle_beta   90.00000000
_cell_angle_gamma   90.00000000
_symmetry_Int_Tables_number   1
_chemical_formula_structural   NdSmRe2F14
_chemical_formula_sum   'Nd2 Sm2 Re4 F28'
_cell_volume   572.43339622
_cell_formula_units_Z   2
loop_
 _symmetry_equiv_pos_site_id
 _symmetry_equiv_pos_as_xyz
  1  'x, y, z'
loop_
 _atom_site_type_symbol
 _atom_site_label
 _atom_site_symmetry_multiplicity
 _atom_site_fract_x
 _atom_site_fract_y
 _atom_site_fract_z
 _atom_site_occupancy
  Nd  Nd0  1  0.757910  0.811159  0.765122  1
  Nd  Nd1  1  0.257910  0.188841  0.734878  1
  Sm  Sm2  1  0.241670  0.186985  0.235425  1
  Sm  Sm3  1  0.741670  0.813015  0.264575  1
  Re  Re4  1  0.756095  0.272586  0.958638  1
  Re  Re5  1  0.256095  0.727414  0.541362  1
  Re  Re6  1  0.243880  0.725320  0.044668  1
  Re  Re7  1  0.743880  0.274680  0.455332  1
  F  F8  1  0.445713  0.707527  0.921159  1
  F  F9  1  0.945713  0.292473  0.578841  1
  F  F10  1  0.550911  0.291084  0.080945  1
  F  F11  1  0.050911  0.708916  0.419055  1
  F  F12  1  0.459669  0.283609  0.544022  1
  F  F13  1  0.959669  0.716391  0.955978  1
  F  F14  1  0.542157  0.718274  0.453083  1
  F  F15  1  0.042157  0.281726  0.046917  1
  F  F16  1  0.766086  0.515573  0.860102  1
  F  F17  1  0.266086  0.484427  0.639898  1
  F  F18  1  0.234219  0.481327  0.141151  1
  F  F19  1  0.734219  0.518673  0.358849  1
  F  F20  1  0.758711  0.029210  0.053935  1
  F  F21  1  0.258711  0.970790  0.446065  1
  F  F22  1  0.240987  0.968347  0.948586  1
  F  F23  1  0.740987  0.031653  0.551414  1
  F  F24  1  0.980680  0.730161  0.636926  1
  F  F25  1  0.480680  0.269839  0.863074  1
  F  F26  1  0.020795  0.268752  0.361078  1
  F  F27  1  0.520795  0.731248  0.138922  1
  F  F28  1  0.043561  0.744765  0.169189  1
  F  F29  1  0.543561  0.255235  0.330811  1
  F  F30  1  0.952601  0.256106  0.832176  1
  F  F31  1  0.452601  0.743894  0.667824  1
  F  F32  1  0.418200  0.970638  0.232226  1
  F  F33  1  0.918200  0.029362  0.267774  1
  F  F34  1  0.586153  0.031577  0.768788  1
  F  F35  1  0.086153  0.968423  0.731212  1
