# generated using pymatgen
data_Sr(BIr)4
_symmetry_space_group_name_H-M   'P 1'
_cell_length_a   7.73769000
_cell_length_b   7.73769000
_cell_length_c   3.98507300
_cell_angle_alpha   90.00000000
_cell_angle_beta   90.00000000
_cell_angle_gamma   90.00000000
_symmetry_Int_Tables_number   1
_chemical_formula_structural   Sr(BIr)4
_chemical_formula_sum   'Sr2 B8 Ir8'
_cell_volume   238.59367909
_cell_formula_units_Z   2
loop_
 _symmetry_equiv_pos_site_id
 _symmetry_equiv_pos_as_xyz
  1  'x, y, z'
loop_
 _atom_site_type_symbol
 _atom_site_label
 _atom_site_symmetry_multiplicity
 _atom_site_fract_x
 _atom_site_fract_y
 _atom_site_fract_z
 _atom_site_occupancy
  Sr  Sr0  1  0.500000  0.500000  0.000000  1
  Sr  Sr1  1  0.000000  0.000000  0.500000  1
  B  B2  1  0.841662  0.279947  0.893180  1
  B  B3  1  0.158338  0.720053  0.893180  1
  B  B4  1  0.279947  0.158338  0.106820  1
  B  B5  1  0.720053  0.841662  0.106820  1
  B  B6  1  0.779947  0.658338  0.393180  1
  B  B7  1  0.220053  0.341662  0.393180  1
  B  B8  1  0.341662  0.779947  0.606820  1
  B  B9  1  0.658338  0.220053  0.606820  1
  Ir  Ir10  1  0.888548  0.653960  0.893752  1
  Ir  Ir11  1  0.111452  0.346040  0.893752  1
  Ir  Ir12  1  0.346040  0.888548  0.106248  1
  Ir  Ir13  1  0.653960  0.111452  0.106248  1
  Ir  Ir14  1  0.846040  0.388548  0.393752  1
  Ir  Ir15  1  0.153960  0.611452  0.393752  1
  Ir  Ir16  1  0.388548  0.153960  0.606248  1
  Ir  Ir17  1  0.611452  0.846040  0.606248  1
