# generated using pymatgen
data_Dy2Sc2MnB12Ir
_symmetry_space_group_name_H-M   'P 1'
_cell_length_a   3.51307700
_cell_length_b   8.94872122
_cell_length_c   11.33131307
_cell_angle_alpha   90.00646665
_cell_angle_beta   90.00000000
_cell_angle_gamma   90.00000000
_symmetry_Int_Tables_number   1
_chemical_formula_structural   Dy2Sc2MnB12Ir
_chemical_formula_sum   'Dy4 Sc4 Mn2 B24 Ir2'
_cell_volume   356.22868155
_cell_formula_units_Z   2
loop_
 _symmetry_equiv_pos_site_id
 _symmetry_equiv_pos_as_xyz
  1  'x, y, z'
loop_
 _atom_site_type_symbol
 _atom_site_label
 _atom_site_symmetry_multiplicity
 _atom_site_fract_x
 _atom_site_fract_y
 _atom_site_fract_z
 _atom_site_occupancy
  Dy  Dy0  1  0.500000  0.315775  0.410583  1
  Dy  Dy1  1  0.500000  0.684225  0.589417  1
  Dy  Dy2  1  0.500000  0.174572  0.917364  1
  Dy  Dy3  1  0.500000  0.825428  0.082636  1
  Sc  Sc4  1  0.500000  0.439258  0.124981  1
  Sc  Sc5  1  0.500000  0.560742  0.875019  1
  Sc  Sc6  1  0.500000  0.050157  0.628623  1
  Sc  Sc7  1  0.500000  0.949843  0.371377  1
  Mn  Mn8  1  0.500000  0.140881  0.182602  1
  Mn  Mn9  1  0.500000  0.859119  0.817398  1
  B  B10  1  0.000000  0.099768  0.473069  1
  B  B11  1  0.000000  0.900232  0.526931  1
  B  B12  1  0.000000  0.399868  0.972977  1
  B  B13  1  0.000000  0.600132  0.027023  1
  B  B14  1  0.000000  0.129104  0.315028  1
  B  B15  1  0.000000  0.870896  0.684972  1
  B  B16  1  0.000000  0.371078  0.818961  1
  B  B17  1  0.000000  0.628922  0.181039  1
  B  B18  1  0.000000  0.055242  0.068843  1
  B  B19  1  0.000000  0.944758  0.931157  1
  B  B20  1  0.000000  0.445217  0.566725  1
  B  B21  1  0.000000  0.554783  0.433275  1
  B  B22  1  0.000000  0.480279  0.284610  1
  B  B23  1  0.000000  0.519721  0.715390  1
  B  B24  1  0.000000  0.015751  0.786624  1
  B  B25  1  0.000000  0.984249  0.213376  1
  B  B26  1  0.000000  0.250087  0.082480  1
  B  B27  1  0.000000  0.749913  0.917520  1
  B  B28  1  0.000000  0.245091  0.580323  1
  B  B29  1  0.000000  0.754909  0.419677  1
  B  B30  1  0.000000  0.291566  0.233283  1
  B  B31  1  0.000000  0.708434  0.766717  1
  B  B32  1  0.000000  0.205301  0.735556  1
  B  B33  1  0.000000  0.794699  0.264444  1
  Ir  Ir34  1  0.500000  0.360283  0.680874  1
  Ir  Ir35  1  0.500000  0.639717  0.319126  1
