# generated using pymatgen
data_Pr5DyIn6O18
_symmetry_space_group_name_H-M   'P 1'
_cell_length_a   6.54587000
_cell_length_b   6.54587025
_cell_length_c   12.53376000
_cell_angle_alpha   90.00000000
_cell_angle_beta   90.00000000
_cell_angle_gamma   119.99999873
_symmetry_Int_Tables_number   1
_chemical_formula_structural   Pr5DyIn6O18
_chemical_formula_sum   'Pr5 Dy1 In6 O18'
_cell_volume   465.10047221
_cell_formula_units_Z   1
loop_
 _symmetry_equiv_pos_site_id
 _symmetry_equiv_pos_as_xyz
  1  'x, y, z'
loop_
 _atom_site_type_symbol
 _atom_site_label
 _atom_site_symmetry_multiplicity
 _atom_site_fract_x
 _atom_site_fract_y
 _atom_site_fract_z
 _atom_site_occupancy
  Pr  Pr0  1  0.333333  0.666667  0.231630  1
  Pr  Pr1  1  0.000000  0.000000  0.266545  1
  Pr  Pr2  1  0.000000  0.000000  0.769218  1
  Pr  Pr3  1  0.333333  0.666667  0.729525  1
  Pr  Pr4  1  0.666667  0.333333  0.729935  1
  Dy  Dy5  1  0.666667  0.333333  0.229864  1
  In  In6  1  0.998007  0.664501  0.494381  1
  In  In7  1  0.998264  0.334246  0.998072  1
  In  In8  1  0.335499  0.333506  0.494381  1
  In  In9  1  0.665754  0.664018  0.998072  1
  In  In10  1  0.335982  0.001736  0.998072  1
  In  In11  1  0.666494  0.001993  0.494381  1
  O  O12  1  0.001246  0.694086  0.663143  1
  O  O13  1  0.987403  0.628777  0.327364  1
  O  O14  1  0.000101  0.359731  0.830705  1
  O  O15  1  0.988099  0.308428  0.166636  1
  O  O16  1  0.333333  0.666667  0.023309  1
  O  O17  1  0.000000  0.000000  0.466936  1
  O  O18  1  0.333333  0.666667  0.516705  1
  O  O19  1  0.000000  0.000000  0.972653  1
  O  O20  1  0.305914  0.307160  0.663143  1
  O  O21  1  0.371223  0.358626  0.327364  1
  O  O22  1  0.320329  0.011901  0.166636  1
  O  O23  1  0.640269  0.640370  0.830705  1
  O  O24  1  0.691572  0.679671  0.166636  1
  O  O25  1  0.359630  0.999899  0.830705  1
  O  O26  1  0.666667  0.333333  0.522423  1
  O  O27  1  0.666667  0.333333  0.022925  1
  O  O28  1  0.641374  0.012597  0.327364  1
  O  O29  1  0.692840  0.998754  0.663143  1
