# generated using pymatgen
data_Zr2Mn3Ni9As7
_symmetry_space_group_name_H-M   'P 1'
_cell_length_a   9.45698100
_cell_length_b   9.45698093
_cell_length_c   3.73797500
_cell_angle_alpha   90.00000000
_cell_angle_beta   90.00000000
_cell_angle_gamma   119.99999674
_symmetry_Int_Tables_number   1
_chemical_formula_structural   Zr2Mn3Ni9As7
_chemical_formula_sum   'Zr2 Mn3 Ni9 As7'
_cell_volume   289.51566565
_cell_formula_units_Z   1
loop_
 _symmetry_equiv_pos_site_id
 _symmetry_equiv_pos_as_xyz
  1  'x, y, z'
loop_
 _atom_site_type_symbol
 _atom_site_label
 _atom_site_symmetry_multiplicity
 _atom_site_fract_x
 _atom_site_fract_y
 _atom_site_fract_z
 _atom_site_occupancy
  Zr  Zr0  1  0.333333  0.666667  0.000000  1
  Zr  Zr1  1  0.666667  0.333333  0.500000  1
  Mn  Mn2  1  0.223626  0.124649  0.500000  1
  Mn  Mn3  1  0.875351  0.098977  0.500000  1
  Mn  Mn4  1  0.901023  0.776374  0.500000  1
  Ni  Ni5  1  0.122815  0.282655  0.000000  1
  Ni  Ni6  1  0.717345  0.840159  0.000000  1
  Ni  Ni7  1  0.159841  0.877185  0.000000  1
  Ni  Ni8  1  0.433049  0.375187  0.000000  1
  Ni  Ni9  1  0.624813  0.057862  0.000000  1
  Ni  Ni10  1  0.942138  0.566951  0.000000  1
  Ni  Ni11  1  0.049836  0.434844  0.500000  1
  Ni  Ni12  1  0.565156  0.614993  0.500000  1
  Ni  Ni13  1  0.385007  0.950164  0.500000  1
  As  As14  1  0.292050  0.415173  0.500000  1
  As  As15  1  0.584827  0.876879  0.500000  1
  As  As16  1  0.123121  0.707950  0.500000  1
  As  As17  1  0.416341  0.122254  0.000000  1
  As  As18  1  0.877746  0.294086  0.000000  1
  As  As19  1  0.705914  0.583659  0.000000  1
  As  As20  1  0.000000  0.000000  0.000000  1
