# generated using pymatgen
data_Nd4Cd2PdAu3
_symmetry_space_group_name_H-M   'P 1'
_cell_length_a   3.91203800
_cell_length_b   8.05552583
_cell_length_c   8.05552583
_cell_angle_alpha   90.65807613
_cell_angle_beta   90.00000000
_cell_angle_gamma   90.00000000
_symmetry_Int_Tables_number   1
_chemical_formula_structural   Nd4Cd2PdAu3
_chemical_formula_sum   'Nd4 Cd2 Pd1 Au3'
_cell_volume   253.84125590
_cell_formula_units_Z   1
loop_
 _symmetry_equiv_pos_site_id
 _symmetry_equiv_pos_as_xyz
  1  'x, y, z'
loop_
 _atom_site_type_symbol
 _atom_site_label
 _atom_site_symmetry_multiplicity
 _atom_site_fract_x
 _atom_site_fract_y
 _atom_site_fract_z
 _atom_site_occupancy
  Nd  Nd0  1  0.500000  0.171500  0.671500  1
  Nd  Nd1  1  0.500000  0.821013  0.321013  1
  Nd  Nd2  1  0.500000  0.335974  0.175680  1
  Nd  Nd3  1  0.500000  0.675680  0.835974  1
  Cd  Cd4  1  0.000000  0.996680  0.001322  1
  Cd  Cd5  1  0.000000  0.501322  0.496680  1
  Pd  Pd6  1  0.000000  0.626336  0.126336  1
  Au  Au7  1  0.000000  0.374868  0.874868  1
  Au  Au8  1  0.000000  0.871144  0.625482  1
  Au  Au9  1  0.000000  0.125482  0.371144  1
