# generated using pymatgen
data_Y2Lu18Cd3RuRhAu3
_symmetry_space_group_name_H-M   'P 1'
_cell_length_a   9.38172600
_cell_length_b   9.38172497
_cell_length_c   9.43379300
_cell_angle_alpha   90.00000000
_cell_angle_beta   90.00000000
_cell_angle_gamma   119.95234387
_symmetry_Int_Tables_number   1
_chemical_formula_structural   Y2Lu18Cd3RuRhAu3
_chemical_formula_sum   'Y2 Lu18 Cd3 Ru1 Rh1 Au3'
_cell_volume   719.43368919
_cell_formula_units_Z   1
loop_
 _symmetry_equiv_pos_site_id
 _symmetry_equiv_pos_as_xyz
  1  'x, y, z'
loop_
 _atom_site_type_symbol
 _atom_site_label
 _atom_site_symmetry_multiplicity
 _atom_site_fract_x
 _atom_site_fract_y
 _atom_site_fract_z
 _atom_site_occupancy
  Y  Y0  1  0.459732  0.918127  0.750000  1
  Y  Y1  1  0.081873  0.540268  0.750000  1
  Lu  Lu2  1  0.999810  0.000190  0.461721  1
  Lu  Lu3  1  0.999810  0.000190  0.038279  1
  Lu  Lu4  1  0.209188  0.790812  0.440158  1
  Lu  Lu5  1  0.210778  0.419362  0.440948  1
  Lu  Lu6  1  0.580638  0.789222  0.440948  1
  Lu  Lu7  1  0.791404  0.208596  0.554059  1
  Lu  Lu8  1  0.790335  0.583008  0.554864  1
  Lu  Lu9  1  0.416992  0.209665  0.554864  1
  Lu  Lu10  1  0.791404  0.208596  0.945941  1
  Lu  Lu11  1  0.790335  0.583008  0.945136  1
  Lu  Lu12  1  0.416992  0.209665  0.945136  1
  Lu  Lu13  1  0.209188  0.790812  0.059842  1
  Lu  Lu14  1  0.210778  0.419362  0.059052  1
  Lu  Lu15  1  0.580638  0.789222  0.059052  1
  Lu  Lu16  1  0.539576  0.460424  0.250000  1
  Lu  Lu17  1  0.539174  0.078193  0.250000  1
  Lu  Lu18  1  0.921807  0.460826  0.250000  1
  Lu  Lu19  1  0.460015  0.539985  0.750000  1
  Cd  Cd20  1  0.109240  0.890760  0.750000  1
  Cd  Cd21  1  0.110801  0.219470  0.750000  1
  Cd  Cd22  1  0.780530  0.889199  0.750000  1
  Ru  Ru23  1  0.333141  0.666859  0.250000  1
  Rh  Rh24  1  0.666212  0.333788  0.750000  1
  Au  Au25  1  0.870420  0.129580  0.250000  1
  Au  Au26  1  0.870159  0.740968  0.250000  1
  Au  Au27  1  0.259032  0.129841  0.250000  1
