# generated using pymatgen
data_TbSmTm6(WO6)4
_symmetry_space_group_name_H-M   'P 1'
_cell_length_a   5.37175100
_cell_length_b   7.67167016
_cell_length_c   11.41678003
_cell_angle_alpha   75.29673335
_cell_angle_beta   90.00000000
_cell_angle_gamma   90.00000000
_symmetry_Int_Tables_number   1
_chemical_formula_structural   TbSmTm6(WO6)4
_chemical_formula_sum   'Tb1 Sm1 Tm6 W4 O24'
_cell_volume   455.08198304
_cell_formula_units_Z   1
loop_
 _symmetry_equiv_pos_site_id
 _symmetry_equiv_pos_as_xyz
  1  'x, y, z'
loop_
 _atom_site_type_symbol
 _atom_site_label
 _atom_site_symmetry_multiplicity
 _atom_site_fract_x
 _atom_site_fract_y
 _atom_site_fract_z
 _atom_site_occupancy
  Tb  Tb0  1  0.315426  0.500000  0.250000  1
  Sm  Sm1  1  0.685004  0.500000  0.750000  1
  Tm  Tm2  1  0.742344  0.000000  0.750000  1
  Tm  Tm3  1  0.259457  0.000000  0.250000  1
  Tm  Tm4  1  0.184981  0.796810  0.577312  1
  Tm  Tm5  1  0.815766  0.795852  0.078427  1
  Tm  Tm6  1  0.184981  0.203190  0.922688  1
  Tm  Tm7  1  0.815766  0.204148  0.421573  1
  W  W8  1  0.254849  0.726723  0.885563  1
  W  W9  1  0.745009  0.725549  0.384216  1
  W  W10  1  0.254849  0.273277  0.614437  1
  W  W11  1  0.745009  0.274451  0.115784  1
  O  O12  1  0.040838  0.941910  0.897005  1
  O  O13  1  0.538267  0.846662  0.930607  1
  O  O14  1  0.958012  0.942301  0.394427  1
  O  O15  1  0.457176  0.795762  0.725714  1
  O  O16  1  0.463564  0.847192  0.430578  1
  O  O17  1  0.982887  0.719043  0.769113  1
  O  O18  1  0.541104  0.793988  0.225748  1
  O  O19  1  0.855301  0.637273  0.547052  1
  O  O20  1  0.351411  0.489757  0.887323  1
  O  O21  1  0.018569  0.713789  0.269691  1
  O  O22  1  0.351411  0.510243  0.612677  1
  O  O23  1  0.855301  0.362727  0.952948  1
  O  O24  1  0.148113  0.638291  0.049351  1
  O  O25  1  0.643039  0.489482  0.386089  1
  O  O26  1  0.982887  0.280957  0.730887  1
  O  O27  1  0.643039  0.510518  0.113911  1
  O  O28  1  0.148113  0.361709  0.450649  1
  O  O29  1  0.457176  0.204238  0.774286  1
  O  O30  1  0.018569  0.286211  0.230309  1
  O  O31  1  0.538267  0.153338  0.569393  1
  O  O32  1  0.541104  0.206012  0.274252  1
  O  O33  1  0.040838  0.058090  0.602995  1
  O  O34  1  0.463564  0.152808  0.069422  1
  O  O35  1  0.958012  0.057699  0.105573  1
