# generated using pymatgen
data_TmTaFe12P7
_symmetry_space_group_name_H-M   'P 1'
_cell_length_a   8.84680800
_cell_length_b   8.84680759
_cell_length_c   3.58563400
_cell_angle_alpha   90.00000000
_cell_angle_beta   90.00000000
_cell_angle_gamma   120.00000152
_symmetry_Int_Tables_number   1
_chemical_formula_structural   TmTaFe12P7
_chemical_formula_sum   'Tm1 Ta1 Fe12 P7'
_cell_volume   243.03552857
_cell_formula_units_Z   1
loop_
 _symmetry_equiv_pos_site_id
 _symmetry_equiv_pos_as_xyz
  1  'x, y, z'
loop_
 _atom_site_type_symbol
 _atom_site_label
 _atom_site_symmetry_multiplicity
 _atom_site_fract_x
 _atom_site_fract_y
 _atom_site_fract_z
 _atom_site_occupancy
  Tm  Tm0  1  0.000000  0.000000  0.500000  1
  Ta  Ta1  1  0.333333  0.666667  0.000000  1
  Fe  Fe2  1  0.721813  0.958993  0.000000  1
  Fe  Fe3  1  0.237181  0.278187  0.000000  1
  Fe  Fe4  1  0.041007  0.762819  0.000000  1
  Fe  Fe5  1  0.943917  0.454379  0.000000  1
  Fe  Fe6  1  0.510463  0.056083  0.000000  1
  Fe  Fe7  1  0.545621  0.489537  0.000000  1
  Fe  Fe8  1  0.108845  0.395443  0.500000  1
  Fe  Fe9  1  0.286599  0.891155  0.500000  1
  Fe  Fe10  1  0.604557  0.713401  0.500000  1
  Fe  Fe11  1  0.766838  0.212146  0.500000  1
  Fe  Fe12  1  0.445308  0.233162  0.500000  1
  Fe  Fe13  1  0.787854  0.554692  0.500000  1
  P  P14  1  0.962347  0.218243  0.000000  1
  P  P15  1  0.255896  0.037653  0.000000  1
  P  P16  1  0.781757  0.744104  0.000000  1
  P  P17  1  0.072714  0.624488  0.500000  1
  P  P18  1  0.551774  0.927286  0.500000  1
  P  P19  1  0.375512  0.448226  0.500000  1
  P  P20  1  0.666667  0.333333  0.000000  1
