# generated using pymatgen
data_Er5B4Pd7Rh8
_symmetry_space_group_name_H-M   'P 1'
_cell_length_a   4.20456400
_cell_length_b   4.20456400
_cell_length_c   20.86483700
_cell_angle_alpha   90.00000000
_cell_angle_beta   90.00000000
_cell_angle_gamma   90.00000000
_symmetry_Int_Tables_number   1
_chemical_formula_structural   Er5B4Pd7Rh8
_chemical_formula_sum   'Er5 B4 Pd7 Rh8'
_cell_volume   368.85606707
_cell_formula_units_Z   1
loop_
 _symmetry_equiv_pos_site_id
 _symmetry_equiv_pos_as_xyz
  1  'x, y, z'
loop_
 _atom_site_type_symbol
 _atom_site_label
 _atom_site_symmetry_multiplicity
 _atom_site_fract_x
 _atom_site_fract_y
 _atom_site_fract_z
 _atom_site_occupancy
  Er  Er0  1  0.000000  0.000000  0.900381  1
  Er  Er1  1  0.000000  0.000000  0.099619  1
  Er  Er2  1  0.000000  0.000000  0.299273  1
  Er  Er3  1  0.000000  0.000000  0.500000  1
  Er  Er4  1  0.000000  0.000000  0.700727  1
  B  B5  1  0.500000  0.500000  0.189119  1
  B  B6  1  0.500000  0.500000  0.397369  1
  B  B7  1  0.500000  0.500000  0.602631  1
  B  B8  1  0.500000  0.500000  0.810881  1
  Pd  Pd9  1  0.500000  0.500000  0.909672  1
  Pd  Pd10  1  0.500000  0.500000  0.090328  1
  Pd  Pd11  1  0.500000  0.500000  0.296539  1
  Pd  Pd12  1  0.500000  0.500000  0.500000  1
  Pd  Pd13  1  0.500000  0.500000  0.703461  1
  Pd  Pd14  1  0.500000  0.000000  0.000000  1
  Pd  Pd15  1  0.000000  0.500000  0.000000  1
  Rh  Rh16  1  0.500000  0.000000  0.199862  1
  Rh  Rh17  1  0.500000  0.000000  0.400001  1
  Rh  Rh18  1  0.500000  0.000000  0.599999  1
  Rh  Rh19  1  0.500000  0.000000  0.800138  1
  Rh  Rh20  1  0.000000  0.500000  0.199862  1
  Rh  Rh21  1  0.000000  0.500000  0.400001  1
  Rh  Rh22  1  0.000000  0.500000  0.599999  1
  Rh  Rh23  1  0.000000  0.500000  0.800138  1
