# generated using pymatgen
data_Y4ScIn2Sb
_symmetry_space_group_name_H-M   'P 1'
_cell_length_a   6.47700655
_cell_length_b   8.88167300
_cell_length_c   8.91448103
_cell_angle_alpha   119.87833055
_cell_angle_beta   89.90661033
_cell_angle_gamma   90.18747591
_symmetry_Int_Tables_number   1
_chemical_formula_structural   Y4ScIn2Sb
_chemical_formula_sum   'Y8 Sc2 In4 Sb2'
_cell_volume   444.65649245
_cell_formula_units_Z   2
loop_
 _symmetry_equiv_pos_site_id
 _symmetry_equiv_pos_as_xyz
  1  'x, y, z'
loop_
 _atom_site_type_symbol
 _atom_site_label
 _atom_site_symmetry_multiplicity
 _atom_site_fract_x
 _atom_site_fract_y
 _atom_site_fract_z
 _atom_site_occupancy
  Y  Y0  1  0.995672  0.664876  0.333287  1
  Y  Y1  1  0.995672  0.331588  0.666713  1
  Y  Y2  1  0.747428  0.235365  0.000000  1
  Y  Y3  1  0.747872  0.762291  0.763284  1
  Y  Y4  1  0.747872  0.999008  0.236716  1
  Y  Y5  1  0.253486  0.763220  0.000000  1
  Y  Y6  1  0.253104  0.240969  0.236225  1
  Y  Y7  1  0.253104  0.004744  0.763775  1
  Sc  Sc8  1  0.504328  0.332158  0.665041  1
  Sc  Sc9  1  0.504328  0.667117  0.334959  1
  In  In10  1  0.733091  0.595543  0.000000  1
  In  In11  1  0.736811  0.398311  0.400699  1
  In  In12  1  0.736811  0.997611  0.599301  1
  In  In13  1  0.265980  0.405714  0.000000  1
  Sb  Sb14  1  0.262221  0.602523  0.603562  1
  Sb  Sb15  1  0.262221  0.998961  0.396438  1
