# generated using pymatgen
data_RbBaSbS3
_symmetry_space_group_name_H-M   'P 1'
_cell_length_a   9.17422700
_cell_length_b   9.54624996
_cell_length_c   9.33271628
_cell_angle_alpha   72.52459538
_cell_angle_beta   90.00000000
_cell_angle_gamma   90.00000000
_symmetry_Int_Tables_number   1
_chemical_formula_structural   RbBaSbS3
_chemical_formula_sum   'Rb4 Ba4 Sb4 S12'
_cell_volume   779.63007723
_cell_formula_units_Z   4
loop_
 _symmetry_equiv_pos_site_id
 _symmetry_equiv_pos_as_xyz
  1  'x, y, z'
loop_
 _atom_site_type_symbol
 _atom_site_label
 _atom_site_symmetry_multiplicity
 _atom_site_fract_x
 _atom_site_fract_y
 _atom_site_fract_z
 _atom_site_occupancy
  Rb  Rb0  1  0.093418  0.584817  0.294696  1
  Rb  Rb1  1  0.593418  0.415183  0.205304  1
  Rb  Rb2  1  0.906582  0.415183  0.705304  1
  Rb  Rb3  1  0.406582  0.584817  0.794696  1
  Ba  Ba4  1  0.715135  0.924451  0.033039  1
  Ba  Ba5  1  0.215135  0.075549  0.466961  1
  Ba  Ba6  1  0.284865  0.075549  0.966961  1
  Ba  Ba7  1  0.784865  0.924451  0.533039  1
  Sb  Sb8  1  0.456691  0.757927  0.361675  1
  Sb  Sb9  1  0.956691  0.242073  0.138325  1
  Sb  Sb10  1  0.543309  0.242073  0.638325  1
  Sb  Sb11  1  0.043309  0.757927  0.861675  1
  S  S12  1  0.205060  0.335768  0.105657  1
  S  S13  1  0.705060  0.664232  0.394343  1
  S  S14  1  0.794940  0.664232  0.894343  1
  S  S15  1  0.294940  0.335768  0.605657  1
  S  S16  1  0.011084  0.975943  0.219385  1
  S  S17  1  0.511084  0.024057  0.280615  1
  S  S18  1  0.988916  0.024057  0.780615  1
  S  S19  1  0.488916  0.975943  0.719385  1
  S  S20  1  0.405636  0.741152  0.111548  1
  S  S21  1  0.905636  0.258848  0.388452  1
  S  S22  1  0.594364  0.258848  0.888452  1
  S  S23  1  0.094364  0.741152  0.611548  1
