# generated using pymatgen
data_Tb4Pr16Ir7Ru5
_symmetry_space_group_name_H-M   'P 1'
_cell_length_a   11.23649111
_cell_length_b   11.23649111
_cell_length_c   6.62035412
_cell_angle_alpha   89.98427100
_cell_angle_beta   89.98427100
_cell_angle_gamma   90.00352748
_symmetry_Int_Tables_number   1
_chemical_formula_structural   Tb4Pr16Ir7Ru5
_chemical_formula_sum   'Tb4 Pr16 Ir7 Ru5'
_cell_volume   835.87745585
_cell_formula_units_Z   1
loop_
 _symmetry_equiv_pos_site_id
 _symmetry_equiv_pos_as_xyz
  1  'x, y, z'
loop_
 _atom_site_type_symbol
 _atom_site_label
 _atom_site_symmetry_multiplicity
 _atom_site_fract_x
 _atom_site_fract_y
 _atom_site_fract_z
 _atom_site_occupancy
  Tb  Tb0  1  0.999663  0.000737  0.499262  1
  Tb  Tb1  1  0.999263  0.000337  0.000738  1
  Tb  Tb2  1  0.500049  0.500006  0.000074  1
  Tb  Tb3  1  0.499994  0.499951  0.499926  1
  Pr  Pr4  1  0.291522  0.086834  0.381238  1
  Pr  Pr5  1  0.291235  0.913003  0.881407  1
  Pr  Pr6  1  0.709301  0.087266  0.882443  1
  Pr  Pr7  1  0.708844  0.913466  0.380666  1
  Pr  Pr8  1  0.586635  0.791714  0.881371  1
  Pr  Pr9  1  0.587467  0.208486  0.381547  1
  Pr  Pr10  1  0.413195  0.791633  0.381652  1
  Pr  Pr11  1  0.413063  0.208205  0.880909  1
  Pr  Pr12  1  0.208286  0.413365  0.618629  1
  Pr  Pr13  1  0.208367  0.586805  0.118348  1
  Pr  Pr14  1  0.791514  0.412533  0.118453  1
  Pr  Pr15  1  0.791795  0.586937  0.619091  1
  Pr  Pr16  1  0.913166  0.708478  0.118762  1
  Pr  Pr17  1  0.912734  0.290699  0.617557  1
  Pr  Pr18  1  0.086997  0.708765  0.618593  1
  Pr  Pr19  1  0.086534  0.291156  0.119334  1
  Ir  Ir20  1  0.851932  0.851593  0.749988  1
  Ir  Ir21  1  0.148407  0.148068  0.750012  1
  Ir  Ir22  1  0.148220  0.851780  0.250000  1
  Ir  Ir23  1  0.647243  0.352757  0.750000  1
  Ir  Ir24  1  0.648097  0.647843  0.249751  1
  Ir  Ir25  1  0.352157  0.351903  0.250249  1
  Ir  Ir26  1  0.352351  0.647649  0.750000  1
  Ru  Ru27  1  0.852290  0.147710  0.250000  1
  Ru  Ru28  1  0.500119  0.000050  0.118050  1
  Ru  Ru29  1  0.499762  0.000151  0.618362  1
  Ru  Ru30  1  0.999849  0.500238  0.881638  1
  Ru  Ru31  1  0.999950  0.499881  0.381950  1
