# generated using pymatgen
data_TbY7(CoAg)2
_symmetry_space_group_name_H-M   'P 1'
_cell_length_a   9.45142635
_cell_length_b   9.45142621
_cell_length_c   9.43508600
_cell_angle_alpha   60.05717381
_cell_angle_beta   60.05717430
_cell_angle_gamma   60.10244723
_symmetry_Int_Tables_number   1
_chemical_formula_structural   TbY7(CoAg)2
_chemical_formula_sum   'Tb2 Y14 Co4 Ag4'
_cell_volume   596.94736802
_cell_formula_units_Z   2
loop_
 _symmetry_equiv_pos_site_id
 _symmetry_equiv_pos_as_xyz
  1  'x, y, z'
loop_
 _atom_site_type_symbol
 _atom_site_label
 _atom_site_symmetry_multiplicity
 _atom_site_fract_x
 _atom_site_fract_y
 _atom_site_fract_z
 _atom_site_occupancy
  Tb  Tb0  1  0.348351  0.955493  0.348078  1
  Tb  Tb1  1  0.955493  0.348351  0.348078  1
  Y  Y2  1  0.811783  0.187837  0.188186  1
  Y  Y3  1  0.187837  0.811783  0.812195  1
  Y  Y4  1  0.187837  0.811783  0.188186  1
  Y  Y5  1  0.811783  0.187837  0.812195  1
  Y  Y6  1  0.187886  0.187886  0.812114  1
  Y  Y7  1  0.811885  0.811885  0.188115  1
  Y  Y8  1  0.937418  0.562586  0.562400  1
  Y  Y9  1  0.562586  0.937418  0.937597  1
  Y  Y10  1  0.562587  0.937418  0.562400  1
  Y  Y11  1  0.937418  0.562586  0.937597  1
  Y  Y12  1  0.562478  0.562477  0.937523  1
  Y  Y13  1  0.937514  0.937514  0.562486  1
  Y  Y14  1  0.348506  0.348506  0.348178  1
  Y  Y15  1  0.348506  0.348506  0.954811  1
  Co  Co16  1  0.141630  0.141630  0.141752  1
  Co  Co17  1  0.141630  0.141630  0.574989  1
  Co  Co18  1  0.141443  0.575362  0.141598  1
  Co  Co19  1  0.575362  0.141443  0.141598  1
  Ag  Ag20  1  0.581224  0.581224  0.581281  1
  Ag  Ag21  1  0.581224  0.581224  0.256270  1
  Ag  Ag22  1  0.581089  0.256531  0.581190  1
  Ag  Ag23  1  0.256531  0.581089  0.581190  1
