# generated using pymatgen
data_Ce2Cr2Ni10P7
_symmetry_space_group_name_H-M   'P 1'
_cell_length_a   3.76403300
_cell_length_b   9.18098736
_cell_length_c   9.21064400
_cell_angle_alpha   120.28978916
_cell_angle_beta   90.00000000
_cell_angle_gamma   90.00000000
_symmetry_Int_Tables_number   1
_chemical_formula_structural   Ce2Cr2Ni10P7
_chemical_formula_sum   'Ce2 Cr2 Ni10 P7'
_cell_volume   274.84499477
_cell_formula_units_Z   1
loop_
 _symmetry_equiv_pos_site_id
 _symmetry_equiv_pos_as_xyz
  1  'x, y, z'
loop_
 _atom_site_type_symbol
 _atom_site_label
 _atom_site_symmetry_multiplicity
 _atom_site_fract_x
 _atom_site_fract_y
 _atom_site_fract_z
 _atom_site_occupancy
  Ce  Ce0  1  0.000000  0.668720  0.336021  1
  Ce  Ce1  1  0.500000  0.332925  0.667752  1
  Cr  Cr2  1  0.500000  0.787984  0.902545  1
  Cr  Cr3  1  0.500000  0.116334  0.214537  1
  Ni  Ni4  1  0.000000  0.567083  0.938555  1
  Ni  Ni5  1  0.000000  0.371441  0.431282  1
  Ni  Ni6  1  0.000000  0.061345  0.626006  1
  Ni  Ni7  1  0.500000  0.098532  0.878204  1
  Ni  Ni8  1  0.000000  0.872475  0.153627  1
  Ni  Ni9  1  0.000000  0.276489  0.122749  1
  Ni  Ni10  1  0.000000  0.850518  0.725507  1
  Ni  Ni11  1  0.500000  0.948222  0.382913  1
  Ni  Ni12  1  0.500000  0.430204  0.048327  1
  Ni  Ni13  1  0.500000  0.616888  0.566634  1
  P  P14  1  0.000000  0.999704  0.002574  1
  P  P15  1  0.500000  0.706575  0.108090  1
  P  P16  1  0.500000  0.401344  0.292670  1
  P  P17  1  0.500000  0.893370  0.602925  1
  P  P18  1  0.000000  0.596717  0.704497  1
  P  P19  1  0.000000  0.108399  0.403771  1
  P  P20  1  0.000000  0.294728  0.890814  1
