# generated using pymatgen
data_Y5(GaTe)2
_symmetry_space_group_name_H-M   'P 1'
_cell_length_a   4.16423700
_cell_length_b   14.61188900
_cell_length_c   16.02763300
_cell_angle_alpha   90.00000000
_cell_angle_beta   90.00000000
_cell_angle_gamma   90.00000000
_symmetry_Int_Tables_number   1
_chemical_formula_structural   Y5(GaTe)2
_chemical_formula_sum   'Y20 Ga8 Te8'
_cell_volume   975.23929636
_cell_formula_units_Z   4
loop_
 _symmetry_equiv_pos_site_id
 _symmetry_equiv_pos_as_xyz
  1  'x, y, z'
loop_
 _atom_site_type_symbol
 _atom_site_label
 _atom_site_symmetry_multiplicity
 _atom_site_fract_x
 _atom_site_fract_y
 _atom_site_fract_z
 _atom_site_occupancy
  Y  Y0  1  0.250000  0.142391  0.255985  1
  Y  Y1  1  0.250000  0.642391  0.244015  1
  Y  Y2  1  0.750000  0.857609  0.744015  1
  Y  Y3  1  0.750000  0.357609  0.755985  1
  Y  Y4  1  0.250000  0.900922  0.189080  1
  Y  Y5  1  0.250000  0.400922  0.310920  1
  Y  Y6  1  0.750000  0.099078  0.810920  1
  Y  Y7  1  0.750000  0.599078  0.689080  1
  Y  Y8  1  0.250000  0.899822  0.551521  1
  Y  Y9  1  0.250000  0.399822  0.948479  1
  Y  Y10  1  0.750000  0.100178  0.448479  1
  Y  Y11  1  0.750000  0.600178  0.051521  1
  Y  Y12  1  0.250000  0.206712  0.624635  1
  Y  Y13  1  0.250000  0.706712  0.875365  1
  Y  Y14  1  0.750000  0.793288  0.375365  1
  Y  Y15  1  0.750000  0.293288  0.124635  1
  Y  Y16  1  0.250000  0.124342  0.998943  1
  Y  Y17  1  0.250000  0.624342  0.501057  1
  Y  Y18  1  0.750000  0.875658  0.001057  1
  Y  Y19  1  0.750000  0.375658  0.498943  1
  Ga  Ga20  1  0.250000  0.739057  0.675527  1
  Ga  Ga21  1  0.250000  0.239057  0.824473  1
  Ga  Ga22  1  0.750000  0.260943  0.324473  1
  Ga  Ga23  1  0.750000  0.760943  0.175527  1
  Ga  Ga24  1  0.250000  0.244745  0.434052  1
  Ga  Ga25  1  0.250000  0.744745  0.065948  1
  Ga  Ga26  1  0.750000  0.755255  0.565948  1
  Ga  Ga27  1  0.750000  0.255255  0.934052  1
  Te  Te28  1  0.250000  0.963359  0.369760  1
  Te  Te29  1  0.250000  0.463359  0.130240  1
  Te  Te30  1  0.750000  0.036641  0.630240  1
  Te  Te31  1  0.750000  0.536641  0.869760  1
  Te  Te32  1  0.250000  0.950328  0.871490  1
  Te  Te33  1  0.250000  0.450328  0.628510  1
  Te  Te34  1  0.750000  0.049672  0.128510  1
  Te  Te35  1  0.750000  0.549672  0.371490  1
