# generated using pymatgen
data_Sc11Pa(CoNi)2
_symmetry_space_group_name_H-M   'P 1'
_cell_length_a   5.89564151
_cell_length_b   6.40947486
_cell_length_c   8.85074900
_cell_angle_alpha   90.00000000
_cell_angle_beta   90.00000000
_cell_angle_gamma   91.40340435
_symmetry_Int_Tables_number   1
_chemical_formula_structural   Sc11Pa(CoNi)2
_chemical_formula_sum   'Sc11 Pa1 Co2 Ni2'
_cell_volume   334.35147945
_cell_formula_units_Z   1
loop_
 _symmetry_equiv_pos_site_id
 _symmetry_equiv_pos_as_xyz
  1  'x, y, z'
loop_
 _atom_site_type_symbol
 _atom_site_label
 _atom_site_symmetry_multiplicity
 _atom_site_fract_x
 _atom_site_fract_y
 _atom_site_fract_z
 _atom_site_occupancy
  Sc  Sc0  1  0.326149  0.678303  0.062071  1
  Sc  Sc1  1  0.180144  0.178012  0.433990  1
  Sc  Sc2  1  0.679944  0.318591  0.562569  1
  Sc  Sc3  1  0.824142  0.827376  0.936390  1
  Sc  Sc4  1  0.679944  0.318591  0.937431  1
  Sc  Sc5  1  0.824142  0.827376  0.563610  1
  Sc  Sc6  1  0.326149  0.678303  0.437929  1
  Sc  Sc7  1  0.180144  0.178012  0.066010  1
  Sc  Sc8  1  0.629223  0.036025  0.250000  1
  Sc  Sc9  1  0.128280  0.470678  0.750000  1
  Sc  Sc10  1  0.373725  0.970414  0.750000  1
  Pa  Pa11  1  0.851901  0.541477  0.250000  1
  Co  Co12  1  0.025711  0.866686  0.250000  1
  Co  Co13  1  0.467088  0.396188  0.250000  1
  Ni  Ni14  1  0.956206  0.109691  0.750000  1
  Ni  Ni15  1  0.547109  0.604274  0.750000  1
