# generated using pymatgen
data_DyTm2Ga5Ir
_symmetry_space_group_name_H-M   'P 1'
_cell_length_a   6.91891400
_cell_length_b   6.92677615
_cell_length_c   4.25469200
_cell_angle_alpha   90.00000000
_cell_angle_beta   90.00000000
_cell_angle_gamma   119.96246037
_symmetry_Int_Tables_number   1
_chemical_formula_structural   DyTm2Ga5Ir
_chemical_formula_sum   'Dy1 Tm2 Ga5 Ir1'
_cell_volume   176.65746813
_cell_formula_units_Z   1
loop_
 _symmetry_equiv_pos_site_id
 _symmetry_equiv_pos_as_xyz
  1  'x, y, z'
loop_
 _atom_site_type_symbol
 _atom_site_label
 _atom_site_symmetry_multiplicity
 _atom_site_fract_x
 _atom_site_fract_y
 _atom_site_fract_z
 _atom_site_occupancy
  Dy  Dy0  1  0.587450  0.000000  0.000000  1
  Tm  Tm1  1  0.999602  0.589110  0.000000  1
  Tm  Tm2  1  0.410492  0.410890  0.000000  1
  Ga  Ga3  1  0.236862  0.000000  0.500000  1
  Ga  Ga4  1  0.000188  0.236991  0.500000  1
  Ga  Ga5  1  0.763197  0.763009  0.500000  1
  Ga  Ga6  1  0.332597  0.665402  0.500000  1
  Ga  Ga7  1  0.667196  0.334598  0.500000  1
  Ir  Ir8  1  0.002416  0.000000  0.000000  1
