# generated using pymatgen
data_ErNiAsH
_symmetry_space_group_name_H-M   'P 1'
_cell_length_a   3.99181500
_cell_length_b   8.03545100
_cell_length_c   6.98765600
_cell_angle_alpha   90.00000000
_cell_angle_beta   90.00000000
_cell_angle_gamma   90.00000000
_symmetry_Int_Tables_number   1
_chemical_formula_structural   ErNiAsH
_chemical_formula_sum   'Er4 Ni4 As4 H4'
_cell_volume   224.13629027
_cell_formula_units_Z   4
loop_
 _symmetry_equiv_pos_site_id
 _symmetry_equiv_pos_as_xyz
  1  'x, y, z'
loop_
 _atom_site_type_symbol
 _atom_site_label
 _atom_site_symmetry_multiplicity
 _atom_site_fract_x
 _atom_site_fract_y
 _atom_site_fract_z
 _atom_site_occupancy
  Er  Er0  1  0.750000  0.507103  0.757554  1
  Er  Er1  1  0.250000  0.492897  0.242446  1
  Er  Er2  1  0.250000  0.992897  0.257554  1
  Er  Er3  1  0.750000  0.007103  0.742446  1
  Ni  Ni4  1  0.750000  0.234416  0.411874  1
  Ni  Ni5  1  0.250000  0.765584  0.588126  1
  Ni  Ni6  1  0.250000  0.265584  0.911874  1
  Ni  Ni7  1  0.750000  0.734416  0.088126  1
  As  As8  1  0.750000  0.231639  0.078455  1
  As  As9  1  0.250000  0.768361  0.921545  1
  As  As10  1  0.250000  0.268361  0.578455  1
  As  As11  1  0.750000  0.731639  0.421545  1
  H  H12  1  0.250000  0.961702  0.582733  1
  H  H13  1  0.750000  0.038298  0.417267  1
  H  H14  1  0.750000  0.538298  0.082733  1
  H  H15  1  0.250000  0.461702  0.917267  1
