# generated using pymatgen
data_La6Mg5Cd18As
_symmetry_space_group_name_H-M   'P 1'
_cell_length_a   10.18643332
_cell_length_b   10.18743640
_cell_length_c   10.18643329
_cell_angle_alpha   59.98636521
_cell_angle_beta   60.13128901
_cell_angle_gamma   59.98636957
_symmetry_Int_Tables_number   1
_chemical_formula_structural   La6Mg5Cd18As
_chemical_formula_sum   'La6 Mg5 Cd18 As1'
_cell_volume   748.05506673
_cell_formula_units_Z   1
loop_
 _symmetry_equiv_pos_site_id
 _symmetry_equiv_pos_as_xyz
  1  'x, y, z'
loop_
 _atom_site_type_symbol
 _atom_site_label
 _atom_site_symmetry_multiplicity
 _atom_site_fract_x
 _atom_site_fract_y
 _atom_site_fract_z
 _atom_site_occupancy
  La  La0  1  0.790171  0.790643  0.209286  1
  La  La1  1  0.209625  0.790980  0.209625  1
  La  La2  1  0.790714  0.209357  0.209829  1
  La  La3  1  0.209829  0.209357  0.790714  1
  La  La4  1  0.790375  0.209020  0.790375  1
  La  La5  1  0.209286  0.790643  0.790171  1
  Mg  Mg6  1  0.500000  0.000000  0.500000  1
  Mg  Mg7  1  0.000000  0.500000  0.500000  1
  Mg  Mg8  1  0.500000  0.500000  0.000000  1
  Mg  Mg9  1  0.000000  0.500000  0.000000  1
  Mg  Mg10  1  0.500000  0.500000  0.500000  1
  Cd  Cd11  1  0.829872  0.830105  0.508848  1
  Cd  Cd12  1  0.830203  0.509039  0.830203  1
  Cd  Cd13  1  0.508848  0.830105  0.829872  1
  Cd  Cd14  1  0.830761  0.829713  0.830761  1
  Cd  Cd15  1  0.170128  0.169895  0.491152  1
  Cd  Cd16  1  0.169797  0.490961  0.169797  1
  Cd  Cd17  1  0.491152  0.169895  0.170128  1
  Cd  Cd18  1  0.169239  0.170287  0.169239  1
  Cd  Cd19  1  0.621190  0.619874  0.137510  1
  Cd  Cd20  1  0.620450  0.137597  0.620450  1
  Cd  Cd21  1  0.137510  0.619874  0.621190  1
  Cd  Cd22  1  0.621167  0.620597  0.621167  1
  Cd  Cd23  1  0.378810  0.380126  0.862490  1
  Cd  Cd24  1  0.379550  0.862403  0.379550  1
  Cd  Cd25  1  0.862490  0.380126  0.378810  1
  Cd  Cd26  1  0.378833  0.379403  0.378833  1
  Cd  Cd27  1  0.000000  0.000000  0.500000  1
  Cd  Cd28  1  0.500000  0.000000  0.000000  1
  As  As29  1  0.000000  0.000000  0.000000  1
