# generated using pymatgen
data_Y6BeSi11Pt8
_symmetry_space_group_name_H-M   'P 1'
_cell_length_a   4.27203500
_cell_length_b   8.64052093
_cell_length_c   12.87151000
_cell_angle_alpha   80.17620277
_cell_angle_beta   90.00000000
_cell_angle_gamma   90.00000000
_symmetry_Int_Tables_number   1
_chemical_formula_structural   Y6BeSi11Pt8
_chemical_formula_sum   'Y6 Be1 Si11 Pt8'
_cell_volume   468.15435814
_cell_formula_units_Z   1
loop_
 _symmetry_equiv_pos_site_id
 _symmetry_equiv_pos_as_xyz
  1  'x, y, z'
loop_
 _atom_site_type_symbol
 _atom_site_label
 _atom_site_symmetry_multiplicity
 _atom_site_fract_x
 _atom_site_fract_y
 _atom_site_fract_z
 _atom_site_occupancy
  Y  Y0  1  0.250000  0.762425  0.439922  1
  Y  Y1  1  0.250000  0.590873  0.184756  1
  Y  Y2  1  0.750000  0.238821  0.555616  1
  Y  Y3  1  0.750000  0.410430  0.814956  1
  Y  Y4  1  0.750000  0.932173  0.815612  1
  Y  Y5  1  0.250000  0.068863  0.185083  1
  Be  Be6  1  0.250000  0.409445  0.424048  1
  Si  Si7  1  0.750000  0.580014  0.564171  1
  Si  Si8  1  0.750000  0.131513  0.006882  1
  Si  Si9  1  0.750000  0.874544  0.569711  1
  Si  Si10  1  0.250000  0.696773  0.712526  1
  Si  Si11  1  0.750000  0.308187  0.295687  1
  Si  Si12  1  0.750000  0.805451  0.276437  1
  Si  Si13  1  0.250000  0.871933  0.993169  1
  Si  Si14  1  0.250000  0.192630  0.721955  1
  Si  Si15  1  0.250000  0.377521  0.004732  1
  Si  Si16  1  0.250000  0.130238  0.429178  1
  Si  Si17  1  0.750000  0.619387  0.999789  1
  Pt  Pt18  1  0.750000  0.352107  0.103985  1
  Pt  Pt19  1  0.250000  0.967632  0.624288  1
  Pt  Pt20  1  0.750000  0.852660  0.085180  1
  Pt  Pt21  1  0.750000  0.027952  0.376079  1
  Pt  Pt22  1  0.250000  0.644701  0.900694  1
  Pt  Pt23  1  0.250000  0.151061  0.913257  1
  Pt  Pt24  1  0.750000  0.535028  0.375901  1
  Pt  Pt25  1  0.250000  0.467634  0.626381  1
