# generated using pymatgen
data_NdGd5NbO12
_symmetry_space_group_name_H-M   'P 1'
_cell_length_a   6.60816196
_cell_length_b   6.58568653
_cell_length_c   6.59008195
_cell_angle_alpha   98.73021180
_cell_angle_beta   98.76623143
_cell_angle_gamma   98.58040483
_symmetry_Int_Tables_number   1
_chemical_formula_structural   NdGd5NbO12
_chemical_formula_sum   'Nd1 Gd5 Nb1 O12'
_cell_volume   275.76756600
_cell_formula_units_Z   1
loop_
 _symmetry_equiv_pos_site_id
 _symmetry_equiv_pos_as_xyz
  1  'x, y, z'
loop_
 _atom_site_type_symbol
 _atom_site_label
 _atom_site_symmetry_multiplicity
 _atom_site_fract_x
 _atom_site_fract_y
 _atom_site_fract_z
 _atom_site_occupancy
  Nd  Nd0  1  0.861380  0.388834  0.699920  1
  Gd  Gd1  1  0.608297  0.302154  0.139242  1
  Gd  Gd2  1  0.301947  0.139454  0.609633  1
  Gd  Gd3  1  0.697471  0.860207  0.388253  1
  Gd  Gd4  1  0.390966  0.698578  0.861425  1
  Gd  Gd5  1  0.139047  0.609966  0.301794  1
  Nb  Nb6  1  0.001753  0.000449  0.002063  1
  O  O7  1  0.928210  0.036281  0.697866  1
  O  O8  1  0.958661  0.301372  0.073170  1
  O  O9  1  0.583467  0.174032  0.432407  1
  O  O10  1  0.822764  0.564870  0.404282  1
  O  O11  1  0.300777  0.072746  0.958839  1
  O  O12  1  0.556866  0.410618  0.826882  1
  O  O13  1  0.434932  0.590593  0.178121  1
  O  O14  1  0.698950  0.927739  0.040495  1
  O  O15  1  0.184329  0.438266  0.585217  1
  O  O16  1  0.412442  0.823899  0.564717  1
  O  O17  1  0.046141  0.700437  0.932623  1
  O  O18  1  0.071600  0.959507  0.303051  1
