# generated using pymatgen
data_NdLuP7Ru12
_symmetry_space_group_name_H-M   'P 1'
_cell_length_a   9.43728200
_cell_length_b   9.43728154
_cell_length_c   3.95922300
_cell_angle_alpha   90.00000000
_cell_angle_beta   90.00000000
_cell_angle_gamma   119.99999460
_symmetry_Int_Tables_number   1
_chemical_formula_structural   NdLuP7Ru12
_chemical_formula_sum   'Nd1 Lu1 P7 Ru12'
_cell_volume   305.37569124
_cell_formula_units_Z   1
loop_
 _symmetry_equiv_pos_site_id
 _symmetry_equiv_pos_as_xyz
  1  'x, y, z'
loop_
 _atom_site_type_symbol
 _atom_site_label
 _atom_site_symmetry_multiplicity
 _atom_site_fract_x
 _atom_site_fract_y
 _atom_site_fract_z
 _atom_site_occupancy
  Nd  Nd0  1  0.333333  0.666667  0.000000  1
  Lu  Lu1  1  0.666667  0.333333  0.500000  1
  P  P2  1  0.604057  0.718775  0.500000  1
  P  P3  1  0.000000  0.000000  0.000000  1
  P  P4  1  0.281225  0.885282  0.500000  1
  P  P5  1  0.114718  0.395943  0.500000  1
  P  P6  1  0.885383  0.571829  0.000000  1
  P  P7  1  0.428171  0.313554  0.000000  1
  P  P8  1  0.686446  0.114617  0.000000  1
  Ru  Ru9  1  0.559666  0.955640  0.500000  1
  Ru  Ru10  1  0.395976  0.440334  0.500000  1
  Ru  Ru11  1  0.914808  0.120255  0.500000  1
  Ru  Ru12  1  0.205447  0.085192  0.500000  1
  Ru  Ru13  1  0.879745  0.794553  0.500000  1
  Ru  Ru14  1  0.728246  0.892539  0.000000  1
  Ru  Ru15  1  0.107461  0.835706  0.000000  1
  Ru  Ru16  1  0.164294  0.271754  0.000000  1
  Ru  Ru17  1  0.423521  0.069597  0.000000  1
  Ru  Ru18  1  0.930403  0.353927  0.000000  1
  Ru  Ru19  1  0.646073  0.576479  0.000000  1
  Ru  Ru20  1  0.044360  0.604024  0.500000  1
