# generated using pymatgen
data_ZrNp3I16
_symmetry_space_group_name_H-M   'P 1'
_cell_length_a   9.12487505
_cell_length_b   9.29051463
_cell_length_c   13.86035300
_cell_angle_alpha   72.63360935
_cell_angle_beta   71.26166321
_cell_angle_gamma   89.36303012
_symmetry_Int_Tables_number   1
_chemical_formula_structural   ZrNp3I16
_chemical_formula_sum   'Zr1 Np3 I16'
_cell_volume   1057.32350144
_cell_formula_units_Z   1
loop_
 _symmetry_equiv_pos_site_id
 _symmetry_equiv_pos_as_xyz
  1  'x, y, z'
loop_
 _atom_site_type_symbol
 _atom_site_label
 _atom_site_symmetry_multiplicity
 _atom_site_fract_x
 _atom_site_fract_y
 _atom_site_fract_z
 _atom_site_occupancy
  Zr  Zr0  1  0.203650  0.939993  0.375778  1
  Np  Np1  1  0.060099  0.804302  0.128839  1
  Np  Np2  1  0.806656  0.062796  0.619278  1
  Np  Np3  1  0.940356  0.192073  0.876246  1
  I  I4  1  0.050298  0.826397  0.608284  1
  I  I5  1  0.053635  0.280074  0.630353  1
  I  I6  1  0.719364  0.950571  0.864898  1
  I  I7  1  0.582796  0.831995  0.634478  1
  I  I8  1  0.170174  0.415130  0.862861  1
  I  I9  1  0.950839  0.729320  0.370498  1
  I  I10  1  0.700673  0.397872  0.892034  1
  I  I11  1  0.180597  0.953090  0.883509  1
  I  I12  1  0.403732  0.162080  0.368025  1
  I  I13  1  0.827670  0.583477  0.141728  1
  I  I14  1  0.392743  0.711313  0.384223  1
  I  I15  1  0.598708  0.299141  0.604929  1
  I  I16  1  0.953939  0.162732  0.377688  1
  I  I17  1  0.303803  0.601947  0.112554  1
  I  I18  1  0.822608  0.047708  0.120885  1
  I  I19  1  0.277662  0.047988  0.142909  1
