# generated using pymatgen
data_Ho5PuTaO12
_symmetry_space_group_name_H-M   'P 1'
_cell_length_a   6.44290291
_cell_length_b   6.47164299
_cell_length_c   6.50495400
_cell_angle_alpha   98.82404881
_cell_angle_beta   99.01630544
_cell_angle_gamma   98.52279647
_symmetry_Int_Tables_number   1
_chemical_formula_structural   Ho5PuTaO12
_chemical_formula_sum   'Ho5 Pu1 Ta1 O12'
_cell_volume   260.55449255
_cell_formula_units_Z   1
loop_
 _symmetry_equiv_pos_site_id
 _symmetry_equiv_pos_as_xyz
  1  'x, y, z'
loop_
 _atom_site_type_symbol
 _atom_site_label
 _atom_site_symmetry_multiplicity
 _atom_site_fract_x
 _atom_site_fract_y
 _atom_site_fract_z
 _atom_site_occupancy
  Ho  Ho0  1  0.393234  0.856652  0.690694  1
  Ho  Ho1  1  0.694762  0.391623  0.867448  1
  Ho  Ho2  1  0.309719  0.611322  0.141189  1
  Ho  Ho3  1  0.608564  0.137036  0.300617  1
  Ho  Ho4  1  0.856821  0.693946  0.384674  1
  Pu  Pu5  1  0.139043  0.305040  0.599551  1
  Ta  Ta6  1  0.001134  0.999123  0.994229  1
  O  O7  1  0.074297  0.303141  0.966830  1
  O  O8  1  0.043392  0.927238  0.695774  1
  O  O9  1  0.408554  0.565985  0.822945  1
  O  O10  1  0.178056  0.585430  0.433626  1
  O  O11  1  0.694490  0.042466  0.924506  1
  O  O12  1  0.428119  0.184646  0.585953  1
  O  O13  1  0.566168  0.825486  0.415163  1
  O  O14  1  0.303083  0.958386  0.076818  1
  O  O15  1  0.831531  0.409092  0.572571  1
  O  O16  1  0.591263  0.434735  0.181367  1
  O  O17  1  0.954594  0.071293  0.304456  1
  O  O18  1  0.923178  0.697360  0.041591  1
