# generated using pymatgen
data_Th10ZnSn6P
_symmetry_space_group_name_H-M   'P 1'
_cell_length_a   9.54351300
_cell_length_b   9.54351164
_cell_length_c   6.56573700
_cell_angle_alpha   90.00000000
_cell_angle_beta   90.00000000
_cell_angle_gamma   119.99999430
_symmetry_Int_Tables_number   1
_chemical_formula_structural   Th10ZnSn6P
_chemical_formula_sum   'Th10 Zn1 Sn6 P1'
_cell_volume   517.88176119
_cell_formula_units_Z   1
loop_
 _symmetry_equiv_pos_site_id
 _symmetry_equiv_pos_as_xyz
  1  'x, y, z'
loop_
 _atom_site_type_symbol
 _atom_site_label
 _atom_site_symmetry_multiplicity
 _atom_site_fract_x
 _atom_site_fract_y
 _atom_site_fract_z
 _atom_site_occupancy
  Th  Th0  1  0.666667  0.333333  0.000000  1
  Th  Th1  1  0.333333  0.666667  0.000000  1
  Th  Th2  1  0.333333  0.666667  0.500000  1
  Th  Th3  1  0.666667  0.333333  0.500000  1
  Th  Th4  1  0.739016  0.739016  0.738324  1
  Th  Th5  1  0.260984  0.000000  0.738324  1
  Th  Th6  1  0.000000  0.260984  0.738324  1
  Th  Th7  1  0.260984  0.260984  0.261676  1
  Th  Th8  1  0.739016  0.000000  0.261676  1
  Th  Th9  1  0.000000  0.739016  0.261676  1
  Zn  Zn10  1  0.000000  0.000000  0.000000  1
  Sn  Sn11  1  0.385083  0.385083  0.753743  1
  Sn  Sn12  1  0.614917  0.000000  0.753743  1
  Sn  Sn13  1  0.000000  0.614917  0.753743  1
  Sn  Sn14  1  0.614917  0.614917  0.246257  1
  Sn  Sn15  1  0.385083  0.000000  0.246257  1
  Sn  Sn16  1  0.000000  0.385083  0.246257  1
  P  P17  1  0.000000  0.000000  0.500000  1
