# generated using pymatgen
data_Lu3U(Si5Os3)2
_symmetry_space_group_name_H-M   'P 1'
_cell_length_a   8.08547669
_cell_length_b   8.07617043
_cell_length_c   5.75018035
_cell_angle_alpha   70.75392591
_cell_angle_beta   70.78394387
_cell_angle_gamma   94.00413900
_symmetry_Int_Tables_number   1
_chemical_formula_structural   Lu3U(Si5Os3)2
_chemical_formula_sum   'Lu3 U1 Si10 Os6'
_cell_volume   327.98390289
_cell_formula_units_Z   1
loop_
 _symmetry_equiv_pos_site_id
 _symmetry_equiv_pos_as_xyz
  1  'x, y, z'
loop_
 _atom_site_type_symbol
 _atom_site_label
 _atom_site_symmetry_multiplicity
 _atom_site_fract_x
 _atom_site_fract_y
 _atom_site_fract_z
 _atom_site_occupancy
  Lu  Lu0  1  0.870760  0.600466  0.752558  1
  Lu  Lu1  1  0.400485  0.134602  0.739724  1
  Lu  Lu2  1  0.133039  0.398454  0.243874  1
  U  U3  1  0.593848  0.870082  0.259875  1
  Si  Si4  1  0.068193  0.260153  0.835966  1
  Si  Si5  1  0.736049  0.934284  0.668023  1
  Si  Si6  1  0.932029  0.738575  0.163631  1
  Si  Si7  1  0.265217  0.065329  0.331961  1
  Si  Si8  1  0.207586  0.796946  0.740837  1
  Si  Si9  1  0.795889  0.206439  0.256858  1
  Si  Si10  1  0.515427  0.485967  0.750167  1
  Si  Si11  1  0.483970  0.510481  0.254134  1
  Si  Si12  1  0.774941  0.226575  0.743894  1
  Si  Si13  1  0.224135  0.776364  0.254884  1
  Os  Os14  1  0.255025  0.540200  0.634468  1
  Os  Os15  1  0.453333  0.746030  0.869284  1
  Os  Os16  1  0.744908  0.459805  0.363674  1
  Os  Os17  1  0.549012  0.252717  0.130461  1
  Os  Os18  1  0.001223  0.996868  0.751577  1
  Os  Os19  1  0.994932  0.999662  0.254148  1
