# generated using pymatgen
data_Li28Tm2Si7Ge
_symmetry_space_group_name_H-M   'P 1'
_cell_length_a   9.32450758
_cell_length_b   9.32517053
_cell_length_c   9.32450798
_cell_angle_alpha   109.64950201
_cell_angle_beta   109.66767818
_cell_angle_gamma   109.07945484
_symmetry_Int_Tables_number   1
_chemical_formula_structural   Li28Tm2Si7Ge
_chemical_formula_sum   'Li28 Tm2 Si7 Ge1'
_cell_volume   624.26195134
_cell_formula_units_Z   1
loop_
 _symmetry_equiv_pos_site_id
 _symmetry_equiv_pos_as_xyz
  1  'x, y, z'
loop_
 _atom_site_type_symbol
 _atom_site_label
 _atom_site_symmetry_multiplicity
 _atom_site_fract_x
 _atom_site_fract_y
 _atom_site_fract_z
 _atom_site_occupancy
  Li  Li0  1  0.068987  0.542016  0.278816  1
  Li  Li1  1  0.263651  0.791557  0.721410  1
  Li  Li2  1  0.179935  0.958458  0.972053  1
  Li  Li3  1  0.985074  0.206586  0.027152  1
  Li  Li4  1  0.041369  0.013764  0.221543  1
  Li  Li5  1  0.792268  0.819896  0.778441  1
  Li  Li6  1  0.458776  0.737210  0.529143  1
  Li  Li7  1  0.208523  0.930103  0.472094  1
  Li  Li8  1  0.724711  0.339970  0.063480  1
  Li  Li9  1  0.972129  0.409171  0.883795  1
  Li  Li10  1  0.276990  0.661887  0.935528  1
  Li  Li11  1  0.525117  0.088505  0.115408  1
  Li  Li12  1  0.694621  0.869916  0.092993  1
  Li  Li13  1  0.473773  0.881375  0.325636  1
  Li  Li14  1  0.555418  0.148497  0.675517  1
  Li  Li15  1  0.777211  0.601931  0.906867  1
  Li  Li16  1  0.851278  0.527021  0.406835  1
  Li  Li17  1  0.398905  0.304418  0.175428  1
  Li  Li18  1  0.129421  0.221757  0.823282  1
  Li  Li19  1  0.120021  0.444671  0.593137  1
  Li  Li20  1  0.911233  0.026818  0.436261  1
  Li  Li21  1  0.338827  0.275025  0.615478  1
  Li  Li22  1  0.590263  0.474927  0.563583  1
  Li  Li23  1  0.661276  0.724129  0.385298  1
  Li  Li24  1  0.003161  0.874886  0.627913  1
  Li  Li25  1  0.246950  0.374462  0.372876  1
  Li  Li26  1  0.124404  0.753620  0.127666  1
  Li  Li27  1  0.624765  0.997080  0.872243  1
  Tm  Tm28  1  0.500647  0.499700  0.999539  1
  Tm  Tm29  1  0.749964  0.250172  0.499988  1
  Si  Si30  1  0.372884  0.127818  0.837310  1
  Si  Si31  1  0.959374  0.621939  0.744660  1
  Si  Si32  1  0.876900  0.214413  0.255109  1
  Si  Si33  1  0.378041  0.122958  0.337551  1
  Si  Si34  1  0.785377  0.040638  0.662501  1
  Si  Si35  1  0.464607  0.627141  0.755323  1
  Si  Si36  1  0.872045  0.709442  0.244733  1
  Ge  Ge37  1  0.291102  0.536120  0.163415  1
