# generated using pymatgen
data_Pa3Al11Co3Cu
_symmetry_space_group_name_H-M   'P 1'
_cell_length_a   9.10470750
_cell_length_b   9.14615835
_cell_length_c   4.13538400
_cell_angle_alpha   90.00000000
_cell_angle_beta   90.00000000
_cell_angle_gamma   120.15072941
_symmetry_Int_Tables_number   1
_chemical_formula_structural   Pa3Al11Co3Cu
_chemical_formula_sum   'Pa3 Al11 Co3 Cu1'
_cell_volume   297.77590651
_cell_formula_units_Z   1
loop_
 _symmetry_equiv_pos_site_id
 _symmetry_equiv_pos_as_xyz
  1  'x, y, z'
loop_
 _atom_site_type_symbol
 _atom_site_label
 _atom_site_symmetry_multiplicity
 _atom_site_fract_x
 _atom_site_fract_y
 _atom_site_fract_z
 _atom_site_occupancy
  Pa  Pa0  1  0.000000  0.405968  0.000000  1
  Pa  Pa1  1  0.593882  0.594829  0.000000  1
  Pa  Pa2  1  0.406118  0.000947  0.000000  1
  Al  Al3  1  0.000000  0.736076  0.000000  1
  Al  Al4  1  0.245860  0.251949  0.000000  1
  Al  Al5  1  0.754140  0.006089  0.000000  1
  Al  Al6  1  0.835929  0.846179  0.500000  1
  Al  Al7  1  0.164071  0.010250  0.500000  1
  Al  Al8  1  0.291331  0.472730  0.500000  1
  Al  Al9  1  0.185571  0.704337  0.500000  1
  Al  Al10  1  0.519511  0.816580  0.500000  1
  Al  Al11  1  0.814429  0.518767  0.500000  1
  Al  Al12  1  0.708669  0.181400  0.500000  1
  Al  Al13  1  0.480489  0.297069  0.500000  1
  Co  Co14  1  0.664795  0.329700  0.000000  1
  Co  Co15  1  0.335205  0.664906  0.000000  1
  Co  Co16  1  0.000000  0.985366  0.000000  1
  Cu  Cu17  1  0.000000  0.176858  0.500000  1
