# generated using pymatgen
data_Dy2YTm2Sb3
_symmetry_space_group_name_H-M   'P 1'
_cell_length_a   6.25173700
_cell_length_b   8.95770895
_cell_length_c   8.95732000
_cell_angle_alpha   119.99740954
_cell_angle_beta   90.00000000
_cell_angle_gamma   90.00000000
_symmetry_Int_Tables_number   1
_chemical_formula_structural   Dy2YTm2Sb3
_chemical_formula_sum   'Dy4 Y2 Tm4 Sb6'
_cell_volume   434.42789541
_cell_formula_units_Z   2
loop_
 _symmetry_equiv_pos_site_id
 _symmetry_equiv_pos_as_xyz
  1  'x, y, z'
loop_
 _atom_site_type_symbol
 _atom_site_label
 _atom_site_symmetry_multiplicity
 _atom_site_fract_x
 _atom_site_fract_y
 _atom_site_fract_z
 _atom_site_occupancy
  Dy  Dy0  1  0.750001  0.000002  0.246815  1
  Dy  Dy1  1  0.249999  0.753286  0.000041  1
  Dy  Dy2  1  0.250001  0.246749  0.246793  1
  Dy  Dy3  1  0.250001  0.999997  0.753203  1
  Y  Y4  1  0.749999  0.246748  0.000016  1
  Y  Y5  1  0.750001  0.753215  0.753230  1
  Tm  Tm6  1  0.499940  0.333318  0.666659  1
  Tm  Tm7  1  0.499940  0.666678  0.333322  1
  Tm  Tm8  1  0.000058  0.666682  0.333322  1
  Tm  Tm9  1  0.000058  0.333322  0.666659  1
  Sb  Sb10  1  0.749999  0.610407  0.000021  1
  Sb  Sb11  1  0.750001  0.389596  0.389623  1
  Sb  Sb12  1  0.750001  0.999993  0.610342  1
  Sb  Sb13  1  0.249999  0.389616  0.999984  1
  Sb  Sb14  1  0.250001  0.610381  0.610357  1
  Sb  Sb15  1  0.250001  0.000007  0.389614  1
