# generated using pymatgen
data_Th4Hg2PdRh3
_symmetry_space_group_name_H-M   'P 1'
_cell_length_a   7.83761683
_cell_length_b   7.83761683
_cell_length_c   3.78716600
_cell_angle_alpha   90.00000000
_cell_angle_beta   90.00000000
_cell_angle_gamma   89.60388019
_symmetry_Int_Tables_number   1
_chemical_formula_structural   Th4Hg2PdRh3
_chemical_formula_sum   'Th4 Hg2 Pd1 Rh3'
_cell_volume   232.63337284
_cell_formula_units_Z   1
loop_
 _symmetry_equiv_pos_site_id
 _symmetry_equiv_pos_as_xyz
  1  'x, y, z'
loop_
 _atom_site_type_symbol
 _atom_site_label
 _atom_site_symmetry_multiplicity
 _atom_site_fract_x
 _atom_site_fract_y
 _atom_site_fract_z
 _atom_site_occupancy
  Th  Th0  1  0.319222  0.169424  0.500001  1
  Th  Th1  1  0.837239  0.337239  0.500001  1
  Th  Th2  1  0.174592  0.674592  0.500001  1
  Th  Th3  1  0.669424  0.819222  0.500001  1
  Hg  Hg4  1  0.996080  0.000007  0.000000  1
  Hg  Hg5  1  0.500007  0.496080  0.000000  1
  Pd  Pd6  1  0.630345  0.130347  0.000000  1
  Rh  Rh7  1  0.132643  0.369496  0.000000  1
  Rh  Rh8  1  0.869496  0.632641  0.000000  1
  Rh  Rh9  1  0.370953  0.870953  0.000000  1
