# generated using pymatgen
data_ErSc4Nb3Ru8
_symmetry_space_group_name_H-M   'P 1'
_cell_length_a   6.41559400
_cell_length_b   4.55582100
_cell_length_c   9.12990400
_cell_angle_alpha   89.99949745
_cell_angle_beta   90.00083755
_cell_angle_gamma   89.99854718
_symmetry_Int_Tables_number   1
_chemical_formula_structural   ErSc4Nb3Ru8
_chemical_formula_sum   'Er1 Sc4 Nb3 Ru8'
_cell_volume   266.85155360
_cell_formula_units_Z   1
loop_
 _symmetry_equiv_pos_site_id
 _symmetry_equiv_pos_as_xyz
  1  'x, y, z'
loop_
 _atom_site_type_symbol
 _atom_site_label
 _atom_site_symmetry_multiplicity
 _atom_site_fract_x
 _atom_site_fract_y
 _atom_site_fract_z
 _atom_site_occupancy
  Er  Er0  1  0.249952  0.249987  0.124939  1
  Sc  Sc1  1  0.750009  0.250003  0.125004  1
  Sc  Sc2  1  0.250049  0.750003  0.376680  1
  Sc  Sc3  1  0.749977  0.250001  0.625000  1
  Sc  Sc4  1  0.249961  0.749996  0.873357  1
  Nb  Nb5  1  0.750033  0.749995  0.374000  1
  Nb  Nb6  1  0.249981  0.250008  0.625021  1
  Nb  Nb7  1  0.749964  0.750006  0.876033  1
  Ru  Ru8  1  0.512826  0.750006  0.124964  1
  Ru  Ru9  1  0.987211  0.749980  0.124968  1
  Ru  Ru10  1  0.505884  0.250011  0.383623  1
  Ru  Ru11  1  0.994155  0.250011  0.383623  1
  Ru  Ru12  1  0.000548  0.750001  0.625036  1
  Ru  Ru13  1  0.499472  0.749991  0.625037  1
  Ru  Ru14  1  0.994031  0.250006  0.866360  1
  Ru  Ru15  1  0.505947  0.250004  0.866358  1
