# generated using pymatgen
data_Li4Dy4Sn3Bi
_symmetry_space_group_name_H-M   'P 1'
_cell_length_a   9.43743493
_cell_length_b   9.43958753
_cell_length_c   7.27079804
_cell_angle_alpha   89.99996790
_cell_angle_beta   90.10402076
_cell_angle_gamma   120.00763129
_symmetry_Int_Tables_number   1
_chemical_formula_structural   Li4Dy4Sn3Bi
_chemical_formula_sum   'Li8 Dy8 Sn6 Bi2'
_cell_volume   560.89987778
_cell_formula_units_Z   2
loop_
 _symmetry_equiv_pos_site_id
 _symmetry_equiv_pos_as_xyz
  1  'x, y, z'
loop_
 _atom_site_type_symbol
 _atom_site_label
 _atom_site_symmetry_multiplicity
 _atom_site_fract_x
 _atom_site_fract_y
 _atom_site_fract_z
 _atom_site_occupancy
  Li  Li0  1  0.167876  0.334187  0.284142  1
  Li  Li1  1  0.167875  0.833689  0.284142  1
  Li  Li2  1  0.664872  0.832436  0.287100  1
  Li  Li3  1  0.829040  0.664347  0.788074  1
  Li  Li4  1  0.829040  0.164694  0.788075  1
  Li  Li5  1  0.337897  0.168949  0.791455  1
  Li  Li6  1  0.337979  0.668989  0.667513  1
  Li  Li7  1  0.665542  0.332770  0.171473  1
  Dy  Dy8  1  0.517223  0.027110  0.490471  1
  Dy  Dy9  1  0.517224  0.490113  0.490471  1
  Dy  Dy10  1  0.971327  0.485664  0.488347  1
  Dy  Dy11  1  0.492749  0.977846  0.997450  1
  Dy  Dy12  1  0.492749  0.514904  0.997449  1
  Dy  Dy13  1  0.018204  0.509102  0.000224  1
  Dy  Dy14  1  0.994738  0.997369  0.494346  1
  Dy  Dy15  1  0.995529  0.997764  0.005617  1
  Sn  Sn16  1  0.666728  0.833364  0.732021  1
  Sn  Sn17  1  0.833958  0.666653  0.232133  1
  Sn  Sn18  1  0.833958  0.167305  0.232134  1
  Sn  Sn19  1  0.333380  0.166690  0.231560  1
  Sn  Sn20  1  0.332195  0.666098  0.260058  1
  Sn  Sn21  1  0.667468  0.333734  0.761154  1
  Bi  Bi22  1  0.166224  0.333566  0.733293  1
  Bi  Bi23  1  0.166224  0.832658  0.733293  1
