# generated using pymatgen
data_Mn4Al2HgO12
_symmetry_space_group_name_H-M   'P 1'
_cell_length_a   8.10292747
_cell_length_b   8.10292574
_cell_length_c   9.58297398
_cell_angle_alpha   54.41708829
_cell_angle_beta   54.41708979
_cell_angle_gamma   65.54029724
_symmetry_Int_Tables_number   1
_chemical_formula_structural   Mn4Al2HgO12
_chemical_formula_sum   'Mn8 Al4 Hg2 O24'
_cell_volume   413.44014317
_cell_formula_units_Z   2
loop_
 _symmetry_equiv_pos_site_id
 _symmetry_equiv_pos_as_xyz
  1  'x, y, z'
loop_
 _atom_site_type_symbol
 _atom_site_label
 _atom_site_symmetry_multiplicity
 _atom_site_fract_x
 _atom_site_fract_y
 _atom_site_fract_z
 _atom_site_occupancy
  Mn  Mn0  1  0.670599  0.000883  0.815426  1
  Mn  Mn1  1  0.188383  0.518315  0.479057  1
  Mn  Mn2  1  0.811617  0.481685  0.520943  1
  Mn  Mn3  1  0.329401  0.999117  0.184574  1
  Mn  Mn4  1  0.999117  0.329401  0.184574  1
  Mn  Mn5  1  0.000883  0.670599  0.815426  1
  Mn  Mn6  1  0.518315  0.188383  0.479057  1
  Mn  Mn7  1  0.481685  0.811617  0.520943  1
  Al  Al8  1  0.854476  0.854476  0.477490  1
  Al  Al9  1  0.336085  0.336085  0.815486  1
  Al  Al10  1  0.145524  0.145524  0.522510  1
  Al  Al11  1  0.663915  0.663915  0.184514  1
  Hg  Hg12  1  0.199446  0.800554  0.000000  1
  Hg  Hg13  1  0.800554  0.199446  0.000000  1
  O  O14  1  0.707631  0.707631  0.946742  1
  O  O15  1  0.016731  0.677328  0.345261  1
  O  O16  1  0.677328  0.016731  0.345261  1
  O  O17  1  0.683547  0.010006  0.608704  1
  O  O18  1  0.010006  0.683547  0.608704  1
  O  O19  1  0.041876  0.041876  0.279740  1
  O  O20  1  0.708288  0.381380  0.280341  1
  O  O21  1  0.381380  0.708288  0.280341  1
  O  O22  1  0.989994  0.316453  0.391296  1
  O  O23  1  0.983269  0.322672  0.654739  1
  O  O24  1  0.030263  0.368808  0.946331  1
  O  O25  1  0.368808  0.030263  0.946331  1
  O  O26  1  0.292369  0.292369  0.053258  1
  O  O27  1  0.969737  0.631192  0.053669  1
  O  O28  1  0.337885  0.337885  0.363350  1
  O  O29  1  0.343862  0.343862  0.615627  1
  O  O30  1  0.291712  0.618620  0.719659  1
  O  O31  1  0.618620  0.291712  0.719659  1
  O  O32  1  0.958124  0.958124  0.720260  1
  O  O33  1  0.656138  0.656138  0.384373  1
  O  O34  1  0.316453  0.989994  0.391296  1
  O  O35  1  0.662115  0.662115  0.636650  1
  O  O36  1  0.322672  0.983269  0.654739  1
  O  O37  1  0.631192  0.969737  0.053669  1
