# generated using pymatgen
data_Ho5Tm3ZnIn3
_symmetry_space_group_name_H-M   'P 1'
_cell_length_a   10.59533200
_cell_length_b   10.59533142
_cell_length_c   6.70287200
_cell_angle_alpha   90.00000000
_cell_angle_beta   90.00000000
_cell_angle_gamma   120.00000182
_symmetry_Int_Tables_number   1
_chemical_formula_structural   Ho5Tm3ZnIn3
_chemical_formula_sum   'Ho10 Tm6 Zn2 In6'
_cell_volume   651.65940155
_cell_formula_units_Z   2
loop_
 _symmetry_equiv_pos_site_id
 _symmetry_equiv_pos_as_xyz
  1  'x, y, z'
loop_
 _atom_site_type_symbol
 _atom_site_label
 _atom_site_symmetry_multiplicity
 _atom_site_fract_x
 _atom_site_fract_y
 _atom_site_fract_z
 _atom_site_occupancy
  Ho  Ho0  1  0.173238  0.346476  0.743046  1
  Ho  Ho1  1  0.653524  0.826762  0.743046  1
  Ho  Ho2  1  0.173238  0.826762  0.743046  1
  Ho  Ho3  1  0.826762  0.653524  0.243046  1
  Ho  Ho4  1  0.346476  0.173238  0.243046  1
  Ho  Ho5  1  0.826762  0.173238  0.243046  1
  Ho  Ho6  1  0.666667  0.333333  0.874702  1
  Ho  Ho7  1  0.333333  0.666667  0.374702  1
  Ho  Ho8  1  0.000000  0.000000  0.507302  1
  Ho  Ho9  1  0.000000  0.000000  0.007302  1
  Tm  Tm10  1  0.520620  0.041241  0.526599  1
  Tm  Tm11  1  0.958759  0.479380  0.526599  1
  Tm  Tm12  1  0.520620  0.479380  0.526599  1
  Tm  Tm13  1  0.479380  0.958759  0.026599  1
  Tm  Tm14  1  0.041241  0.520620  0.026599  1
  Tm  Tm15  1  0.479380  0.520620  0.026599  1
  Zn  Zn16  1  0.666667  0.333333  0.313894  1
  Zn  Zn17  1  0.333333  0.666667  0.813894  1
  In  In18  1  0.835485  0.670970  0.757668  1
  In  In19  1  0.329030  0.164515  0.757668  1
  In  In20  1  0.835485  0.164515  0.757668  1
  In  In21  1  0.164515  0.329030  0.257668  1
  In  In22  1  0.670970  0.835485  0.257668  1
  In  In23  1  0.164515  0.835485  0.257668  1
