# generated using pymatgen
data_Tb3Y2Zr3(As3Pd4)4
_symmetry_space_group_name_H-M   'P 1'
_cell_length_a   13.56759707
_cell_length_b   13.56759716
_cell_length_c   4.10341500
_cell_angle_alpha   90.00000000
_cell_angle_beta   90.00000000
_cell_angle_gamma   119.98833401
_symmetry_Int_Tables_number   1
_chemical_formula_structural   Tb3Y2Zr3(As3Pd4)4
_chemical_formula_sum   'Tb3 Y2 Zr3 As12 Pd16'
_cell_volume   654.23382244
_cell_formula_units_Z   1
loop_
 _symmetry_equiv_pos_site_id
 _symmetry_equiv_pos_as_xyz
  1  'x, y, z'
loop_
 _atom_site_type_symbol
 _atom_site_label
 _atom_site_symmetry_multiplicity
 _atom_site_fract_x
 _atom_site_fract_y
 _atom_site_fract_z
 _atom_site_occupancy
  Tb  Tb0  1  0.189406  0.189406  0.500000  1
  Tb  Tb1  1  0.333340  0.666662  0.000000  1
  Tb  Tb2  1  0.666662  0.333340  0.000000  1
  Y  Y3  1  0.810581  0.000022  0.500000  1
  Y  Y4  1  0.000022  0.810581  0.500000  1
  Zr  Zr5  1  0.556411  0.556411  0.000000  1
  Zr  Zr6  1  0.443596  0.000005  0.000000  1
  Zr  Zr7  1  0.000005  0.443596  0.000000  1
  As  As8  1  0.826057  0.826057  0.000000  1
  As  As9  1  0.173936  0.999959  0.000000  1
  As  As10  1  0.999959  0.173936  0.000000  1
  As  As11  1  0.166909  0.483364  0.500000  1
  As  As12  1  0.516632  0.683556  0.500000  1
  As  As13  1  0.316436  0.833077  0.500000  1
  As  As14  1  0.683556  0.516632  0.500000  1
  As  As15  1  0.833077  0.316436  0.500000  1
  As  As16  1  0.483364  0.166909  0.500000  1
  As  As17  1  0.358324  0.358324  0.000000  1
  As  As18  1  0.641774  0.000024  0.000000  1
  As  As19  1  0.000024  0.641774  0.000000  1
  Pd  Pd20  1  0.721961  0.721961  0.500000  1
  Pd  Pd21  1  0.278072  0.000030  0.500000  1
  Pd  Pd22  1  0.000030  0.278072  0.500000  1
  Pd  Pd23  1  0.181587  0.372500  0.000000  1
  Pd  Pd24  1  0.627542  0.809168  0.000000  1
  Pd  Pd25  1  0.190843  0.818365  0.000000  1
  Pd  Pd26  1  0.809168  0.627542  0.000000  1
  Pd  Pd27  1  0.818365  0.190843  0.000000  1
  Pd  Pd28  1  0.372500  0.181587  0.000000  1
  Pd  Pd29  1  0.356969  0.485456  0.500000  1
  Pd  Pd30  1  0.514483  0.871474  0.500000  1
  Pd  Pd31  1  0.128520  0.643016  0.500000  1
  Pd  Pd32  1  0.871474  0.514483  0.500000  1
  Pd  Pd33  1  0.643016  0.128520  0.500000  1
  Pd  Pd34  1  0.485456  0.356969  0.500000  1
  Pd  Pd35  1  0.999944  0.999944  0.000000  1
