# generated using pymatgen
data_Tb3HoGe3Sb3Rh7
_symmetry_space_group_name_H-M   'P 1'
_cell_length_a   7.49244334
_cell_length_b   7.43961994
_cell_length_c   7.43962051
_cell_angle_alpha   109.32694409
_cell_angle_beta   109.61510991
_cell_angle_gamma   109.61512335
_symmetry_Int_Tables_number   1
_chemical_formula_structural   Tb3HoGe3Sb3Rh7
_chemical_formula_sum   'Tb3 Ho1 Ge3 Sb3 Rh7'
_cell_volume   318.66089012
_cell_formula_units_Z   1
loop_
 _symmetry_equiv_pos_site_id
 _symmetry_equiv_pos_as_xyz
  1  'x, y, z'
loop_
 _atom_site_type_symbol
 _atom_site_label
 _atom_site_symmetry_multiplicity
 _atom_site_fract_x
 _atom_site_fract_y
 _atom_site_fract_z
 _atom_site_occupancy
  Tb  Tb0  1  0.988407  0.480698  0.000000  1
  Tb  Tb1  1  0.988407  0.000000  0.480698  1
  Tb  Tb2  1  0.507708  0.519302  0.519302  1
  Ho  Ho3  1  0.543068  0.000000  0.000000  1
  Ge  Ge4  1  0.005265  0.332855  0.332855  1
  Ge  Ge5  1  0.672410  0.000000  0.667145  1
  Ge  Ge6  1  0.672410  0.667145  0.000000  1
  Sb  Sb7  1  0.008788  0.694718  0.694718  1
  Sb  Sb8  1  0.314070  0.000000  0.305282  1
  Sb  Sb9  1  0.314070  0.305282  0.000000  1
  Rh  Rh10  1  0.963857  0.000000  0.000000  1
  Rh  Rh11  1  0.503414  0.750189  0.249283  1
  Rh  Rh12  1  0.753225  0.499094  0.249811  1
  Rh  Rh13  1  0.254131  0.750717  0.500906  1
  Rh  Rh14  1  0.254131  0.500906  0.750717  1
  Rh  Rh15  1  0.503414  0.249283  0.750189  1
  Rh  Rh16  1  0.753225  0.249811  0.499094  1
