# generated using pymatgen
data_PrNdGd2(TeO6)2
_symmetry_space_group_name_H-M   'P 1'
_cell_length_a   5.46713300
_cell_length_b   9.35832466
_cell_length_c   10.23382672
_cell_angle_alpha   89.95708168
_cell_angle_beta   90.00000000
_cell_angle_gamma   90.00000000
_symmetry_Int_Tables_number   1
_chemical_formula_structural   PrNdGd2(TeO6)2
_chemical_formula_sum   'Pr2 Nd2 Gd4 Te4 O24'
_cell_volume   523.59523307
_cell_formula_units_Z   2
loop_
 _symmetry_equiv_pos_site_id
 _symmetry_equiv_pos_as_xyz
  1  'x, y, z'
loop_
 _atom_site_type_symbol
 _atom_site_label
 _atom_site_symmetry_multiplicity
 _atom_site_fract_x
 _atom_site_fract_y
 _atom_site_fract_z
 _atom_site_occupancy
  Pr  Pr0  1  0.033031  0.218312  0.861238  1
  Pr  Pr1  1  0.533031  0.281688  0.138762  1
  Nd  Nd2  1  0.965956  0.718178  0.638307  1
  Nd  Nd3  1  0.465956  0.781822  0.361693  1
  Gd  Gd4  1  0.023912  0.103796  0.458157  1
  Gd  Gd5  1  0.523912  0.396204  0.541843  1
  Gd  Gd6  1  0.976226  0.604130  0.041933  1
  Gd  Gd7  1  0.476226  0.895870  0.958067  1
  Te  Te8  1  0.539662  0.006572  0.643680  1
  Te  Te9  1  0.039662  0.493428  0.356320  1
  Te  Te10  1  0.460335  0.507583  0.855779  1
  Te  Te11  1  0.960335  0.992417  0.144221  1
  O  O12  1  0.251866  0.419969  0.993176  1
  O  O13  1  0.751866  0.080031  0.006824  1
  O  O14  1  0.747488  0.918759  0.506244  1
  O  O15  1  0.247488  0.581241  0.493756  1
  O  O16  1  0.221494  0.110080  0.064792  1
  O  O17  1  0.721494  0.389920  0.935208  1
  O  O18  1  0.777691  0.611129  0.435503  1
  O  O19  1  0.277691  0.888871  0.564497  1
  O  O20  1  0.309908  0.359607  0.327673  1
  O  O21  1  0.809908  0.140393  0.672327  1
  O  O22  1  0.689179  0.859074  0.173487  1
  O  O23  1  0.189179  0.640926  0.826513  1
  O  O24  1  0.165482  0.948560  0.292450  1
  O  O25  1  0.665482  0.551440  0.707550  1
  O  O26  1  0.836203  0.449412  0.207880  1
  O  O27  1  0.336203  0.050588  0.792120  1
  O  O28  1  0.179749  0.636136  0.241528  1
  O  O29  1  0.679749  0.863864  0.758472  1
  O  O30  1  0.822137  0.135383  0.258993  1
  O  O31  1  0.322137  0.364617  0.741007  1
  O  O32  1  0.087668  0.844144  0.028835  1
  O  O33  1  0.587668  0.655856  0.971165  1
  O  O34  1  0.912011  0.344391  0.471179  1
  O  O35  1  0.412011  0.155609  0.528821  1
