# generated using pymatgen
data_CsYTe3O8
_symmetry_space_group_name_H-M   'P 1'
_cell_length_a   6.13223769
_cell_length_b   7.99203440
_cell_length_c   11.77899279
_cell_angle_alpha   100.78758348
_cell_angle_beta   89.35135427
_cell_angle_gamma   109.65107945
_symmetry_Int_Tables_number   1
_chemical_formula_structural   CsYTe3O8
_chemical_formula_sum   'Cs2 Y2 Te6 O16'
_cell_volume   533.21586321
_cell_formula_units_Z   2
loop_
 _symmetry_equiv_pos_site_id
 _symmetry_equiv_pos_as_xyz
  1  'x, y, z'
loop_
 _atom_site_type_symbol
 _atom_site_label
 _atom_site_symmetry_multiplicity
 _atom_site_fract_x
 _atom_site_fract_y
 _atom_site_fract_z
 _atom_site_occupancy
  Cs  Cs0  1  0.820828  0.112267  0.165224  1
  Cs  Cs1  1  0.179172  0.887733  0.834776  1
  Y  Y2  1  0.500000  0.500000  0.000000  1
  Y  Y3  1  0.000000  0.500000  0.500000  1
  Te  Te4  1  0.211508  0.991246  0.421423  1
  Te  Te5  1  0.788492  0.008754  0.578577  1
  Te  Te6  1  0.081815  0.685618  0.154956  1
  Te  Te7  1  0.918185  0.314382  0.845044  1
  Te  Te8  1  0.509219  0.520138  0.333978  1
  Te  Te9  1  0.490781  0.479862  0.666022  1
  O  O10  1  0.181587  0.750575  0.426466  1
  O  O11  1  0.818413  0.249425  0.573534  1
  O  O12  1  0.226634  0.931894  0.238651  1
  O  O13  1  0.773366  0.068106  0.761349  1
  O  O14  1  0.888999  0.961705  0.399831  1
  O  O15  1  0.111001  0.038295  0.600169  1
  O  O16  1  0.291941  0.695509  0.036593  1
  O  O17  1  0.708059  0.304491  0.963407  1
  O  O18  1  0.841981  0.723367  0.076225  1
  O  O19  1  0.158019  0.276633  0.923775  1
  O  O20  1  0.411073  0.430634  0.175896  1
  O  O21  1  0.588927  0.569366  0.824104  1
  O  O22  1  0.248076  0.371895  0.400673  1
  O  O23  1  0.751924  0.628105  0.599327  1
  O  O24  1  0.724489  0.401555  0.347844  1
  O  O25  1  0.275511  0.598445  0.652156  1
