# generated using pymatgen
data_Y2Mn2Ni10P7
_symmetry_space_group_name_H-M   'P 1'
_cell_length_a   3.68921700
_cell_length_b   9.10196647
_cell_length_c   9.09664760
_cell_angle_alpha   119.95966492
_cell_angle_beta   90.00000000
_cell_angle_gamma   90.00000000
_symmetry_Int_Tables_number   1
_chemical_formula_structural   Y2Mn2Ni10P7
_chemical_formula_sum   'Y2 Mn2 Ni10 P7'
_cell_volume   264.64141354
_cell_formula_units_Z   1
loop_
 _symmetry_equiv_pos_site_id
 _symmetry_equiv_pos_as_xyz
  1  'x, y, z'
loop_
 _atom_site_type_symbol
 _atom_site_label
 _atom_site_symmetry_multiplicity
 _atom_site_fract_x
 _atom_site_fract_y
 _atom_site_fract_z
 _atom_site_occupancy
  Y  Y0  1  0.000000  0.667334  0.335072  1
  Y  Y1  1  0.500000  0.333546  0.666499  1
  Mn  Mn2  1  0.500000  0.785030  0.904262  1
  Mn  Mn3  1  0.500000  0.120109  0.215460  1
  Ni  Ni4  1  0.000000  0.565811  0.939053  1
  Ni  Ni5  1  0.000000  0.371589  0.432292  1
  Ni  Ni6  1  0.000000  0.062399  0.627667  1
  Ni  Ni7  1  0.500000  0.097210  0.876080  1
  Ni  Ni8  1  0.000000  0.874699  0.155414  1
  Ni  Ni9  1  0.000000  0.276686  0.121052  1
  Ni  Ni10  1  0.000000  0.848691  0.724735  1
  Ni  Ni11  1  0.500000  0.948847  0.383437  1
  Ni  Ni12  1  0.500000  0.431456  0.048770  1
  Ni  Ni13  1  0.500000  0.616681  0.566427  1
  P  P14  1  0.000000  0.999964  0.001560  1
  P  P15  1  0.500000  0.706932  0.112515  1
  P  P16  1  0.500000  0.405128  0.293441  1
  P  P17  1  0.500000  0.888868  0.597469  1
  P  P18  1  0.000000  0.593255  0.704832  1
  P  P19  1  0.000000  0.112215  0.407502  1
  P  P20  1  0.000000  0.293547  0.886463  1
