# generated using pymatgen
data_InSbPd3Pt2
_symmetry_space_group_name_H-M   'P 1'
_cell_length_a   4.14492200
_cell_length_b   4.07807300
_cell_length_c   7.39819300
_cell_angle_alpha   90.00000000
_cell_angle_beta   90.00000000
_cell_angle_gamma   90.00000000
_symmetry_Int_Tables_number   1
_chemical_formula_structural   InSbPd3Pt2
_chemical_formula_sum   'In1 Sb1 Pd3 Pt2'
_cell_volume   125.05383501
_cell_formula_units_Z   1
loop_
 _symmetry_equiv_pos_site_id
 _symmetry_equiv_pos_as_xyz
  1  'x, y, z'
loop_
 _atom_site_type_symbol
 _atom_site_label
 _atom_site_symmetry_multiplicity
 _atom_site_fract_x
 _atom_site_fract_y
 _atom_site_fract_z
 _atom_site_occupancy
  In  In0  1  0.000000  0.000000  0.999476  1
  Sb  Sb1  1  0.500000  0.500000  0.499971  1
  Pd  Pd2  1  0.000000  0.500000  0.271233  1
  Pd  Pd3  1  0.500000  0.000000  0.731635  1
  Pd  Pd4  1  0.000000  0.500000  0.729983  1
  Pt  Pt5  1  0.500000  0.500000  0.999840  1
  Pt  Pt6  1  0.500000  0.000000  0.267864  1
