# generated using pymatgen
data_TbPa(NbN3)2
_symmetry_space_group_name_H-M   'P 1'
_cell_length_a   5.52791100
_cell_length_b   5.74351900
_cell_length_c   7.96196100
_cell_angle_alpha   90.00000000
_cell_angle_beta   90.00000000
_cell_angle_gamma   90.00000000
_symmetry_Int_Tables_number   1
_chemical_formula_structural   TbPa(NbN3)2
_chemical_formula_sum   'Tb2 Pa2 Nb4 N12'
_cell_volume   252.78956948
_cell_formula_units_Z   2
loop_
 _symmetry_equiv_pos_site_id
 _symmetry_equiv_pos_as_xyz
  1  'x, y, z'
loop_
 _atom_site_type_symbol
 _atom_site_label
 _atom_site_symmetry_multiplicity
 _atom_site_fract_x
 _atom_site_fract_y
 _atom_site_fract_z
 _atom_site_occupancy
  Tb  Tb0  1  0.511069  0.552483  0.750000  1
  Tb  Tb1  1  0.988931  0.052483  0.750000  1
  Pa  Pa2  1  0.485920  0.431593  0.250000  1
  Pa  Pa3  1  0.014080  0.931593  0.250000  1
  Nb  Nb4  1  0.506686  0.987171  0.505759  1
  Nb  Nb5  1  0.993314  0.487171  0.994241  1
  Nb  Nb6  1  0.993314  0.487171  0.505759  1
  Nb  Nb7  1  0.506686  0.987171  0.994241  1
  N  N8  1  0.690255  0.310687  0.546891  1
  N  N9  1  0.305088  0.700513  0.072318  1
  N  N10  1  0.194912  0.200513  0.072318  1
  N  N11  1  0.395865  0.965882  0.750000  1
  N  N12  1  0.874058  0.553299  0.250000  1
  N  N13  1  0.305088  0.700513  0.427682  1
  N  N14  1  0.809745  0.810687  0.953109  1
  N  N15  1  0.690255  0.310687  0.953109  1
  N  N16  1  0.809745  0.810687  0.546891  1
  N  N17  1  0.104135  0.465882  0.750000  1
  N  N18  1  0.194912  0.200513  0.427682  1
  N  N19  1  0.625942  0.053299  0.250000  1
