# generated using pymatgen
data_Sm3Dy9Si11Ge
_symmetry_space_group_name_H-M   'P 1'
_cell_length_a   3.85837400
_cell_length_b   5.70776163
_cell_length_c   24.03763600
_cell_angle_alpha   82.52480912
_cell_angle_beta   90.00000000
_cell_angle_gamma   90.00000000
_symmetry_Int_Tables_number   1
_chemical_formula_structural   Sm3Dy9Si11Ge
_chemical_formula_sum   'Sm3 Dy9 Si11 Ge1'
_cell_volume   524.87415266
_cell_formula_units_Z   1
loop_
 _symmetry_equiv_pos_site_id
 _symmetry_equiv_pos_as_xyz
  1  'x, y, z'
loop_
 _atom_site_type_symbol
 _atom_site_label
 _atom_site_symmetry_multiplicity
 _atom_site_fract_x
 _atom_site_fract_y
 _atom_site_fract_z
 _atom_site_occupancy
  Sm  Sm0  1  0.500000  0.081760  0.059658  1
  Sm  Sm1  1  0.500000  0.081843  0.560524  1
  Sm  Sm2  1  0.000000  0.922167  0.438775  1
  Dy  Dy3  1  0.000000  0.916841  0.938988  1
  Dy  Dy4  1  0.500000  0.447583  0.392772  1
  Dy  Dy5  1  0.500000  0.441112  0.893063  1
  Dy  Dy6  1  0.000000  0.556810  0.105807  1
  Dy  Dy7  1  0.000000  0.557602  0.607158  1
  Dy  Dy8  1  0.500000  0.255887  0.225897  1
  Dy  Dy9  1  0.500000  0.250730  0.729107  1
  Dy  Dy10  1  0.000000  0.748719  0.272750  1
  Dy  Dy11  1  0.000000  0.740639  0.775105  1
  Si  Si12  1  0.500000  0.620439  0.011079  1
  Si  Si13  1  0.500000  0.620632  0.512849  1
  Si  Si14  1  0.000000  0.384674  0.487333  1
  Si  Si15  1  0.000000  0.381787  0.985848  1
  Si  Si16  1  0.500000  0.768728  0.179249  1
  Si  Si17  1  0.500000  0.756326  0.682080  1
  Si  Si18  1  0.000000  0.235664  0.319469  1
  Si  Si19  1  0.000000  0.226642  0.821590  1
  Si  Si20  1  0.500000  0.964225  0.343827  1
  Si  Si21  1  0.500000  0.954691  0.846350  1
  Si  Si22  1  0.000000  0.040440  0.154706  1
  Ge  Ge23  1  0.000000  0.044057  0.656013  1
