# generated using pymatgen
data_Tm8Si8Pt5Au3
_symmetry_space_group_name_H-M   'P 1'
_cell_length_a   4.29856900
_cell_length_b   7.49036693
_cell_length_c   14.08448100
_cell_angle_alpha   89.94130720
_cell_angle_beta   90.00000000
_cell_angle_gamma   90.00000000
_symmetry_Int_Tables_number   1
_chemical_formula_structural   Tm8Si8Pt5Au3
_chemical_formula_sum   'Tm8 Si8 Pt5 Au3'
_cell_volume   453.48989657
_cell_formula_units_Z   1
loop_
 _symmetry_equiv_pos_site_id
 _symmetry_equiv_pos_as_xyz
  1  'x, y, z'
loop_
 _atom_site_type_symbol
 _atom_site_label
 _atom_site_symmetry_multiplicity
 _atom_site_fract_x
 _atom_site_fract_y
 _atom_site_fract_z
 _atom_site_occupancy
  Tm  Tm0  1  0.000000  0.298715  0.002444  1
  Tm  Tm1  1  0.500000  0.705395  0.499482  1
  Tm  Tm2  1  0.000000  0.289728  0.497909  1
  Tm  Tm3  1  0.500000  0.706895  0.003601  1
  Tm  Tm4  1  0.000000  0.203649  0.247342  1
  Tm  Tm5  1  0.500000  0.795493  0.246673  1
  Tm  Tm6  1  0.000000  0.202822  0.748747  1
  Tm  Tm7  1  0.500000  0.798742  0.752591  1
  Si  Si8  1  0.000000  0.914540  0.591139  1
  Si  Si9  1  0.500000  0.084840  0.910638  1
  Si  Si10  1  0.000000  0.916631  0.408125  1
  Si  Si11  1  0.500000  0.092201  0.093931  1
  Si  Si12  1  0.000000  0.591263  0.145256  1
  Si  Si13  1  0.500000  0.399091  0.349184  1
  Si  Si14  1  0.000000  0.604327  0.858803  1
  Si  Si15  1  0.500000  0.396972  0.639556  1
  Pt  Pt16  1  0.500000  0.070099  0.609195  1
  Pt  Pt17  1  0.000000  0.930195  0.891465  1
  Pt  Pt18  1  0.500000  0.072241  0.390303  1
  Pt  Pt19  1  0.000000  0.924406  0.109377  1
  Pt  Pt20  1  0.500000  0.416330  0.154203  1
  Au  Au21  1  0.000000  0.584800  0.349396  1
  Au  Au22  1  0.500000  0.416814  0.845912  1
  Au  Au23  1  0.000000  0.583807  0.654726  1
