# generated using pymatgen
data_DyErLu2(Ga2Ag)4
_symmetry_space_group_name_H-M   'P 1'
_cell_length_a   4.35449000
_cell_length_b   6.89937831
_cell_length_c   10.21362053
_cell_angle_alpha   90.07438144
_cell_angle_beta   90.00000000
_cell_angle_gamma   90.00000000
_symmetry_Int_Tables_number   1
_chemical_formula_structural   DyErLu2(Ga2Ag)4
_chemical_formula_sum   'Dy1 Er1 Lu2 Ga8 Ag4'
_cell_volume   306.85034009
_cell_formula_units_Z   1
loop_
 _symmetry_equiv_pos_site_id
 _symmetry_equiv_pos_as_xyz
  1  'x, y, z'
loop_
 _atom_site_type_symbol
 _atom_site_label
 _atom_site_symmetry_multiplicity
 _atom_site_fract_x
 _atom_site_fract_y
 _atom_site_fract_z
 _atom_site_occupancy
  Dy  Dy0  1  0.250000  0.277856  0.677700  1
  Er  Er1  1  0.750000  0.222300  0.177658  1
  Lu  Lu2  1  0.250000  0.775875  0.823838  1
  Lu  Lu3  1  0.750000  0.724017  0.323445  1
  Ga  Ga4  1  0.250000  0.701912  0.535200  1
  Ga  Ga5  1  0.750000  0.304266  0.464843  1
  Ga  Ga6  1  0.750000  0.799361  0.035556  1
  Ga  Ga7  1  0.250000  0.194794  0.966130  1
  Ga  Ga8  1  0.250000  0.928552  0.156999  1
  Ga  Ga9  1  0.750000  0.065239  0.844018  1
  Ga  Ga10  1  0.750000  0.572320  0.656638  1
  Ga  Ga11  1  0.250000  0.434401  0.343587  1
  Ag  Ag12  1  0.250000  0.545917  0.092905  1
  Ag  Ag13  1  0.750000  0.452002  0.905053  1
  Ag  Ag14  1  0.750000  0.953539  0.592590  1
  Ag  Ag15  1  0.250000  0.047648  0.403843  1
