# generated using pymatgen
data_TbDyTa3Ge3P4Rh9
_symmetry_space_group_name_H-M   'P 1'
_cell_length_a   3.88590901
_cell_length_b   9.86966494
_cell_length_c   9.86969100
_cell_angle_alpha   119.99443884
_cell_angle_beta   89.99913546
_cell_angle_gamma   90.00548243
_symmetry_Int_Tables_number   1
_chemical_formula_structural   TbDyTa3Ge3P4Rh9
_chemical_formula_sum   'Tb1 Dy1 Ta3 Ge3 P4 Rh9'
_cell_volume   327.83366998
_cell_formula_units_Z   1
loop_
 _symmetry_equiv_pos_site_id
 _symmetry_equiv_pos_as_xyz
  1  'x, y, z'
loop_
 _atom_site_type_symbol
 _atom_site_label
 _atom_site_symmetry_multiplicity
 _atom_site_fract_x
 _atom_site_fract_y
 _atom_site_fract_z
 _atom_site_occupancy
  Tb  Tb0  1  0.261836  0.666677  0.333349  1
  Dy  Dy1  1  0.761953  0.333344  0.666663  1
  Ta  Ta2  1  0.761860  0.101554  0.882281  1
  Ta  Ta3  1  0.761979  0.117717  0.219275  1
  Ta  Ta4  1  0.761928  0.780716  0.898469  1
  Ge  Ge5  1  0.761896  0.873877  0.581090  1
  Ge  Ge6  1  0.761865  0.418899  0.292791  1
  Ge  Ge7  1  0.761911  0.707215  0.126133  1
  P  P8  1  0.262094  0.999998  0.999994  1
  P  P9  1  0.261865  0.117060  0.419487  1
  P  P10  1  0.261886  0.580549  0.697585  1
  P  P11  1  0.261902  0.302411  0.882929  1
  Rh  Rh12  1  0.261853  0.888507  0.157411  1
  Rh  Rh13  1  0.261914  0.842586  0.731105  1
  Rh  Rh14  1  0.261913  0.268882  0.111440  1
  Rh  Rh15  1  0.761912  0.610974  0.573424  1
  Rh  Rh16  1  0.761939  0.426564  0.037530  1
  Rh  Rh17  1  0.761864  0.962456  0.389008  1
  Rh  Rh18  1  0.261859  0.362556  0.437298  1
  Rh  Rh19  1  0.261907  0.562707  0.925261  1
  Rh  Rh20  1  0.261864  0.074752  0.637476  1
