# generated using pymatgen
data_Tb2FeCo(CuSi)2
_symmetry_space_group_name_H-M   'P 1'
_cell_length_a   8.68102719
_cell_length_b   8.68102700
_cell_length_c   3.96515900
_cell_angle_alpha   90.00000000
_cell_angle_beta   90.00000000
_cell_angle_gamma   154.01091977
_symmetry_Int_Tables_number   1
_chemical_formula_structural   Tb2FeCo(CuSi)2
_chemical_formula_sum   'Tb2 Fe1 Co1 Cu2 Si2'
_cell_volume   130.94081705
_cell_formula_units_Z   1
loop_
 _symmetry_equiv_pos_site_id
 _symmetry_equiv_pos_as_xyz
  1  'x, y, z'
loop_
 _atom_site_type_symbol
 _atom_site_label
 _atom_site_symmetry_multiplicity
 _atom_site_fract_x
 _atom_site_fract_y
 _atom_site_fract_z
 _atom_site_occupancy
  Tb  Tb0  1  0.611537  0.388463  0.250000  1
  Tb  Tb1  1  0.387663  0.612337  0.750000  1
  Fe  Fe2  1  0.750628  0.249372  0.750000  1
  Co  Co3  1  0.249530  0.750470  0.250000  1
  Cu  Cu4  1  0.960047  0.039953  0.250000  1
  Cu  Cu5  1  0.040329  0.959671  0.750000  1
  Si  Si6  1  0.817550  0.182450  0.250000  1
  Si  Si7  1  0.182717  0.817283  0.750000  1
