# generated using pymatgen
data_CsVF5
_symmetry_space_group_name_H-M   'P 1'
_cell_length_a   5.83870400
_cell_length_b   8.18966400
_cell_length_c   10.99209400
_cell_angle_alpha   90.00000000
_cell_angle_beta   90.00000000
_cell_angle_gamma   90.00000000
_symmetry_Int_Tables_number   1
_chemical_formula_structural   CsVF5
_chemical_formula_sum   'Cs4 V4 F20'
_cell_volume   525.60922212
_cell_formula_units_Z   4
loop_
 _symmetry_equiv_pos_site_id
 _symmetry_equiv_pos_as_xyz
  1  'x, y, z'
loop_
 _atom_site_type_symbol
 _atom_site_label
 _atom_site_symmetry_multiplicity
 _atom_site_fract_x
 _atom_site_fract_y
 _atom_site_fract_z
 _atom_site_occupancy
  Cs  Cs0  1  0.500000  0.883679  0.979546  1
  Cs  Cs1  1  0.500000  0.116321  0.479546  1
  Cs  Cs2  1  0.000000  0.371538  0.126877  1
  Cs  Cs3  1  0.000000  0.628462  0.626877  1
  V  V4  1  0.000000  0.877211  0.243492  1
  V  V5  1  0.500000  0.581038  0.336497  1
  V  V6  1  0.500000  0.418962  0.836497  1
  V  V7  1  0.000000  0.122789  0.743492  1
  F  F8  1  0.273931  0.540040  0.911809  1
  F  F9  1  0.749207  0.705579  0.247698  1
  F  F10  1  0.225307  0.035195  0.233288  1
  F  F11  1  0.749207  0.294421  0.747698  1
  F  F12  1  0.500000  0.256635  0.948338  1
  F  F13  1  0.774693  0.964805  0.733288  1
  F  F14  1  0.500000  0.550719  0.702592  1
  F  F15  1  0.225307  0.964805  0.733288  1
  F  F16  1  0.000000  0.837046  0.080487  1
  F  F17  1  0.774693  0.035195  0.233288  1
  F  F18  1  0.500000  0.449281  0.202592  1
  F  F19  1  0.726069  0.459960  0.411809  1
  F  F20  1  0.250793  0.705579  0.247698  1
  F  F21  1  0.000000  0.868191  0.408090  1
  F  F22  1  0.000000  0.162954  0.580487  1
  F  F23  1  0.250793  0.294421  0.747698  1
  F  F24  1  0.000000  0.131809  0.908090  1
  F  F25  1  0.273931  0.459960  0.411809  1
  F  F26  1  0.500000  0.743365  0.448338  1
  F  F27  1  0.726069  0.540040  0.911809  1
