# generated using pymatgen
data_Tm3(GaRu)2
_symmetry_space_group_name_H-M   'P 1'
_cell_length_a   5.49629530
_cell_length_b   11.52949577
_cell_length_c   13.70222400
_cell_angle_alpha   90.00000000
_cell_angle_beta   90.00000000
_cell_angle_gamma   97.66894531
_symmetry_Int_Tables_number   1
_chemical_formula_structural   Tm3(GaRu)2
_chemical_formula_sum   'Tm18 Ga12 Ru12'
_cell_volume   860.53688098
_cell_formula_units_Z   6
loop_
 _symmetry_equiv_pos_site_id
 _symmetry_equiv_pos_as_xyz
  1  'x, y, z'
loop_
 _atom_site_type_symbol
 _atom_site_label
 _atom_site_symmetry_multiplicity
 _atom_site_fract_x
 _atom_site_fract_y
 _atom_site_fract_z
 _atom_site_occupancy
  Tm  Tm0  1  0.730399  0.764962  0.093868  1
  Tm  Tm1  1  0.269601  0.235038  0.593868  1
  Tm  Tm2  1  0.269601  0.235038  0.906132  1
  Tm  Tm3  1  0.730399  0.764962  0.406132  1
  Tm  Tm4  1  0.674916  0.564409  0.595379  1
  Tm  Tm5  1  0.325084  0.435591  0.095379  1
  Tm  Tm6  1  0.325084  0.435591  0.404621  1
  Tm  Tm7  1  0.674916  0.564409  0.904621  1
  Tm  Tm8  1  0.463753  0.899715  0.597370  1
  Tm  Tm9  1  0.536247  0.100285  0.097370  1
  Tm  Tm10  1  0.536247  0.100285  0.402630  1
  Tm  Tm11  1  0.463753  0.899715  0.902630  1
  Tm  Tm12  1  0.969279  0.993842  0.750000  1
  Tm  Tm13  1  0.030721  0.006158  0.250000  1
  Tm  Tm14  1  0.834553  0.326411  0.750000  1
  Tm  Tm15  1  0.165447  0.673589  0.250000  1
  Tm  Tm16  1  0.164177  0.659436  0.750000  1
  Tm  Tm17  1  0.835823  0.340564  0.250000  1
  Ga  Ga18  1  0.814426  0.331659  0.501463  1
  Ga  Ga19  1  0.185574  0.668341  0.001463  1
  Ga  Ga20  1  0.185574  0.668341  0.498537  1
  Ga  Ga21  1  0.814426  0.331659  0.998537  1
  Ga  Ga22  1  0.693193  0.756397  0.750000  1
  Ga  Ga23  1  0.306807  0.243603  0.250000  1
  Ga  Ga24  1  0.504940  0.100056  0.750000  1
  Ga  Ga25  1  0.495060  0.899944  0.250000  1
  Ga  Ga26  1  0.360396  0.429224  0.750000  1
  Ga  Ga27  1  0.639604  0.570776  0.250000  1
  Ga  Ga28  1  0.000000  0.000000  0.500000  1
  Ga  Ga29  1  0.000000  0.000000  0.000000  1
  Ru  Ru30  1  0.939125  0.808742  0.595065  1
  Ru  Ru31  1  0.060875  0.191258  0.095065  1
  Ru  Ru32  1  0.060875  0.191258  0.404935  1
  Ru  Ru33  1  0.939125  0.808742  0.904935  1
  Ru  Ru34  1  0.859252  0.524234  0.095179  1
  Ru  Ru35  1  0.140748  0.475766  0.595179  1
  Ru  Ru36  1  0.140748  0.475766  0.904821  1
  Ru  Ru37  1  0.859252  0.524234  0.404821  1
  Ru  Ru38  1  0.746574  0.136736  0.590817  1
  Ru  Ru39  1  0.253426  0.863264  0.090817  1
  Ru  Ru40  1  0.253426  0.863264  0.409183  1
  Ru  Ru41  1  0.746574  0.136736  0.909183  1
