# generated using pymatgen
data_Cs5RbSc(AsBr6)3
_symmetry_space_group_name_H-M   'P 1'
_cell_length_a   7.86160600
_cell_length_b   7.86160692
_cell_length_c   19.77803800
_cell_angle_alpha   90.00000000
_cell_angle_beta   90.00000000
_cell_angle_gamma   120.00000453
_symmetry_Int_Tables_number   1
_chemical_formula_structural   Cs5RbSc(AsBr6)3
_chemical_formula_sum   'Cs5 Rb1 Sc1 As3 Br18'
_cell_volume   1058.61104015
_cell_formula_units_Z   1
loop_
 _symmetry_equiv_pos_site_id
 _symmetry_equiv_pos_as_xyz
  1  'x, y, z'
loop_
 _atom_site_type_symbol
 _atom_site_label
 _atom_site_symmetry_multiplicity
 _atom_site_fract_x
 _atom_site_fract_y
 _atom_site_fract_z
 _atom_site_occupancy
  Cs  Cs0  1  0.333333  0.666667  0.073854  1
  Cs  Cs1  1  0.666667  0.333333  0.922215  1
  Cs  Cs2  1  0.666667  0.333333  0.576311  1
  Cs  Cs3  1  0.333333  0.666667  0.416141  1
  Cs  Cs4  1  0.000000  0.000000  0.250333  1
  Rb  Rb5  1  0.000000  0.000000  0.761580  1
  Sc  Sc6  1  0.333333  0.666667  0.840712  1
  As  As7  1  0.333333  0.666667  0.654544  1
  As  As8  1  0.666667  0.333333  0.342375  1
  As  As9  1  0.666667  0.333333  0.156963  1
  Br  Br10  1  0.174905  0.349810  0.587877  1
  Br  Br11  1  0.824791  0.649580  0.412434  1
  Br  Br12  1  0.650190  0.825095  0.587877  1
  Br  Br13  1  0.824268  0.648535  0.088586  1
  Br  Br14  1  0.350420  0.175209  0.412434  1
  Br  Br15  1  0.171353  0.342707  0.909264  1
  Br  Br16  1  0.174905  0.825095  0.587877  1
  Br  Br17  1  0.351465  0.175732  0.088586  1
  Br  Br18  1  0.824791  0.175209  0.412434  1
  Br  Br19  1  0.657293  0.828647  0.909264  1
  Br  Br20  1  0.824268  0.175732  0.088586  1
  Br  Br21  1  0.171353  0.828647  0.909264  1
  Br  Br22  1  0.504834  0.009670  0.251241  1
  Br  Br23  1  0.490901  0.981801  0.752256  1
  Br  Br24  1  0.990330  0.495166  0.251241  1
  Br  Br25  1  0.018199  0.509099  0.752256  1
  Br  Br26  1  0.504834  0.495166  0.251241  1
  Br  Br27  1  0.490901  0.509099  0.752256  1
