# generated using pymatgen
data_Yb6Se3N2
_symmetry_space_group_name_H-M   'P 1'
_cell_length_a   7.78073664
_cell_length_b   7.78073709
_cell_length_c   7.78073730
_cell_angle_alpha   93.02055663
_cell_angle_beta   93.02054763
_cell_angle_gamma   93.02055092
_symmetry_Int_Tables_number   1
_chemical_formula_structural   Yb6Se3N2
_chemical_formula_sum   'Yb12 Se6 N4'
_cell_volume   469.00957073
_cell_formula_units_Z   2
loop_
 _symmetry_equiv_pos_site_id
 _symmetry_equiv_pos_as_xyz
  1  'x, y, z'
loop_
 _atom_site_type_symbol
 _atom_site_label
 _atom_site_symmetry_multiplicity
 _atom_site_fract_x
 _atom_site_fract_y
 _atom_site_fract_z
 _atom_site_occupancy
  Yb  Yb0  1  0.406179  0.213911  0.524447  1
  Yb  Yb1  1  0.524447  0.406179  0.213911  1
  Yb  Yb2  1  0.213911  0.524447  0.406179  1
  Yb  Yb3  1  0.713911  0.906179  0.024447  1
  Yb  Yb4  1  0.024447  0.713911  0.906179  1
  Yb  Yb5  1  0.906179  0.024447  0.713911  1
  Yb  Yb6  1  0.593821  0.786089  0.475553  1
  Yb  Yb7  1  0.475553  0.593821  0.786089  1
  Yb  Yb8  1  0.786089  0.475553  0.593821  1
  Yb  Yb9  1  0.286089  0.093821  0.975553  1
  Yb  Yb10  1  0.975553  0.286089  0.093821  1
  Yb  Yb11  1  0.093821  0.975553  0.286089  1
  Se  Se12  1  0.750000  0.128749  0.371251  1
  Se  Se13  1  0.371251  0.750000  0.128749  1
  Se  Se14  1  0.128749  0.371251  0.750000  1
  Se  Se15  1  0.628749  0.250000  0.871251  1
  Se  Se16  1  0.871251  0.628749  0.250000  1
  Se  Se17  1  0.250000  0.871251  0.628749  1
  N  N18  1  0.500000  0.500000  0.500000  1
  N  N19  1  0.000000  0.000000  0.000000  1
  N  N20  1  0.250000  0.250000  0.250000  1
  N  N21  1  0.750000  0.750000  0.750000  1
