# generated using pymatgen
data_Ho4Ta2B4(IrRu)5
_symmetry_space_group_name_H-M   'P 1'
_cell_length_a   9.73945102
_cell_length_b   9.72965802
_cell_length_c   3.11281500
_cell_angle_alpha   90.00000000
_cell_angle_beta   90.00000000
_cell_angle_gamma   90.00718070
_symmetry_Int_Tables_number   1
_chemical_formula_structural   Ho4Ta2B4(IrRu)5
_chemical_formula_sum   'Ho4 Ta2 B4 Ir5 Ru5'
_cell_volume   294.97510256
_cell_formula_units_Z   1
loop_
 _symmetry_equiv_pos_site_id
 _symmetry_equiv_pos_as_xyz
  1  'x, y, z'
loop_
 _atom_site_type_symbol
 _atom_site_label
 _atom_site_symmetry_multiplicity
 _atom_site_fract_x
 _atom_site_fract_y
 _atom_site_fract_z
 _atom_site_occupancy
  Ho  Ho0  1  0.824501  0.674831  0.000000  1
  Ho  Ho1  1  0.173677  0.322489  0.000000  1
  Ho  Ho2  1  0.325671  0.828818  0.000000  1
  Ho  Ho3  1  0.675140  0.173902  0.000000  1
  Ta  Ta4  1  0.505008  0.498417  0.000000  1
  Ta  Ta5  1  0.999326  0.999991  0.000000  1
  B  B6  1  0.623597  0.886396  0.000000  1
  B  B7  1  0.375740  0.114300  0.000000  1
  B  B8  1  0.118452  0.616601  0.000000  1
  B  B9  1  0.877297  0.383804  0.000000  1
  Ir  Ir10  1  0.569696  0.720121  0.500000  1
  Ir  Ir11  1  0.429091  0.280413  0.500000  1
  Ir  Ir12  1  0.071887  0.779493  0.500000  1
  Ir  Ir13  1  0.929141  0.220093  0.500000  1
  Ir  Ir14  1  0.281761  0.570222  0.500000  1
  Ru  Ru15  1  0.719223  0.430203  0.500000  1
  Ru  Ru16  1  0.217899  0.070204  0.500000  1
  Ru  Ru17  1  0.781958  0.928939  0.500000  1
  Ru  Ru18  1  0.500315  0.000843  0.500000  1
  Ru  Ru19  1  0.000622  0.499919  0.500000  1
