# generated using pymatgen
data_K10Ba2NbVAs8
_symmetry_space_group_name_H-M   'P 1'
_cell_length_a   10.43369189
_cell_length_b   10.43491064
_cell_length_c   8.15695089
_cell_angle_alpha   89.26719074
_cell_angle_beta   89.28373434
_cell_angle_gamma   120.46157005
_symmetry_Int_Tables_number   1
_chemical_formula_structural   K10Ba2NbVAs8
_chemical_formula_sum   'K10 Ba2 Nb1 V1 As8'
_cell_volume   765.25386285
_cell_formula_units_Z   1
loop_
 _symmetry_equiv_pos_site_id
 _symmetry_equiv_pos_as_xyz
  1  'x, y, z'
loop_
 _atom_site_type_symbol
 _atom_site_label
 _atom_site_symmetry_multiplicity
 _atom_site_fract_x
 _atom_site_fract_y
 _atom_site_fract_z
 _atom_site_occupancy
  K  K0  1  0.466175  0.526310  0.502583  1
  K  K1  1  0.060287  0.527871  0.501673  1
  K  K2  1  0.524248  0.469038  0.001575  1
  K  K3  1  0.525219  0.055024  0.001619  1
  K  K4  1  0.865434  0.142844  0.678475  1
  K  K5  1  0.292308  0.153197  0.703330  1
  K  K6  1  0.854598  0.714785  0.665103  1
  K  K7  1  0.143768  0.865007  0.174845  1
  K  K8  1  0.713014  0.853828  0.162111  1
  K  K9  1  0.153934  0.293766  0.200681  1
  Ba  Ba10  1  0.463361  0.931568  0.496591  1
  Ba  Ba11  1  0.940422  0.468591  0.995861  1
  Nb  Nb12  1  0.668143  0.333344  0.393254  1
  V  V13  1  0.333724  0.668399  0.892774  1
  As  As14  1  0.677284  0.333381  0.701140  1
  As  As15  1  0.332855  0.677034  0.188071  1
  As  As16  1  0.796866  0.197665  0.290267  1
  As  As17  1  0.400028  0.193805  0.310360  1
  As  As18  1  0.801136  0.595384  0.280190  1
  As  As19  1  0.203267  0.791958  0.792729  1
  As  As20  1  0.583609  0.795438  0.783903  1
  As  As21  1  0.200319  0.411761  0.811440  1
