# generated using pymatgen
data_InIrBr18
_symmetry_space_group_name_H-M   'P 1'
_cell_length_a   9.16195513
_cell_length_b   9.13523540
_cell_length_c   9.17607619
_cell_angle_alpha   89.04605749
_cell_angle_beta   89.09940341
_cell_angle_gamma   89.21631158
_symmetry_Int_Tables_number   1
_chemical_formula_structural   InIrBr18
_chemical_formula_sum   'In1 Ir1 Br18'
_cell_volume   767.73609299
_cell_formula_units_Z   1
loop_
 _symmetry_equiv_pos_site_id
 _symmetry_equiv_pos_as_xyz
  1  'x, y, z'
loop_
 _atom_site_type_symbol
 _atom_site_label
 _atom_site_symmetry_multiplicity
 _atom_site_fract_x
 _atom_site_fract_y
 _atom_site_fract_z
 _atom_site_occupancy
  In  In0  1  0.000000  0.000000  0.000000  1
  Ir  Ir1  1  0.500000  0.500000  0.500000  1
  Br  Br2  1  0.771965  0.473736  0.512797  1
  Br  Br3  1  0.514149  0.772793  0.472862  1
  Br  Br4  1  0.474825  0.514180  0.771473  1
  Br  Br5  1  0.228035  0.526264  0.487203  1
  Br  Br6  1  0.485851  0.227207  0.527138  1
  Br  Br7  1  0.525175  0.485820  0.228527  1
  Br  Br8  1  0.884365  0.380154  0.752875  1
  Br  Br9  1  0.754917  0.885296  0.379322  1
  Br  Br10  1  0.379821  0.754473  0.883705  1
  Br  Br11  1  0.115635  0.619846  0.247125  1
  Br  Br12  1  0.245083  0.114704  0.620678  1
  Br  Br13  1  0.620179  0.245527  0.116295  1
  Br  Br14  1  0.019762  0.966813  0.704821  1
  Br  Br15  1  0.704375  0.020287  0.968731  1
  Br  Br16  1  0.968124  0.703486  0.022152  1
  Br  Br17  1  0.980238  0.033187  0.295179  1
  Br  Br18  1  0.295625  0.979713  0.031269  1
  Br  Br19  1  0.031876  0.296514  0.977848  1
