# generated using pymatgen
data_Ba5Tc3ClO15
_symmetry_space_group_name_H-M   'P 1'
_cell_length_a   11.04906700
_cell_length_b   11.04906787
_cell_length_c   7.96146600
_cell_angle_alpha   90.00000000
_cell_angle_beta   90.00000000
_cell_angle_gamma   119.99999441
_symmetry_Int_Tables_number   1
_chemical_formula_structural   Ba5Tc3ClO15
_chemical_formula_sum   'Ba10 Tc6 Cl2 O30'
_cell_volume   841.73415362
_cell_formula_units_Z   2
loop_
 _symmetry_equiv_pos_site_id
 _symmetry_equiv_pos_as_xyz
  1  'x, y, z'
loop_
 _atom_site_type_symbol
 _atom_site_label
 _atom_site_symmetry_multiplicity
 _atom_site_fract_x
 _atom_site_fract_y
 _atom_site_fract_z
 _atom_site_occupancy
  Ba  Ba0  1  0.735819  0.000000  0.760565  1
  Ba  Ba1  1  0.264181  0.264181  0.760565  1
  Ba  Ba2  1  0.000000  0.735819  0.760565  1
  Ba  Ba3  1  0.263953  0.000000  0.260550  1
  Ba  Ba4  1  0.736047  0.736047  0.260550  1
  Ba  Ba5  1  0.000000  0.263953  0.260550  1
  Ba  Ba6  1  0.333333  0.666667  0.500184  1
  Ba  Ba7  1  0.666667  0.333333  0.500184  1
  Ba  Ba8  1  0.666667  0.333333  0.000157  1
  Ba  Ba9  1  0.333333  0.666667  0.000157  1
  Tc  Tc10  1  0.609796  0.000000  0.204150  1
  Tc  Tc11  1  0.390204  0.390204  0.204150  1
  Tc  Tc12  1  0.000000  0.609796  0.204150  1
  Tc  Tc13  1  0.389645  0.000000  0.704372  1
  Tc  Tc14  1  0.610355  0.610355  0.704372  1
  Tc  Tc15  1  0.000000  0.389645  0.704372  1
  Cl  Cl16  1  0.000000  0.000000  0.044575  1
  Cl  Cl17  1  0.000000  0.000000  0.544032  1
  O  O18  1  0.610373  0.867907  0.062683  1
  O  O19  1  0.257534  0.389627  0.062683  1
  O  O20  1  0.132093  0.742466  0.062683  1
  O  O21  1  0.742466  0.132093  0.062683  1
  O  O22  1  0.867907  0.610373  0.062683  1
  O  O23  1  0.389627  0.257534  0.062683  1
  O  O24  1  0.389372  0.132112  0.562759  1
  O  O25  1  0.742740  0.610628  0.562759  1
  O  O26  1  0.867888  0.257260  0.562759  1
  O  O27  1  0.257260  0.867888  0.562759  1
  O  O28  1  0.132112  0.389372  0.562759  1
  O  O29  1  0.610628  0.742740  0.562759  1
  O  O30  1  0.423139  0.869200  0.244125  1
  O  O31  1  0.446061  0.576861  0.244125  1
  O  O32  1  0.130800  0.553939  0.244125  1
  O  O33  1  0.553939  0.130800  0.244125  1
  O  O34  1  0.869200  0.423139  0.244125  1
  O  O35  1  0.576861  0.446061  0.244125  1
  O  O36  1  0.576368  0.130785  0.744488  1
  O  O37  1  0.554417  0.423632  0.744488  1
  O  O38  1  0.869215  0.445583  0.744488  1
  O  O39  1  0.445583  0.869215  0.744488  1
  O  O40  1  0.130785  0.576368  0.744488  1
  O  O41  1  0.423632  0.554417  0.744488  1
  O  O42  1  0.706592  0.000000  0.378896  1
  O  O43  1  0.293408  0.293408  0.378896  1
  O  O44  1  0.000000  0.706592  0.378896  1
  O  O45  1  0.292637  0.000000  0.878730  1
  O  O46  1  0.707363  0.707363  0.878730  1
  O  O47  1  0.000000  0.292637  0.878730  1
