# generated using pymatgen
data_Nd3Sb5Pd5Pt
_symmetry_space_group_name_H-M   'P 1'
_cell_length_a   4.48449000
_cell_length_b   10.15146400
_cell_length_c   13.54591100
_cell_angle_alpha   90.00000000
_cell_angle_beta   90.00000000
_cell_angle_gamma   90.00000000
_symmetry_Int_Tables_number   1
_chemical_formula_structural   Nd3Sb5Pd5Pt
_chemical_formula_sum   'Nd6 Sb10 Pd10 Pt2'
_cell_volume   616.66593245
_cell_formula_units_Z   2
loop_
 _symmetry_equiv_pos_site_id
 _symmetry_equiv_pos_as_xyz
  1  'x, y, z'
loop_
 _atom_site_type_symbol
 _atom_site_label
 _atom_site_symmetry_multiplicity
 _atom_site_fract_x
 _atom_site_fract_y
 _atom_site_fract_z
 _atom_site_occupancy
  Nd  Nd0  1  0.000000  0.242999  0.000000  1
  Nd  Nd1  1  0.500000  0.757001  0.500000  1
  Nd  Nd2  1  0.000000  0.245383  0.323753  1
  Nd  Nd3  1  0.500000  0.754617  0.176247  1
  Nd  Nd4  1  0.000000  0.245383  0.676247  1
  Nd  Nd5  1  0.500000  0.754617  0.823753  1
  Sb  Sb6  1  0.000000  0.523984  0.126330  1
  Sb  Sb7  1  0.500000  0.476016  0.373670  1
  Sb  Sb8  1  0.000000  0.523984  0.873670  1
  Sb  Sb9  1  0.500000  0.476016  0.626330  1
  Sb  Sb10  1  0.000000  0.862470  0.336853  1
  Sb  Sb11  1  0.500000  0.137530  0.163147  1
  Sb  Sb12  1  0.000000  0.862470  0.663147  1
  Sb  Sb13  1  0.500000  0.137530  0.836853  1
  Sb  Sb14  1  0.000000  0.827636  0.000000  1
  Sb  Sb15  1  0.500000  0.172364  0.500000  1
  Pd  Pd16  1  0.000000  0.989899  0.160065  1
  Pd  Pd17  1  0.500000  0.010101  0.339935  1
  Pd  Pd18  1  0.000000  0.989899  0.839935  1
  Pd  Pd19  1  0.500000  0.010101  0.660065  1
  Pd  Pd20  1  0.000000  0.604009  0.317912  1
  Pd  Pd21  1  0.500000  0.395991  0.182088  1
  Pd  Pd22  1  0.000000  0.604009  0.682088  1
  Pd  Pd23  1  0.500000  0.395991  0.817912  1
  Pd  Pd24  1  0.500000  0.527881  0.000000  1
  Pd  Pd25  1  0.000000  0.472119  0.500000  1
  Pt  Pt26  1  0.500000  0.981361  0.000000  1
  Pt  Pt27  1  0.000000  0.018639  0.500000  1
