# generated using pymatgen
data_Yb5Th3(ReC2)4
_symmetry_space_group_name_H-M   'P 1'
_cell_length_a   5.22078200
_cell_length_b   6.54025850
_cell_length_c   10.35066358
_cell_angle_alpha   89.86189511
_cell_angle_beta   90.00000000
_cell_angle_gamma   90.00000000
_symmetry_Int_Tables_number   1
_chemical_formula_structural   Yb5Th3(ReC2)4
_chemical_formula_sum   'Yb5 Th3 Re4 C8'
_cell_volume   353.42511240
_cell_formula_units_Z   1
loop_
 _symmetry_equiv_pos_site_id
 _symmetry_equiv_pos_as_xyz
  1  'x, y, z'
loop_
 _atom_site_type_symbol
 _atom_site_label
 _atom_site_symmetry_multiplicity
 _atom_site_fract_x
 _atom_site_fract_y
 _atom_site_fract_z
 _atom_site_occupancy
  Yb  Yb0  1  0.250000  0.203072  0.945590  1
  Yb  Yb1  1  0.250000  0.530765  0.226201  1
  Yb  Yb2  1  0.750000  0.461663  0.776870  1
  Yb  Yb3  1  0.750000  0.967083  0.733724  1
  Yb  Yb4  1  0.250000  0.035000  0.261916  1
  Th  Th5  1  0.250000  0.704491  0.548632  1
  Th  Th6  1  0.750000  0.296588  0.447037  1
  Th  Th7  1  0.750000  0.802093  0.052916  1
  Re  Re8  1  0.250000  0.730622  0.857779  1
  Re  Re9  1  0.750000  0.272795  0.140548  1
  Re  Re10  1  0.750000  0.773309  0.361728  1
  Re  Re11  1  0.250000  0.230766  0.642530  1
  C  C12  1  0.250000  0.469916  0.755211  1
  C  C13  1  0.750000  0.535754  0.244663  1
  C  C14  1  0.750000  0.032206  0.254970  1
  C  C15  1  0.250000  0.967787  0.741089  1
  C  C16  1  0.250000  0.801552  0.037901  1
  C  C17  1  0.750000  0.180545  0.966994  1
  C  C18  1  0.750000  0.680371  0.541234  1
  C  C19  1  0.250000  0.323618  0.462470  1
