# generated using pymatgen
data_NpBeGeH2
_symmetry_space_group_name_H-M   'P 1'
_cell_length_a   3.86919700
_cell_length_b   3.86919648
_cell_length_c   8.47486600
_cell_angle_alpha   90.00000000
_cell_angle_beta   90.00000000
_cell_angle_gamma   120.00001303
_symmetry_Int_Tables_number   1
_chemical_formula_structural   NpBeGeH2
_chemical_formula_sum   'Np2 Be2 Ge2 H4'
_cell_volume   109.87655658
_cell_formula_units_Z   2
loop_
 _symmetry_equiv_pos_site_id
 _symmetry_equiv_pos_as_xyz
  1  'x, y, z'
loop_
 _atom_site_type_symbol
 _atom_site_label
 _atom_site_symmetry_multiplicity
 _atom_site_fract_x
 _atom_site_fract_y
 _atom_site_fract_z
 _atom_site_occupancy
  Np  Np0  1  0.000000  0.000000  0.500000  1
  Np  Np1  1  0.000000  0.000000  0.000000  1
  Be  Be2  1  0.666667  0.333333  0.750000  1
  Be  Be3  1  0.333333  0.666667  0.250000  1
  Ge  Ge4  1  0.333333  0.666667  0.750000  1
  Ge  Ge5  1  0.666667  0.333333  0.250000  1
  H  H6  1  0.333333  0.666667  0.443950  1
  H  H7  1  0.666667  0.333333  0.556050  1
  H  H8  1  0.333333  0.666667  0.056050  1
  H  H9  1  0.666667  0.333333  0.943950  1
