# generated using pymatgen
data_ScMn28
_symmetry_space_group_name_H-M   'P 1'
_cell_length_a   7.54524364
_cell_length_b   7.54524307
_cell_length_c   7.54524300
_cell_angle_alpha   109.47122045
_cell_angle_beta   109.47121892
_cell_angle_gamma   109.47122389
_symmetry_Int_Tables_number   1
_chemical_formula_structural   ScMn28
_chemical_formula_sum   'Sc1 Mn28'
_cell_volume   330.67231521
_cell_formula_units_Z   1
loop_
 _symmetry_equiv_pos_site_id
 _symmetry_equiv_pos_as_xyz
  1  'x, y, z'
loop_
 _atom_site_type_symbol
 _atom_site_label
 _atom_site_symmetry_multiplicity
 _atom_site_fract_x
 _atom_site_fract_y
 _atom_site_fract_z
 _atom_site_occupancy
  Sc  Sc0  1  0.000000  0.000000  0.000000  1
  Mn  Mn1  1  0.627375  0.000000  0.000000  1
  Mn  Mn2  1  0.000000  0.627375  0.000000  1
  Mn  Mn3  1  0.000000  0.000000  0.627375  1
  Mn  Mn4  1  0.372625  0.372625  0.372625  1
  Mn  Mn5  1  0.391748  0.678350  0.000000  1
  Mn  Mn6  1  0.713399  0.321650  0.321650  1
  Mn  Mn7  1  0.391748  0.000000  0.678350  1
  Mn  Mn8  1  0.678350  0.391748  0.000000  1
  Mn  Mn9  1  0.000000  0.391748  0.678350  1
  Mn  Mn10  1  0.321650  0.713399  0.321650  1
  Mn  Mn11  1  0.321650  0.321650  0.713399  1
  Mn  Mn12  1  0.000000  0.678350  0.391748  1
  Mn  Mn13  1  0.678350  0.000000  0.391748  1
  Mn  Mn14  1  0.608252  0.608252  0.286601  1
  Mn  Mn15  1  0.286601  0.608252  0.608252  1
  Mn  Mn16  1  0.608252  0.286601  0.608252  1
  Mn  Mn17  1  0.375985  0.197409  0.000000  1
  Mn  Mn18  1  0.178577  0.802591  0.802591  1
  Mn  Mn19  1  0.375985  0.000000  0.197409  1
  Mn  Mn20  1  0.197409  0.375985  0.000000  1
  Mn  Mn21  1  0.000000  0.375985  0.197409  1
  Mn  Mn22  1  0.802591  0.178577  0.802591  1
  Mn  Mn23  1  0.802591  0.802591  0.178577  1
  Mn  Mn24  1  0.000000  0.197409  0.375985  1
  Mn  Mn25  1  0.197409  0.000000  0.375985  1
  Mn  Mn26  1  0.624015  0.624015  0.821423  1
  Mn  Mn27  1  0.821423  0.624015  0.624015  1
  Mn  Mn28  1  0.624015  0.821423  0.624015  1
