# generated using pymatgen
data_Cs11K6Rb(AlSb4)2
_symmetry_space_group_name_H-M   'P 1'
_cell_length_a   11.12675166
_cell_length_b   11.15664050
_cell_length_c   11.70768972
_cell_angle_alpha   89.90261064
_cell_angle_beta   89.99740270
_cell_angle_gamma   119.70257822
_symmetry_Int_Tables_number   1
_chemical_formula_structural   Cs11K6Rb(AlSb4)2
_chemical_formula_sum   'Cs11 K6 Rb1 Al2 Sb8'
_cell_volume   1262.39893239
_cell_formula_units_Z   1
loop_
 _symmetry_equiv_pos_site_id
 _symmetry_equiv_pos_as_xyz
  1  'x, y, z'
loop_
 _atom_site_type_symbol
 _atom_site_label
 _atom_site_symmetry_multiplicity
 _atom_site_fract_x
 _atom_site_fract_y
 _atom_site_fract_z
 _atom_site_occupancy
  Cs  Cs0  1  0.791162  0.582107  0.044630  1
  Cs  Cs1  1  0.581416  0.790492  0.544478  1
  Cs  Cs2  1  0.209036  0.790394  0.544484  1
  Cs  Cs3  1  0.791056  0.208706  0.044504  1
  Cs  Cs4  1  0.417581  0.208571  0.044498  1
  Cs  Cs5  1  0.791218  0.582277  0.455751  1
  Cs  Cs6  1  0.791464  0.208985  0.455578  1
  Cs  Cs7  1  0.417476  0.208883  0.455588  1
  Cs  Cs8  1  0.582108  0.791298  0.955561  1
  Cs  Cs9  1  0.209131  0.791157  0.955570  1
  Cs  Cs10  1  0.208768  0.417758  0.955131  1
  K  K11  1  0.120105  0.240177  0.250951  1
  K  K12  1  0.880425  0.760821  0.749858  1
  K  K13  1  0.760497  0.880296  0.250101  1
  K  K14  1  0.119881  0.880294  0.250077  1
  K  K15  1  0.881011  0.120414  0.749594  1
  K  K16  1  0.239319  0.120335  0.749578  1
  Rb  Rb17  1  0.207819  0.415745  0.543550  1
  Al  Al18  1  0.333093  0.666729  0.250969  1
  Al  Al19  1  0.666644  0.332767  0.748912  1
  Sb  Sb20  1  0.999851  0.999715  0.000076  1
  Sb  Sb21  1  0.000994  0.002048  0.500229  1
  Sb  Sb22  1  0.471985  0.527564  0.251262  1
  Sb  Sb23  1  0.527337  0.472541  0.748966  1
  Sb  Sb24  1  0.471789  0.943503  0.249773  1
  Sb  Sb25  1  0.055781  0.527623  0.251274  1
  Sb  Sb26  1  0.944955  0.472493  0.748947  1
  Sb  Sb27  1  0.528098  0.056310  0.750118  1
