# generated using pymatgen
data_Lu4CuAs5Rh7
_symmetry_space_group_name_H-M   'P 1'
_cell_length_a   7.19501526
_cell_length_b   7.19501527
_cell_length_c   7.19501600
_cell_angle_alpha   109.92598438
_cell_angle_beta   108.56546997
_cell_angle_gamma   109.92598586
_symmetry_Int_Tables_number   1
_chemical_formula_structural   Lu4CuAs5Rh7
_chemical_formula_sum   'Lu4 Cu1 As5 Rh7'
_cell_volume   286.67648175
_cell_formula_units_Z   1
loop_
 _symmetry_equiv_pos_site_id
 _symmetry_equiv_pos_as_xyz
  1  'x, y, z'
loop_
 _atom_site_type_symbol
 _atom_site_label
 _atom_site_symmetry_multiplicity
 _atom_site_fract_x
 _atom_site_fract_y
 _atom_site_fract_z
 _atom_site_occupancy
  Lu  Lu0  1  0.496242  0.506885  0.496242  1
  Lu  Lu1  1  0.989357  0.493115  0.989357  1
  Lu  Lu2  1  0.496242  0.000000  0.989357  1
  Lu  Lu3  1  0.989357  0.000000  0.496242  1
  Cu  Cu4  1  0.702455  0.000000  0.702455  1
  As  As5  1  0.681982  0.686667  0.995316  1
  As  As6  1  0.308650  0.313333  0.995316  1
  As  As7  1  0.995316  0.686667  0.681982  1
  As  As8  1  0.995316  0.313333  0.308650  1
  As  As9  1  0.334317  0.000000  0.334317  1
  Rh  Rh10  1  0.746405  0.500000  0.246405  1
  Rh  Rh11  1  0.497990  0.251489  0.749478  1
  Rh  Rh12  1  0.749478  0.251489  0.497990  1
  Rh  Rh13  1  0.246502  0.748511  0.497990  1
  Rh  Rh14  1  0.246405  0.500000  0.746405  1
  Rh  Rh15  1  0.497990  0.748511  0.246502  1
  Rh  Rh16  1  0.025997  0.000000  0.025997  1
