# generated using pymatgen
data_Zr10Zn2InBiPb4
_symmetry_space_group_name_H-M   'P 1'
_cell_length_a   8.82725802
_cell_length_b   8.82484853
_cell_length_c   5.96186600
_cell_angle_alpha   90.00000000
_cell_angle_beta   90.00000000
_cell_angle_gamma   120.00066962
_symmetry_Int_Tables_number   1
_chemical_formula_structural   Zr10Zn2InBiPb4
_chemical_formula_sum   'Zr10 Zn2 In1 Bi1 Pb4'
_cell_volume   402.20085804
_cell_formula_units_Z   1
loop_
 _symmetry_equiv_pos_site_id
 _symmetry_equiv_pos_as_xyz
  1  'x, y, z'
loop_
 _atom_site_type_symbol
 _atom_site_label
 _atom_site_symmetry_multiplicity
 _atom_site_fract_x
 _atom_site_fract_y
 _atom_site_fract_z
 _atom_site_occupancy
  Zr  Zr0  1  0.334316  0.668391  0.002154  1
  Zr  Zr1  1  0.666757  0.331098  0.497665  1
  Zr  Zr2  1  0.666757  0.331098  0.002335  1
  Zr  Zr3  1  0.334316  0.668391  0.497846  1
  Zr  Zr4  1  0.266248  0.000095  0.250000  1
  Zr  Zr5  1  0.262932  0.263208  0.750000  1
  Zr  Zr6  1  0.000613  0.737020  0.750000  1
  Zr  Zr7  1  0.997298  0.263202  0.250000  1
  Zr  Zr8  1  0.734024  0.736646  0.250000  1
  Zr  Zr9  1  0.736855  0.000991  0.750000  1
  Zn  Zn10  1  0.999817  0.000507  0.002558  1
  Zn  Zn11  1  0.999817  0.000507  0.497442  1
  In  In12  1  0.616172  0.000004  0.250000  1
  Bi  Bi13  1  0.614490  0.613795  0.750000  1
  Pb  Pb14  1  0.000862  0.385760  0.750000  1
  Pb  Pb15  1  0.999347  0.615168  0.250000  1
  Pb  Pb16  1  0.383321  0.384010  0.250000  1
  Pb  Pb17  1  0.386061  0.000111  0.750000  1
