# generated using pymatgen
data_CaSmTiSbO7
_symmetry_space_group_name_H-M   'P 1'
_cell_length_a   7.34614400
_cell_length_b   7.34614400
_cell_length_c   10.39909200
_cell_angle_alpha   90.00000000
_cell_angle_beta   90.00000000
_cell_angle_gamma   90.00000000
_symmetry_Int_Tables_number   1
_chemical_formula_structural   CaSmTiSbO7
_chemical_formula_sum   'Ca4 Sm4 Ti4 Sb4 O28'
_cell_volume   561.19564838
_cell_formula_units_Z   4
loop_
 _symmetry_equiv_pos_site_id
 _symmetry_equiv_pos_as_xyz
  1  'x, y, z'
loop_
 _atom_site_type_symbol
 _atom_site_label
 _atom_site_symmetry_multiplicity
 _atom_site_fract_x
 _atom_site_fract_y
 _atom_site_fract_z
 _atom_site_occupancy
  Ca  Ca0  1  0.500000  0.749787  0.000000  1
  Ca  Ca1  1  0.500000  0.250213  0.500000  1
  Ca  Ca2  1  0.749787  0.500000  0.750000  1
  Ca  Ca3  1  0.250213  0.500000  0.250000  1
  Sm  Sm4  1  0.000000  0.741447  0.000000  1
  Sm  Sm5  1  0.258553  0.000000  0.250000  1
  Sm  Sm6  1  0.000000  0.258553  0.500000  1
  Sm  Sm7  1  0.741447  0.000000  0.750000  1
  Ti  Ti8  1  0.759201  0.000000  0.250000  1
  Ti  Ti9  1  0.000000  0.759201  0.500000  1
  Ti  Ti10  1  0.240799  0.000000  0.750000  1
  Ti  Ti11  1  0.000000  0.240799  0.000000  1
  Sb  Sb12  1  0.245728  0.500000  0.750000  1
  Sb  Sb13  1  0.500000  0.754272  0.500000  1
  Sb  Sb14  1  0.500000  0.245728  0.000000  1
  Sb  Sb15  1  0.754272  0.500000  0.250000  1
  O  O16  1  0.248785  0.751215  0.125000  1
  O  O17  1  0.551313  0.949056  0.371173  1
  O  O18  1  0.751215  0.248785  0.625000  1
  O  O19  1  0.947784  0.947784  0.375000  1
  O  O20  1  0.050944  0.448687  0.878827  1
  O  O21  1  0.052216  0.052216  0.875000  1
  O  O22  1  0.052216  0.947784  0.625000  1
  O  O23  1  0.249343  0.242079  0.074455  1
  O  O24  1  0.242079  0.249343  0.675545  1
  O  O25  1  0.249343  0.757921  0.425545  1
  O  O26  1  0.451132  0.451132  0.875000  1
  O  O27  1  0.448687  0.050944  0.871173  1
  O  O28  1  0.448687  0.949056  0.628827  1
  O  O29  1  0.548868  0.548868  0.375000  1
  O  O30  1  0.551313  0.050944  0.128827  1
  O  O31  1  0.548868  0.451132  0.125000  1
  O  O32  1  0.750657  0.757921  0.574455  1
  O  O33  1  0.751215  0.751215  0.875000  1
  O  O34  1  0.757921  0.249343  0.324455  1
  O  O35  1  0.757921  0.750657  0.175545  1
  O  O36  1  0.750657  0.242079  0.925545  1
  O  O37  1  0.949056  0.551313  0.378827  1
  O  O38  1  0.949056  0.448687  0.121173  1
  O  O39  1  0.947784  0.052216  0.125000  1
  O  O40  1  0.050944  0.551313  0.621173  1
  O  O41  1  0.248785  0.248785  0.375000  1
  O  O42  1  0.242079  0.750657  0.824455  1
  O  O43  1  0.451132  0.548868  0.625000  1
