# generated using pymatgen
data_HfZr3TiNb3P4
_symmetry_space_group_name_H-M   'P 1'
_cell_length_a   3.55647400
_cell_length_b   6.89022963
_cell_length_c   8.32846700
_cell_angle_alpha   90.24645293
_cell_angle_beta   90.00000000
_cell_angle_gamma   90.00000000
_symmetry_Int_Tables_number   1
_chemical_formula_structural   HfZr3TiNb3P4
_chemical_formula_sum   'Hf1 Zr3 Ti1 Nb3 P4'
_cell_volume   204.08655067
_cell_formula_units_Z   1
loop_
 _symmetry_equiv_pos_site_id
 _symmetry_equiv_pos_as_xyz
  1  'x, y, z'
loop_
 _atom_site_type_symbol
 _atom_site_label
 _atom_site_symmetry_multiplicity
 _atom_site_fract_x
 _atom_site_fract_y
 _atom_site_fract_z
 _atom_site_occupancy
  Hf  Hf0  1  0.750000  0.966290  0.330540  1
  Zr  Zr1  1  0.250000  0.032238  0.668821  1
  Zr  Zr2  1  0.250000  0.533296  0.832233  1
  Zr  Zr3  1  0.750000  0.467140  0.167224  1
  Ti  Ti4  1  0.750000  0.863755  0.940794  1
  Nb  Nb5  1  0.250000  0.641264  0.440728  1
  Nb  Nb6  1  0.750000  0.360838  0.559247  1
  Nb  Nb7  1  0.250000  0.136664  0.059739  1
  P  P8  1  0.250000  0.261533  0.356731  1
  P  P9  1  0.250000  0.764512  0.137644  1
  P  P10  1  0.750000  0.737375  0.647410  1
  P  P11  1  0.750000  0.235093  0.858889  1
