# generated using pymatgen
data_Ho7CoCl12
_symmetry_space_group_name_H-M   'P 1'
_cell_length_a   8.79701143
_cell_length_b   8.79701084
_cell_length_c   8.79701149
_cell_angle_alpha   106.66220799
_cell_angle_beta   106.66220815
_cell_angle_gamma   106.66220957
_symmetry_Int_Tables_number   1
_chemical_formula_structural   Ho7CoCl12
_chemical_formula_sum   'Ho7 Co1 Cl12'
_cell_volume   572.10223104
_cell_formula_units_Z   1
loop_
 _symmetry_equiv_pos_site_id
 _symmetry_equiv_pos_as_xyz
  1  'x, y, z'
loop_
 _atom_site_type_symbol
 _atom_site_label
 _atom_site_symmetry_multiplicity
 _atom_site_fract_x
 _atom_site_fract_y
 _atom_site_fract_z
 _atom_site_occupancy
  Ho  Ho0  1  0.980406  0.898970  0.691052  1
  Ho  Ho1  1  0.898970  0.691052  0.980406  1
  Ho  Ho2  1  0.691052  0.980406  0.898970  1
  Ho  Ho3  1  0.019594  0.101030  0.308948  1
  Ho  Ho4  1  0.101030  0.308948  0.019594  1
  Ho  Ho5  1  0.308948  0.019594  0.101030  1
  Ho  Ho6  1  0.500000  0.500000  0.500000  1
  Co  Co7  1  0.000000  0.000000  0.000000  1
  Cl  Cl8  1  0.827045  0.539093  0.614334  1
  Cl  Cl9  1  0.539093  0.614334  0.827045  1
  Cl  Cl10  1  0.614334  0.827045  0.539093  1
  Cl  Cl11  1  0.172955  0.460907  0.385666  1
  Cl  Cl12  1  0.460907  0.385666  0.172955  1
  Cl  Cl13  1  0.385666  0.172955  0.460907  1
  Cl  Cl14  1  0.069886  0.216938  0.677531  1
  Cl  Cl15  1  0.216938  0.677531  0.069886  1
  Cl  Cl16  1  0.677531  0.069886  0.216938  1
  Cl  Cl17  1  0.930114  0.783062  0.322469  1
  Cl  Cl18  1  0.783062  0.322469  0.930114  1
  Cl  Cl19  1  0.322469  0.930114  0.783062  1
