# generated using pymatgen
data_Dy2Y10InCo4Au
_symmetry_space_group_name_H-M   'P 1'
_cell_length_a   8.36921541
_cell_length_b   8.37578775
_cell_length_c   8.36921507
_cell_angle_alpha   111.21088073
_cell_angle_beta   110.40184955
_cell_angle_gamma   106.80317638
_symmetry_Int_Tables_number   1
_chemical_formula_structural   Dy2Y10InCo4Au
_chemical_formula_sum   'Dy2 Y10 In1 Co4 Au1'
_cell_volume   451.04500537
_cell_formula_units_Z   1
loop_
 _symmetry_equiv_pos_site_id
 _symmetry_equiv_pos_as_xyz
  1  'x, y, z'
loop_
 _atom_site_type_symbol
 _atom_site_label
 _atom_site_symmetry_multiplicity
 _atom_site_fract_x
 _atom_site_fract_y
 _atom_site_fract_z
 _atom_site_occupancy
  Dy  Dy0  1  0.315428  0.010761  0.695332  1
  Dy  Dy1  1  0.684572  0.989239  0.304668  1
  Y  Y2  1  0.422922  0.218109  0.203011  1
  Y  Y3  1  0.577078  0.781891  0.796989  1
  Y  Y4  1  0.015099  0.218109  0.795186  1
  Y  Y5  1  0.984901  0.781891  0.204814  1
  Y  Y6  1  0.187915  0.293452  0.481363  1
  Y  Y7  1  0.812085  0.706548  0.518637  1
  Y  Y8  1  0.187911  0.706548  0.894464  1
  Y  Y9  1  0.812089  0.293452  0.105536  1
  Y  Y10  1  0.314906  0.617386  0.302481  1
  Y  Y11  1  0.685094  0.382614  0.697519  1
  In  In12  1  0.500000  0.500000  0.000000  1
  Co  Co13  1  0.380838  0.000000  0.380838  1
  Co  Co14  1  0.619162  0.000000  0.619162  1
  Co  Co15  1  0.111463  0.612347  0.500884  1
  Co  Co16  1  0.888537  0.387653  0.499116  1
  Au  Au17  1  0.000000  0.000000  0.000000  1
