# generated using pymatgen
data_Tm5IrRu
_symmetry_space_group_name_H-M   'P 1'
_cell_length_a   6.33646802
_cell_length_b   7.19831794
_cell_length_c   8.34215566
_cell_angle_alpha   96.60863151
_cell_angle_beta   112.32044104
_cell_angle_gamma   90.00000014
_symmetry_Int_Tables_number   1
_chemical_formula_structural   Tm5IrRu
_chemical_formula_sum   'Tm10 Ir2 Ru2'
_cell_volume   349.25772082
_cell_formula_units_Z   2
loop_
 _symmetry_equiv_pos_site_id
 _symmetry_equiv_pos_as_xyz
  1  'x, y, z'
loop_
 _atom_site_type_symbol
 _atom_site_label
 _atom_site_symmetry_multiplicity
 _atom_site_fract_x
 _atom_site_fract_y
 _atom_site_fract_z
 _atom_site_occupancy
  Tm  Tm0  1  0.792849  0.082098  0.815016  1
  Tm  Tm1  1  0.977832  0.417902  0.184984  1
  Tm  Tm2  1  0.208858  0.914937  0.183422  1
  Tm  Tm3  1  0.025437  0.585063  0.816578  1
  Tm  Tm4  1  0.207539  0.182088  0.563306  1
  Tm  Tm5  1  0.644233  0.317912  0.436694  1
  Tm  Tm6  1  0.790900  0.815201  0.437993  1
  Tm  Tm7  1  0.352907  0.684799  0.562007  1
  Tm  Tm8  1  0.423397  0.250000  0.000000  1
  Tm  Tm9  1  0.576555  0.750000  0.000000  1
  Ir  Ir10  1  0.604384  0.422868  0.778854  1
  Ir  Ir11  1  0.825528  0.077132  0.221146  1
  Ru  Ru12  1  0.394518  0.575289  0.219457  1
  Ru  Ru13  1  0.175062  0.924711  0.780543  1
