# generated using pymatgen
data_Er4Zr4Pt3Rh
_symmetry_space_group_name_H-M   'P 1'
_cell_length_a   4.68416400
_cell_length_b   7.08691093
_cell_length_c   8.20366809
_cell_angle_alpha   90.35520485
_cell_angle_beta   90.00000000
_cell_angle_gamma   90.00000000
_symmetry_Int_Tables_number   1
_chemical_formula_structural   Er4Zr4Pt3Rh
_chemical_formula_sum   'Er4 Zr4 Pt3 Rh1'
_cell_volume   272.32580852
_cell_formula_units_Z   1
loop_
 _symmetry_equiv_pos_site_id
 _symmetry_equiv_pos_as_xyz
  1  'x, y, z'
loop_
 _atom_site_type_symbol
 _atom_site_label
 _atom_site_symmetry_multiplicity
 _atom_site_fract_x
 _atom_site_fract_y
 _atom_site_fract_z
 _atom_site_occupancy
  Er  Er0  1  0.250000  0.483671  0.179302  1
  Er  Er1  1  0.750000  0.518577  0.822663  1
  Er  Er2  1  0.750000  0.015908  0.677101  1
  Er  Er3  1  0.250000  0.981468  0.323972  1
  Zr  Zr4  1  0.250000  0.850072  0.920648  1
  Zr  Zr5  1  0.750000  0.148872  0.078194  1
  Zr  Zr6  1  0.750000  0.646500  0.421652  1
  Zr  Zr7  1  0.250000  0.358934  0.581488  1
  Pt  Pt8  1  0.750000  0.266442  0.406646  1
  Pt  Pt9  1  0.750000  0.769341  0.095267  1
  Pt  Pt10  1  0.250000  0.229747  0.904826  1
  Rh  Rh11  1  0.250000  0.730464  0.588241  1
