# generated using pymatgen
data_Rb2Yb2(SiO3)3
_symmetry_space_group_name_H-M   'P 1'
_cell_length_a   7.44476800
_cell_length_b   6.62408014
_cell_length_c   12.16006150
_cell_angle_alpha   60.93922597
_cell_angle_beta   90.00000000
_cell_angle_gamma   90.00000000
_symmetry_Int_Tables_number   1
_chemical_formula_structural   Rb2Yb2(SiO3)3
_chemical_formula_sum   'Rb4 Yb4 Si6 O18'
_cell_volume   524.17476580
_cell_formula_units_Z   2
loop_
 _symmetry_equiv_pos_site_id
 _symmetry_equiv_pos_as_xyz
  1  'x, y, z'
loop_
 _atom_site_type_symbol
 _atom_site_label
 _atom_site_symmetry_multiplicity
 _atom_site_fract_x
 _atom_site_fract_y
 _atom_site_fract_z
 _atom_site_occupancy
  Rb  Rb0  1  0.407398  0.438806  0.773214  1
  Rb  Rb1  1  0.592602  0.438806  0.273214  1
  Rb  Rb2  1  0.660279  0.824410  0.901110  1
  Rb  Rb3  1  0.339721  0.824410  0.401110  1
  Yb  Yb4  1  0.834209  0.871023  0.585803  1
  Yb  Yb5  1  0.165791  0.871023  0.085803  1
  Yb  Yb6  1  0.934651  0.339491  0.855591  1
  Yb  Yb7  1  0.065349  0.339491  0.355591  1
  Si  Si8  1  0.584505  0.114820  0.092240  1
  Si  Si9  1  0.415495  0.114820  0.592240  1
  Si  Si10  1  0.253189  0.427435  0.049794  1
  Si  Si11  1  0.746811  0.427435  0.549794  1
  Si  Si12  1  0.135606  0.874262  0.816219  1
  Si  Si13  1  0.864394  0.874262  0.316219  1
  O  O14  1  0.828593  0.475912  0.657820  1
  O  O15  1  0.171407  0.475912  0.157820  1
  O  O16  1  0.464075  0.332720  0.089514  1
  O  O17  1  0.535925  0.332720  0.589514  1
  O  O18  1  0.456314  0.891904  0.132611  1
  O  O19  1  0.543686  0.891904  0.632611  1
  O  O20  1  0.034050  0.991320  0.889598  1
  O  O21  1  0.965950  0.991320  0.389598  1
  O  O22  1  0.855754  0.263417  0.509107  1
  O  O23  1  0.144246  0.263417  0.009107  1
  O  O24  1  0.681600  0.210723  0.956995  1
  O  O25  1  0.318400  0.210723  0.456995  1
  O  O26  1  0.004326  0.740162  0.765695  1
  O  O27  1  0.995674  0.740162  0.265695  1
  O  O28  1  0.284013  0.687846  0.921274  1
  O  O29  1  0.715987  0.687846  0.421274  1
  O  O30  1  0.733845  0.069652  0.204854  1
  O  O31  1  0.266155  0.069652  0.704854  1
