# generated using pymatgen
data_K2Li3US5
_symmetry_space_group_name_H-M   'P 1'
_cell_length_a   4.11500600
_cell_length_b   7.20672676
_cell_length_c   18.34956500
_cell_angle_alpha   90.00000000
_cell_angle_beta   90.00000000
_cell_angle_gamma   73.41141509
_symmetry_Int_Tables_number   1
_chemical_formula_structural   K2Li3US5
_chemical_formula_sum   'K4 Li6 U2 S10'
_cell_volume   521.52100610
_cell_formula_units_Z   2
loop_
 _symmetry_equiv_pos_site_id
 _symmetry_equiv_pos_as_xyz
  1  'x, y, z'
loop_
 _atom_site_type_symbol
 _atom_site_label
 _atom_site_symmetry_multiplicity
 _atom_site_fract_x
 _atom_site_fract_y
 _atom_site_fract_z
 _atom_site_occupancy
  K  K0  1  0.763755  0.472491  0.136268  1
  K  K1  1  0.763755  0.472491  0.363732  1
  K  K2  1  0.236245  0.527510  0.636268  1
  K  K3  1  0.236245  0.527510  0.863732  1
  Li  Li4  1  0.043028  0.913943  0.147877  1
  Li  Li5  1  0.556961  0.886079  0.250000  1
  Li  Li6  1  0.043028  0.913943  0.352123  1
  Li  Li7  1  0.956972  0.086057  0.647877  1
  Li  Li8  1  0.443039  0.113921  0.750000  1
  Li  Li9  1  0.956972  0.086057  0.852123  1
  U  U10  1  0.500000  0.000000  0.000000  1
  U  U11  1  0.500000  0.000000  0.500000  1
  S  S12  1  0.119092  0.761818  0.027011  1
  S  S13  1  0.450478  0.099043  0.134815  1
  S  S14  1  0.147806  0.704390  0.250000  1
  S  S15  1  0.450478  0.099043  0.365185  1
  S  S16  1  0.119092  0.761818  0.472989  1
  S  S17  1  0.880909  0.238181  0.527011  1
  S  S18  1  0.549523  0.900957  0.634815  1
  S  S19  1  0.852195  0.295610  0.750000  1
  S  S20  1  0.549523  0.900957  0.865185  1
  S  S21  1  0.880909  0.238181  0.972989  1
