# generated using pymatgen
data_Y2Er2Al18Co5Ni
_symmetry_space_group_name_H-M   'P 1'
_cell_length_a   7.36981376
_cell_length_b   7.36747568
_cell_length_c   9.27521901
_cell_angle_alpha   89.96709799
_cell_angle_beta   89.97736779
_cell_angle_gamma   119.26631766
_symmetry_Int_Tables_number   1
_chemical_formula_structural   Y2Er2Al18Co5Ni
_chemical_formula_sum   'Y2 Er2 Al18 Co5 Ni1'
_cell_volume   439.33252145
_cell_formula_units_Z   1
loop_
 _symmetry_equiv_pos_site_id
 _symmetry_equiv_pos_as_xyz
  1  'x, y, z'
loop_
 _atom_site_type_symbol
 _atom_site_label
 _atom_site_symmetry_multiplicity
 _atom_site_fract_x
 _atom_site_fract_y
 _atom_site_fract_z
 _atom_site_occupancy
  Y  Y0  1  0.672230  0.993410  0.250334  1
  Y  Y1  1  0.328109  0.006762  0.749540  1
  Er  Er2  1  0.993326  0.671893  0.250398  1
  Er  Er3  1  0.006581  0.327655  0.749604  1
  Al  Al4  1  0.125180  0.124389  0.250259  1
  Al  Al5  1  0.875307  0.875105  0.749753  1
  Al  Al6  1  0.331889  0.332018  0.541851  1
  Al  Al7  1  0.667806  0.670091  0.043443  1
  Al  Al8  1  0.329661  0.332453  0.956568  1
  Al  Al9  1  0.668255  0.667886  0.458163  1
  Al  Al10  1  0.339439  0.554249  0.250120  1
  Al  Al11  1  0.660643  0.447606  0.747314  1
  Al  Al12  1  0.552777  0.340027  0.252689  1
  Al  Al13  1  0.445437  0.659936  0.749891  1
  Al  Al14  1  0.000698  0.335867  0.071956  1
  Al  Al15  1  0.002385  0.664323  0.570666  1
  Al  Al16  1  0.335053  0.997320  0.429027  1
  Al  Al17  1  0.664750  0.999590  0.927756  1
  Al  Al18  1  0.004464  0.667194  0.928317  1
  Al  Al19  1  0.997873  0.335170  0.428895  1
  Al  Al20  1  0.665462  0.002432  0.571414  1
  Al  Al21  1  0.332179  0.995229  0.072008  1
  Co  Co22  1  0.999884  0.000109  0.999991  1
  Co  Co23  1  0.000271  0.999714  0.500023  1
  Co  Co24  1  0.328943  0.670734  0.500011  1
  Co  Co25  1  0.328876  0.670809  0.000005  1
  Co  Co26  1  0.671323  0.328968  0.500008  1
  Ni  Ni27  1  0.671200  0.329064  0.999998  1
