# generated using pymatgen
data_Cd3GaAu4
_symmetry_space_group_name_H-M   'P 1'
_cell_length_a   12.68720145
_cell_length_b   12.68720060
_cell_length_c   4.64978100
_cell_angle_alpha   90.00000000
_cell_angle_beta   90.00000000
_cell_angle_gamma   167.09288423
_symmetry_Int_Tables_number   1
_chemical_formula_structural   Cd3GaAu4
_chemical_formula_sum   'Cd3 Ga1 Au4'
_cell_volume   167.18267372
_cell_formula_units_Z   1
loop_
 _symmetry_equiv_pos_site_id
 _symmetry_equiv_pos_as_xyz
  1  'x, y, z'
loop_
 _atom_site_type_symbol
 _atom_site_label
 _atom_site_symmetry_multiplicity
 _atom_site_fract_x
 _atom_site_fract_y
 _atom_site_fract_z
 _atom_site_occupancy
  Cd  Cd0  1  0.289918  0.710085  0.249999  1
  Cd  Cd1  1  0.700367  0.299636  0.750000  1
  Cd  Cd2  1  0.424683  0.575320  0.750000  1
  Ga  Ga3  1  0.561371  0.438632  0.249999  1
  Au  Au4  1  0.968318  0.031684  0.249999  1
  Au  Au5  1  0.161874  0.838129  0.249999  1
  Au  Au6  1  0.822098  0.177905  0.750000  1
  Au  Au7  1  0.071380  0.928622  0.750000  1
