# generated using pymatgen
data_Ho3Tm7(OsRu)2
_symmetry_space_group_name_H-M   'P 1'
_cell_length_a   6.27796116
_cell_length_b   7.28607312
_cell_length_c   8.34129211
_cell_angle_alpha   96.89608850
_cell_angle_beta   112.14916068
_cell_angle_gamma   90.06452889
_symmetry_Int_Tables_number   1
_chemical_formula_structural   Ho3Tm7(OsRu)2
_chemical_formula_sum   'Ho3 Tm7 Os2 Ru2'
_cell_volume   350.38539996
_cell_formula_units_Z   1
loop_
 _symmetry_equiv_pos_site_id
 _symmetry_equiv_pos_as_xyz
  1  'x, y, z'
loop_
 _atom_site_type_symbol
 _atom_site_label
 _atom_site_symmetry_multiplicity
 _atom_site_fract_x
 _atom_site_fract_y
 _atom_site_fract_z
 _atom_site_occupancy
  Ho  Ho0  1  0.792491  0.083248  0.815761  1
  Ho  Ho1  1  0.976291  0.416847  0.183654  1
  Ho  Ho2  1  0.209335  0.915592  0.185914  1
  Tm  Tm3  1  0.022877  0.584525  0.814281  1
  Tm  Tm4  1  0.204115  0.183296  0.564599  1
  Tm  Tm5  1  0.640002  0.316850  0.435920  1
  Tm  Tm6  1  0.795180  0.816520  0.434989  1
  Tm  Tm7  1  0.359850  0.683391  0.565217  1
  Tm  Tm8  1  0.420713  0.250069  0.999782  1
  Tm  Tm9  1  0.580210  0.749981  0.999858  1
  Os  Os10  1  0.602218  0.423512  0.779861  1
  Os  Os11  1  0.821199  0.077220  0.220128  1
  Ru  Ru12  1  0.398168  0.576999  0.220443  1
  Ru  Ru13  1  0.177352  0.921949  0.779596  1
