# generated using pymatgen
data_La5Cd(In5Ni3)2
_symmetry_space_group_name_H-M   'P 1'
_cell_length_a   10.46535376
_cell_length_b   10.46844102
_cell_length_c   4.48054100
_cell_angle_alpha   90.00000000
_cell_angle_beta   90.00000000
_cell_angle_gamma   90.14661552
_symmetry_Int_Tables_number   1
_chemical_formula_structural   La5Cd(In5Ni3)2
_chemical_formula_sum   'La5 Cd1 In10 Ni6'
_cell_volume   490.86826721
_cell_formula_units_Z   1
loop_
 _symmetry_equiv_pos_site_id
 _symmetry_equiv_pos_as_xyz
  1  'x, y, z'
loop_
 _atom_site_type_symbol
 _atom_site_label
 _atom_site_symmetry_multiplicity
 _atom_site_fract_x
 _atom_site_fract_y
 _atom_site_fract_z
 _atom_site_occupancy
  La  La0  1  0.037228  0.311457  0.000000  1
  La  La1  1  0.963098  0.688728  0.000000  1
  La  La2  1  0.688534  0.962772  0.000000  1
  La  La3  1  0.311269  0.036907  0.000000  1
  La  La4  1  0.499300  0.500695  0.500000  1
  Cd  Cd5  1  0.163081  0.836921  0.500000  1
  In  In6  1  0.154136  0.538318  0.500000  1
  In  In7  1  0.846367  0.463309  0.500000  1
  In  In8  1  0.461691  0.845856  0.500000  1
  In  In9  1  0.536695  0.153626  0.500000  1
  In  In10  1  0.694665  0.305324  0.000000  1
  In  In11  1  0.303892  0.696110  0.000000  1
  In  In12  1  0.838846  0.161159  0.500000  1
  In  In13  1  0.274426  0.275155  0.500000  1
  In  In14  1  0.724845  0.725573  0.500000  1
  In  In15  1  0.001791  0.998205  0.000000  1
  Ni  Ni16  1  0.279079  0.443330  0.000000  1
  Ni  Ni17  1  0.721521  0.556054  0.000000  1
  Ni  Ni18  1  0.556672  0.720919  0.000000  1
  Ni  Ni19  1  0.443956  0.278483  0.000000  1
  Ni  Ni20  1  0.091398  0.092498  0.500000  1
  Ni  Ni21  1  0.907512  0.908601  0.500000  1
