# generated using pymatgen
data_Lu20HgBi10Au
_symmetry_space_group_name_H-M   'P 1'
_cell_length_a   8.07000513
_cell_length_b   9.35358000
_cell_length_c   11.76337123
_cell_angle_alpha   90.00000000
_cell_angle_beta   90.09865039
_cell_angle_gamma   90.00000000
_symmetry_Int_Tables_number   1
_chemical_formula_structural   Lu20HgBi10Au
_chemical_formula_sum   'Lu20 Hg1 Bi10 Au1'
_cell_volume   887.93839336
_cell_formula_units_Z   1
loop_
 _symmetry_equiv_pos_site_id
 _symmetry_equiv_pos_as_xyz
  1  'x, y, z'
loop_
 _atom_site_type_symbol
 _atom_site_label
 _atom_site_symmetry_multiplicity
 _atom_site_fract_x
 _atom_site_fract_y
 _atom_site_fract_z
 _atom_site_occupancy
  Lu  Lu0  1  0.033416  0.250000  0.508494  1
  Lu  Lu1  1  0.981033  0.750000  0.490253  1
  Lu  Lu2  1  0.483263  0.750000  0.008386  1
  Lu  Lu3  1  0.539545  0.250000  0.991735  1
  Lu  Lu4  1  0.349077  0.250000  0.292597  1
  Lu  Lu5  1  0.653140  0.750000  0.719241  1
  Lu  Lu6  1  0.156062  0.750000  0.782131  1
  Lu  Lu7  1  0.853610  0.250000  0.202074  1
  Lu  Lu8  1  0.175408  0.250000  0.790087  1
  Lu  Lu9  1  0.807659  0.750000  0.215812  1
  Lu  Lu10  1  0.307858  0.750000  0.284249  1
  Lu  Lu11  1  0.689147  0.250000  0.715611  1
  Lu  Lu12  1  0.185138  0.072772  0.055261  1
  Lu  Lu13  1  0.810390  0.952212  0.942050  1
  Lu  Lu14  1  0.307768  0.944927  0.557982  1
  Lu  Lu15  1  0.810390  0.547788  0.942050  1
  Lu  Lu16  1  0.688025  0.070912  0.442128  1
  Lu  Lu17  1  0.185138  0.427228  0.055261  1
  Lu  Lu18  1  0.688025  0.429088  0.442128  1
  Lu  Lu19  1  0.307768  0.555073  0.557982  1
  Hg  Hg20  1  0.407496  0.250000  0.543374  1
  Bi  Bi21  1  0.597013  0.750000  0.458331  1
  Bi  Bi22  1  0.097148  0.750000  0.042073  1
  Bi  Bi23  1  0.056310  0.002222  0.321991  1
  Bi  Bi24  1  0.939942  0.996642  0.676792  1
  Bi  Bi25  1  0.439058  0.999332  0.822130  1
  Bi  Bi26  1  0.939942  0.503358  0.676792  1
  Bi  Bi27  1  0.554348  0.001600  0.178015  1
  Bi  Bi28  1  0.056310  0.497778  0.321991  1
  Bi  Bi29  1  0.554348  0.498400  0.178015  1
  Bi  Bi30  1  0.439058  0.500668  0.822130  1
  Au  Au31  1  0.907164  0.250000  0.962855  1
