# generated using pymatgen
data_Nd3Cd2(PtAu)2
_symmetry_space_group_name_H-M   'P 1'
_cell_length_a   3.91975100
_cell_length_b   7.94856625
_cell_length_c   7.83942888
_cell_angle_alpha   120.46160857
_cell_angle_beta   90.00000000
_cell_angle_gamma   90.00000000
_symmetry_Int_Tables_number   1
_chemical_formula_structural   Nd3Cd2(PtAu)2
_chemical_formula_sum   'Nd3 Cd2 Pt2 Au2'
_cell_volume   210.53454831
_cell_formula_units_Z   1
loop_
 _symmetry_equiv_pos_site_id
 _symmetry_equiv_pos_as_xyz
  1  'x, y, z'
loop_
 _atom_site_type_symbol
 _atom_site_label
 _atom_site_symmetry_multiplicity
 _atom_site_fract_x
 _atom_site_fract_y
 _atom_site_fract_z
 _atom_site_occupancy
  Nd  Nd0  1  0.000000  0.420900  0.000000  1
  Nd  Nd1  1  0.000000  0.598217  0.611850  1
  Nd  Nd2  1  0.000000  0.986368  0.388150  1
  Cd  Cd3  1  0.500000  0.268060  0.264054  1
  Cd  Cd4  1  0.500000  0.004006  0.735946  1
  Pt  Pt5  1  0.500000  0.663733  0.343227  1
  Pt  Pt6  1  0.500000  0.320505  0.656773  1
  Au  Au7  1  0.000000  0.008777  0.000000  1
  Au  Au8  1  0.500000  0.729533  0.000000  1
