# generated using pymatgen
data_Ho5Tm(Si3Ru)8
_symmetry_space_group_name_H-M   'P 1'
_cell_length_a   10.09667021
_cell_length_b   10.09667106
_cell_length_c   8.13598947
_cell_angle_alpha   90.02773682
_cell_angle_beta   90.02773716
_cell_angle_gamma   132.65652651
_symmetry_Int_Tables_number   1
_chemical_formula_structural   Ho5Tm(Si3Ru)8
_chemical_formula_sum   'Ho5 Tm1 Si24 Ru8'
_cell_volume   609.96814825
_cell_formula_units_Z   1
loop_
 _symmetry_equiv_pos_site_id
 _symmetry_equiv_pos_as_xyz
  1  'x, y, z'
loop_
 _atom_site_type_symbol
 _atom_site_label
 _atom_site_symmetry_multiplicity
 _atom_site_fract_x
 _atom_site_fract_y
 _atom_site_fract_z
 _atom_site_occupancy
  Ho  Ho0  1  0.000000  0.000000  0.000000  1
  Ho  Ho1  1  0.502816  0.002745  0.749835  1
  Ho  Ho2  1  0.997255  0.497184  0.250165  1
  Ho  Ho3  1  0.497184  0.997255  0.250165  1
  Ho  Ho4  1  0.002745  0.502816  0.749835  1
  Tm  Tm5  1  0.500000  0.500000  0.500000  1
  Si  Si6  1  0.794769  0.205231  0.500000  1
  Si  Si7  1  0.295037  0.704963  0.000000  1
  Si  Si8  1  0.205231  0.794769  0.500000  1
  Si  Si9  1  0.704963  0.295037  0.000000  1
  Si  Si10  1  0.332236  0.332236  0.833658  1
  Si  Si11  1  0.667764  0.667764  0.166342  1
  Si  Si12  1  0.166890  0.166890  0.333069  1
  Si  Si13  1  0.833110  0.833110  0.666931  1
  Si  Si14  1  0.122392  0.887759  0.728641  1
  Si  Si15  1  0.112241  0.877608  0.271359  1
  Si  Si16  1  0.611595  0.376973  0.228856  1
  Si  Si17  1  0.623027  0.388405  0.771144  1
  Si  Si18  1  0.877608  0.112241  0.271359  1
  Si  Si19  1  0.887759  0.122392  0.728641  1
  Si  Si20  1  0.388405  0.623027  0.771144  1
  Si  Si21  1  0.376973  0.611595  0.228856  1
  Si  Si22  1  0.345429  0.111801  0.505501  1
  Si  Si23  1  0.888199  0.654571  0.494499  1
  Si  Si24  1  0.387763  0.154382  0.005460  1
  Si  Si25  1  0.845618  0.612237  0.994540  1
  Si  Si26  1  0.654571  0.888199  0.494499  1
  Si  Si27  1  0.111801  0.345429  0.505501  1
  Si  Si28  1  0.612237  0.845618  0.994540  1
  Si  Si29  1  0.154382  0.387763  0.005460  1
  Ru  Ru30  1  0.668945  0.331055  0.500000  1
  Ru  Ru31  1  0.169535  0.830465  0.000000  1
  Ru  Ru32  1  0.331055  0.668945  0.500000  1
  Ru  Ru33  1  0.830465  0.169535  0.000000  1
  Ru  Ru34  1  0.127194  0.127194  0.626324  1
  Ru  Ru35  1  0.872806  0.872806  0.373676  1
  Ru  Ru36  1  0.374275  0.374275  0.128557  1
  Ru  Ru37  1  0.625725  0.625725  0.871443  1
