# generated using pymatgen
data_Y4ErLu5Ru4
_symmetry_space_group_name_H-M   'P 1'
_cell_length_a   6.26438619
_cell_length_b   7.27606374
_cell_length_c   8.38920901
_cell_angle_alpha   97.15988717
_cell_angle_beta   111.81189944
_cell_angle_gamma   89.84033910
_symmetry_Int_Tables_number   1
_chemical_formula_structural   Y4ErLu5Ru4
_chemical_formula_sum   'Y4 Er1 Lu5 Ru4'
_cell_volume   351.84395903
_cell_formula_units_Z   1
loop_
 _symmetry_equiv_pos_site_id
 _symmetry_equiv_pos_as_xyz
  1  'x, y, z'
loop_
 _atom_site_type_symbol
 _atom_site_label
 _atom_site_symmetry_multiplicity
 _atom_site_fract_x
 _atom_site_fract_y
 _atom_site_fract_z
 _atom_site_occupancy
  Y  Y0  1  0.523382  0.082010  0.809999  1
  Y  Y1  1  0.477856  0.917005  0.190054  1
  Y  Y2  1  0.712331  0.417935  0.190126  1
  Y  Y3  1  0.286423  0.582901  0.809913  1
  Er  Er4  1  0.300397  0.314148  0.433731  1
  Lu  Lu5  1  0.700204  0.685949  0.566958  1
  Lu  Lu6  1  0.867077  0.185124  0.566678  1
  Lu  Lu7  1  0.132467  0.814527  0.433753  1
  Lu  Lu8  1  0.079370  0.250161  0.999157  1
  Lu  Lu9  1  0.919966  0.749625  0.999868  1
  Ru  Ru10  1  0.314769  0.576679  0.222742  1
  Ru  Ru11  1  0.686548  0.424346  0.777592  1
  Ru  Ru12  1  0.091301  0.924871  0.776555  1
  Ru  Ru13  1  0.907910  0.074720  0.222875  1
