# generated using pymatgen
data_NaSrSbPd3
_symmetry_space_group_name_H-M   'P 1'
_cell_length_a   5.46492962
_cell_length_b   5.46492882
_cell_length_c   5.46492700
_cell_angle_alpha   64.05263285
_cell_angle_beta   64.05263693
_cell_angle_gamma   64.05262781
_symmetry_Int_Tables_number   1
_chemical_formula_structural   NaSrSbPd3
_chemical_formula_sum   'Na1 Sr1 Sb1 Pd3'
_cell_volume   125.70487346
_cell_formula_units_Z   1
loop_
 _symmetry_equiv_pos_site_id
 _symmetry_equiv_pos_as_xyz
  1  'x, y, z'
loop_
 _atom_site_type_symbol
 _atom_site_label
 _atom_site_symmetry_multiplicity
 _atom_site_fract_x
 _atom_site_fract_y
 _atom_site_fract_z
 _atom_site_occupancy
  Na  Na0  1  0.868267  0.868267  0.868267  1
  Sr  Sr1  1  0.120880  0.120880  0.120880  1
  Sb  Sb2  1  0.504095  0.504095  0.504095  1
  Pd  Pd3  1  0.502060  0.502060  0.002637  1
  Pd  Pd4  1  0.002637  0.502060  0.502060  1
  Pd  Pd5  1  0.502060  0.002637  0.502060  1
