# generated using pymatgen
data_Na2MgFeP3NO9
_symmetry_space_group_name_H-M   'P 1'
_cell_length_a   9.35243600
_cell_length_b   9.35243600
_cell_length_c   9.35243600
_cell_angle_alpha   90.00000000
_cell_angle_beta   90.00000000
_cell_angle_gamma   90.00000000
_symmetry_Int_Tables_number   1
_chemical_formula_structural   Na2MgFeP3NO9
_chemical_formula_sum   'Na8 Mg4 Fe4 P12 N4 O36'
_cell_volume   818.03942510
_cell_formula_units_Z   4
loop_
 _symmetry_equiv_pos_site_id
 _symmetry_equiv_pos_as_xyz
  1  'x, y, z'
loop_
 _atom_site_type_symbol
 _atom_site_label
 _atom_site_symmetry_multiplicity
 _atom_site_fract_x
 _atom_site_fract_y
 _atom_site_fract_z
 _atom_site_occupancy
  Na  Na0  1  0.459254  0.959254  0.540746  1
  Na  Na1  1  0.959254  0.540746  0.459254  1
  Na  Na2  1  0.540746  0.459254  0.959254  1
  Na  Na3  1  0.040746  0.040746  0.040746  1
  Na  Na4  1  0.706513  0.206513  0.293487  1
  Na  Na5  1  0.206513  0.293487  0.706513  1
  Na  Na6  1  0.293487  0.706513  0.206513  1
  Na  Na7  1  0.793487  0.793487  0.793487  1
  Mg  Mg8  1  0.099608  0.599608  0.900392  1
  Mg  Mg9  1  0.599608  0.900392  0.099608  1
  Mg  Mg10  1  0.900392  0.099608  0.599608  1
  Mg  Mg11  1  0.400392  0.400392  0.400392  1
  Fe  Fe12  1  0.922319  0.422319  0.077681  1
  Fe  Fe13  1  0.422319  0.077681  0.922319  1
  Fe  Fe14  1  0.077681  0.922319  0.422319  1
  Fe  Fe15  1  0.577681  0.577681  0.577681  1
  P  P16  1  0.237091  0.655964  0.595063  1
  P  P17  1  0.404937  0.737091  0.844036  1
  P  P18  1  0.155964  0.904937  0.762909  1
  P  P19  1  0.737091  0.844036  0.404937  1
  P  P20  1  0.904937  0.762909  0.155964  1
  P  P21  1  0.655964  0.595063  0.237091  1
  P  P22  1  0.762909  0.155964  0.904937  1
  P  P23  1  0.595063  0.237091  0.655964  1
  P  P24  1  0.844036  0.404937  0.737091  1
  P  P25  1  0.262909  0.344036  0.095063  1
  P  P26  1  0.095063  0.262909  0.344036  1
  P  P27  1  0.344036  0.095063  0.262909  1
  N  N28  1  0.298467  0.798467  0.701533  1
  N  N29  1  0.798467  0.701533  0.298467  1
  N  N30  1  0.701533  0.298467  0.798467  1
  N  N31  1  0.201533  0.201533  0.201533  1
  O  O32  1  0.624563  0.783097  0.506689  1
  O  O33  1  0.493311  0.124563  0.716903  1
  O  O34  1  0.283097  0.993311  0.375437  1
  O  O35  1  0.124563  0.716903  0.493311  1
  O  O36  1  0.993311  0.375437  0.283097  1
  O  O37  1  0.783097  0.506689  0.624563  1
  O  O38  1  0.375437  0.283097  0.993311  1
  O  O39  1  0.506689  0.624563  0.783097  1
  O  O40  1  0.716903  0.493311  0.124563  1
  O  O41  1  0.875437  0.216903  0.006689  1
  O  O42  1  0.006689  0.875437  0.216903  1
  O  O43  1  0.216903  0.006689  0.875437  1
  O  O44  1  0.362942  0.601330  0.504699  1
  O  O45  1  0.495301  0.862942  0.898670  1
  O  O46  1  0.101330  0.995301  0.637058  1
  O  O47  1  0.862942  0.898670  0.495301  1
  O  O48  1  0.995301  0.637058  0.101330  1
  O  O49  1  0.601330  0.504699  0.362942  1
  O  O50  1  0.637058  0.101330  0.995301  1
  O  O51  1  0.504699  0.362942  0.601330  1
  O  O52  1  0.898670  0.495301  0.862942  1
  O  O53  1  0.137058  0.398670  0.004699  1
  O  O54  1  0.004699  0.137058  0.398670  1
  O  O55  1  0.398670  0.004699  0.137058  1
  O  O56  1  0.176567  0.544794  0.698759  1
  O  O57  1  0.301241  0.676567  0.955206  1
  O  O58  1  0.044794  0.801241  0.823433  1
  O  O59  1  0.676567  0.955206  0.301241  1
  O  O60  1  0.801241  0.823433  0.044794  1
  O  O61  1  0.544794  0.698759  0.176567  1
  O  O62  1  0.823433  0.044794  0.801241  1
  O  O63  1  0.698759  0.176567  0.544794  1
  O  O64  1  0.955206  0.301241  0.676567  1
  O  O65  1  0.323433  0.455206  0.198759  1
  O  O66  1  0.198759  0.323433  0.455206  1
  O  O67  1  0.455206  0.198759  0.323433  1
