# generated using pymatgen
data_Sr16As11
_symmetry_space_group_name_H-M   'P 1'
_cell_length_a   11.33968700
_cell_length_b   12.31145500
_cell_length_c   12.31775500
_cell_angle_alpha   90.00000000
_cell_angle_beta   90.00000000
_cell_angle_gamma   90.00000000
_symmetry_Int_Tables_number   1
_chemical_formula_structural   Sr16As11
_chemical_formula_sum   'Sr32 As22'
_cell_volume   1719.65770930
_cell_formula_units_Z   2
loop_
 _symmetry_equiv_pos_site_id
 _symmetry_equiv_pos_as_xyz
  1  'x, y, z'
loop_
 _atom_site_type_symbol
 _atom_site_label
 _atom_site_symmetry_multiplicity
 _atom_site_fract_x
 _atom_site_fract_y
 _atom_site_fract_z
 _atom_site_occupancy
  Sr  Sr0  1  0.856867  0.500000  0.000000  1
  Sr  Sr1  1  0.143133  0.000000  0.500000  1
  Sr  Sr2  1  0.501683  0.624484  0.124840  1
  Sr  Sr3  1  0.498317  0.124484  0.375160  1
  Sr  Sr4  1  0.501683  0.375516  0.875160  1
  Sr  Sr5  1  0.498317  0.875516  0.624840  1
  Sr  Sr6  1  0.002549  0.794171  0.090890  1
  Sr  Sr7  1  0.997451  0.294171  0.409110  1
  Sr  Sr8  1  0.002549  0.205829  0.909110  1
  Sr  Sr9  1  0.997451  0.705829  0.590890  1
  Sr  Sr10  1  0.996776  0.091680  0.205450  1
  Sr  Sr11  1  0.003224  0.591680  0.294550  1
  Sr  Sr12  1  0.996776  0.908320  0.794550  1
  Sr  Sr13  1  0.003224  0.408320  0.705450  1
  Sr  Sr14  1  0.204605  0.500000  0.000000  1
  Sr  Sr15  1  0.795395  0.000000  0.500000  1
  Sr  Sr16  1  0.709306  0.919138  0.206948  1
  Sr  Sr17  1  0.290694  0.419138  0.293052  1
  Sr  Sr18  1  0.709306  0.080862  0.793052  1
  Sr  Sr19  1  0.290694  0.580862  0.706948  1
  Sr  Sr20  1  0.291676  0.205479  0.079754  1
  Sr  Sr21  1  0.708324  0.705479  0.420246  1
  Sr  Sr22  1  0.291676  0.794521  0.920246  1
  Sr  Sr23  1  0.708324  0.294521  0.579754  1
  Sr  Sr24  1  0.683047  0.574889  0.701118  1
  Sr  Sr25  1  0.316953  0.074889  0.798882  1
  Sr  Sr26  1  0.683047  0.425111  0.298882  1
  Sr  Sr27  1  0.316953  0.925111  0.201118  1
  Sr  Sr28  1  0.319889  0.698509  0.425708  1
  Sr  Sr29  1  0.680111  0.198509  0.074292  1
  Sr  Sr30  1  0.319889  0.301491  0.574292  1
  Sr  Sr31  1  0.680111  0.801491  0.925708  1
  As  As32  1  0.852516  0.500000  0.500000  1
  As  As33  1  0.147484  0.000000  0.000000  1
  As  As34  1  0.148897  0.500000  0.500000  1
  As  As35  1  0.851103  0.000000  0.000000  1
  As  As36  1  0.964985  0.856513  0.355968  1
  As  As37  1  0.035015  0.356513  0.144032  1
  As  As38  1  0.964985  0.143487  0.644032  1
  As  As39  1  0.035015  0.643487  0.855968  1
  As  As40  1  0.512515  0.872427  0.372903  1
  As  As41  1  0.487485  0.372427  0.127097  1
  As  As42  1  0.512515  0.127573  0.627097  1
  As  As43  1  0.487485  0.627573  0.872903  1
  As  As44  1  0.763350  0.664283  0.164549  1
  As  As45  1  0.236650  0.164283  0.335451  1
  As  As46  1  0.763350  0.335717  0.835451  1
  As  As47  1  0.236650  0.835717  0.664549  1
  As  As48  1  0.241767  0.678120  0.178679  1
  As  As49  1  0.758233  0.178120  0.321321  1
  As  As50  1  0.241767  0.321880  0.821321  1
  As  As51  1  0.758233  0.821880  0.678679  1
  As  As52  1  0.502859  0.500000  0.500000  1
  As  As53  1  0.497141  0.000000  0.000000  1
