# generated using pymatgen
data_TbSm2UN4
_symmetry_space_group_name_H-M   'P 1'
_cell_length_a   7.05798044
_cell_length_b   9.31739034
_cell_length_c   6.08265261
_cell_angle_alpha   29.24129256
_cell_angle_beta   54.53730460
_cell_angle_gamma   40.75516257
_symmetry_Int_Tables_number   1
_chemical_formula_structural   TbSm2UN4
_chemical_formula_sum   'Tb1 Sm2 U1 N4'
_cell_volume   123.39895444
_cell_formula_units_Z   1
loop_
 _symmetry_equiv_pos_site_id
 _symmetry_equiv_pos_as_xyz
  1  'x, y, z'
loop_
 _atom_site_type_symbol
 _atom_site_label
 _atom_site_symmetry_multiplicity
 _atom_site_fract_x
 _atom_site_fract_y
 _atom_site_fract_z
 _atom_site_occupancy
  Tb  Tb0  1  0.250000  0.500000  0.000000  1
  Sm  Sm1  1  0.750000  0.500000  0.000000  1
  Sm  Sm2  1  0.500000  0.000000  0.000000  1
  U  U3  1  0.000000  0.000000  0.000000  1
  N  N4  1  0.496783  0.500000  0.506435  1
  N  N5  1  0.224574  0.000000  0.550853  1
  N  N6  1  0.003217  0.500000  0.493565  1
  N  N7  1  0.775426  0.000000  0.449147  1
