# generated using pymatgen
data_YbYGa7Si2Ir3
_symmetry_space_group_name_H-M   'P 1'
_cell_length_a   7.54748260
_cell_length_b   7.49998212
_cell_length_c   9.49174498
_cell_angle_alpha   89.92030671
_cell_angle_beta   89.98987332
_cell_angle_gamma   120.02755960
_symmetry_Int_Tables_number   1
_chemical_formula_structural   YbYGa7Si2Ir3
_chemical_formula_sum   'Yb2 Y2 Ga14 Si4 Ir6'
_cell_volume   465.17645661
_cell_formula_units_Z   2
loop_
 _symmetry_equiv_pos_site_id
 _symmetry_equiv_pos_as_xyz
  1  'x, y, z'
loop_
 _atom_site_type_symbol
 _atom_site_label
 _atom_site_symmetry_multiplicity
 _atom_site_fract_x
 _atom_site_fract_y
 _atom_site_fract_z
 _atom_site_occupancy
  Yb  Yb0  1  0.668037  0.001328  0.249988  1
  Yb  Yb1  1  0.326135  0.995370  0.750231  1
  Y  Y2  1  0.000339  0.668541  0.249615  1
  Y  Y3  1  0.002812  0.339093  0.750424  1
  Ga  Ga4  1  0.129754  0.128260  0.249830  1
  Ga  Ga5  1  0.874219  0.869841  0.750057  1
  Ga  Ga6  1  0.997161  0.325521  0.418776  1
  Ga  Ga7  1  0.668694  0.999844  0.580590  1
  Ga  Ga8  1  0.660973  0.997814  0.919599  1
  Ga  Ga9  1  0.341431  0.003254  0.079020  1
  Ga  Ga10  1  0.332853  0.333381  0.571239  1
  Ga  Ga11  1  0.663226  0.670996  0.428630  1
  Ga  Ga12  1  0.661626  0.670466  0.071461  1
  Ga  Ga13  1  0.337870  0.330122  0.928940  1
  Ga  Ga14  1  0.337161  0.547560  0.250561  1
  Ga  Ga15  1  0.662064  0.455466  0.750880  1
  Ga  Ga16  1  0.547120  0.338781  0.249605  1
  Ga  Ga17  1  0.452082  0.664277  0.749432  1
  Si  Si18  1  0.999580  0.327692  0.072483  1
  Si  Si19  1  0.998980  0.671478  0.931302  1
  Si  Si20  1  0.995899  0.660903  0.568480  1
  Si  Si21  1  0.339339  0.004563  0.428705  1
  Ir  Ir22  1  0.695758  0.343329  0.001936  1
  Ir  Ir23  1  0.303389  0.655408  0.998076  1
  Ir  Ir24  1  0.316650  0.679023  0.499531  1
  Ir  Ir25  1  0.672622  0.330994  0.500472  1
  Ir  Ir26  1  0.000754  0.000073  0.000243  1
  Ir  Ir27  1  0.013470  0.986624  0.499899  1
