# generated using pymatgen
data_NaAl2InTe5
_symmetry_space_group_name_H-M   'P 1'
_cell_length_a   10.70276847
_cell_length_b   10.78372262
_cell_length_c   10.72764131
_cell_angle_alpha   91.29717134
_cell_angle_beta   90.98211675
_cell_angle_gamma   91.13805494
_symmetry_Int_Tables_number   1
_chemical_formula_structural   NaAl2InTe5
_chemical_formula_sum   'Na4 Al8 In4 Te20'
_cell_volume   1237.38496827
_cell_formula_units_Z   4
loop_
 _symmetry_equiv_pos_site_id
 _symmetry_equiv_pos_as_xyz
  1  'x, y, z'
loop_
 _atom_site_type_symbol
 _atom_site_label
 _atom_site_symmetry_multiplicity
 _atom_site_fract_x
 _atom_site_fract_y
 _atom_site_fract_z
 _atom_site_occupancy
  Na  Na0  1  0.255515  0.001774  0.742175  1
  Na  Na1  1  0.739993  0.256026  0.999431  1
  Na  Na2  1  0.000737  0.744312  0.257039  1
  Na  Na3  1  0.498645  0.498424  0.497930  1
  Al  Al4  1  0.124265  0.160572  0.427553  1
  Al  Al5  1  0.428920  0.121654  0.166320  1
  Al  Al6  1  0.742564  0.161726  0.347291  1
  Al  Al7  1  0.348645  0.745229  0.165642  1
  Al  Al8  1  0.164385  0.348322  0.740438  1
  Al  Al9  1  0.257458  0.649900  0.831822  1
  Al  Al10  1  0.834829  0.255111  0.650189  1
  Al  Al11  1  0.652514  0.833456  0.254861  1
  In  In12  1  0.842235  0.880379  0.571596  1
  In  In13  1  0.570986  0.843737  0.879792  1
  In  In14  1  0.876582  0.573375  0.842155  1
  In  In15  1  0.162439  0.425518  0.125823  1
  Te  Te16  1  0.182744  0.812498  0.999025  1
  Te  Te17  1  0.817821  0.997815  0.182265  1
  Te  Te18  1  0.180255  0.164964  0.181434  1
  Te  Te19  1  0.835934  0.837240  0.835505  1
  Te  Te20  1  0.998930  0.185722  0.817658  1
  Te  Te21  1  0.912082  0.497114  0.089950  1
  Te  Te22  1  0.089185  0.927736  0.492955  1
  Te  Te23  1  0.490093  0.088104  0.929900  1
  Te  Te24  1  0.744408  0.684038  0.419598  1
  Te  Te25  1  0.420133  0.746959  0.681472  1
  Te  Te26  1  0.682589  0.419465  0.740214  1
  Te  Te27  1  0.257202  0.584464  0.319834  1
  Te  Te28  1  0.308068  0.254231  0.569560  1
  Te  Te29  1  0.572133  0.306728  0.255467  1
  Te  Te30  1  0.669820  0.078630  0.569605  1
  Te  Te31  1  0.569098  0.670543  0.077470  1
  Te  Te32  1  0.077208  0.568852  0.670354  1
  Te  Te33  1  0.328322  0.429063  0.919085  1
  Te  Te34  1  0.931011  0.315844  0.427635  1
  Te  Te35  1  0.432252  0.930475  0.320959  1
