# generated using pymatgen
data_DyLuMgB2Rh5
_symmetry_space_group_name_H-M   'P 1'
_cell_length_a   9.58827333
_cell_length_b   9.58827333
_cell_length_c   3.16856100
_cell_angle_alpha   90.00000000
_cell_angle_beta   90.00000000
_cell_angle_gamma   90.64804638
_symmetry_Int_Tables_number   1
_chemical_formula_structural   DyLuMgB2Rh5
_chemical_formula_sum   'Dy2 Lu2 Mg2 B4 Rh10'
_cell_volume   291.28297653
_cell_formula_units_Z   2
loop_
 _symmetry_equiv_pos_site_id
 _symmetry_equiv_pos_as_xyz
  1  'x, y, z'
loop_
 _atom_site_type_symbol
 _atom_site_label
 _atom_site_symmetry_multiplicity
 _atom_site_fract_x
 _atom_site_fract_y
 _atom_site_fract_z
 _atom_site_occupancy
  Dy  Dy0  1  0.176140  0.323860  0.000000  1
  Dy  Dy1  1  0.823860  0.676140  0.000000  1
  Lu  Lu2  1  0.675331  0.175331  0.000000  1
  Lu  Lu3  1  0.324669  0.824669  0.000000  1
  Mg  Mg4  1  0.000000  0.000000  0.000000  1
  Mg  Mg5  1  0.500000  0.500000  0.000000  1
  B  B6  1  0.123418  0.623418  0.000000  1
  B  B7  1  0.876582  0.376582  0.000000  1
  B  B8  1  0.622199  0.877801  0.000000  1
  B  B9  1  0.377801  0.122199  0.000000  1
  Rh  Rh10  1  0.500000  0.000000  0.500000  1
  Rh  Rh11  1  0.000000  0.500000  0.500000  1
  Rh  Rh12  1  0.225010  0.067237  0.500000  1
  Rh  Rh13  1  0.774990  0.932763  0.500000  1
  Rh  Rh14  1  0.073781  0.777993  0.500000  1
  Rh  Rh15  1  0.722007  0.426219  0.500000  1
  Rh  Rh16  1  0.926219  0.222007  0.500000  1
  Rh  Rh17  1  0.277993  0.573781  0.500000  1
  Rh  Rh18  1  0.567237  0.725010  0.500000  1
  Rh  Rh19  1  0.432763  0.274990  0.500000  1
