# generated using pymatgen
data_Y20In3Ru2Au3
_symmetry_space_group_name_H-M   'P 1'
_cell_length_a   9.71002300
_cell_length_b   9.71002137
_cell_length_c   9.58123000
_cell_angle_alpha   90.00000000
_cell_angle_beta   90.00000000
_cell_angle_gamma   120.00000213
_symmetry_Int_Tables_number   1
_chemical_formula_structural   Y20In3Ru2Au3
_chemical_formula_sum   'Y20 In3 Ru2 Au3'
_cell_volume   782.33422973
_cell_formula_units_Z   1
loop_
 _symmetry_equiv_pos_site_id
 _symmetry_equiv_pos_as_xyz
  1  'x, y, z'
loop_
 _atom_site_type_symbol
 _atom_site_label
 _atom_site_symmetry_multiplicity
 _atom_site_fract_x
 _atom_site_fract_y
 _atom_site_fract_z
 _atom_site_occupancy
  Y  Y0  1  0.000000  0.000000  0.455066  1
  Y  Y1  1  0.000000  0.000000  0.044934  1
  Y  Y2  1  0.209799  0.790201  0.439515  1
  Y  Y3  1  0.209799  0.419599  0.439515  1
  Y  Y4  1  0.580401  0.790201  0.439515  1
  Y  Y5  1  0.792040  0.207960  0.559546  1
  Y  Y6  1  0.792040  0.584078  0.559546  1
  Y  Y7  1  0.415922  0.207960  0.559546  1
  Y  Y8  1  0.792040  0.207960  0.940454  1
  Y  Y9  1  0.792040  0.584078  0.940454  1
  Y  Y10  1  0.415922  0.207960  0.940454  1
  Y  Y11  1  0.209799  0.790201  0.060485  1
  Y  Y12  1  0.209799  0.419599  0.060485  1
  Y  Y13  1  0.580401  0.790201  0.060485  1
  Y  Y14  1  0.540146  0.459854  0.250000  1
  Y  Y15  1  0.540146  0.080290  0.250000  1
  Y  Y16  1  0.919710  0.459854  0.250000  1
  Y  Y17  1  0.460051  0.539949  0.750000  1
  Y  Y18  1  0.460051  0.920102  0.750000  1
  Y  Y19  1  0.079898  0.539949  0.750000  1
  In  In20  1  0.110438  0.889562  0.750000  1
  In  In21  1  0.110438  0.220876  0.750000  1
  In  In22  1  0.779124  0.889562  0.750000  1
  Ru  Ru23  1  0.333333  0.666667  0.250000  1
  Ru  Ru24  1  0.666667  0.333333  0.750000  1
  Au  Au25  1  0.868638  0.131362  0.250000  1
  Au  Au26  1  0.868638  0.737277  0.250000  1
  Au  Au27  1  0.262723  0.131362  0.250000  1
