# generated using pymatgen
data_Sm5Tl3Cl
_symmetry_space_group_name_H-M   'P 1'
_cell_length_a   9.35678200
_cell_length_b   9.35678258
_cell_length_c   6.74518000
_cell_angle_alpha   90.00000000
_cell_angle_beta   90.00000000
_cell_angle_gamma   120.00000503
_symmetry_Int_Tables_number   1
_chemical_formula_structural   Sm5Tl3Cl
_chemical_formula_sum   'Sm10 Tl6 Cl2'
_cell_volume   511.41940478
_cell_formula_units_Z   2
loop_
 _symmetry_equiv_pos_site_id
 _symmetry_equiv_pos_as_xyz
  1  'x, y, z'
loop_
 _atom_site_type_symbol
 _atom_site_label
 _atom_site_symmetry_multiplicity
 _atom_site_fract_x
 _atom_site_fract_y
 _atom_site_fract_z
 _atom_site_occupancy
  Sm  Sm0  1  0.256929  0.000000  0.250000  1
  Sm  Sm1  1  0.743071  0.000000  0.750000  1
  Sm  Sm2  1  0.000000  0.256929  0.250000  1
  Sm  Sm3  1  0.000000  0.743071  0.750000  1
  Sm  Sm4  1  0.743071  0.743071  0.250000  1
  Sm  Sm5  1  0.256929  0.256929  0.750000  1
  Sm  Sm6  1  0.333333  0.666667  0.000000  1
  Sm  Sm7  1  0.666667  0.333333  0.000000  1
  Sm  Sm8  1  0.666667  0.333333  0.500000  1
  Sm  Sm9  1  0.333333  0.666667  0.500000  1
  Tl  Tl10  1  0.609535  0.000000  0.250000  1
  Tl  Tl11  1  0.390465  0.000000  0.750000  1
  Tl  Tl12  1  0.000000  0.609535  0.250000  1
  Tl  Tl13  1  0.000000  0.390465  0.750000  1
  Tl  Tl14  1  0.390465  0.390465  0.250000  1
  Tl  Tl15  1  0.609535  0.609535  0.750000  1
  Cl  Cl16  1  0.000000  0.000000  0.000000  1
  Cl  Cl17  1  0.000000  0.000000  0.500000  1
