# generated using pymatgen
data_Mg4AlIn(SbPt)6
_symmetry_space_group_name_H-M   'P 1'
_cell_length_a   7.78207684
_cell_length_b   7.78588332
_cell_length_c   7.81761677
_cell_angle_alpha   99.72153520
_cell_angle_beta   99.74295758
_cell_angle_gamma   119.76217453
_symmetry_Int_Tables_number   1
_chemical_formula_structural   Mg4AlIn(SbPt)6
_chemical_formula_sum   'Mg4 Al1 In1 Sb6 Pt6'
_cell_volume   387.15673361
_cell_formula_units_Z   1
loop_
 _symmetry_equiv_pos_site_id
 _symmetry_equiv_pos_as_xyz
  1  'x, y, z'
loop_
 _atom_site_type_symbol
 _atom_site_label
 _atom_site_symmetry_multiplicity
 _atom_site_fract_x
 _atom_site_fract_y
 _atom_site_fract_z
 _atom_site_occupancy
  Mg  Mg0  1  0.331235  0.164474  0.498583  1
  Mg  Mg1  1  0.998332  0.503639  0.498837  1
  Mg  Mg2  1  0.164450  0.331292  0.999832  1
  Mg  Mg3  1  0.503632  0.999882  0.000253  1
  Al  Al4  1  0.832956  0.669718  0.001011  1
  In  In5  1  0.670481  0.830323  0.497931  1
  Sb  Sb6  1  0.919609  0.095067  0.247597  1
  Sb  Sb7  1  0.252001  0.748392  0.247296  1
  Sb  Sb8  1  0.574096  0.403811  0.251395  1
  Sb  Sb9  1  0.093577  0.919981  0.751479  1
  Sb  Sb10  1  0.750104  0.253568  0.752662  1
  Sb  Sb11  1  0.408333  0.577239  0.752885  1
  Pt  Pt12  1  0.189815  0.023177  0.119005  1
  Pt  Pt13  1  0.871377  0.392095  0.120176  1
  Pt  Pt14  1  0.557303  0.705414  0.119384  1
  Pt  Pt15  1  0.040730  0.209464  0.623549  1
  Pt  Pt16  1  0.378474  0.873696  0.623851  1
  Pt  Pt17  1  0.713490  0.548767  0.644272  1
