# generated using pymatgen
data_Pr3Nd(SiO5)2
_symmetry_space_group_name_H-M   'P 1'
_cell_length_a   7.42682100
_cell_length_b   6.96673269
_cell_length_c   9.37531690
_cell_angle_alpha   71.41385593
_cell_angle_beta   90.00000000
_cell_angle_gamma   90.00000000
_symmetry_Int_Tables_number   1
_chemical_formula_structural   Pr3Nd(SiO5)2
_chemical_formula_sum   'Pr6 Nd2 Si4 O20'
_cell_volume   459.78587047
_cell_formula_units_Z   2
loop_
 _symmetry_equiv_pos_site_id
 _symmetry_equiv_pos_as_xyz
  1  'x, y, z'
loop_
 _atom_site_type_symbol
 _atom_site_label
 _atom_site_symmetry_multiplicity
 _atom_site_fract_x
 _atom_site_fract_y
 _atom_site_fract_z
 _atom_site_occupancy
  Pr  Pr0  1  0.624486  0.233173  0.979752  1
  Pr  Pr1  1  0.124486  0.266827  0.020248  1
  Pr  Pr2  1  0.653744  0.092447  0.610836  1
  Pr  Pr3  1  0.846094  0.593153  0.610399  1
  Pr  Pr4  1  0.153744  0.407553  0.389164  1
  Pr  Pr5  1  0.346094  0.906847  0.389601  1
  Nd  Nd6  1  0.875522  0.733696  0.978429  1
  Nd  Nd7  1  0.375522  0.766304  0.021571  1
  Si  Si8  1  0.081240  0.042818  0.701894  1
  Si  Si9  1  0.581240  0.457182  0.298106  1
  Si  Si10  1  0.419002  0.543737  0.701532  1
  Si  Si11  1  0.919002  0.956263  0.298468  1
  O  O12  1  0.570651  0.365189  0.706379  1
  O  O13  1  0.365985  0.494912  0.881229  1
  O  O14  1  0.376430  0.045182  0.115115  1
  O  O15  1  0.865985  0.005088  0.118771  1
  O  O16  1  0.251840  0.057493  0.591447  1
  O  O17  1  0.748099  0.942590  0.408440  1
  O  O18  1  0.039151  0.747693  0.366792  1
  O  O19  1  0.134888  0.991756  0.881683  1
  O  O20  1  0.461100  0.248233  0.365761  1
  O  O21  1  0.623040  0.949990  0.885878  1
  O  O22  1  0.070651  0.134811  0.293621  1
  O  O23  1  0.123040  0.550010  0.114122  1
  O  O24  1  0.751840  0.442507  0.408553  1
  O  O25  1  0.539151  0.752307  0.633208  1
  O  O26  1  0.961100  0.251767  0.634239  1
  O  O27  1  0.928729  0.865069  0.707080  1
  O  O28  1  0.634888  0.508244  0.118317  1
  O  O29  1  0.876430  0.454818  0.884885  1
  O  O30  1  0.428729  0.634931  0.292920  1
  O  O31  1  0.248099  0.557410  0.591560  1
