# generated using pymatgen
data_Sm2MgSi6Pd19Pt
_symmetry_space_group_name_H-M   'P 1'
_cell_length_a   8.71584775
_cell_length_b   8.71584756
_cell_length_c   8.71584694
_cell_angle_alpha   59.88187670
_cell_angle_beta   59.88187778
_cell_angle_gamma   59.88187694
_symmetry_Int_Tables_number   1
_chemical_formula_structural   Sm2MgSi6Pd19Pt
_chemical_formula_sum   'Sm2 Mg1 Si6 Pd19 Pt1'
_cell_volume   466.92629607
_cell_formula_units_Z   1
loop_
 _symmetry_equiv_pos_site_id
 _symmetry_equiv_pos_as_xyz
  1  'x, y, z'
loop_
 _atom_site_type_symbol
 _atom_site_label
 _atom_site_symmetry_multiplicity
 _atom_site_fract_x
 _atom_site_fract_y
 _atom_site_fract_z
 _atom_site_occupancy
  Sm  Sm0  1  0.249894  0.249894  0.249894  1
  Sm  Sm1  1  0.749969  0.749969  0.749969  1
  Mg  Mg2  1  0.000008  0.000008  0.000008  1
  Si  Si3  1  0.732627  0.266734  0.266734  1
  Si  Si4  1  0.266400  0.733862  0.733862  1
  Si  Si5  1  0.266734  0.732627  0.266734  1
  Si  Si6  1  0.733862  0.266400  0.733862  1
  Si  Si7  1  0.266734  0.266734  0.732627  1
  Si  Si8  1  0.733862  0.733862  0.266400  1
  Pd  Pd9  1  0.615571  0.615571  0.615571  1
  Pd  Pd10  1  0.384393  0.384393  0.846617  1
  Pd  Pd11  1  0.384393  0.846617  0.384393  1
  Pd  Pd12  1  0.616399  0.616399  0.152789  1
  Pd  Pd13  1  0.616399  0.152789  0.616399  1
  Pd  Pd14  1  0.846617  0.384393  0.384393  1
  Pd  Pd15  1  0.152789  0.616399  0.616399  1
  Pd  Pd16  1  0.343608  0.999960  0.999960  1
  Pd  Pd17  1  0.656467  0.999739  0.999739  1
  Pd  Pd18  1  0.999579  0.343523  0.656471  1
  Pd  Pd19  1  0.999579  0.656471  0.343523  1
  Pd  Pd20  1  0.999960  0.343608  0.999960  1
  Pd  Pd21  1  0.656471  0.999579  0.343523  1
  Pd  Pd22  1  0.999739  0.656467  0.999739  1
  Pd  Pd23  1  0.343523  0.999579  0.656471  1
  Pd  Pd24  1  0.999960  0.999960  0.343608  1
  Pd  Pd25  1  0.999739  0.999739  0.656467  1
  Pd  Pd26  1  0.656471  0.343523  0.999579  1
  Pd  Pd27  1  0.343523  0.656471  0.999579  1
  Pt  Pt28  1  0.384732  0.384732  0.384732  1
