# generated using pymatgen
data_Y3Hf(Co4P3)2
_symmetry_space_group_name_H-M   'P 1'
_cell_length_a   3.72011400
_cell_length_b   10.69195400
_cell_length_c   12.40018500
_cell_angle_alpha   90.00000000
_cell_angle_beta   90.00000000
_cell_angle_gamma   90.00000000
_symmetry_Int_Tables_number   1
_chemical_formula_structural   Y3Hf(Co4P3)2
_chemical_formula_sum   'Y6 Hf2 Co16 P12'
_cell_volume   493.22092669
_cell_formula_units_Z   2
loop_
 _symmetry_equiv_pos_site_id
 _symmetry_equiv_pos_as_xyz
  1  'x, y, z'
loop_
 _atom_site_type_symbol
 _atom_site_label
 _atom_site_symmetry_multiplicity
 _atom_site_fract_x
 _atom_site_fract_y
 _atom_site_fract_z
 _atom_site_occupancy
  Y  Y0  1  0.000000  0.500000  0.527782  1
  Y  Y1  1  0.500000  0.000000  0.472218  1
  Y  Y2  1  0.500000  0.821419  0.204725  1
  Y  Y3  1  0.500000  0.178581  0.204725  1
  Y  Y4  1  0.000000  0.678581  0.795275  1
  Y  Y5  1  0.000000  0.321419  0.795275  1
  Hf  Hf6  1  0.500000  0.500000  0.156682  1
  Hf  Hf7  1  0.000000  0.000000  0.843318  1
  Co  Co8  1  0.500000  0.500000  0.702447  1
  Co  Co9  1  0.000000  0.000000  0.297553  1
  Co  Co10  1  0.000000  0.500000  0.986245  1
  Co  Co11  1  0.500000  0.000000  0.013755  1
  Co  Co12  1  0.500000  0.332238  0.993044  1
  Co  Co13  1  0.500000  0.667762  0.993044  1
  Co  Co14  1  0.000000  0.167762  0.006956  1
  Co  Co15  1  0.000000  0.832238  0.006956  1
  Co  Co16  1  0.500000  0.295274  0.432866  1
  Co  Co17  1  0.500000  0.704726  0.432866  1
  Co  Co18  1  0.000000  0.204726  0.567134  1
  Co  Co19  1  0.000000  0.795274  0.567134  1
  Co  Co20  1  0.500000  0.878022  0.703425  1
  Co  Co21  1  0.500000  0.121978  0.703425  1
  Co  Co22  1  0.000000  0.621978  0.296575  1
  Co  Co23  1  0.000000  0.378022  0.296575  1
  P  P24  1  0.500000  0.500000  0.882803  1
  P  P25  1  0.000000  0.000000  0.117197  1
  P  P26  1  0.500000  0.500000  0.360637  1
  P  P27  1  0.000000  0.000000  0.639363  1
  P  P28  1  0.500000  0.309921  0.615460  1
  P  P29  1  0.500000  0.690079  0.615460  1
  P  P30  1  0.000000  0.190079  0.384540  1
  P  P31  1  0.000000  0.809921  0.384540  1
  P  P32  1  0.500000  0.838858  0.893832  1
  P  P33  1  0.500000  0.161142  0.893832  1
  P  P34  1  0.000000  0.661142  0.106168  1
  P  P35  1  0.000000  0.338858  0.106168  1
