# generated using pymatgen
data_Y2HfZrPt2
_symmetry_space_group_name_H-M   'P 1'
_cell_length_a   4.67271600
_cell_length_b   7.17131400
_cell_length_c   8.22348000
_cell_angle_alpha   90.00000000
_cell_angle_beta   90.00000000
_cell_angle_gamma   90.00000000
_symmetry_Int_Tables_number   1
_chemical_formula_structural   Y2HfZrPt2
_chemical_formula_sum   'Y4 Hf2 Zr2 Pt4'
_cell_volume   275.56481547
_cell_formula_units_Z   2
loop_
 _symmetry_equiv_pos_site_id
 _symmetry_equiv_pos_as_xyz
  1  'x, y, z'
loop_
 _atom_site_type_symbol
 _atom_site_label
 _atom_site_symmetry_multiplicity
 _atom_site_fract_x
 _atom_site_fract_y
 _atom_site_fract_z
 _atom_site_occupancy
  Y  Y0  1  0.250000  0.983279  0.324159  1
  Y  Y1  1  0.250000  0.483279  0.175841  1
  Y  Y2  1  0.750000  0.018174  0.680342  1
  Y  Y3  1  0.750000  0.518174  0.819658  1
  Hf  Hf4  1  0.250000  0.854013  0.923152  1
  Hf  Hf5  1  0.250000  0.354013  0.576848  1
  Zr  Zr6  1  0.750000  0.147006  0.078754  1
  Zr  Zr7  1  0.750000  0.647006  0.421246  1
  Pt  Pt8  1  0.250000  0.224869  0.899425  1
  Pt  Pt9  1  0.250000  0.724869  0.600575  1
  Pt  Pt10  1  0.750000  0.772660  0.091256  1
  Pt  Pt11  1  0.750000  0.272660  0.408744  1
