# generated using pymatgen
data_La8IrPtRh4
_symmetry_space_group_name_H-M   'P 1'
_cell_length_a   7.84558039
_cell_length_b   7.84664503
_cell_length_c   7.84980476
_cell_angle_alpha   109.24479516
_cell_angle_beta   109.30947881
_cell_angle_gamma   109.85941236
_symmetry_Int_Tables_number   1
_chemical_formula_structural   La8IrPtRh4
_chemical_formula_sum   'La8 Ir1 Pt1 Rh4'
_cell_volume   371.99284084
_cell_formula_units_Z   1
loop_
 _symmetry_equiv_pos_site_id
 _symmetry_equiv_pos_as_xyz
  1  'x, y, z'
loop_
 _atom_site_type_symbol
 _atom_site_label
 _atom_site_symmetry_multiplicity
 _atom_site_fract_x
 _atom_site_fract_y
 _atom_site_fract_z
 _atom_site_occupancy
  La  La0  1  0.111086  0.493185  0.997096  1
  La  La1  1  0.508200  0.005139  0.619984  1
  La  La2  1  0.387579  0.389642  0.388839  1
  La  La3  1  0.996139  0.114637  0.500693  1
  La  La4  1  0.885154  0.889106  0.882669  1
  La  La5  1  0.999705  0.609453  0.498875  1
  La  La6  1  0.610781  0.498106  0.000475  1
  La  La7  1  0.501688  0.001585  0.110766  1
  Ir  Ir8  1  0.875565  0.248895  0.124554  1
  Pt  Pt9  1  0.124940  0.874412  0.250653  1
  Rh  Rh10  1  0.375859  0.625156  0.750930  1
  Rh  Rh11  1  0.248233  0.124483  0.872928  1
  Rh  Rh12  1  0.750484  0.375166  0.625684  1
  Rh  Rh13  1  0.624588  0.751038  0.375856  1
