# generated using pymatgen
data_Tb4ReRuC4
_symmetry_space_group_name_H-M   'P 1'
_cell_length_a   5.14051000
_cell_length_b   6.55338900
_cell_length_c   9.89005400
_cell_angle_alpha   90.00000000
_cell_angle_beta   90.00000000
_cell_angle_gamma   90.00000000
_symmetry_Int_Tables_number   1
_chemical_formula_structural   Tb4ReRuC4
_chemical_formula_sum   'Tb8 Re2 Ru2 C8'
_cell_volume   333.17378224
_cell_formula_units_Z   2
loop_
 _symmetry_equiv_pos_site_id
 _symmetry_equiv_pos_as_xyz
  1  'x, y, z'
loop_
 _atom_site_type_symbol
 _atom_site_label
 _atom_site_symmetry_multiplicity
 _atom_site_fract_x
 _atom_site_fract_y
 _atom_site_fract_z
 _atom_site_occupancy
  Tb  Tb0  1  0.750000  0.822116  0.054155  1
  Tb  Tb1  1  0.250000  0.677884  0.554155  1
  Tb  Tb2  1  0.750000  0.317357  0.443842  1
  Tb  Tb3  1  0.250000  0.182643  0.943842  1
  Tb  Tb4  1  0.750000  0.468901  0.784611  1
  Tb  Tb5  1  0.250000  0.031099  0.284611  1
  Tb  Tb6  1  0.750000  0.970982  0.715022  1
  Tb  Tb7  1  0.250000  0.529018  0.215022  1
  Re  Re8  1  0.750000  0.777401  0.363843  1
  Re  Re9  1  0.250000  0.722599  0.863843  1
  Ru  Ru10  1  0.750000  0.276412  0.135247  1
  Ru  Ru11  1  0.250000  0.223588  0.635247  1
  C  C12  1  0.750000  0.177658  0.951163  1
  C  C13  1  0.250000  0.820752  0.049432  1
  C  C14  1  0.750000  0.679248  0.549432  1
  C  C15  1  0.250000  0.322342  0.451163  1
  C  C16  1  0.750000  0.041755  0.259866  1
  C  C17  1  0.250000  0.458245  0.759866  1
  C  C18  1  0.750000  0.543295  0.242820  1
  C  C19  1  0.250000  0.956705  0.742820  1
