# generated using pymatgen
data_YEr2RuO7
_symmetry_space_group_name_H-M   'P 1'
_cell_length_a   6.39690960
_cell_length_b   6.39690954
_cell_length_c   7.40980600
_cell_angle_alpha   90.00000000
_cell_angle_beta   90.00000000
_cell_angle_gamma   109.16933071
_symmetry_Int_Tables_number   1
_chemical_formula_structural   YEr2RuO7
_chemical_formula_sum   'Y2 Er4 Ru2 O14'
_cell_volume   286.40016053
_cell_formula_units_Z   2
loop_
 _symmetry_equiv_pos_site_id
 _symmetry_equiv_pos_as_xyz
  1  'x, y, z'
loop_
 _atom_site_type_symbol
 _atom_site_label
 _atom_site_symmetry_multiplicity
 _atom_site_fract_x
 _atom_site_fract_y
 _atom_site_fract_z
 _atom_site_occupancy
  Y  Y0  1  0.500000  0.500000  0.500000  1
  Y  Y1  1  0.500000  0.500000  0.000000  1
  Er  Er2  1  0.536393  0.999199  0.750000  1
  Er  Er3  1  0.999199  0.536393  0.250000  1
  Er  Er4  1  0.463607  0.000801  0.250000  1
  Er  Er5  1  0.000801  0.463607  0.750000  1
  Ru  Ru6  1  0.000000  0.000000  0.500000  1
  Ru  Ru7  1  0.000000  0.000000  0.000000  1
  O  O8  1  0.678442  0.927741  0.469303  1
  O  O9  1  0.927741  0.678442  0.530697  1
  O  O10  1  0.678442  0.927741  0.030697  1
  O  O11  1  0.927741  0.678442  0.969303  1
  O  O12  1  0.321558  0.072259  0.530697  1
  O  O13  1  0.072259  0.321558  0.469303  1
  O  O14  1  0.321558  0.072259  0.969303  1
  O  O15  1  0.072259  0.321558  0.030697  1
  O  O16  1  0.928786  0.071214  0.750000  1
  O  O17  1  0.071214  0.928786  0.250000  1
  O  O18  1  0.368157  0.631843  0.750000  1
  O  O19  1  0.631843  0.368157  0.250000  1
  O  O20  1  0.639135  0.360865  0.750000  1
  O  O21  1  0.360865  0.639135  0.250000  1
