# generated using pymatgen
data_Lu6Mn7Co16
_symmetry_space_group_name_H-M   'P 1'
_cell_length_a   8.29748900
_cell_length_b   8.29748968
_cell_length_c   8.29748900
_cell_angle_alpha   120.00000126
_cell_angle_beta   90.00000000
_cell_angle_gamma   120.00000126
_symmetry_Int_Tables_number   1
_chemical_formula_structural   Lu6Mn7Co16
_chemical_formula_sum   'Lu6 Mn7 Co16'
_cell_volume   403.94764217
_cell_formula_units_Z   1
loop_
 _symmetry_equiv_pos_site_id
 _symmetry_equiv_pos_as_xyz
  1  'x, y, z'
loop_
 _atom_site_type_symbol
 _atom_site_label
 _atom_site_symmetry_multiplicity
 _atom_site_fract_x
 _atom_site_fract_y
 _atom_site_fract_z
 _atom_site_occupancy
  Lu  Lu0  1  0.714371  0.000000  0.285630  1
  Lu  Lu1  1  0.285631  0.000000  0.285631  1
  Lu  Lu2  1  0.285631  0.571260  0.285631  1
  Lu  Lu3  1  0.714370  0.000000  0.714370  1
  Lu  Lu4  1  0.285630  0.000000  0.714371  1
  Lu  Lu5  1  0.714371  0.428742  0.714371  1
  Mn  Mn6  1  0.000000  0.000000  0.000000  1
  Mn  Mn7  1  0.500000  0.000000  0.000000  1
  Mn  Mn8  1  0.000000  0.500000  0.000000  1
  Mn  Mn9  1  0.500000  0.500000  0.000000  1
  Mn  Mn10  1  0.000000  0.000000  0.500000  1
  Mn  Mn11  1  0.000000  0.500000  0.500000  1
  Mn  Mn12  1  0.500000  0.500000  0.500000  1
  Co  Co13  1  0.676101  0.352202  0.028304  1
  Co  Co14  1  0.366163  0.244109  0.122054  1
  Co  Co15  1  0.877944  0.244109  0.122054  1
  Co  Co16  1  0.877944  0.755889  0.122054  1
  Co  Co17  1  0.676101  0.352202  0.323899  1
  Co  Co18  1  0.676101  0.647798  0.323899  1
  Co  Co19  1  0.971696  0.647798  0.323899  1
  Co  Co20  1  0.122054  0.244109  0.366163  1
  Co  Co21  1  0.877944  0.755889  0.633835  1
  Co  Co22  1  0.028304  0.352202  0.676101  1
  Co  Co23  1  0.323899  0.352202  0.676101  1
  Co  Co24  1  0.323899  0.647798  0.676101  1
  Co  Co25  1  0.122054  0.244109  0.877944  1
  Co  Co26  1  0.122054  0.755889  0.877944  1
  Co  Co27  1  0.633835  0.755889  0.877944  1
  Co  Co28  1  0.323899  0.647798  0.971696  1
