# generated using pymatgen
data_Hf4CoTc
_symmetry_space_group_name_H-M   'P 1'
_cell_length_a   8.61676286
_cell_length_b   8.61715906
_cell_length_c   8.61686007
_cell_angle_alpha   60.00363282
_cell_angle_beta   60.00214751
_cell_angle_gamma   60.00324741
_symmetry_Int_Tables_number   1
_chemical_formula_structural   Hf4CoTc
_chemical_formula_sum   'Hf16 Co4 Tc4'
_cell_volume   452.45138504
_cell_formula_units_Z   4
loop_
 _symmetry_equiv_pos_site_id
 _symmetry_equiv_pos_as_xyz
  1  'x, y, z'
loop_
 _atom_site_type_symbol
 _atom_site_label
 _atom_site_symmetry_multiplicity
 _atom_site_fract_x
 _atom_site_fract_y
 _atom_site_fract_z
 _atom_site_occupancy
  Hf  Hf0  1  0.051940  0.649330  0.649354  1
  Hf  Hf1  1  0.649294  0.052073  0.649304  1
  Hf  Hf2  1  0.649328  0.649312  0.052001  1
  Hf  Hf3  1  0.649360  0.649350  0.649371  1
  Hf  Hf4  1  0.797019  0.796951  0.203034  1
  Hf  Hf5  1  0.202963  0.203001  0.797001  1
  Hf  Hf6  1  0.797025  0.203030  0.796989  1
  Hf  Hf7  1  0.203008  0.796963  0.203000  1
  Hf  Hf8  1  0.203056  0.796950  0.796983  1
  Hf  Hf9  1  0.797045  0.202976  0.202936  1
  Hf  Hf10  1  0.435415  0.435400  0.064577  1
  Hf  Hf11  1  0.064602  0.064563  0.435413  1
  Hf  Hf12  1  0.435432  0.064560  0.435407  1
  Hf  Hf13  1  0.064609  0.435404  0.064580  1
  Hf  Hf14  1  0.064610  0.435392  0.435383  1
  Hf  Hf15  1  0.435444  0.064557  0.064566  1
  Co  Co16  1  0.421064  0.859684  0.859651  1
  Co  Co17  1  0.859631  0.421064  0.859676  1
  Co  Co18  1  0.859619  0.859700  0.421061  1
  Co  Co19  1  0.859605  0.859686  0.859653  1
  Tc  Tc20  1  0.749931  0.416689  0.416697  1
  Tc  Tc21  1  0.416657  0.749989  0.416684  1
  Tc  Tc22  1  0.416663  0.416683  0.749979  1
  Tc  Tc23  1  0.416675  0.416693  0.416701  1
