# generated using pymatgen
data_FeCoNi4P3
_symmetry_space_group_name_H-M   'P 1'
_cell_length_a   5.83204640
_cell_length_b   5.81914473
_cell_length_c   3.32872300
_cell_angle_alpha   90.00000000
_cell_angle_beta   90.00000000
_cell_angle_gamma   119.72125989
_symmetry_Int_Tables_number   1
_chemical_formula_structural   FeCoNi4P3
_chemical_formula_sum   'Fe1 Co1 Ni4 P3'
_cell_volume   98.10731989
_cell_formula_units_Z   1
loop_
 _symmetry_equiv_pos_site_id
 _symmetry_equiv_pos_as_xyz
  1  'x, y, z'
loop_
 _atom_site_type_symbol
 _atom_site_label
 _atom_site_symmetry_multiplicity
 _atom_site_fract_x
 _atom_site_fract_y
 _atom_site_fract_z
 _atom_site_occupancy
  Fe  Fe0  1  0.739175  0.738220  0.000000  1
  Co  Co1  1  0.262141  0.999568  0.000000  1
  Ni  Ni2  1  0.613744  0.013423  0.500000  1
  Ni  Ni3  1  0.381677  0.392387  0.500000  1
  Ni  Ni4  1  0.003939  0.599162  0.500000  1
  Ni  Ni5  1  0.999919  0.261889  0.000000  1
  P  P6  1  0.997858  0.988109  0.500000  1
  P  P7  1  0.661549  0.334736  0.000000  1
  P  P8  1  0.339999  0.672504  0.000000  1
