# generated using pymatgen
data_Rb5Tl3Bi4Mo4(PO8)4
_symmetry_space_group_name_H-M   'P 1'
_cell_length_a   12.68523121
_cell_length_b   12.68523112
_cell_length_c   12.68523100
_cell_angle_alpha   147.11714178
_cell_angle_beta   119.97538807
_cell_angle_gamma   70.15905210
_symmetry_Int_Tables_number   1
_chemical_formula_structural   Rb5Tl3Bi4Mo4(PO8)4
_chemical_formula_sum   'Rb5 Tl3 Bi4 Mo4 P4 O32'
_cell_volume   945.95109473
_cell_formula_units_Z   1
loop_
 _symmetry_equiv_pos_site_id
 _symmetry_equiv_pos_as_xyz
  1  'x, y, z'
loop_
 _atom_site_type_symbol
 _atom_site_label
 _atom_site_symmetry_multiplicity
 _atom_site_fract_x
 _atom_site_fract_y
 _atom_site_fract_z
 _atom_site_occupancy
  Rb  Rb0  1  0.575176  0.692665  0.951735  1
  Rb  Rb1  1  0.761032  0.376283  0.453171  1
  Rb  Rb2  1  0.739665  0.191992  0.616211  1
  Rb  Rb3  1  0.077346  0.124008  0.885033  1
  Rb  Rb4  1  0.422591  0.307806  0.046754  1
  Tl  Tl5  1  0.235250  0.618694  0.543226  1
  Tl  Tl6  1  0.262848  0.807695  0.381779  1
  Tl  Tl7  1  0.927302  0.881358  0.118200  1
  Bi  Bi8  1  0.168958  0.750097  0.918831  1
  Bi  Bi9  1  0.331862  0.250173  0.582316  1
  Bi  Bi10  1  0.830080  0.249935  0.080107  1
  Bi  Bi11  1  0.668792  0.750078  0.418749  1
  Mo  Mo12  1  0.087430  0.337547  0.749810  1
  Mo  Mo13  1  0.412074  0.162434  0.249895  1
  Mo  Mo14  1  0.912353  0.662125  0.249907  1
  Mo  Mo15  1  0.587864  0.837916  0.750074  1
  P  P16  1  0.926680  0.749971  0.676607  1
  P  P17  1  0.573252  0.249448  0.822920  1
  P  P18  1  0.073799  0.250103  0.323874  1
  P  P19  1  0.426279  0.750344  0.177295  1
  O  O20  1  0.941523  0.716594  0.776238  1
  O  O21  1  0.558716  0.333852  0.774700  1
  O  O22  1  0.059702  0.783506  0.724937  1
  O  O23  1  0.440295  0.164735  0.723614  1
  O  O24  1  0.059650  0.287842  0.228591  1
  O  O25  1  0.439455  0.667721  0.227361  1
  O  O26  1  0.940768  0.212404  0.271967  1
  O  O27  1  0.559373  0.833135  0.275632  1
  O  O28  1  0.102368  0.588237  0.917301  1
  O  O29  1  0.397226  0.314948  0.485481  1
  O  O30  1  0.329040  0.911588  0.013934  1
  O  O31  1  0.170717  0.185100  0.582395  1
  O  O32  1  0.896974  0.411279  0.081809  1
  O  O33  1  0.602794  0.684881  0.514368  1
  O  O34  1  0.670690  0.088748  0.985668  1
  O  O35  1  0.829116  0.814830  0.417356  1
  O  O36  1  0.359395  0.591860  0.932204  1
  O  O37  1  0.141462  0.072455  0.232334  1
  O  O38  1  0.339536  0.909010  0.267747  1
  O  O39  1  0.159914  0.427641  0.569201  1
  O  O40  1  0.640029  0.407300  0.068073  1
  O  O41  1  0.860027  0.928273  0.767615  1
  O  O42  1  0.660922  0.092073  0.733025  1
  O  O43  1  0.839516  0.571577  0.431659  1
  O  O44  1  0.928250  0.227004  0.578059  1
  O  O45  1  0.571263  0.149422  0.298385  1
  O  O46  1  0.351015  0.273035  0.201352  1
  O  O47  1  0.148688  0.350075  0.921472  1
  O  O48  1  0.071619  0.773078  0.422746  1
  O  O49  1  0.428703  0.851175  0.702110  1
  O  O50  1  0.649248  0.727127  0.798553  1
  O  O51  1  0.851372  0.648821  0.077621  1
