# generated using pymatgen
data_U2Co2P4IrRh
_symmetry_space_group_name_H-M   'P 1'
_cell_length_a   3.99024800
_cell_length_b   3.99024800
_cell_length_c   9.27660300
_cell_angle_alpha   90.00000000
_cell_angle_beta   90.00000000
_cell_angle_gamma   90.00000000
_symmetry_Int_Tables_number   1
_chemical_formula_structural   U2Co2P4IrRh
_chemical_formula_sum   'U2 Co2 P4 Ir1 Rh1'
_cell_volume   147.70280676
_cell_formula_units_Z   1
loop_
 _symmetry_equiv_pos_site_id
 _symmetry_equiv_pos_as_xyz
  1  'x, y, z'
loop_
 _atom_site_type_symbol
 _atom_site_label
 _atom_site_symmetry_multiplicity
 _atom_site_fract_x
 _atom_site_fract_y
 _atom_site_fract_z
 _atom_site_occupancy
  U  U0  1  0.500000  0.000000  0.233320  1
  U  U1  1  0.000000  0.500000  0.766680  1
  Co  Co2  1  0.000000  0.500000  0.108207  1
  Co  Co3  1  0.500000  0.000000  0.891793  1
  P  P4  1  0.000000  0.500000  0.346644  1
  P  P5  1  0.500000  0.500000  0.000000  1
  P  P6  1  0.500000  0.000000  0.653356  1
  P  P7  1  0.000000  0.000000  0.000000  1
  Ir  Ir8  1  0.000000  0.000000  0.500000  1
  Rh  Rh9  1  0.500000  0.500000  0.500000  1
