# generated using pymatgen
data_Tb5Y5In8(CoPd)2
_symmetry_space_group_name_H-M   'P 1'
_cell_length_a   3.60635100
_cell_length_b   8.13704631
_cell_length_c   18.24896943
_cell_angle_alpha   90.08858991
_cell_angle_beta   90.00000000
_cell_angle_gamma   90.00000000
_symmetry_Int_Tables_number   1
_chemical_formula_structural   Tb5Y5In8(CoPd)2
_chemical_formula_sum   'Tb5 Y5 In8 Co2 Pd2'
_cell_volume   535.51619071
_cell_formula_units_Z   1
loop_
 _symmetry_equiv_pos_site_id
 _symmetry_equiv_pos_as_xyz
  1  'x, y, z'
loop_
 _atom_site_type_symbol
 _atom_site_label
 _atom_site_symmetry_multiplicity
 _atom_site_fract_x
 _atom_site_fract_y
 _atom_site_fract_z
 _atom_site_occupancy
  Tb  Tb0  1  0.500000  0.226703  0.776367  1
  Tb  Tb1  1  0.500000  0.773564  0.223666  1
  Tb  Tb2  1  0.500000  0.240283  0.281368  1
  Tb  Tb3  1  0.500000  0.759627  0.718633  1
  Tb  Tb4  1  0.500000  0.113706  0.589587  1
  Y  Y5  1  0.500000  0.886209  0.410831  1
  Y  Y6  1  0.500000  0.381231  0.084617  1
  Y  Y7  1  0.500000  0.618737  0.915370  1
  Y  Y8  1  0.500000  0.000003  0.000027  1
  Y  Y9  1  0.500000  0.499536  0.500099  1
  In  In10  1  0.000000  0.075289  0.152239  1
  In  In11  1  0.000000  0.924658  0.847807  1
  In  In12  1  0.000000  0.423803  0.650431  1
  In  In13  1  0.000000  0.576659  0.349619  1
  In  In14  1  0.000000  0.204722  0.431005  1
  In  In15  1  0.000000  0.795015  0.568844  1
  In  In16  1  0.000000  0.292264  0.931049  1
  In  In17  1  0.000000  0.707788  0.068960  1
  Co  Co18  1  0.000000  0.018152  0.694240  1
  Co  Co19  1  0.000000  0.981924  0.305228  1
  Pd  Pd20  1  0.000000  0.479815  0.197214  1
  Pd  Pd21  1  0.000000  0.520314  0.802799  1
