# generated using pymatgen
data_Nd3Er3Ir13Rh5
_symmetry_space_group_name_H-M   'P 1'
_cell_length_a   5.33633800
_cell_length_b   5.33633640
_cell_length_c   17.48621500
_cell_angle_alpha   90.00000000
_cell_angle_beta   90.00000000
_cell_angle_gamma   119.99999753
_symmetry_Int_Tables_number   1
_chemical_formula_structural   Nd3Er3Ir13Rh5
_chemical_formula_sum   'Nd3 Er3 Ir13 Rh5'
_cell_volume   431.23399077
_cell_formula_units_Z   1
loop_
 _symmetry_equiv_pos_site_id
 _symmetry_equiv_pos_as_xyz
  1  'x, y, z'
loop_
 _atom_site_type_symbol
 _atom_site_label
 _atom_site_symmetry_multiplicity
 _atom_site_fract_x
 _atom_site_fract_y
 _atom_site_fract_z
 _atom_site_occupancy
  Nd  Nd0  1  0.333333  0.666667  0.960433  1
  Nd  Nd1  1  0.333333  0.666667  0.749464  1
  Nd  Nd2  1  0.666667  0.333333  0.249992  1
  Er  Er3  1  0.333333  0.666667  0.541047  1
  Er  Er4  1  0.666667  0.333333  0.042306  1
  Er  Er5  1  0.666667  0.333333  0.458799  1
  Ir  Ir6  1  0.167219  0.334437  0.126213  1
  Ir  Ir7  1  0.832231  0.664462  0.624728  1
  Ir  Ir8  1  0.665563  0.832781  0.126213  1
  Ir  Ir9  1  0.167219  0.832781  0.126213  1
  Ir  Ir10  1  0.832231  0.167769  0.624728  1
  Ir  Ir11  1  0.335538  0.167769  0.624728  1
  Ir  Ir12  1  0.832636  0.665273  0.873307  1
  Ir  Ir13  1  0.832636  0.167364  0.873307  1
  Ir  Ir14  1  0.334727  0.167364  0.873307  1
  Ir  Ir15  1  0.664401  0.832200  0.375080  1
  Ir  Ir16  1  0.167800  0.832200  0.375080  1
  Ir  Ir17  1  0.167800  0.335599  0.375080  1
  Ir  Ir18  1  0.000000  0.000000  0.000248  1
  Rh  Rh19  1  0.000000  0.000000  0.250969  1
  Rh  Rh20  1  0.000000  0.000000  0.749085  1
  Rh  Rh21  1  0.333333  0.666667  0.250737  1
  Rh  Rh22  1  0.666667  0.333333  0.749009  1
  Rh  Rh23  1  0.000000  0.000000  0.499928  1
