# generated using pymatgen
data_Tb8Hf12Si15As
_symmetry_space_group_name_H-M   'P 1'
_cell_length_a   7.28601070
_cell_length_b   7.30076284
_cell_length_c   13.40906874
_cell_angle_alpha   89.70934694
_cell_angle_beta   89.96653237
_cell_angle_gamma   89.90734499
_symmetry_Int_Tables_number   1
_chemical_formula_structural   Tb8Hf12Si15As
_chemical_formula_sum   'Tb8 Hf12 Si15 As1'
_cell_volume   713.26421275
_cell_formula_units_Z   1
loop_
 _symmetry_equiv_pos_site_id
 _symmetry_equiv_pos_as_xyz
  1  'x, y, z'
loop_
 _atom_site_type_symbol
 _atom_site_label
 _atom_site_symmetry_multiplicity
 _atom_site_fract_x
 _atom_site_fract_y
 _atom_site_fract_z
 _atom_site_occupancy
  Tb  Tb0  1  0.995634  0.345094  0.215156  1
  Tb  Tb1  1  0.004956  0.656016  0.715340  1
  Tb  Tb2  1  0.153115  0.498811  0.466654  1
  Tb  Tb3  1  0.506962  0.842624  0.033850  1
  Tb  Tb4  1  0.844110  0.503771  0.964812  1
  Tb  Tb5  1  0.495820  0.154785  0.535571  1
  Tb  Tb6  1  0.344735  0.995819  0.785177  1
  Tb  Tb7  1  0.654800  0.004366  0.284225  1
  Hf  Hf8  1  0.174427  0.175248  0.000194  1
  Hf  Hf9  1  0.826236  0.826244  0.500077  1
  Hf  Hf10  1  0.325143  0.677661  0.249777  1
  Hf  Hf11  1  0.674392  0.325426  0.749995  1
  Hf  Hf12  1  0.149764  0.995535  0.372996  1
  Hf  Hf13  1  0.850636  0.003973  0.874711  1
  Hf  Hf14  1  0.503281  0.650175  0.624784  1
  Hf  Hf15  1  0.350776  0.496341  0.875386  1
  Hf  Hf16  1  0.494896  0.348027  0.125073  1
  Hf  Hf17  1  0.653390  0.506486  0.376708  1
  Hf  Hf18  1  0.996613  0.150098  0.625573  1
  Hf  Hf19  1  0.001224  0.848075  0.124435  1
  Si  Si20  1  0.637114  0.705167  0.816535  1
  Si  Si21  1  0.204007  0.863577  0.566292  1
  Si  Si22  1  0.137082  0.794861  0.932591  1
  Si  Si23  1  0.794971  0.138210  0.067153  1
  Si  Si24  1  0.863002  0.204297  0.432760  1
  Si  Si25  1  0.295731  0.362301  0.682993  1
  Si  Si26  1  0.703078  0.635808  0.183779  1
  Si  Si27  1  0.293228  0.039206  0.179961  1
  Si  Si28  1  0.705737  0.951106  0.685703  1
  Si  Si29  1  0.451559  0.795363  0.435945  1
  Si  Si30  1  0.205090  0.548019  0.064459  1
  Si  Si31  1  0.549118  0.205162  0.935792  1
  Si  Si32  1  0.794228  0.451213  0.565111  1
  Si  Si33  1  0.049188  0.294761  0.814077  1
  Si  Si34  1  0.951937  0.705441  0.314583  1
  As  As35  1  0.364021  0.300934  0.321769  1
