# generated using pymatgen
data_Tb2SiPt6
_symmetry_space_group_name_H-M   'P 1'
_cell_length_a   6.68724952
_cell_length_b   6.68724932
_cell_length_c   6.68725008
_cell_angle_alpha   50.11410037
_cell_angle_beta   50.11410447
_cell_angle_gamma   50.11409793
_symmetry_Int_Tables_number   1
_chemical_formula_structural   Tb2SiPt6
_chemical_formula_sum   'Tb2 Si1 Pt6'
_cell_volume   162.07979716
_cell_formula_units_Z   1
loop_
 _symmetry_equiv_pos_site_id
 _symmetry_equiv_pos_as_xyz
  1  'x, y, z'
loop_
 _atom_site_type_symbol
 _atom_site_label
 _atom_site_symmetry_multiplicity
 _atom_site_fract_x
 _atom_site_fract_y
 _atom_site_fract_z
 _atom_site_occupancy
  Tb  Tb0  1  0.219767  0.219767  0.219767  1
  Tb  Tb1  1  0.780233  0.780233  0.780233  1
  Si  Si2  1  0.500000  0.500000  0.500000  1
  Pt  Pt3  1  0.734641  0.231571  0.231572  1
  Pt  Pt4  1  0.231571  0.734641  0.231572  1
  Pt  Pt5  1  0.768429  0.768429  0.265358  1
  Pt  Pt6  1  0.231571  0.231571  0.734642  1
  Pt  Pt7  1  0.768429  0.265359  0.768428  1
  Pt  Pt8  1  0.265359  0.768429  0.768428  1
