# generated using pymatgen
data_Ce4Sm2ZnSb8
_symmetry_space_group_name_H-M   'P 1'
_cell_length_a   9.00847800
_cell_length_b   9.20856100
_cell_length_c   38.80853000
_cell_angle_alpha   90.00000000
_cell_angle_beta   90.00000000
_cell_angle_gamma   90.00000000
_symmetry_Int_Tables_number   1
_chemical_formula_structural   Ce4Sm2ZnSb8
_chemical_formula_sum   'Ce4 Sm2 Zn1 Sb8'
_cell_volume   3219.36623136
_cell_formula_units_Z   1
loop_
 _symmetry_equiv_pos_site_id
 _symmetry_equiv_pos_as_xyz
  1  'x, y, z'
loop_
 _atom_site_type_symbol
 _atom_site_label
 _atom_site_symmetry_multiplicity
 _atom_site_fract_x
 _atom_site_fract_y
 _atom_site_fract_z
 _atom_site_occupancy
  Ce  Ce0  1  0.500000  0.000000  0.125821  1
  Ce  Ce1  1  0.500000  0.000000  0.648530  1
  Ce  Ce2  1  0.000000  0.500000  0.349602  1
  Ce  Ce3  1  0.000000  0.500000  0.876927  1
  Sm  Sm4  1  0.000000  0.000000  0.498361  1
  Sm  Sm5  1  0.500000  0.500000  0.497913  1
  Zn  Zn6  1  0.500000  0.500000  0.999825  1
  Sb  Sb7  1  0.500000  0.000000  0.386332  1
  Sb  Sb8  1  0.500000  0.000000  0.920855  1
  Sb  Sb9  1  0.000000  0.500000  0.079075  1
  Sb  Sb10  1  0.000000  0.500000  0.613682  1
  Sb  Sb11  1  0.000000  0.000000  0.250322  1
  Sb  Sb12  1  0.000000  0.000000  0.751241  1
  Sb  Sb13  1  0.500000  0.500000  0.249944  1
  Sb  Sb14  1  0.500000  0.500000  0.751570  1
