# generated using pymatgen
data_ZnNiAg2(NO3)8
_symmetry_space_group_name_H-M   'P 1'
_cell_length_a   7.85858508
_cell_length_b   7.47694714
_cell_length_c   8.10911241
_cell_angle_alpha   89.90292165
_cell_angle_beta   84.78213184
_cell_angle_gamma   90.04389073
_symmetry_Int_Tables_number   1
_chemical_formula_structural   ZnNiAg2(NO3)8
_chemical_formula_sum   'Zn1 Ni1 Ag2 N8 O24'
_cell_volume   474.50169009
_cell_formula_units_Z   1
loop_
 _symmetry_equiv_pos_site_id
 _symmetry_equiv_pos_as_xyz
  1  'x, y, z'
loop_
 _atom_site_type_symbol
 _atom_site_label
 _atom_site_symmetry_multiplicity
 _atom_site_fract_x
 _atom_site_fract_y
 _atom_site_fract_z
 _atom_site_occupancy
  Zn  Zn0  1  0.000000  0.000000  0.500000  1
  Ni  Ni1  1  0.000000  0.500000  0.000000  1
  Ag  Ag2  1  0.500000  0.500000  0.500000  1
  Ag  Ag3  1  0.500000  0.000000  0.000000  1
  N  N4  1  0.690243  0.158008  0.345026  1
  N  N5  1  0.692949  0.344505  0.845039  1
  N  N6  1  0.839565  0.813916  0.829398  1
  N  N7  1  0.841317  0.683229  0.324969  1
  N  N8  1  0.160435  0.186084  0.170602  1
  N  N9  1  0.158683  0.316771  0.675031  1
  N  N10  1  0.307051  0.655495  0.154961  1
  N  N11  1  0.309757  0.841992  0.654974  1
  O  O12  1  0.574054  0.228387  0.833818  1
  O  O13  1  0.570851  0.272995  0.332531  1
  O  O14  1  0.706889  0.467251  0.741233  1
  O  O15  1  0.705694  0.034858  0.242230  1
  O  O16  1  0.725028  0.691321  0.443738  1
  O  O17  1  0.723480  0.806177  0.948466  1
  O  O18  1  0.791396  0.329950  0.960331  1
  O  O19  1  0.787808  0.174182  0.460972  1
  O  O20  1  0.827539  0.923386  0.712750  1
  O  O21  1  0.829444  0.573677  0.208521  1
  O  O22  1  0.966332  0.709260  0.829664  1
  O  O23  1  0.968283  0.787644  0.325155  1
  O  O24  1  0.031717  0.212356  0.674845  1
  O  O25  1  0.033668  0.290740  0.170336  1
  O  O26  1  0.170556  0.426323  0.791479  1
  O  O27  1  0.172461  0.076614  0.287250  1
  O  O28  1  0.208604  0.670050  0.039669  1
  O  O29  1  0.212192  0.825818  0.539028  1
  O  O30  1  0.276520  0.193823  0.051534  1
  O  O31  1  0.274972  0.308679  0.556262  1
  O  O32  1  0.293111  0.532749  0.258767  1
  O  O33  1  0.294306  0.965142  0.757770  1
  O  O34  1  0.429149  0.727005  0.667469  1
  O  O35  1  0.425946  0.771613  0.166182  1
