# generated using pymatgen
data_Li3Sc8CoOs4
_symmetry_space_group_name_H-M   'P 1'
_cell_length_a   6.46004001
_cell_length_b   4.60584300
_cell_length_c   9.20338802
_cell_angle_alpha   90.00000000
_cell_angle_beta   89.99267017
_cell_angle_gamma   90.00000000
_symmetry_Int_Tables_number   1
_chemical_formula_structural   Li3Sc8CoOs4
_chemical_formula_sum   'Li3 Sc8 Co1 Os4'
_cell_volume   273.83696132
_cell_formula_units_Z   1
loop_
 _symmetry_equiv_pos_site_id
 _symmetry_equiv_pos_as_xyz
  1  'x, y, z'
loop_
 _atom_site_type_symbol
 _atom_site_label
 _atom_site_symmetry_multiplicity
 _atom_site_fract_x
 _atom_site_fract_y
 _atom_site_fract_z
 _atom_site_occupancy
  Li  Li0  1  0.749921  0.250001  0.124203  1
  Li  Li1  1  0.249917  0.750001  0.374857  1
  Li  Li2  1  0.750080  0.250001  0.625952  1
  Sc  Sc3  1  0.493961  0.750001  0.118644  1
  Sc  Sc4  1  0.005755  0.750001  0.118706  1
  Sc  Sc5  1  0.498335  0.250001  0.374965  1
  Sc  Sc6  1  0.001426  0.250001  0.374981  1
  Sc  Sc7  1  0.006105  0.750001  0.631314  1
  Sc  Sc8  1  0.494187  0.750001  0.631274  1
  Sc  Sc9  1  0.010117  0.250001  0.875042  1
  Sc  Sc10  1  0.490118  0.250001  0.875058  1
  Co  Co11  1  0.250072  0.750001  0.875019  1
  Os  Os12  1  0.249906  0.250001  0.125526  1
  Os  Os13  1  0.749930  0.750001  0.374969  1
  Os  Os14  1  0.250101  0.250001  0.624515  1
  Os  Os15  1  0.750067  0.750001  0.874976  1
