# generated using pymatgen
data_TbEr3Ga18(PdRu2)2
_symmetry_space_group_name_H-M   'P 1'
_cell_length_a   7.53359846
_cell_length_b   7.53626427
_cell_length_c   9.62127100
_cell_angle_alpha   90.00000000
_cell_angle_beta   90.00000000
_cell_angle_gamma   119.49855843
_symmetry_Int_Tables_number   1
_chemical_formula_structural   TbEr3Ga18(PdRu2)2
_chemical_formula_sum   'Tb1 Er3 Ga18 Pd2 Ru4'
_cell_volume   475.43811253
_cell_formula_units_Z   1
loop_
 _symmetry_equiv_pos_site_id
 _symmetry_equiv_pos_as_xyz
  1  'x, y, z'
loop_
 _atom_site_type_symbol
 _atom_site_label
 _atom_site_symmetry_multiplicity
 _atom_site_fract_x
 _atom_site_fract_y
 _atom_site_fract_z
 _atom_site_occupancy
  Tb  Tb0  1  0.997020  0.671632  0.250000  1
  Er  Er1  1  0.002965  0.328718  0.750000  1
  Er  Er2  1  0.671395  0.997260  0.250000  1
  Er  Er3  1  0.328609  0.002392  0.750000  1
  Ga  Ga4  1  0.132051  0.132451  0.250000  1
  Ga  Ga5  1  0.868876  0.868786  0.750000  1
  Ga  Ga6  1  0.003591  0.338644  0.079779  1
  Ga  Ga7  1  0.996310  0.660550  0.919149  1
  Ga  Ga8  1  0.996310  0.660550  0.580851  1
  Ga  Ga9  1  0.340162  0.004046  0.420334  1
  Ga  Ga10  1  0.003591  0.338644  0.420221  1
  Ga  Ga11  1  0.660494  0.996613  0.580512  1
  Ga  Ga12  1  0.660494  0.996613  0.919488  1
  Ga  Ga13  1  0.340162  0.004046  0.079666  1
  Ga  Ga14  1  0.341380  0.341400  0.565985  1
  Ga  Ga15  1  0.658153  0.658799  0.434534  1
  Ga  Ga16  1  0.658153  0.658799  0.065466  1
  Ga  Ga17  1  0.341380  0.341400  0.934015  1
  Ga  Ga18  1  0.336045  0.550486  0.250000  1
  Ga  Ga19  1  0.663991  0.449054  0.750000  1
  Ga  Ga20  1  0.549923  0.335164  0.250000  1
  Ga  Ga21  1  0.449280  0.664191  0.750000  1
  Pd  Pd22  1  0.999999  0.000226  0.999944  1
  Pd  Pd23  1  0.999999  0.000226  0.500056  1
  Ru  Ru24  1  0.673949  0.325492  0.999790  1
  Ru  Ru25  1  0.325884  0.674163  0.999662  1
  Ru  Ru26  1  0.325884  0.674163  0.500338  1
  Ru  Ru27  1  0.673949  0.325492  0.500210  1
