# generated using pymatgen
data_Li4SnSb3Pt2
_symmetry_space_group_name_H-M   'P 1'
_cell_length_a   10.02465487
_cell_length_b   10.02464837
_cell_length_c   4.58956791
_cell_angle_alpha   76.76692768
_cell_angle_beta   76.76676780
_cell_angle_gamma   26.66333209
_symmetry_Int_Tables_number   1
_chemical_formula_structural   Li4SnSb3Pt2
_chemical_formula_sum   'Li4 Sn1 Sb3 Pt2'
_cell_volume   201.16334827
_cell_formula_units_Z   1
loop_
 _symmetry_equiv_pos_site_id
 _symmetry_equiv_pos_as_xyz
  1  'x, y, z'
loop_
 _atom_site_type_symbol
 _atom_site_label
 _atom_site_symmetry_multiplicity
 _atom_site_fract_x
 _atom_site_fract_y
 _atom_site_fract_z
 _atom_site_occupancy
  Li  Li0  1  0.418441  0.418442  0.081558  1
  Li  Li1  1  0.829007  0.829007  0.170993  1
  Li  Li2  1  0.080679  0.080681  0.419319  1
  Li  Li3  1  0.170958  0.170957  0.829043  1
  Sn  Sn4  1  0.571528  0.571528  0.928472  1
  Sb  Sb5  1  0.677644  0.677643  0.322357  1
  Sb  Sb6  1  0.927037  0.927037  0.572963  1
  Sb  Sb7  1  0.323371  0.323370  0.676630  1
  Pt  Pt8  1  0.999605  0.999605  0.000395  1
  Pt  Pt9  1  0.251730  0.251731  0.248269  1
