# generated using pymatgen
data_Tm2Co9Tc3As7
_symmetry_space_group_name_H-M   'P 1'
_cell_length_a   3.81337100
_cell_length_b   9.34076581
_cell_length_c   9.34076600
_cell_angle_alpha   119.99999360
_cell_angle_beta   90.00000000
_cell_angle_gamma   90.00000000
_symmetry_Int_Tables_number   1
_chemical_formula_structural   Tm2Co9Tc3As7
_chemical_formula_sum   'Tm2 Co9 Tc3 As7'
_cell_volume   288.14075856
_cell_formula_units_Z   1
loop_
 _symmetry_equiv_pos_site_id
 _symmetry_equiv_pos_as_xyz
  1  'x, y, z'
loop_
 _atom_site_type_symbol
 _atom_site_label
 _atom_site_symmetry_multiplicity
 _atom_site_fract_x
 _atom_site_fract_y
 _atom_site_fract_z
 _atom_site_occupancy
  Tm  Tm0  1  0.000000  0.666667  0.333333  1
  Tm  Tm1  1  0.500000  0.333333  0.666667  1
  Co  Co2  1  0.000000  0.568116  0.940557  1
  Co  Co3  1  0.000000  0.372439  0.431884  1
  Co  Co4  1  0.000000  0.059443  0.627561  1
  Co  Co5  1  0.000000  0.875833  0.158742  1
  Co  Co6  1  0.000000  0.282910  0.124167  1
  Co  Co7  1  0.000000  0.841258  0.717090  1
  Co  Co8  1  0.500000  0.946716  0.381844  1
  Co  Co9  1  0.500000  0.435127  0.053284  1
  Co  Co10  1  0.500000  0.618156  0.564873  1
  Tc  Tc11  1  0.500000  0.782050  0.900579  1
  Tc  Tc12  1  0.500000  0.118530  0.217950  1
  Tc  Tc13  1  0.500000  0.099421  0.881470  1
  As  As14  1  0.000000  0.000000  0.000000  1
  As  As15  1  0.500000  0.707054  0.118494  1
  As  As16  1  0.500000  0.411439  0.292946  1
  As  As17  1  0.500000  0.881506  0.588561  1
  As  As18  1  0.000000  0.586183  0.702031  1
  As  As19  1  0.000000  0.115850  0.413817  1
  As  As20  1  0.000000  0.297969  0.884150  1
