# generated using pymatgen
data_EuTlCr2F14
_symmetry_space_group_name_H-M   'P 1'
_cell_length_a   5.52896137
_cell_length_b   8.88300767
_cell_length_c   11.82602100
_cell_angle_alpha   62.71891051
_cell_angle_beta   90.02109876
_cell_angle_gamma   89.98471553
_symmetry_Int_Tables_number   1
_chemical_formula_structural   EuTlCr2F14
_chemical_formula_sum   'Eu2 Tl2 Cr4 F28'
_cell_volume   516.21526293
_cell_formula_units_Z   2
loop_
 _symmetry_equiv_pos_site_id
 _symmetry_equiv_pos_as_xyz
  1  'x, y, z'
loop_
 _atom_site_type_symbol
 _atom_site_label
 _atom_site_symmetry_multiplicity
 _atom_site_fract_x
 _atom_site_fract_y
 _atom_site_fract_z
 _atom_site_occupancy
  Eu  Eu0  1  0.260671  0.812305  0.266213  1
  Eu  Eu1  1  0.739329  0.187695  0.733787  1
  Tl  Tl2  1  0.768208  0.196680  0.233058  1
  Tl  Tl3  1  0.231792  0.803320  0.766942  1
  Cr  Cr4  1  0.758184  0.722032  0.043028  1
  Cr  Cr5  1  0.241816  0.277968  0.956972  1
  Cr  Cr6  1  0.259893  0.273562  0.452317  1
  Cr  Cr7  1  0.740107  0.726438  0.547683  1
  F  F8  1  0.931840  0.710053  0.425472  1
  F  F9  1  0.068160  0.289947  0.574528  1
  F  F10  1  0.429996  0.300364  0.074988  1
  F  F11  1  0.570004  0.699636  0.925012  1
  F  F12  1  0.484514  0.732156  0.133283  1
  F  F13  1  0.515486  0.267844  0.866717  1
  F  F14  1  0.975764  0.275675  0.361710  1
  F  F15  1  0.024236  0.724325  0.638290  1
  F  F16  1  0.947321  0.738955  0.167162  1
  F  F17  1  0.052679  0.261045  0.832838  1
  F  F18  1  0.448614  0.257848  0.324931  1
  F  F19  1  0.551386  0.742152  0.675069  1
  F  F20  1  0.763674  0.485779  0.140961  1
  F  F21  1  0.236326  0.514221  0.859039  1
  F  F22  1  0.270244  0.507029  0.361035  1
  F  F23  1  0.729756  0.492971  0.638965  1
  F  F24  1  0.953900  0.290328  0.038617  1
  F  F25  1  0.046100  0.709672  0.961383  1
  F  F26  1  0.458837  0.718024  0.460290  1
  F  F27  1  0.541163  0.281976  0.539710  1
  F  F28  1  0.741973  0.955328  0.461348  1
  F  F29  1  0.258027  0.044672  0.538652  1
  F  F30  1  0.236924  0.045133  0.048207  1
  F  F31  1  0.763076  0.954867  0.951793  1
  F  F32  1  0.599188  0.980326  0.228283  1
  F  F33  1  0.400812  0.019674  0.771717  1
  F  F34  1  0.093034  0.037766  0.273391  1
  F  F35  1  0.906966  0.962234  0.726609  1
