# generated using pymatgen
data_Tb2Ta2Ni10P7
_symmetry_space_group_name_H-M   'P 1'
_cell_length_a   9.26351003
_cell_length_b   9.21062153
_cell_length_c   3.70463100
_cell_angle_alpha   90.00000000
_cell_angle_beta   90.00000000
_cell_angle_gamma   120.33240833
_symmetry_Int_Tables_number   1
_chemical_formula_structural   Tb2Ta2Ni10P7
_chemical_formula_sum   'Tb2 Ta2 Ni10 P7'
_cell_volume   272.81964307
_cell_formula_units_Z   1
loop_
 _symmetry_equiv_pos_site_id
 _symmetry_equiv_pos_as_xyz
  1  'x, y, z'
loop_
 _atom_site_type_symbol
 _atom_site_label
 _atom_site_symmetry_multiplicity
 _atom_site_fract_x
 _atom_site_fract_y
 _atom_site_fract_z
 _atom_site_occupancy
  Tb  Tb0  1  0.994283  0.001168  0.000000  1
  Tb  Tb1  1  0.336661  0.669343  0.500000  1
  Ta  Ta2  1  0.885946  0.450493  0.500000  1
  Ta  Ta3  1  0.548158  0.432868  0.500000  1
  Ni  Ni4  1  0.296318  0.393421  0.000000  1
  Ni  Ni5  1  0.101923  0.706534  0.000000  1
  Ni  Ni6  1  0.382760  0.171486  0.000000  1
  Ni  Ni7  1  0.796908  0.620262  0.000000  1
  Ni  Ni8  1  0.820758  0.206708  0.000000  1
  Ni  Ni9  1  0.233771  0.948803  0.500000  1
  Ni  Ni10  1  0.050340  0.277518  0.500000  1
  Ni  Ni11  1  0.720545  0.775651  0.500000  1
  Ni  Ni12  1  0.566770  0.108226  0.500000  1
  Ni  Ni13  1  0.601001  0.900094  0.000000  1
  P  P14  1  0.661773  0.324557  0.000000  1
  P  P15  1  0.082947  0.445879  0.000000  1
  P  P16  1  0.253241  0.212975  0.500000  1
  P  P17  1  0.777107  0.045078  0.500000  1
  P  P18  1  0.959761  0.747284  0.500000  1
  P  P19  1  0.557330  0.636654  0.000000  1
  P  P20  1  0.371696  0.924997  0.000000  1
