# generated using pymatgen
data_Y6VB14Os
_symmetry_space_group_name_H-M   'P 1'
_cell_length_a   8.10171471
_cell_length_b   8.10171430
_cell_length_c   9.37055200
_cell_angle_alpha   90.00000000
_cell_angle_beta   90.00000000
_cell_angle_gamma   155.16380892
_symmetry_Int_Tables_number   1
_chemical_formula_structural   Y6VB14Os
_chemical_formula_sum   'Y6 V1 B14 Os1'
_cell_volume   258.34175100
_cell_formula_units_Z   1
loop_
 _symmetry_equiv_pos_site_id
 _symmetry_equiv_pos_as_xyz
  1  'x, y, z'
loop_
 _atom_site_type_symbol
 _atom_site_label
 _atom_site_symmetry_multiplicity
 _atom_site_fract_x
 _atom_site_fract_y
 _atom_site_fract_z
 _atom_site_occupancy
  Y  Y0  1  0.894303  0.105697  0.439020  1
  Y  Y1  1  0.106222  0.893778  0.560474  1
  Y  Y2  1  0.894303  0.105697  0.060980  1
  Y  Y3  1  0.106222  0.893778  0.939526  1
  Y  Y4  1  0.243731  0.756269  0.250000  1
  Y  Y5  1  0.757148  0.242852  0.750000  1
  V  V6  1  0.947594  0.052406  0.750000  1
  B  B7  1  0.726401  0.273599  0.465189  1
  B  B8  1  0.272115  0.727885  0.533003  1
  B  B9  1  0.726401  0.273599  0.034811  1
  B  B10  1  0.272115  0.727885  0.966997  1
  B  B11  1  0.631290  0.368710  0.149862  1
  B  B12  1  0.367594  0.632406  0.850317  1
  B  B13  1  0.631290  0.368710  0.350138  1
  B  B14  1  0.367594  0.632406  0.649683  1
  B  B15  1  0.520951  0.479049  0.095404  1
  B  B16  1  0.479362  0.520638  0.906016  1
  B  B17  1  0.520951  0.479049  0.404596  1
  B  B18  1  0.479362  0.520638  0.593984  1
  B  B19  1  0.458660  0.541340  0.250000  1
  B  B20  1  0.542027  0.457973  0.750000  1
  Os  Os21  1  0.054363  0.945637  0.250000  1
