# generated using pymatgen
data_Er6Zn4Pt13
_symmetry_space_group_name_H-M   'P 1'
_cell_length_a   8.22938339
_cell_length_b   8.22938335
_cell_length_c   8.22938300
_cell_angle_alpha   109.47122223
_cell_angle_beta   109.47122212
_cell_angle_gamma   109.47122274
_symmetry_Int_Tables_number   1
_chemical_formula_structural   Er6Zn4Pt13
_chemical_formula_sum   'Er6 Zn4 Pt13'
_cell_volume   429.02237827
_cell_formula_units_Z   1
loop_
 _symmetry_equiv_pos_site_id
 _symmetry_equiv_pos_as_xyz
  1  'x, y, z'
loop_
 _atom_site_type_symbol
 _atom_site_label
 _atom_site_symmetry_multiplicity
 _atom_site_fract_x
 _atom_site_fract_y
 _atom_site_fract_z
 _atom_site_occupancy
  Er  Er0  1  0.697945  0.697945  0.000000  1
  Er  Er1  1  0.302055  0.000000  0.302055  1
  Er  Er2  1  0.000000  0.302055  0.302055  1
  Er  Er3  1  0.302055  0.302055  0.000000  1
  Er  Er4  1  0.697945  0.000000  0.697945  1
  Er  Er5  1  0.000000  0.697945  0.697945  1
  Zn  Zn6  1  0.000000  0.000000  0.500000  1
  Zn  Zn7  1  0.000000  0.500000  0.000000  1
  Zn  Zn8  1  0.500000  0.000000  0.000000  1
  Zn  Zn9  1  0.500000  0.500000  0.500000  1
  Pt  Pt10  1  0.331493  0.331493  0.662986  1
  Pt  Pt11  1  0.668507  0.000000  0.331493  1
  Pt  Pt12  1  0.000000  0.668507  0.331493  1
  Pt  Pt13  1  0.668507  0.331493  0.000000  1
  Pt  Pt14  1  0.331493  0.662986  0.331493  1
  Pt  Pt15  1  0.000000  0.331493  0.668507  1
  Pt  Pt16  1  0.331493  0.668507  0.000000  1
  Pt  Pt17  1  0.331493  0.000000  0.668507  1
  Pt  Pt18  1  0.662986  0.331493  0.331493  1
  Pt  Pt19  1  0.668507  0.668507  0.337014  1
  Pt  Pt20  1  0.668507  0.337014  0.668507  1
  Pt  Pt21  1  0.337014  0.668507  0.668507  1
  Pt  Pt22  1  0.000000  0.000000  0.000000  1
