# generated using pymatgen
data_Rb12Na8Hf3NbP12
_symmetry_space_group_name_H-M   'P 1'
_cell_length_a   10.69015291
_cell_length_b   10.69015610
_cell_length_c   15.58200434
_cell_angle_alpha   89.97921485
_cell_angle_beta   89.97921448
_cell_angle_gamma   142.66150327
_symmetry_Int_Tables_number   1
_chemical_formula_structural   Rb12Na8Hf3NbP12
_chemical_formula_sum   'Rb12 Na8 Hf3 Nb1 P12'
_cell_volume   1080.03565556
_cell_formula_units_Z   1
loop_
 _symmetry_equiv_pos_site_id
 _symmetry_equiv_pos_as_xyz
  1  'x, y, z'
loop_
 _atom_site_type_symbol
 _atom_site_label
 _atom_site_symmetry_multiplicity
 _atom_site_fract_x
 _atom_site_fract_y
 _atom_site_fract_z
 _atom_site_occupancy
  Rb  Rb0  1  0.948357  0.607991  0.822932  1
  Rb  Rb1  1  0.553585  0.891270  0.323020  1
  Rb  Rb2  1  0.392009  0.051643  0.177068  1
  Rb  Rb3  1  0.051664  0.391920  0.177473  1
  Rb  Rb4  1  0.892032  0.554302  0.323668  1
  Rb  Rb5  1  0.445698  0.107968  0.676332  1
  Rb  Rb6  1  0.608080  0.948336  0.822527  1
  Rb  Rb7  1  0.280579  0.281437  0.314853  1
  Rb  Rb8  1  0.781519  0.781566  0.186041  1
  Rb  Rb9  1  0.218434  0.218481  0.813959  1
  Rb  Rb10  1  0.718563  0.719421  0.685147  1
  Rb  Rb11  1  0.108730  0.446415  0.676980  1
  Na  Na12  1  0.919602  0.080398  0.000000  1
  Na  Na13  1  0.579499  0.420501  0.500000  1
  Na  Na14  1  0.080296  0.919704  0.000000  1
  Na  Na15  1  0.419467  0.580533  0.500000  1
  Na  Na16  1  0.755436  0.244564  0.000000  1
  Na  Na17  1  0.745685  0.254315  0.500000  1
  Na  Na18  1  0.244719  0.755281  0.000000  1
  Na  Na19  1  0.256019  0.743981  0.500000  1
  Hf  Hf20  1  0.585311  0.414689  0.000000  1
  Hf  Hf21  1  0.915810  0.084190  0.500000  1
  Hf  Hf22  1  0.414570  0.585430  0.000000  1
  Nb  Nb23  1  0.084710  0.915290  0.500000  1
  P  P24  1  0.868297  0.557382  0.095408  1
  P  P25  1  0.442618  0.131703  0.904592  1
  P  P26  1  0.630914  0.942317  0.595849  1
  P  P27  1  0.946931  0.641051  0.592316  1
  P  P28  1  0.131702  0.442790  0.904669  1
  P  P29  1  0.557210  0.868298  0.095331  1
  P  P30  1  0.358949  0.053069  0.407684  1
  P  P31  1  0.199123  0.193909  0.585365  1
  P  P32  1  0.699142  0.699034  0.913623  1
  P  P33  1  0.300966  0.300858  0.086377  1
  P  P34  1  0.057683  0.369086  0.404151  1
  P  P35  1  0.806091  0.800877  0.414635  1
