# generated using pymatgen
data_DyHo3MoOsC4
_symmetry_space_group_name_H-M   'P 1'
_cell_length_a   5.08534600
_cell_length_b   6.57874277
_cell_length_c   9.87765253
_cell_angle_alpha   89.10578726
_cell_angle_beta   90.00000000
_cell_angle_gamma   90.00000000
_symmetry_Int_Tables_number   1
_chemical_formula_structural   DyHo3MoOsC4
_chemical_formula_sum   'Dy2 Ho6 Mo2 Os2 C8'
_cell_volume   330.41842987
_cell_formula_units_Z   2
loop_
 _symmetry_equiv_pos_site_id
 _symmetry_equiv_pos_as_xyz
  1  'x, y, z'
loop_
 _atom_site_type_symbol
 _atom_site_label
 _atom_site_symmetry_multiplicity
 _atom_site_fract_x
 _atom_site_fract_y
 _atom_site_fract_z
 _atom_site_occupancy
  Dy  Dy0  1  0.750000  0.969013  0.716330  1
  Dy  Dy1  1  0.250000  0.030987  0.283670  1
  Ho  Ho2  1  0.250000  0.678275  0.557869  1
  Ho  Ho3  1  0.750000  0.321725  0.442131  1
  Ho  Ho4  1  0.750000  0.824387  0.058077  1
  Ho  Ho5  1  0.250000  0.175613  0.941923  1
  Ho  Ho6  1  0.250000  0.537713  0.218586  1
  Ho  Ho7  1  0.750000  0.462287  0.781414  1
  Mo  Mo8  1  0.250000  0.716239  0.867704  1
  Mo  Mo9  1  0.750000  0.283761  0.132296  1
  Os  Os10  1  0.750000  0.779603  0.366752  1
  Os  Os11  1  0.250000  0.220397  0.633248  1
  C  C12  1  0.250000  0.449544  0.757147  1
  C  C13  1  0.750000  0.550456  0.242853  1
  C  C14  1  0.750000  0.046122  0.260218  1
  C  C15  1  0.250000  0.953878  0.739782  1
  C  C16  1  0.250000  0.823867  0.052354  1
  C  C17  1  0.750000  0.176133  0.947646  1
  C  C18  1  0.750000  0.676059  0.549394  1
  C  C19  1  0.250000  0.323941  0.450606  1
