# generated using pymatgen
data_YCr2(FeTc4)2
_symmetry_space_group_name_H-M   'P 1'
_cell_length_a   4.83985294
_cell_length_b   6.75549724
_cell_length_c   6.70980478
_cell_angle_alpha   82.66942533
_cell_angle_beta   69.44036038
_cell_angle_gamma   68.43079215
_symmetry_Int_Tables_number   1
_chemical_formula_structural   YCr2(FeTc4)2
_chemical_formula_sum   'Y1 Cr2 Fe2 Tc8'
_cell_volume   191.02400809
_cell_formula_units_Z   1
loop_
 _symmetry_equiv_pos_site_id
 _symmetry_equiv_pos_as_xyz
  1  'x, y, z'
loop_
 _atom_site_type_symbol
 _atom_site_label
 _atom_site_symmetry_multiplicity
 _atom_site_fract_x
 _atom_site_fract_y
 _atom_site_fract_z
 _atom_site_occupancy
  Y  Y0  1  0.000000  0.000000  0.000000  1
  Cr  Cr1  1  0.500000  0.000000  0.500000  1
  Cr  Cr2  1  0.000000  0.500000  0.000000  1
  Fe  Fe3  1  0.000000  0.000000  0.500000  1
  Fe  Fe4  1  0.500000  0.500000  0.000000  1
  Tc  Tc5  1  0.998182  0.356905  0.643095  1
  Tc  Tc6  1  0.001818  0.643095  0.356905  1
  Tc  Tc7  1  0.642653  0.357347  0.357347  1
  Tc  Tc8  1  0.357347  0.642653  0.642653  1
  Tc  Tc9  1  0.717884  0.782116  0.782116  1
  Tc  Tc10  1  0.282116  0.217884  0.217884  1
  Tc  Tc11  1  0.499819  0.217317  0.782683  1
  Tc  Tc12  1  0.500181  0.782683  0.217317  1
