# generated using pymatgen
data_Cs6GaFeSe6
_symmetry_space_group_name_H-M   'P 1'
_cell_length_a   11.00523700
_cell_length_b   11.00523677
_cell_length_c   14.16725100
_cell_angle_alpha   90.00000000
_cell_angle_beta   90.00000000
_cell_angle_gamma   138.75112048
_symmetry_Int_Tables_number   1
_chemical_formula_structural   Cs6GaFeSe6
_chemical_formula_sum   'Cs12 Ga2 Fe2 Se12'
_cell_volume   1131.32646853
_cell_formula_units_Z   2
loop_
 _symmetry_equiv_pos_site_id
 _symmetry_equiv_pos_as_xyz
  1  'x, y, z'
loop_
 _atom_site_type_symbol
 _atom_site_label
 _atom_site_symmetry_multiplicity
 _atom_site_fract_x
 _atom_site_fract_y
 _atom_site_fract_z
 _atom_site_occupancy
  Cs  Cs0  1  0.865117  0.864462  0.673180  1
  Cs  Cs1  1  0.135538  0.134883  0.326820  1
  Cs  Cs2  1  0.635538  0.634883  0.173180  1
  Cs  Cs3  1  0.365117  0.364462  0.826820  1
  Cs  Cs4  1  0.157288  0.510543  0.124401  1
  Cs  Cs5  1  0.489457  0.842712  0.875599  1
  Cs  Cs6  1  0.989457  0.342712  0.624401  1
  Cs  Cs7  1  0.657288  0.010543  0.375599  1
  Cs  Cs8  1  0.839933  0.487535  0.873364  1
  Cs  Cs9  1  0.512465  0.160067  0.126636  1
  Cs  Cs10  1  0.012465  0.660067  0.373364  1
  Cs  Cs11  1  0.339933  0.987535  0.626636  1
  Ga  Ga12  1  0.919281  0.080719  0.000000  1
  Ga  Ga13  1  0.419281  0.580719  0.500000  1
  Fe  Fe14  1  0.080371  0.919629  0.000000  1
  Fe  Fe15  1  0.580371  0.419629  0.500000  1
  Se  Se16  1  0.298559  0.297468  0.571046  1
  Se  Se17  1  0.702532  0.701441  0.428954  1
  Se  Se18  1  0.202532  0.201441  0.071046  1
  Se  Se19  1  0.798559  0.797468  0.928954  1
  Se  Se20  1  0.707115  0.000828  0.117164  1
  Se  Se21  1  0.999172  0.292885  0.882836  1
  Se  Se22  1  0.499172  0.792885  0.617164  1
  Se  Se23  1  0.207115  0.500828  0.382836  1
  Se  Se24  1  0.288532  0.995361  0.884889  1
  Se  Se25  1  0.004639  0.711468  0.115111  1
  Se  Se26  1  0.504639  0.211468  0.384889  1
  Se  Se27  1  0.788532  0.495361  0.615111  1
