# generated using pymatgen
data_Y3Si3Os2
_symmetry_space_group_name_H-M   'P 1'
_cell_length_a   5.77196403
_cell_length_b   5.77196417
_cell_length_c   13.72113500
_cell_angle_alpha   90.00000000
_cell_angle_beta   90.00000000
_cell_angle_gamma   137.36806739
_symmetry_Int_Tables_number   1
_chemical_formula_structural   Y3Si3Os2
_chemical_formula_sum   'Y6 Si6 Os4'
_cell_volume   309.60605829
_cell_formula_units_Z   2
loop_
 _symmetry_equiv_pos_site_id
 _symmetry_equiv_pos_as_xyz
  1  'x, y, z'
loop_
 _atom_site_type_symbol
 _atom_site_label
 _atom_site_symmetry_multiplicity
 _atom_site_fract_x
 _atom_site_fract_y
 _atom_site_fract_z
 _atom_site_occupancy
  Y  Y0  1  0.640547  0.359453  0.250000  1
  Y  Y1  1  0.359453  0.640547  0.750000  1
  Y  Y2  1  0.924348  0.075652  0.115781  1
  Y  Y3  1  0.075652  0.924348  0.884219  1
  Y  Y4  1  0.075652  0.924348  0.615781  1
  Y  Y5  1  0.924348  0.075652  0.384219  1
  Si  Si6  1  0.324444  0.675556  0.250000  1
  Si  Si7  1  0.675556  0.324444  0.750000  1
  Si  Si8  1  0.618270  0.381730  0.038134  1
  Si  Si9  1  0.381730  0.618270  0.961866  1
  Si  Si10  1  0.381730  0.618270  0.538134  1
  Si  Si11  1  0.618270  0.381730  0.461866  1
  Os  Os12  1  0.786330  0.213670  0.581868  1
  Os  Os13  1  0.213670  0.786330  0.418132  1
  Os  Os14  1  0.213670  0.786330  0.081868  1
  Os  Os15  1  0.786330  0.213670  0.918132  1
