# generated using pymatgen
data_Sc2CO5
_symmetry_space_group_name_H-M   'P 1'
_cell_length_a   3.43497941
_cell_length_b   3.97581220
_cell_length_c   7.58021367
_cell_angle_alpha   108.43467471
_cell_angle_beta   75.18688820
_cell_angle_gamma   90.18187894
_symmetry_Int_Tables_number   1
_chemical_formula_structural   Sc2CO5
_chemical_formula_sum   'Sc2 C1 O5'
_cell_volume   94.60437251
_cell_formula_units_Z   1
loop_
 _symmetry_equiv_pos_site_id
 _symmetry_equiv_pos_as_xyz
  1  'x, y, z'
loop_
 _atom_site_type_symbol
 _atom_site_label
 _atom_site_symmetry_multiplicity
 _atom_site_fract_x
 _atom_site_fract_y
 _atom_site_fract_z
 _atom_site_occupancy
  Sc  Sc0  1  0.467963  0.323405  0.209820  1
  Sc  Sc1  1  0.808708  0.993011  0.492175  1
  C  C2  1  0.012441  0.116645  0.875275  1
  O  O3  1  0.086233  0.361867  0.022455  1
  O  O4  1  0.406854  0.890899  0.312543  1
  O  O5  1  0.196516  0.099577  0.697920  1
  O  O6  1  0.734668  0.916541  0.910465  1
  O  O7  1  0.855886  0.440611  0.405175  1
