# generated using pymatgen
data_BiN(OF3)2
_symmetry_space_group_name_H-M   'P 1'
_cell_length_a   5.69224759
_cell_length_b   5.69224736
_cell_length_c   5.31210832
_cell_angle_alpha   89.06469342
_cell_angle_beta   89.06469574
_cell_angle_gamma   66.93417992
_symmetry_Int_Tables_number   1
_chemical_formula_structural   BiN(OF3)2
_chemical_formula_sum   'Bi1 N1 O2 F6'
_cell_volume   158.33075334
_cell_formula_units_Z   1
loop_
 _symmetry_equiv_pos_site_id
 _symmetry_equiv_pos_as_xyz
  1  'x, y, z'
loop_
 _atom_site_type_symbol
 _atom_site_label
 _atom_site_symmetry_multiplicity
 _atom_site_fract_x
 _atom_site_fract_y
 _atom_site_fract_z
 _atom_site_occupancy
  Bi  Bi0  1  0.999991  0.999991  0.500032  1
  N  N1  1  0.500026  0.500026  0.000004  1
  O  O2  1  0.604910  0.604910  0.100529  1
  O  O3  1  0.395126  0.395126  0.899593  1
  F  F4  1  0.132604  0.132604  0.193464  1
  F  F5  1  0.650470  0.124729  0.328670  1
  F  F6  1  0.124729  0.650470  0.328670  1
  F  F7  1  0.875261  0.349528  0.671301  1
  F  F8  1  0.349528  0.875261  0.671301  1
  F  F9  1  0.867355  0.867355  0.806436  1
