# generated using pymatgen
data_Ho5BTe4
_symmetry_space_group_name_H-M   'P 1'
_cell_length_a   7.48072328
_cell_length_b   7.48072481
_cell_length_c   10.60955500
_cell_angle_alpha   61.24029045
_cell_angle_beta   61.24028403
_cell_angle_gamma   32.25195565
_symmetry_Int_Tables_number   1
_chemical_formula_structural   Ho5BTe4
_chemical_formula_sum   'Ho5 B1 Te4'
_cell_volume   274.23413397
_cell_formula_units_Z   1
loop_
 _symmetry_equiv_pos_site_id
 _symmetry_equiv_pos_as_xyz
  1  'x, y, z'
loop_
 _atom_site_type_symbol
 _atom_site_label
 _atom_site_symmetry_multiplicity
 _atom_site_fract_x
 _atom_site_fract_y
 _atom_site_fract_z
 _atom_site_occupancy
  Ho  Ho0  1  0.000000  0.000000  0.500000  1
  Ho  Ho1  1  0.576275  0.576275  0.081663  1
  Ho  Ho2  1  0.171325  0.171325  0.751172  1
  Ho  Ho3  1  0.828675  0.828675  0.248828  1
  Ho  Ho4  1  0.423725  0.423725  0.918337  1
  B  B5  1  0.000000  0.000000  0.000000  1
  Te  Te6  1  0.612185  0.612185  0.586930  1
  Te  Te7  1  0.193224  0.193224  0.192383  1
  Te  Te8  1  0.806776  0.806776  0.807617  1
  Te  Te9  1  0.387815  0.387815  0.413070  1
