# generated using pymatgen
data_Lu2GaB2RuRh4
_symmetry_space_group_name_H-M   'P 1'
_cell_length_a   9.52153500
_cell_length_b   9.52153500
_cell_length_c   3.08966100
_cell_angle_alpha   90.00000000
_cell_angle_beta   90.00000000
_cell_angle_gamma   90.00000000
_symmetry_Int_Tables_number   1
_chemical_formula_structural   Lu2GaB2RuRh4
_chemical_formula_sum   'Lu4 Ga2 B4 Ru2 Rh8'
_cell_volume   280.10751924
_cell_formula_units_Z   2
loop_
 _symmetry_equiv_pos_site_id
 _symmetry_equiv_pos_as_xyz
  1  'x, y, z'
loop_
 _atom_site_type_symbol
 _atom_site_label
 _atom_site_symmetry_multiplicity
 _atom_site_fract_x
 _atom_site_fract_y
 _atom_site_fract_z
 _atom_site_occupancy
  Lu  Lu0  1  0.825660  0.325660  0.000000  1
  Lu  Lu1  1  0.325660  0.174340  0.000000  1
  Lu  Lu2  1  0.674340  0.825660  0.000000  1
  Lu  Lu3  1  0.174340  0.674340  0.000000  1
  Ga  Ga4  1  0.000000  0.000000  0.000000  1
  Ga  Ga5  1  0.500000  0.500000  0.000000  1
  B  B6  1  0.621686  0.121686  0.000000  1
  B  B7  1  0.121686  0.378314  0.000000  1
  B  B8  1  0.878314  0.621686  0.000000  1
  B  B9  1  0.378314  0.878314  0.000000  1
  Ru  Ru10  1  0.500000  0.000000  0.500000  1
  Ru  Ru11  1  0.000000  0.500000  0.500000  1
  Rh  Rh12  1  0.070912  0.216569  0.500000  1
  Rh  Rh13  1  0.216569  0.929088  0.500000  1
  Rh  Rh14  1  0.783431  0.070912  0.500000  1
  Rh  Rh15  1  0.929088  0.783431  0.500000  1
  Rh  Rh16  1  0.429088  0.716569  0.500000  1
  Rh  Rh17  1  0.570912  0.283431  0.500000  1
  Rh  Rh18  1  0.716569  0.570912  0.500000  1
  Rh  Rh19  1  0.283431  0.429088  0.500000  1
