# generated using pymatgen
data_Np3TeI16
_symmetry_space_group_name_H-M   'P 1'
_cell_length_a   9.24795819
_cell_length_b   9.30003225
_cell_length_c   14.27437045
_cell_angle_alpha   72.01085920
_cell_angle_beta   72.16140651
_cell_angle_gamma   89.90230598
_symmetry_Int_Tables_number   1
_chemical_formula_structural   Np3TeI16
_chemical_formula_sum   'Np3 Te1 I16'
_cell_volume   1105.66561931
_cell_formula_units_Z   1
loop_
 _symmetry_equiv_pos_site_id
 _symmetry_equiv_pos_as_xyz
  1  'x, y, z'
loop_
 _atom_site_type_symbol
 _atom_site_label
 _atom_site_symmetry_multiplicity
 _atom_site_fract_x
 _atom_site_fract_y
 _atom_site_fract_z
 _atom_site_occupancy
  Np  Np0  1  0.057750  0.805056  0.127201  1
  Np  Np1  1  0.806382  0.063715  0.620583  1
  Np  Np2  1  0.939407  0.191456  0.875972  1
  Te  Te3  1  0.204230  0.938596  0.375705  1
  I  I4  1  0.054970  0.832955  0.610154  1
  I  I5  1  0.047998  0.279970  0.637068  1
  I  I6  1  0.720286  0.952500  0.860743  1
  I  I7  1  0.583887  0.830370  0.637712  1
  I  I8  1  0.168592  0.414774  0.862643  1
  I  I9  1  0.948853  0.717746  0.361308  1
  I  I10  1  0.704772  0.396558  0.890782  1
  I  I11  1  0.174437  0.952558  0.888319  1
  I  I12  1  0.412230  0.162914  0.367933  1
  I  I13  1  0.828542  0.582774  0.138677  1
  I  I14  1  0.399870  0.709723  0.385195  1
  I  I15  1  0.598972  0.297610  0.607457  1
  I  I16  1  0.944635  0.172477  0.386702  1
  I  I17  1  0.296046  0.603682  0.110944  1
  I  I18  1  0.827503  0.049311  0.114092  1
  I  I19  1  0.280641  0.045254  0.140810  1
