# generated using pymatgen
data_La3(PrAg3)2
_symmetry_space_group_name_H-M   'P 1'
_cell_length_a   17.57389000
_cell_length_b   17.57388892
_cell_length_c   4.10765100
_cell_angle_alpha   90.00000000
_cell_angle_beta   90.00000000
_cell_angle_gamma   166.41309956
_symmetry_Int_Tables_number   1
_chemical_formula_structural   La3(PrAg3)2
_chemical_formula_sum   'La3 Pr2 Ag6'
_cell_volume   298.02253286
_cell_formula_units_Z   1
loop_
 _symmetry_equiv_pos_site_id
 _symmetry_equiv_pos_as_xyz
  1  'x, y, z'
loop_
 _atom_site_type_symbol
 _atom_site_label
 _atom_site_symmetry_multiplicity
 _atom_site_fract_x
 _atom_site_fract_y
 _atom_site_fract_z
 _atom_site_occupancy
  La  La0  1  0.000000  0.000000  0.000000  1
  La  La1  1  0.809303  0.190695  0.500001  1
  La  La2  1  0.190695  0.809303  0.500001  1
  Pr  Pr3  1  0.622240  0.377758  0.000000  1
  Pr  Pr4  1  0.377758  0.622240  0.000000  1
  Ag  Ag5  1  0.723027  0.276971  0.000000  1
  Ag  Ag6  1  0.276971  0.723027  0.000000  1
  Ag  Ag7  1  0.908347  0.091652  0.500001  1
  Ag  Ag8  1  0.539846  0.460152  0.500001  1
  Ag  Ag9  1  0.460152  0.539846  0.500001  1
  Ag  Ag10  1  0.091652  0.908347  0.500001  1
