# generated using pymatgen
data_Dy2Lu6In3Ru
_symmetry_space_group_name_H-M   'P 1'
_cell_length_a   10.22570100
_cell_length_b   10.22147137
_cell_length_c   6.98155549
_cell_angle_alpha   90.03050753
_cell_angle_beta   90.00000000
_cell_angle_gamma   120.01369253
_symmetry_Int_Tables_number   1
_chemical_formula_structural   Dy2Lu6In3Ru
_chemical_formula_sum   'Dy4 Lu12 In6 Ru2'
_cell_volume   631.87229215
_cell_formula_units_Z   2
loop_
 _symmetry_equiv_pos_site_id
 _symmetry_equiv_pos_as_xyz
  1  'x, y, z'
loop_
 _atom_site_type_symbol
 _atom_site_label
 _atom_site_symmetry_multiplicity
 _atom_site_fract_x
 _atom_site_fract_y
 _atom_site_fract_z
 _atom_site_occupancy
  Dy  Dy0  1  0.531219  0.062439  0.522194  1
  Dy  Dy1  1  0.938322  0.469198  0.523450  1
  Dy  Dy2  1  0.530877  0.469198  0.523450  1
  Dy  Dy3  1  0.468096  0.936192  0.023278  1
  Lu  Lu4  1  0.065142  0.532428  0.024715  1
  Lu  Lu5  1  0.467286  0.532428  0.024715  1
  Lu  Lu6  1  0.177592  0.355182  0.731050  1
  Lu  Lu7  1  0.645000  0.821908  0.729721  1
  Lu  Lu8  1  0.176908  0.821908  0.729721  1
  Lu  Lu9  1  0.822020  0.644042  0.225765  1
  Lu  Lu10  1  0.354623  0.178079  0.226664  1
  Lu  Lu11  1  0.823456  0.178079  0.226664  1
  Lu  Lu12  1  0.667371  0.334740  0.902342  1
  Lu  Lu13  1  0.332776  0.665552  0.402459  1
  Lu  Lu14  1  0.000187  0.000374  0.507902  1
  Lu  Lu15  1  0.999999  0.999998  0.007877  1
  In  In16  1  0.837888  0.675776  0.771974  1
  In  In17  1  0.325597  0.162393  0.772219  1
  In  In18  1  0.836795  0.162393  0.772219  1
  In  In19  1  0.163134  0.326269  0.271896  1
  In  In20  1  0.674770  0.836525  0.271865  1
  In  In21  1  0.161755  0.836525  0.271865  1
  Ru  Ru22  1  0.666543  0.333084  0.294452  1
  Ru  Ru23  1  0.332645  0.665291  0.797221  1
