# generated using pymatgen
data_Nb6Ga3RhN2
_symmetry_space_group_name_H-M   'P 1'
_cell_length_a   7.04395812
_cell_length_b   7.03807291
_cell_length_c   7.06504700
_cell_angle_alpha   90.00000000
_cell_angle_beta   90.00000000
_cell_angle_gamma   90.50568972
_symmetry_Int_Tables_number   1
_chemical_formula_structural   Nb6Ga3RhN2
_chemical_formula_sum   'Nb12 Ga6 Rh2 N4'
_cell_volume   350.24235654
_cell_formula_units_Z   2
loop_
 _symmetry_equiv_pos_site_id
 _symmetry_equiv_pos_as_xyz
  1  'x, y, z'
loop_
 _atom_site_type_symbol
 _atom_site_label
 _atom_site_symmetry_multiplicity
 _atom_site_fract_x
 _atom_site_fract_y
 _atom_site_fract_z
 _atom_site_occupancy
  Nb  Nb0  1  0.793998  0.957990  0.374038  1
  Nb  Nb1  1  0.706002  0.042010  0.874038  1
  Nb  Nb2  1  0.209088  0.454382  0.124377  1
  Nb  Nb3  1  0.290912  0.545618  0.624377  1
  Nb  Nb4  1  0.957740  0.379439  0.790464  1
  Nb  Nb5  1  0.045272  0.874862  0.708674  1
  Nb  Nb6  1  0.454728  0.125138  0.208674  1
  Nb  Nb7  1  0.542260  0.620561  0.290464  1
  Nb  Nb8  1  0.378167  0.791626  0.957350  1
  Nb  Nb9  1  0.874804  0.707994  0.044745  1
  Nb  Nb10  1  0.121833  0.208374  0.457350  1
  Nb  Nb11  1  0.625196  0.292006  0.544745  1
  Ga  Ga12  1  0.821944  0.319915  0.177402  1
  Ga  Ga13  1  0.678056  0.680085  0.677402  1
  Ga  Ga14  1  0.561878  0.423901  0.928161  1
  Ga  Ga15  1  0.421834  0.933226  0.569362  1
  Ga  Ga16  1  0.938122  0.576099  0.428161  1
  Ga  Ga17  1  0.078166  0.066774  0.069362  1
  Rh  Rh18  1  0.181642  0.823661  0.318662  1
  Rh  Rh19  1  0.318358  0.176339  0.818662  1
  N  N20  1  0.876678  0.122191  0.627574  1
  N  N21  1  0.623322  0.877809  0.127574  1
  N  N22  1  0.128347  0.626515  0.879190  1
  N  N23  1  0.371653  0.373485  0.379190  1
