# generated using pymatgen
data_Dy2Si4Tc7Os
_symmetry_space_group_name_H-M   'P 1'
_cell_length_a   7.60690240
_cell_length_b   7.19060710
_cell_length_c   4.10192200
_cell_angle_alpha   90.00000000
_cell_angle_beta   90.00000000
_cell_angle_gamma   90.26484750
_symmetry_Int_Tables_number   1
_chemical_formula_structural   Dy2Si4Tc7Os
_chemical_formula_sum   'Dy2 Si4 Tc7 Os1'
_cell_volume   224.36554347
_cell_formula_units_Z   1
loop_
 _symmetry_equiv_pos_site_id
 _symmetry_equiv_pos_as_xyz
  1  'x, y, z'
loop_
 _atom_site_type_symbol
 _atom_site_label
 _atom_site_symmetry_multiplicity
 _atom_site_fract_x
 _atom_site_fract_y
 _atom_site_fract_z
 _atom_site_occupancy
  Dy  Dy0  1  0.499424  0.502028  0.500000  1
  Dy  Dy1  1  0.999879  0.000493  0.000000  1
  Si  Si2  1  0.800846  0.221983  0.500000  1
  Si  Si3  1  0.197172  0.778457  0.500000  1
  Si  Si4  1  0.302927  0.278521  0.000000  1
  Si  Si5  1  0.697182  0.724147  0.000000  1
  Tc  Tc6  1  0.342803  0.080142  0.500000  1
  Tc  Tc7  1  0.158430  0.579315  0.000000  1
  Tc  Tc8  1  0.839355  0.421168  0.000000  1
  Tc  Tc9  1  0.899489  0.650108  0.500000  1
  Tc  Tc10  1  0.102547  0.345630  0.500000  1
  Tc  Tc11  1  0.601576  0.152800  0.000000  1
  Tc  Tc12  1  0.397795  0.847230  0.000000  1
  Os  Os13  1  0.660576  0.917978  0.500000  1
