# generated using pymatgen
data_TbYbAl20(IrOs)2
_symmetry_space_group_name_H-M   'P 1'
_cell_length_a   6.87629298
_cell_length_b   6.87629244
_cell_length_c   9.14794482
_cell_angle_alpha   90.10384825
_cell_angle_beta   89.89615454
_cell_angle_gamma   96.67147466
_symmetry_Int_Tables_number   1
_chemical_formula_structural   TbYbAl20(IrOs)2
_chemical_formula_sum   'Tb1 Yb1 Al20 Ir2 Os2'
_cell_volume   429.61574686
_cell_formula_units_Z   1
loop_
 _symmetry_equiv_pos_site_id
 _symmetry_equiv_pos_as_xyz
  1  'x, y, z'
loop_
 _atom_site_type_symbol
 _atom_site_label
 _atom_site_symmetry_multiplicity
 _atom_site_fract_x
 _atom_site_fract_y
 _atom_site_fract_z
 _atom_site_occupancy
  Tb  Tb0  1  0.628330  0.371670  0.749522  1
  Yb  Yb1  1  0.372409  0.627591  0.250630  1
  Al  Al2  1  0.279101  0.017588  0.748203  1
  Al  Al3  1  0.019431  0.279932  0.251689  1
  Al  Al4  1  0.720068  0.980569  0.251689  1
  Al  Al5  1  0.982412  0.720899  0.748203  1
  Al  Al6  1  0.878695  0.121305  0.947723  1
  Al  Al7  1  0.121983  0.878017  0.050158  1
  Al  Al8  1  0.877221  0.122779  0.549002  1
  Al  Al9  1  0.123971  0.876029  0.452784  1
  Al  Al10  1  0.645807  0.915232  0.748960  1
  Al  Al11  1  0.916114  0.647118  0.251191  1
  Al  Al12  1  0.352882  0.083886  0.251191  1
  Al  Al13  1  0.084768  0.354193  0.748960  1
  Al  Al14  1  0.343352  0.656648  0.895281  1
  Al  Al15  1  0.658641  0.341359  0.104731  1
  Al  Al16  1  0.344409  0.655591  0.600243  1
  Al  Al17  1  0.658129  0.341871  0.399368  1
  Al  Al18  1  0.722490  0.724144  0.000200  1
  Al  Al19  1  0.721265  0.723223  0.500189  1
  Al  Al20  1  0.275856  0.277510  0.000200  1
  Al  Al21  1  0.276777  0.278735  0.500189  1
  Ir  Ir22  1  0.499388  0.001547  0.999203  1
  Ir  Ir23  1  0.998453  0.500612  0.999203  1
  Os  Os24  1  0.499783  0.001734  0.500646  1
  Os  Os25  1  0.998266  0.500217  0.500646  1
