# generated using pymatgen
data_SrPr2Nd(Ir2O7)2
_symmetry_space_group_name_H-M   'P 1'
_cell_length_a   7.44674655
_cell_length_b   7.41672001
_cell_length_c   7.45909100
_cell_angle_alpha   59.81084260
_cell_angle_beta   59.94515312
_cell_angle_gamma   59.79215598
_symmetry_Int_Tables_number   1
_chemical_formula_structural   SrPr2Nd(Ir2O7)2
_chemical_formula_sum   'Sr1 Pr2 Nd1 Ir4 O14'
_cell_volume   290.30901510
_cell_formula_units_Z   1
loop_
 _symmetry_equiv_pos_site_id
 _symmetry_equiv_pos_as_xyz
  1  'x, y, z'
loop_
 _atom_site_type_symbol
 _atom_site_label
 _atom_site_symmetry_multiplicity
 _atom_site_fract_x
 _atom_site_fract_y
 _atom_site_fract_z
 _atom_site_occupancy
  Sr  Sr0  1  0.125000  0.625000  0.125000  1
  Pr  Pr1  1  0.125000  0.125000  0.625000  1
  Pr  Pr2  1  0.125000  0.125000  0.125000  1
  Nd  Nd3  1  0.625000  0.125000  0.125000  1
  Ir  Ir4  1  0.125000  0.625000  0.625000  1
  Ir  Ir5  1  0.625000  0.125000  0.625000  1
  Ir  Ir6  1  0.625000  0.625000  0.125000  1
  Ir  Ir7  1  0.625000  0.625000  0.625000  1
  O  O8  1  0.693444  0.708848  0.298853  1
  O  O9  1  0.296902  0.295013  0.704042  1
  O  O10  1  0.703340  0.294321  0.705777  1
  O  O11  1  0.299383  0.706744  0.299343  1
  O  O12  1  0.299383  0.706744  0.694529  1
  O  O13  1  0.703340  0.294321  0.296562  1
  O  O14  1  0.556556  0.541152  0.951147  1
  O  O15  1  0.953098  0.954987  0.545958  1
  O  O16  1  0.546660  0.955679  0.544223  1
  O  O17  1  0.950617  0.543256  0.950657  1
  O  O18  1  0.950617  0.543256  0.555471  1
  O  O19  1  0.546660  0.955679  0.953438  1
  O  O20  1  0.255303  0.239729  0.252484  1
  O  O21  1  0.994697  0.010271  0.997516  1
