# generated using pymatgen
data_Ho4TaCrOs6
_symmetry_space_group_name_H-M   'P 1'
_cell_length_a   5.22202663
_cell_length_b   5.22202594
_cell_length_c   8.92156200
_cell_angle_alpha   90.00000000
_cell_angle_beta   90.00000000
_cell_angle_gamma   115.96996065
_symmetry_Int_Tables_number   1
_chemical_formula_structural   Ho4TaCrOs6
_chemical_formula_sum   'Ho4 Ta1 Cr1 Os6'
_cell_volume   218.72084351
_cell_formula_units_Z   1
loop_
 _symmetry_equiv_pos_site_id
 _symmetry_equiv_pos_as_xyz
  1  'x, y, z'
loop_
 _atom_site_type_symbol
 _atom_site_label
 _atom_site_symmetry_multiplicity
 _atom_site_fract_x
 _atom_site_fract_y
 _atom_site_fract_z
 _atom_site_occupancy
  Ho  Ho0  1  0.328632  0.671368  0.440131  1
  Ho  Ho1  1  0.667837  0.332163  0.568715  1
  Ho  Ho2  1  0.667837  0.332163  0.931285  1
  Ho  Ho3  1  0.328632  0.671368  0.059869  1
  Ta  Ta4  1  0.842573  0.157427  0.250000  1
  Cr  Cr5  1  0.163200  0.836800  0.750000  1
  Os  Os6  1  0.003881  0.996119  0.509427  1
  Os  Os7  1  0.003881  0.996119  0.990573  1
  Os  Os8  1  0.823771  0.649156  0.250000  1
  Os  Os9  1  0.350844  0.176229  0.250000  1
  Os  Os10  1  0.173527  0.354615  0.750000  1
  Os  Os11  1  0.645385  0.826473  0.750000  1
