# generated using pymatgen
data_RbCe2(AsO4)3
_symmetry_space_group_name_H-M   'P 1'
_cell_length_a   10.37497341
_cell_length_b   10.37497274
_cell_length_c   10.37497261
_cell_angle_alpha   55.03443935
_cell_angle_beta   55.03444236
_cell_angle_gamma   55.03443433
_symmetry_Int_Tables_number   1
_chemical_formula_structural   RbCe2(AsO4)3
_chemical_formula_sum   'Rb2 Ce4 As6 O24'
_cell_volume   698.44985575
_cell_formula_units_Z   2
loop_
 _symmetry_equiv_pos_site_id
 _symmetry_equiv_pos_as_xyz
  1  'x, y, z'
loop_
 _atom_site_type_symbol
 _atom_site_label
 _atom_site_symmetry_multiplicity
 _atom_site_fract_x
 _atom_site_fract_y
 _atom_site_fract_z
 _atom_site_occupancy
  Rb  Rb0  1  0.500000  0.500000  0.500000  1
  Rb  Rb1  1  0.000000  0.000000  0.000000  1
  Ce  Ce2  1  0.350153  0.350153  0.350153  1
  Ce  Ce3  1  0.850153  0.850153  0.850153  1
  Ce  Ce4  1  0.649847  0.649847  0.649847  1
  Ce  Ce5  1  0.149847  0.149847  0.149847  1
  As  As6  1  0.961442  0.538558  0.250000  1
  As  As7  1  0.250000  0.961442  0.538558  1
  As  As8  1  0.538558  0.250000  0.961442  1
  As  As9  1  0.750000  0.038558  0.461442  1
  As  As10  1  0.461442  0.750000  0.038558  1
  As  As11  1  0.038558  0.461442  0.750000  1
  O  O12  1  0.136508  0.511706  0.258217  1
  O  O13  1  0.258217  0.136508  0.511706  1
  O  O14  1  0.511706  0.258217  0.136508  1
  O  O15  1  0.758217  0.011706  0.636508  1
  O  O16  1  0.636508  0.758217  0.011706  1
  O  O17  1  0.011706  0.636508  0.758217  1
  O  O18  1  0.863492  0.488294  0.741783  1
  O  O19  1  0.741783  0.863492  0.488294  1
  O  O20  1  0.488294  0.741783  0.863492  1
  O  O21  1  0.241783  0.988294  0.363492  1
  O  O22  1  0.363492  0.241783  0.988294  1
  O  O23  1  0.988294  0.363492  0.241783  1
  O  O24  1  0.212302  0.429538  0.573515  1
  O  O25  1  0.573515  0.212302  0.429538  1
  O  O26  1  0.429538  0.573515  0.212302  1
  O  O27  1  0.073515  0.929538  0.712302  1
  O  O28  1  0.712302  0.073515  0.929538  1
  O  O29  1  0.929538  0.712302  0.073515  1
  O  O30  1  0.787698  0.570462  0.426485  1
  O  O31  1  0.426485  0.787698  0.570462  1
  O  O32  1  0.570462  0.426485  0.787698  1
  O  O33  1  0.926485  0.070462  0.287698  1
  O  O34  1  0.287698  0.926485  0.070462  1
  O  O35  1  0.070462  0.287698  0.926485  1
