# generated using pymatgen
data_Er2VB8Rh
_symmetry_space_group_name_H-M   'P 1'
_cell_length_a   3.49322400
_cell_length_b   5.96481055
_cell_length_c   11.54602365
_cell_angle_alpha   89.67788591
_cell_angle_beta   90.00000000
_cell_angle_gamma   90.00000000
_symmetry_Int_Tables_number   1
_chemical_formula_structural   Er2VB8Rh
_chemical_formula_sum   'Er4 V2 B16 Rh2'
_cell_volume   240.57398885
_cell_formula_units_Z   2
loop_
 _symmetry_equiv_pos_site_id
 _symmetry_equiv_pos_as_xyz
  1  'x, y, z'
loop_
 _atom_site_type_symbol
 _atom_site_label
 _atom_site_symmetry_multiplicity
 _atom_site_fract_x
 _atom_site_fract_y
 _atom_site_fract_z
 _atom_site_occupancy
  Er  Er0  1  0.500000  0.124802  0.851711  1
  Er  Er1  1  0.500000  0.875198  0.148289  1
  Er  Er2  1  0.500000  0.630094  0.652040  1
  Er  Er3  1  0.500000  0.369906  0.347960  1
  V  V4  1  0.500000  0.626149  0.915646  1
  V  V5  1  0.500000  0.373851  0.084354  1
  B  B6  1  0.000000  0.287271  0.687720  1
  B  B7  1  0.000000  0.712729  0.312280  1
  B  B8  1  0.000000  0.787527  0.813811  1
  B  B9  1  0.000000  0.212473  0.186189  1
  B  B10  1  0.000000  0.365173  0.529996  1
  B  B11  1  0.000000  0.634827  0.470004  1
  B  B12  1  0.000000  0.865220  0.967229  1
  B  B13  1  0.000000  0.134780  0.032771  1
  B  B14  1  0.000000  0.025272  0.306779  1
  B  B15  1  0.000000  0.974728  0.693221  1
  B  B16  1  0.000000  0.523735  0.192671  1
  B  B17  1  0.000000  0.476265  0.807329  1
  B  B18  1  0.000000  0.113645  0.452320  1
  B  B19  1  0.000000  0.886355  0.547680  1
  B  B20  1  0.000000  0.614092  0.046708  1
  B  B21  1  0.000000  0.385908  0.953292  1
  Rh  Rh22  1  0.500000  0.142313  0.592513  1
  Rh  Rh23  1  0.500000  0.857687  0.407487  1
