# generated using pymatgen
data_Nd6EuNiI12
_symmetry_space_group_name_H-M   'P 1'
_cell_length_a   10.01279501
_cell_length_b   10.01279350
_cell_length_c   10.01279581
_cell_angle_alpha   106.55842688
_cell_angle_beta   106.55842723
_cell_angle_gamma   106.55843478
_symmetry_Int_Tables_number   1
_chemical_formula_structural   Nd6EuNiI12
_chemical_formula_sum   'Nd6 Eu1 Ni1 I12'
_cell_volume   845.87854601
_cell_formula_units_Z   1
loop_
 _symmetry_equiv_pos_site_id
 _symmetry_equiv_pos_as_xyz
  1  'x, y, z'
loop_
 _atom_site_type_symbol
 _atom_site_label
 _atom_site_symmetry_multiplicity
 _atom_site_fract_x
 _atom_site_fract_y
 _atom_site_fract_z
 _atom_site_occupancy
  Nd  Nd0  1  0.903062  0.977211  0.700690  1
  Nd  Nd1  1  0.700690  0.903062  0.977211  1
  Nd  Nd2  1  0.977211  0.700690  0.903062  1
  Nd  Nd3  1  0.096938  0.022789  0.299310  1
  Nd  Nd4  1  0.299310  0.096938  0.022789  1
  Nd  Nd5  1  0.022789  0.299310  0.096938  1
  Eu  Eu6  1  0.500000  0.500000  0.500000  1
  Ni  Ni7  1  0.000000  0.000000  0.000000  1
  I  I8  1  0.925752  0.321828  0.774870  1
  I  I9  1  0.774870  0.925752  0.321828  1
  I  I10  1  0.321828  0.774870  0.925752  1
  I  I11  1  0.074248  0.678172  0.225130  1
  I  I12  1  0.225130  0.074248  0.678172  1
  I  I13  1  0.678172  0.225130  0.074248  1
  I  I14  1  0.544624  0.853173  0.624099  1
  I  I15  1  0.624099  0.544624  0.853173  1
  I  I16  1  0.853173  0.624099  0.544624  1
  I  I17  1  0.455376  0.146827  0.375901  1
  I  I18  1  0.375901  0.455376  0.146827  1
  I  I19  1  0.146827  0.375901  0.455376  1
