# generated using pymatgen
data_Ho13Th3(TlIr)4
_symmetry_space_group_name_H-M   'P 1'
_cell_length_a   9.69701830
_cell_length_b   9.69186725
_cell_length_c   9.69186800
_cell_angle_alpha   60.00000428
_cell_angle_beta   60.01757463
_cell_angle_gamma   60.01757407
_symmetry_Int_Tables_number   1
_chemical_formula_structural   Ho13Th3(TlIr)4
_chemical_formula_sum   'Ho13 Th3 Tl4 Ir4'
_cell_volume   644.24861314
_cell_formula_units_Z   1
loop_
 _symmetry_equiv_pos_site_id
 _symmetry_equiv_pos_as_xyz
  1  'x, y, z'
loop_
 _atom_site_type_symbol
 _atom_site_label
 _atom_site_symmetry_multiplicity
 _atom_site_fract_x
 _atom_site_fract_y
 _atom_site_fract_z
 _atom_site_occupancy
  Ho  Ho0  1  0.197030  0.600990  0.600990  1
  Ho  Ho1  1  0.062667  0.438721  0.438721  1
  Ho  Ho2  1  0.437792  0.062406  0.062406  1
  Ho  Ho3  1  0.437792  0.062406  0.437395  1
  Ho  Ho4  1  0.062667  0.438721  0.059891  1
  Ho  Ho5  1  0.437792  0.437395  0.062406  1
  Ho  Ho6  1  0.062667  0.059891  0.438721  1
  Ho  Ho7  1  0.189558  0.810208  0.810208  1
  Ho  Ho8  1  0.811778  0.189208  0.189208  1
  Ho  Ho9  1  0.811778  0.189208  0.809807  1
  Ho  Ho10  1  0.189558  0.810208  0.190026  1
  Ho  Ho11  1  0.811778  0.809807  0.189208  1
  Ho  Ho12  1  0.189558  0.190026  0.810208  1
  Th  Th13  1  0.597436  0.599377  0.599377  1
  Th  Th14  1  0.597436  0.599377  0.203809  1
  Th  Th15  1  0.597436  0.203809  0.599377  1
  Tl  Tl16  1  0.839019  0.836229  0.836229  1
  Tl  Tl17  1  0.839019  0.836229  0.488523  1
  Tl  Tl18  1  0.839019  0.488523  0.836229  1
  Tl  Tl19  1  0.487527  0.837490  0.837490  1
  Ir  Ir20  1  0.393074  0.392169  0.392169  1
  Ir  Ir21  1  0.393074  0.392169  0.822589  1
  Ir  Ir22  1  0.393074  0.822589  0.392169  1
  Ir  Ir23  1  0.821474  0.392842  0.392842  1
