# generated using pymatgen
data_SrPrHo5CoI12
_symmetry_space_group_name_H-M   'P 1'
_cell_length_a   9.77929085
_cell_length_b   9.82429119
_cell_length_c   9.82462801
_cell_angle_alpha   106.15527232
_cell_angle_beta   106.55604187
_cell_angle_gamma   106.01074045
_symmetry_Int_Tables_number   1
_chemical_formula_structural   SrPrHo5CoI12
_chemical_formula_sum   'Sr1 Pr1 Ho5 Co1 I12'
_cell_volume   801.79687429
_cell_formula_units_Z   1
loop_
 _symmetry_equiv_pos_site_id
 _symmetry_equiv_pos_as_xyz
  1  'x, y, z'
loop_
 _atom_site_type_symbol
 _atom_site_label
 _atom_site_symmetry_multiplicity
 _atom_site_fract_x
 _atom_site_fract_y
 _atom_site_fract_z
 _atom_site_occupancy
  Sr  Sr0  1  0.500571  0.499323  0.500098  1
  Pr  Pr1  1  0.712725  0.981724  0.908941  1
  Ho  Ho2  1  0.979854  0.907393  0.709163  1
  Ho  Ho3  1  0.019818  0.092607  0.291343  1
  Ho  Ho4  1  0.094156  0.290627  0.020229  1
  Ho  Ho5  1  0.274307  0.018374  0.087739  1
  Ho  Ho6  1  0.909589  0.709879  0.980800  1
  Co  Co7  1  0.998366  0.000561  0.999683  1
  I  I8  1  0.552586  0.624407  0.863877  1
  I  I9  1  0.446565  0.363411  0.134967  1
  I  I10  1  0.316893  0.926448  0.779035  1
  I  I11  1  0.366234  0.133785  0.444375  1
  I  I12  1  0.928467  0.778832  0.321850  1
  I  I13  1  0.682023  0.076500  0.233478  1
  I  I14  1  0.073139  0.221329  0.678329  1
  I  I15  1  0.784270  0.333096  0.929025  1
  I  I16  1  0.225375  0.681436  0.074427  1
  I  I17  1  0.867850  0.554718  0.634560  1
  I  I18  1  0.133816  0.445911  0.365332  1
  I  I19  1  0.633394  0.859639  0.542750  1
