# generated using pymatgen
data_Th2Sn4Ru3
_symmetry_space_group_name_H-M   'P 1'
_cell_length_a   7.64077600
_cell_length_b   7.14825991
_cell_length_c   4.26664400
_cell_angle_alpha   90.00000000
_cell_angle_beta   90.00000000
_cell_angle_gamma   122.30663359
_symmetry_Int_Tables_number   1
_chemical_formula_structural   Th2Sn4Ru3
_chemical_formula_sum   'Th2 Sn4 Ru3'
_cell_volume   196.96255950
_cell_formula_units_Z   1
loop_
 _symmetry_equiv_pos_site_id
 _symmetry_equiv_pos_as_xyz
  1  'x, y, z'
loop_
 _atom_site_type_symbol
 _atom_site_label
 _atom_site_symmetry_multiplicity
 _atom_site_fract_x
 _atom_site_fract_y
 _atom_site_fract_z
 _atom_site_occupancy
  Th  Th0  1  0.996428  0.582008  0.000000  1
  Th  Th1  1  0.414421  0.417992  0.000000  1
  Sn  Sn2  1  0.602489  0.000000  0.000000  1
  Sn  Sn3  1  0.748911  0.734181  0.500000  1
  Sn  Sn4  1  0.014730  0.265819  0.500000  1
  Sn  Sn5  1  0.230201  0.000000  0.500000  1
  Ru  Ru6  1  0.364002  0.715988  0.500000  1
  Ru  Ru7  1  0.648014  0.284012  0.500000  1
  Ru  Ru8  1  0.980806  0.000000  0.000000  1
