# generated using pymatgen
data_Np6Sb8(PtAu)3
_symmetry_space_group_name_H-M   'P 1'
_cell_length_a   8.59846178
_cell_length_b   8.59846327
_cell_length_c   8.59145500
_cell_angle_alpha   109.45470834
_cell_angle_beta   109.45471184
_cell_angle_gamma   109.48773082
_symmetry_Int_Tables_number   1
_chemical_formula_structural   Np6Sb8(PtAu)3
_chemical_formula_sum   'Np6 Sb8 Pt3 Au3'
_cell_volume   489.07432248
_cell_formula_units_Z   1
loop_
 _symmetry_equiv_pos_site_id
 _symmetry_equiv_pos_as_xyz
  1  'x, y, z'
loop_
 _atom_site_type_symbol
 _atom_site_label
 _atom_site_symmetry_multiplicity
 _atom_site_fract_x
 _atom_site_fract_y
 _atom_site_fract_z
 _atom_site_occupancy
  Np  Np0  1  0.619331  0.752741  0.380501  1
  Np  Np1  1  0.747259  0.366590  0.627760  1
  Np  Np2  1  0.246281  0.126784  0.866280  1
  Np  Np3  1  0.373216  0.619497  0.739496  1
  Np  Np4  1  0.133410  0.880669  0.261170  1
  Np  Np5  1  0.880503  0.253719  0.119999  1
  Sb  Sb6  1  0.176117  0.495832  0.001316  1
  Sb  Sb7  1  0.319715  0.323883  0.325199  1
  Sb  Sb8  1  0.004168  0.180285  0.505484  1
  Sb  Sb9  1  0.821600  0.826143  0.821201  1
  Sb  Sb10  1  0.500000  0.000000  0.676292  1
  Sb  Sb11  1  0.004543  0.678400  0.499601  1
  Sb  Sb12  1  0.500000  0.000000  0.177950  1
  Sb  Sb13  1  0.673857  0.495457  0.995058  1
  Pt  Pt14  1  0.374334  0.247252  0.623221  1
  Pt  Pt15  1  0.872918  0.125666  0.748887  1
  Pt  Pt16  1  0.252748  0.627082  0.375969  1
  Au  Au17  1  0.750936  0.874531  0.126694  1
  Au  Au18  1  0.123595  0.749064  0.875759  1
  Au  Au19  1  0.625469  0.376405  0.252163  1
