# generated using pymatgen
data_Lu2Hf3ScPb5
_symmetry_space_group_name_H-M   'P 1'
_cell_length_a   6.08262155
_cell_length_b   9.16547358
_cell_length_c   11.26410532
_cell_angle_alpha   114.21923713
_cell_angle_beta   105.66428188
_cell_angle_gamma   90.00000079
_symmetry_Int_Tables_number   1
_chemical_formula_structural   Lu2Hf3ScPb5
_chemical_formula_sum   'Lu4 Hf6 Sc2 Pb10'
_cell_volume   547.02786747
_cell_formula_units_Z   2
loop_
 _symmetry_equiv_pos_site_id
 _symmetry_equiv_pos_as_xyz
  1  'x, y, z'
loop_
 _atom_site_type_symbol
 _atom_site_label
 _atom_site_symmetry_multiplicity
 _atom_site_fract_x
 _atom_site_fract_y
 _atom_site_fract_z
 _atom_site_occupancy
  Lu  Lu0  1  0.143818  0.256102  0.287635  1
  Lu  Lu1  1  0.856182  0.743898  0.712365  1
  Lu  Lu2  1  0.643434  0.031092  0.286866  1
  Lu  Lu3  1  0.356566  0.968908  0.713134  1
  Hf  Hf4  1  0.558878  0.310368  0.618889  1
  Hf  Hf5  1  0.441122  0.689632  0.381111  1
  Hf  Hf6  1  0.939989  0.689632  0.381111  1
  Hf  Hf7  1  0.060011  0.310368  0.618889  1
  Hf  Hf8  1  0.436535  0.676074  0.873069  1
  Hf  Hf9  1  0.563465  0.323926  0.126931  1
  Sc  Sc10  1  0.936794  0.200390  0.873588  1
  Sc  Sc11  1  0.063206  0.799610  0.126412  1
  Pb  Pb12  1  0.290356  0.592036  0.580713  1
  Pb  Pb13  1  0.709644  0.407964  0.419287  1
  Pb  Pb14  1  0.791736  0.989513  0.583474  1
  Pb  Pb15  1  0.208264  0.010487  0.416526  1
  Pb  Pb16  1  0.249828  0.000000  0.000000  1
  Pb  Pb17  1  0.750172  0.000000  0.000000  1
  Pb  Pb18  1  0.069131  0.465877  0.138262  1
  Pb  Pb19  1  0.930869  0.534123  0.861738  1
  Pb  Pb20  1  0.568871  0.671050  0.137743  1
  Pb  Pb21  1  0.431129  0.328950  0.862257  1
