# generated using pymatgen
data_K8Ti6MnBr20
_symmetry_space_group_name_H-M   'P 1'
_cell_length_a   11.63054301
_cell_length_b   11.63054239
_cell_length_c   11.63054300
_cell_angle_alpha   60.00000111
_cell_angle_beta   60.00000288
_cell_angle_gamma   59.99999851
_symmetry_Int_Tables_number   1
_chemical_formula_structural   K8Ti6MnBr20
_chemical_formula_sum   'K8 Ti6 Mn1 Br20'
_cell_volume   1112.46142836
_cell_formula_units_Z   1
loop_
 _symmetry_equiv_pos_site_id
 _symmetry_equiv_pos_as_xyz
  1  'x, y, z'
loop_
 _atom_site_type_symbol
 _atom_site_label
 _atom_site_symmetry_multiplicity
 _atom_site_fract_x
 _atom_site_fract_y
 _atom_site_fract_z
 _atom_site_occupancy
  K  K0  1  0.360969  0.360969  0.360969  1
  K  K1  1  0.639031  0.639031  0.639031  1
  K  K2  1  0.360969  0.360969  0.917093  1
  K  K3  1  0.360969  0.917093  0.360969  1
  K  K4  1  0.639031  0.639031  0.082907  1
  K  K5  1  0.639031  0.082907  0.639031  1
  K  K6  1  0.917093  0.360969  0.360969  1
  K  K7  1  0.082907  0.639031  0.639031  1
  Ti  Ti8  1  0.859352  0.140648  0.140648  1
  Ti  Ti9  1  0.140648  0.859352  0.859352  1
  Ti  Ti10  1  0.140648  0.859352  0.140648  1
  Ti  Ti11  1  0.859352  0.140648  0.859352  1
  Ti  Ti12  1  0.140648  0.140648  0.859352  1
  Ti  Ti13  1  0.859352  0.859352  0.140648  1
  Mn  Mn14  1  0.000000  0.000000  0.000000  1
  Br  Br15  1  0.318092  0.000000  0.000000  1
  Br  Br16  1  0.681908  0.000000  0.000000  1
  Br  Br17  1  0.000000  0.318092  0.681908  1
  Br  Br18  1  0.000000  0.681908  0.318092  1
  Br  Br19  1  0.000000  0.318092  0.000000  1
  Br  Br20  1  0.681908  0.000000  0.318092  1
  Br  Br21  1  0.000000  0.681908  0.000000  1
  Br  Br22  1  0.318092  0.000000  0.681908  1
  Br  Br23  1  0.000000  0.000000  0.318092  1
  Br  Br24  1  0.000000  0.000000  0.681908  1
  Br  Br25  1  0.681908  0.318092  0.000000  1
  Br  Br26  1  0.318092  0.681908  0.000000  1
  Br  Br27  1  0.687013  0.312987  0.312987  1
  Br  Br28  1  0.312987  0.687013  0.687013  1
  Br  Br29  1  0.312987  0.687013  0.312987  1
  Br  Br30  1  0.687013  0.312987  0.687013  1
  Br  Br31  1  0.312987  0.312987  0.687013  1
  Br  Br32  1  0.687013  0.687013  0.312987  1
  Br  Br33  1  0.250000  0.250000  0.250000  1
  Br  Br34  1  0.750000  0.750000  0.750000  1
