# generated using pymatgen
data_Tb8Y12Cd6TcRu
_symmetry_space_group_name_H-M   'P 1'
_cell_length_a   9.61441700
_cell_length_b   9.61441693
_cell_length_c   9.92537900
_cell_angle_alpha   90.00000000
_cell_angle_beta   90.00000000
_cell_angle_gamma   120.00000367
_symmetry_Int_Tables_number   1
_chemical_formula_structural   Tb8Y12Cd6TcRu
_chemical_formula_sum   'Tb8 Y12 Cd6 Tc1 Ru1'
_cell_volume   794.55437093
_cell_formula_units_Z   1
loop_
 _symmetry_equiv_pos_site_id
 _symmetry_equiv_pos_as_xyz
  1  'x, y, z'
loop_
 _atom_site_type_symbol
 _atom_site_label
 _atom_site_symmetry_multiplicity
 _atom_site_fract_x
 _atom_site_fract_y
 _atom_site_fract_z
 _atom_site_occupancy
  Tb  Tb0  1  0.000000  0.000000  0.500027  1
  Tb  Tb1  1  0.000000  0.000000  0.999858  1
  Tb  Tb2  1  0.209867  0.790133  0.440859  1
  Tb  Tb3  1  0.209867  0.419735  0.440859  1
  Tb  Tb4  1  0.580265  0.790133  0.440859  1
  Tb  Tb5  1  0.789832  0.210168  0.559606  1
  Tb  Tb6  1  0.789832  0.579662  0.559606  1
  Tb  Tb7  1  0.420338  0.210168  0.559606  1
  Y  Y8  1  0.789995  0.210005  0.940947  1
  Y  Y9  1  0.789995  0.579988  0.940947  1
  Y  Y10  1  0.420012  0.210005  0.940947  1
  Y  Y11  1  0.209853  0.790147  0.058586  1
  Y  Y12  1  0.209853  0.419706  0.058586  1
  Y  Y13  1  0.580294  0.790147  0.058586  1
  Y  Y14  1  0.540020  0.459980  0.249980  1
  Y  Y15  1  0.540020  0.080040  0.249980  1
  Y  Y16  1  0.919960  0.459980  0.249980  1
  Y  Y17  1  0.458720  0.541280  0.749878  1
  Y  Y18  1  0.458720  0.917441  0.749878  1
  Y  Y19  1  0.082559  0.541280  0.749878  1
  Cd  Cd20  1  0.885281  0.114719  0.249469  1
  Cd  Cd21  1  0.885281  0.770564  0.249469  1
  Cd  Cd22  1  0.229436  0.114719  0.249469  1
  Cd  Cd23  1  0.114557  0.885443  0.750517  1
  Cd  Cd24  1  0.114557  0.229114  0.750517  1
  Cd  Cd25  1  0.770886  0.885443  0.750517  1
  Tc  Tc26  1  0.333333  0.666667  0.252592  1
  Ru  Ru27  1  0.666667  0.333333  0.748000  1
