# generated using pymatgen
data_LaYbNpO6
_symmetry_space_group_name_H-M   'P 1'
_cell_length_a   5.61000600
_cell_length_b   7.85820880
_cell_length_c   11.79799200
_cell_angle_alpha   74.86671460
_cell_angle_beta   90.00000000
_cell_angle_gamma   90.00000000
_symmetry_Int_Tables_number   1
_chemical_formula_structural   LaYbNpO6
_chemical_formula_sum   'La4 Yb4 Np4 O24'
_cell_volume   502.07292264
_cell_formula_units_Z   4
loop_
 _symmetry_equiv_pos_site_id
 _symmetry_equiv_pos_as_xyz
  1  'x, y, z'
loop_
 _atom_site_type_symbol
 _atom_site_label
 _atom_site_symmetry_multiplicity
 _atom_site_fract_x
 _atom_site_fract_y
 _atom_site_fract_z
 _atom_site_occupancy
  La  La0  1  0.745884  0.000000  0.750000  1
  La  La1  1  0.254116  0.000000  0.250000  1
  La  La2  1  0.690883  0.500000  0.750000  1
  La  La3  1  0.309117  0.500000  0.250000  1
  Yb  Yb4  1  0.187901  0.793940  0.581229  1
  Yb  Yb5  1  0.812099  0.793940  0.081229  1
  Yb  Yb6  1  0.187901  0.206060  0.918771  1
  Yb  Yb7  1  0.812099  0.206060  0.418771  1
  Np  Np8  1  0.251801  0.721733  0.890272  1
  Np  Np9  1  0.748199  0.721733  0.390272  1
  Np  Np10  1  0.251801  0.278267  0.609728  1
  Np  Np11  1  0.748199  0.278267  0.109728  1
  O  O12  1  0.060106  0.935400  0.900381  1
  O  O13  1  0.537166  0.845387  0.936264  1
  O  O14  1  0.939894  0.935400  0.400381  1
  O  O15  1  0.442125  0.789532  0.734460  1
  O  O16  1  0.462834  0.845387  0.436264  1
  O  O17  1  0.975725  0.717215  0.770411  1
  O  O18  1  0.557875  0.789532  0.234460  1
  O  O19  1  0.873503  0.627003  0.552770  1
  O  O20  1  0.373055  0.485229  0.892115  1
  O  O21  1  0.024275  0.717215  0.270411  1
  O  O22  1  0.373055  0.514771  0.607885  1
  O  O23  1  0.873503  0.372997  0.947230  1
  O  O24  1  0.126497  0.627003  0.052770  1
  O  O25  1  0.626945  0.485229  0.392115  1
  O  O26  1  0.975725  0.282785  0.729589  1
  O  O27  1  0.626945  0.514771  0.107885  1
  O  O28  1  0.126497  0.372997  0.447230  1
  O  O29  1  0.442125  0.210468  0.765540  1
  O  O30  1  0.024275  0.282785  0.229589  1
  O  O31  1  0.537166  0.154613  0.563736  1
  O  O32  1  0.557875  0.210468  0.265540  1
  O  O33  1  0.060106  0.064600  0.599619  1
  O  O34  1  0.462834  0.154613  0.063736  1
  O  O35  1  0.939894  0.064600  0.099619  1
