# generated using pymatgen
data_NaLu7(Sn11Ru3)2
_symmetry_space_group_name_H-M   'P 1'
_cell_length_a   9.81131100
_cell_length_b   9.81131212
_cell_length_c   10.03511600
_cell_angle_alpha   90.00000000
_cell_angle_beta   90.00000000
_cell_angle_gamma   120.00000633
_symmetry_Int_Tables_number   1
_chemical_formula_structural   NaLu7(Sn11Ru3)2
_chemical_formula_sum   'Na1 Lu7 Sn22 Ru6'
_cell_volume   836.57934011
_cell_formula_units_Z   1
loop_
 _symmetry_equiv_pos_site_id
 _symmetry_equiv_pos_as_xyz
  1  'x, y, z'
loop_
 _atom_site_type_symbol
 _atom_site_label
 _atom_site_symmetry_multiplicity
 _atom_site_fract_x
 _atom_site_fract_y
 _atom_site_fract_z
 _atom_site_occupancy
  Na  Na0  1  0.000000  0.000000  0.500000  1
  Lu  Lu1  1  0.485533  0.514467  0.305756  1
  Lu  Lu2  1  0.514467  0.485533  0.694244  1
  Lu  Lu3  1  0.485533  0.971065  0.305756  1
  Lu  Lu4  1  0.514467  0.028935  0.694244  1
  Lu  Lu5  1  0.028935  0.514467  0.305756  1
  Lu  Lu6  1  0.971065  0.485533  0.694244  1
  Lu  Lu7  1  0.000000  0.000000  0.000000  1
  Sn  Sn8  1  0.123796  0.876204  0.266910  1
  Sn  Sn9  1  0.876204  0.123796  0.733090  1
  Sn  Sn10  1  0.123796  0.247592  0.266910  1
  Sn  Sn11  1  0.876204  0.752408  0.733090  1
  Sn  Sn12  1  0.752408  0.876204  0.266910  1
  Sn  Sn13  1  0.247592  0.123796  0.733090  1
  Sn  Sn14  1  0.779170  0.220830  0.464368  1
  Sn  Sn15  1  0.220830  0.779170  0.535632  1
  Sn  Sn16  1  0.779170  0.558341  0.464368  1
  Sn  Sn17  1  0.220830  0.441659  0.535632  1
  Sn  Sn18  1  0.441659  0.220830  0.464368  1
  Sn  Sn19  1  0.558341  0.779170  0.535632  1
  Sn  Sn20  1  0.349136  0.000000  0.000000  1
  Sn  Sn21  1  0.650864  0.000000  0.000000  1
  Sn  Sn22  1  0.000000  0.349136  0.000000  1
  Sn  Sn23  1  0.000000  0.650864  0.000000  1
  Sn  Sn24  1  0.650864  0.650864  0.000000  1
  Sn  Sn25  1  0.349136  0.349136  0.000000  1
  Sn  Sn26  1  0.333333  0.666667  0.132295  1
  Sn  Sn27  1  0.666667  0.333333  0.867705  1
  Sn  Sn28  1  0.333333  0.666667  0.823891  1
  Sn  Sn29  1  0.666667  0.333333  0.176109  1
  Ru  Ru30  1  0.831052  0.168948  0.205502  1
  Ru  Ru31  1  0.168948  0.831052  0.794498  1
  Ru  Ru32  1  0.831052  0.662106  0.205502  1
  Ru  Ru33  1  0.168948  0.337894  0.794498  1
  Ru  Ru34  1  0.337894  0.168948  0.205502  1
  Ru  Ru35  1  0.662106  0.831052  0.794498  1
