# generated using pymatgen
data_Ho4Fe4Co15NiP12
_symmetry_space_group_name_H-M   'P 1'
_cell_length_a   3.66014000
_cell_length_b   10.24173516
_cell_length_c   11.77821819
_cell_angle_alpha   90.02054029
_cell_angle_beta   90.00000000
_cell_angle_gamma   90.00000000
_symmetry_Int_Tables_number   1
_chemical_formula_structural   Ho4Fe4Co15NiP12
_chemical_formula_sum   'Ho4 Fe4 Co15 Ni1 P12'
_cell_volume   441.52043228
_cell_formula_units_Z   1
loop_
 _symmetry_equiv_pos_site_id
 _symmetry_equiv_pos_as_xyz
  1  'x, y, z'
loop_
 _atom_site_type_symbol
 _atom_site_label
 _atom_site_symmetry_multiplicity
 _atom_site_fract_x
 _atom_site_fract_y
 _atom_site_fract_z
 _atom_site_occupancy
  Ho  Ho0  1  0.250000  0.582137  0.704161  1
  Ho  Ho1  1  0.250000  0.918863  0.202885  1
  Ho  Ho2  1  0.750000  0.418617  0.295772  1
  Ho  Ho3  1  0.750000  0.080886  0.797238  1
  Fe  Fe4  1  0.250000  0.710206  0.987666  1
  Fe  Fe5  1  0.250000  0.790568  0.487947  1
  Fe  Fe6  1  0.750000  0.289778  0.012245  1
  Fe  Fe7  1  0.750000  0.210633  0.512897  1
  Co  Co8  1  0.250000  0.093896  0.986952  1
  Co  Co9  1  0.750000  0.592487  0.512330  1
  Co  Co10  1  0.750000  0.906082  0.012995  1
  Co  Co11  1  0.250000  0.221832  0.175455  1
  Co  Co12  1  0.250000  0.278476  0.676867  1
  Co  Co13  1  0.750000  0.778060  0.823233  1
  Co  Co14  1  0.750000  0.722340  0.323393  1
  Co  Co15  1  0.250000  0.882116  0.698424  1
  Co  Co16  1  0.250000  0.617520  0.198498  1
  Co  Co17  1  0.750000  0.117453  0.301429  1
  Co  Co18  1  0.750000  0.381621  0.802709  1
  Co  Co19  1  0.250000  0.466413  0.933028  1
  Co  Co20  1  0.250000  0.033325  0.433419  1
  Co  Co21  1  0.750000  0.533619  0.067108  1
  Co  Co22  1  0.750000  0.966576  0.567120  1
  Ni  Ni23  1  0.250000  0.406539  0.486758  1
  P  P24  1  0.250000  0.419458  0.112828  1
  P  P25  1  0.250000  0.080370  0.613905  1
  P  P26  1  0.750000  0.580812  0.887029  1
  P  P27  1  0.750000  0.919443  0.386794  1
  P  P28  1  0.250000  0.268992  0.868428  1
  P  P29  1  0.250000  0.228251  0.364788  1
  P  P30  1  0.750000  0.730964  0.131886  1
  P  P31  1  0.750000  0.769208  0.632141  1
  P  P32  1  0.250000  0.605292  0.390250  1
  P  P33  1  0.250000  0.897789  0.892092  1
  P  P34  1  0.750000  0.397557  0.611916  1
  P  P35  1  0.750000  0.101819  0.107414  1
