# generated using pymatgen
data_Ti7PdPt20
_symmetry_space_group_name_H-M   'P 1'
_cell_length_a   5.58845615
_cell_length_b   5.59065690
_cell_length_c   15.97115400
_cell_angle_alpha   89.99998150
_cell_angle_beta   90.00131258
_cell_angle_gamma   120.01306983
_symmetry_Int_Tables_number   1
_chemical_formula_structural   Ti7PdPt20
_chemical_formula_sum   'Ti7 Pd1 Pt20'
_cell_volume   432.08023891
_cell_formula_units_Z   1
loop_
 _symmetry_equiv_pos_site_id
 _symmetry_equiv_pos_as_xyz
  1  'x, y, z'
loop_
 _atom_site_type_symbol
 _atom_site_label
 _atom_site_symmetry_multiplicity
 _atom_site_fract_x
 _atom_site_fract_y
 _atom_site_fract_z
 _atom_site_occupancy
  Ti  Ti0  1  0.999975  0.999987  0.719552  1
  Ti  Ti1  1  0.666065  0.333032  0.856388  1
  Ti  Ti2  1  0.333935  0.666968  0.143612  1
  Ti  Ti3  1  0.000025  0.000013  0.280448  1
  Ti  Ti4  1  0.666800  0.333400  0.429525  1
  Ti  Ti5  1  0.000000  0.000000  0.000000  1
  Ti  Ti6  1  0.333200  0.666600  0.570475  1
  Pd  Pd7  1  0.000000  0.500000  0.000000  1
  Pt  Pt8  1  0.833155  0.666386  0.570953  1
  Pt  Pt9  1  0.333751  0.166876  0.571056  1
  Pt  Pt10  1  0.166047  0.333103  0.857301  1
  Pt  Pt11  1  0.166845  0.333614  0.429047  1
  Pt  Pt12  1  0.166845  0.833231  0.429047  1
  Pt  Pt13  1  0.500662  0.000556  0.713399  1
  Pt  Pt14  1  0.666249  0.833124  0.428944  1
  Pt  Pt15  1  0.166046  0.832944  0.857301  1
  Pt  Pt16  1  0.665795  0.832898  0.857538  1
  Pt  Pt17  1  0.833954  0.167056  0.142699  1
  Pt  Pt18  1  0.833155  0.166769  0.570953  1
  Pt  Pt19  1  0.500663  0.500105  0.713399  1
  Pt  Pt20  1  0.334205  0.167102  0.142462  1
  Pt  Pt21  1  0.833953  0.666897  0.142699  1
  Pt  Pt22  1  0.499337  0.499895  0.286601  1
  Pt  Pt23  1  0.499338  0.999444  0.286601  1
  Pt  Pt24  1  0.500000  0.000000  0.000000  1
  Pt  Pt25  1  0.000637  0.500319  0.286551  1
  Pt  Pt26  1  0.999363  0.499681  0.713449  1
  Pt  Pt27  1  0.500000  0.500000  0.000000  1
