# generated using pymatgen
data_Tc2MoSe4
_symmetry_space_group_name_H-M   'P 1'
_cell_length_a   6.74569867
_cell_length_b   6.74592545
_cell_length_c   6.76394779
_cell_angle_alpha   93.05457482
_cell_angle_beta   93.57924333
_cell_angle_gamma   93.42691410
_symmetry_Int_Tables_number   1
_chemical_formula_structural   Tc2MoSe4
_chemical_formula_sum   'Tc4 Mo2 Se8'
_cell_volume   306.14772745
_cell_formula_units_Z   2
loop_
 _symmetry_equiv_pos_site_id
 _symmetry_equiv_pos_as_xyz
  1  'x, y, z'
loop_
 _atom_site_type_symbol
 _atom_site_label
 _atom_site_symmetry_multiplicity
 _atom_site_fract_x
 _atom_site_fract_y
 _atom_site_fract_z
 _atom_site_occupancy
  Tc  Tc0  1  0.547779  0.414207  0.237935  1
  Tc  Tc1  1  0.763195  0.454143  0.586677  1
  Tc  Tc2  1  0.584817  0.763897  0.451623  1
  Tc  Tc3  1  0.452369  0.587051  0.763732  1
  Mo  Mo4  1  0.235510  0.544892  0.412974  1
  Mo  Mo5  1  0.413742  0.236844  0.548590  1
  Se  Se6  1  0.373864  0.726959  0.124605  1
  Se  Se7  1  0.125556  0.372583  0.733461  1
  Se  Se8  1  0.733380  0.128896  0.372496  1
  Se  Se9  1  0.627598  0.275471  0.876058  1
  Se  Se10  1  0.869041  0.626852  0.273936  1
  Se  Se11  1  0.274186  0.872191  0.624655  1
  Se  Se12  1  0.218121  0.213721  0.212777  1
  Se  Se13  1  0.780842  0.782293  0.780481  1
