# generated using pymatgen
data_BaSr4(InAs3)2
_symmetry_space_group_name_H-M   'P 1'
_cell_length_a   4.49232500
_cell_length_b   12.28135800
_cell_length_c   14.15797800
_cell_angle_alpha   90.00000000
_cell_angle_beta   90.00000000
_cell_angle_gamma   90.00000000
_symmetry_Int_Tables_number   1
_chemical_formula_structural   BaSr4(InAs3)2
_chemical_formula_sum   'Ba2 Sr8 In4 As12'
_cell_volume   781.12186085
_cell_formula_units_Z   2
loop_
 _symmetry_equiv_pos_site_id
 _symmetry_equiv_pos_as_xyz
  1  'x, y, z'
loop_
 _atom_site_type_symbol
 _atom_site_label
 _atom_site_symmetry_multiplicity
 _atom_site_fract_x
 _atom_site_fract_y
 _atom_site_fract_z
 _atom_site_occupancy
  Ba  Ba0  1  0.000000  0.673039  0.981292  1
  Ba  Ba1  1  0.000000  0.826961  0.481292  1
  Sr  Sr2  1  0.000000  0.411588  0.754222  1
  Sr  Sr3  1  0.000000  0.917499  0.744255  1
  Sr  Sr4  1  0.000000  0.582501  0.244255  1
  Sr  Sr5  1  0.000000  0.177512  0.517864  1
  Sr  Sr6  1  0.000000  0.088412  0.254222  1
  Sr  Sr7  1  0.000000  0.000415  0.999931  1
  Sr  Sr8  1  0.000000  0.322488  0.017864  1
  Sr  Sr9  1  0.000000  0.499585  0.499931  1
  In  In10  1  0.500000  0.672096  0.783848  1
  In  In11  1  0.500000  0.173267  0.717318  1
  In  In12  1  0.500000  0.827904  0.283848  1
  In  In13  1  0.500000  0.326733  0.217318  1
  As  As14  1  0.500000  0.988878  0.590157  1
  As  As15  1  0.500000  0.852660  0.893497  1
  As  As16  1  0.000000  0.658958  0.679944  1
  As  As17  1  0.500000  0.475674  0.912486  1
  As  As18  1  0.500000  0.647340  0.393497  1
  As  As19  1  0.500000  0.152671  0.101020  1
  As  As20  1  0.500000  0.024326  0.412486  1
  As  As21  1  0.000000  0.162050  0.824166  1
  As  As22  1  0.000000  0.841042  0.179944  1
  As  As23  1  0.500000  0.511122  0.090157  1
  As  As24  1  0.500000  0.347329  0.601020  1
  As  As25  1  0.000000  0.337950  0.324166  1
