# generated using pymatgen
data_NaCrCoF6
_symmetry_space_group_name_H-M   'P 1'
_cell_length_a   9.00394800
_cell_length_b   9.00394876
_cell_length_c   4.99422600
_cell_angle_alpha   90.00000000
_cell_angle_beta   90.00000000
_cell_angle_gamma   120.00000456
_symmetry_Int_Tables_number   1
_chemical_formula_structural   NaCrCoF6
_chemical_formula_sum   'Na3 Cr3 Co3 F18'
_cell_volume   350.64269524
_cell_formula_units_Z   3
loop_
 _symmetry_equiv_pos_site_id
 _symmetry_equiv_pos_as_xyz
  1  'x, y, z'
loop_
 _atom_site_type_symbol
 _atom_site_label
 _atom_site_symmetry_multiplicity
 _atom_site_fract_x
 _atom_site_fract_y
 _atom_site_fract_z
 _atom_site_occupancy
  Na  Na0  1  0.627665  0.000000  0.000000  1
  Na  Na1  1  0.000000  0.627665  0.000000  1
  Na  Na2  1  0.372335  0.372335  0.000000  1
  Cr  Cr3  1  0.333333  0.666667  0.501040  1
  Cr  Cr4  1  0.666667  0.333333  0.498960  1
  Cr  Cr5  1  0.000000  0.000000  0.000000  1
  Co  Co6  1  0.300879  0.000000  0.500000  1
  Co  Co7  1  0.000000  0.300879  0.500000  1
  Co  Co8  1  0.699121  0.699121  0.500000  1
  F  F9  1  0.126739  0.532083  0.288059  1
  F  F10  1  0.467917  0.594656  0.288059  1
  F  F11  1  0.532083  0.126739  0.711941  1
  F  F12  1  0.405344  0.873261  0.288059  1
  F  F13  1  0.594656  0.467917  0.711941  1
  F  F14  1  0.873261  0.405344  0.711941  1
  F  F15  1  0.102706  0.204480  0.228323  1
  F  F16  1  0.795520  0.898226  0.228323  1
  F  F17  1  0.204480  0.102706  0.771677  1
  F  F18  1  0.101774  0.897294  0.228323  1
  F  F19  1  0.898226  0.795520  0.771677  1
  F  F20  1  0.897294  0.101774  0.771677  1
  F  F21  1  0.454246  0.229406  0.289833  1
  F  F22  1  0.770594  0.224840  0.289833  1
  F  F23  1  0.229406  0.454246  0.710167  1
  F  F24  1  0.775160  0.545754  0.289833  1
  F  F25  1  0.224840  0.770594  0.710167  1
  F  F26  1  0.545754  0.775160  0.710167  1
