# generated using pymatgen
data_KBrOF4
_symmetry_space_group_name_H-M   'P 1'
_cell_length_a   5.80178400
_cell_length_b   14.19072800
_cell_length_c   5.96103600
_cell_angle_alpha   90.00000000
_cell_angle_beta   90.00000000
_cell_angle_gamma   90.00000000
_symmetry_Int_Tables_number   1
_chemical_formula_structural   KBrOF4
_chemical_formula_sum   'K4 Br4 O4 F16'
_cell_volume   490.78126588
_cell_formula_units_Z   4
loop_
 _symmetry_equiv_pos_site_id
 _symmetry_equiv_pos_as_xyz
  1  'x, y, z'
loop_
 _atom_site_type_symbol
 _atom_site_label
 _atom_site_symmetry_multiplicity
 _atom_site_fract_x
 _atom_site_fract_y
 _atom_site_fract_z
 _atom_site_occupancy
  K  K0  1  0.250001  0.881927  0.275209  1
  K  K1  1  0.750000  0.381927  0.224790  1
  K  K2  1  0.250001  0.618072  0.775212  1
  K  K3  1  0.750000  0.118073  0.724789  1
  Br  Br4  1  0.250001  0.147889  0.183174  1
  Br  Br5  1  0.750000  0.647889  0.316825  1
  Br  Br6  1  0.250001  0.352111  0.683175  1
  Br  Br7  1  0.750000  0.852111  0.816824  1
  O  O8  1  0.750000  0.922416  0.029687  1
  O  O9  1  0.250001  0.422416  0.470312  1
  O  O10  1  0.750000  0.577584  0.529688  1
  O  O11  1  0.250001  0.077584  0.970310  1
  F  F12  1  0.013823  0.229701  0.052043  1
  F  F13  1  0.486176  0.229701  0.052043  1
  F  F14  1  0.519830  0.577425  0.158151  1
  F  F15  1  0.980168  0.577425  0.158151  1
  F  F16  1  0.019831  0.077425  0.341848  1
  F  F17  1  0.480168  0.077425  0.341848  1
  F  F18  1  0.513821  0.729700  0.447956  1
  F  F19  1  0.986177  0.729700  0.447956  1
  F  F20  1  0.013823  0.270299  0.552042  1
  F  F21  1  0.486176  0.270299  0.552042  1
  F  F22  1  0.519830  0.922574  0.658150  1
  F  F23  1  0.980168  0.922574  0.658150  1
  F  F24  1  0.019831  0.422574  0.841848  1
  F  F25  1  0.480168  0.422574  0.841848  1
  F  F26  1  0.513821  0.770300  0.947959  1
  F  F27  1  0.986177  0.770300  0.947959  1
