# generated using pymatgen
data_Ce3ErNb2(B2Ru5)2
_symmetry_space_group_name_H-M   'P 1'
_cell_length_a   9.74559200
_cell_length_b   9.74559200
_cell_length_c   3.14127800
_cell_angle_alpha   90.00000000
_cell_angle_beta   90.00000000
_cell_angle_gamma   90.00283375
_symmetry_Int_Tables_number   1
_chemical_formula_structural   Ce3ErNb2(B2Ru5)2
_chemical_formula_sum   'Ce3 Er1 Nb2 B4 Ru10'
_cell_volume   298.34778904
_cell_formula_units_Z   1
loop_
 _symmetry_equiv_pos_site_id
 _symmetry_equiv_pos_as_xyz
  1  'x, y, z'
loop_
 _atom_site_type_symbol
 _atom_site_label
 _atom_site_symmetry_multiplicity
 _atom_site_fract_x
 _atom_site_fract_y
 _atom_site_fract_z
 _atom_site_occupancy
  Ce  Ce0  1  0.174167  0.325833  0.000000  1
  Ce  Ce1  1  0.324442  0.824219  0.000000  1
  Ce  Ce2  1  0.675781  0.175558  0.000000  1
  Er  Er3  1  0.824765  0.675235  0.000000  1
  Nb  Nb4  1  0.504099  0.502300  0.000000  1
  Nb  Nb5  1  0.997700  0.995901  0.000000  1
  B  B6  1  0.624036  0.875964  0.000000  1
  B  B7  1  0.378788  0.121212  0.000000  1
  B  B8  1  0.118649  0.620986  0.000000  1
  B  B9  1  0.879014  0.381351  0.000000  1
  Ru  Ru10  1  0.569786  0.719571  0.500000  1
  Ru  Ru11  1  0.428682  0.281468  0.500000  1
  Ru  Ru12  1  0.071268  0.780198  0.500000  1
  Ru  Ru13  1  0.929068  0.218808  0.500000  1
  Ru  Ru14  1  0.281192  0.570932  0.500000  1
  Ru  Ru15  1  0.719802  0.428732  0.500000  1
  Ru  Ru16  1  0.218532  0.071318  0.500000  1
  Ru  Ru17  1  0.780429  0.930214  0.500000  1
  Ru  Ru18  1  0.499746  0.000254  0.500000  1
  Ru  Ru19  1  0.000053  0.499947  0.500000  1
