# generated using pymatgen
data_LuZr5Zn23As
_symmetry_space_group_name_H-M   'P 1'
_cell_length_a   8.82953368
_cell_length_b   8.82202771
_cell_length_c   8.82202221
_cell_angle_alpha   60.05658367
_cell_angle_beta   59.97193848
_cell_angle_gamma   59.97206136
_symmetry_Int_Tables_number   1
_chemical_formula_structural   LuZr5Zn23As
_chemical_formula_sum   'Lu1 Zr5 Zn23 As1'
_cell_volume   485.91534895
_cell_formula_units_Z   1
loop_
 _symmetry_equiv_pos_site_id
 _symmetry_equiv_pos_as_xyz
  1  'x, y, z'
loop_
 _atom_site_type_symbol
 _atom_site_label
 _atom_site_symmetry_multiplicity
 _atom_site_fract_x
 _atom_site_fract_y
 _atom_site_fract_z
 _atom_site_occupancy
  Lu  Lu0  1  0.715910  0.284089  0.284092  1
  Zr  Zr1  1  0.284880  0.715121  0.715119  1
  Zr  Zr2  1  0.285963  0.714039  0.289770  1
  Zr  Zr3  1  0.710229  0.289771  0.714036  1
  Zr  Zr4  1  0.285963  0.289769  0.714037  1
  Zr  Zr5  1  0.710230  0.714038  0.289771  1
  Zn  Zn6  1  0.127786  0.121003  0.121004  1
  Zn  Zn7  1  0.877123  0.876751  0.876750  1
  Zn  Zn8  1  0.123249  0.122878  0.630623  1
  Zn  Zn9  1  0.123250  0.630624  0.122877  1
  Zn  Zn10  1  0.878999  0.872214  0.369791  1
  Zn  Zn11  1  0.878995  0.369790  0.872217  1
  Zn  Zn12  1  0.630207  0.121005  0.121005  1
  Zn  Zn13  1  0.369375  0.876751  0.876751  1
  Zn  Zn14  1  0.499679  0.000322  0.000321  1
  Zn  Zn15  1  0.999678  0.500322  0.500323  1
  Zn  Zn16  1  0.000326  0.500487  0.999676  1
  Zn  Zn17  1  0.499511  0.999677  0.500488  1
  Zn  Zn18  1  0.000324  0.999676  0.500489  1
  Zn  Zn19  1  0.499512  0.500488  0.999675  1
  Zn  Zn20  1  0.332533  0.334533  0.334530  1
  Zn  Zn21  1  0.663969  0.665393  0.665390  1
  Zn  Zn22  1  0.334609  0.336032  0.994748  1
  Zn  Zn23  1  0.334610  0.994748  0.336032  1
  Zn  Zn24  1  0.665469  0.667464  0.001597  1
  Zn  Zn25  1  0.665469  0.001594  0.667467  1
  Zn  Zn26  1  0.998403  0.334532  0.334531  1
  Zn  Zn27  1  0.005250  0.665390  0.665392  1
  Zn  Zn28  1  0.000362  0.999638  0.999637  1
  As  As29  1  0.498139  0.501859  0.501861  1
