# generated using pymatgen
data_CeDy15(CoHg)4
_symmetry_space_group_name_H-M   'P 1'
_cell_length_a   9.46246965
_cell_length_b   9.51519488
_cell_length_c   9.46246900
_cell_angle_alpha   60.18313026
_cell_angle_beta   59.99999878
_cell_angle_gamma   60.18313467
_symmetry_Int_Tables_number   1
_chemical_formula_structural   CeDy15(CoHg)4
_chemical_formula_sum   'Ce1 Dy15 Co4 Hg4'
_cell_volume   604.09921640
_cell_formula_units_Z   1
loop_
 _symmetry_equiv_pos_site_id
 _symmetry_equiv_pos_as_xyz
  1  'x, y, z'
loop_
 _atom_site_type_symbol
 _atom_site_label
 _atom_site_symmetry_multiplicity
 _atom_site_fract_x
 _atom_site_fract_y
 _atom_site_fract_z
 _atom_site_occupancy
  Ce  Ce0  1  0.159505  0.521486  0.159505  1
  Dy  Dy1  1  0.687682  0.313776  0.687682  1
  Dy  Dy2  1  0.687682  0.313776  0.310860  1
  Dy  Dy3  1  0.937914  0.562412  0.561761  1
  Dy  Dy4  1  0.544845  0.150174  0.152490  1
  Dy  Dy5  1  0.152490  0.150174  0.544845  1
  Dy  Dy6  1  0.936923  0.937201  0.562939  1
  Dy  Dy7  1  0.311385  0.690055  0.311385  1
  Dy  Dy8  1  0.562939  0.937201  0.936923  1
  Dy  Dy9  1  0.562939  0.937201  0.562939  1
  Dy  Dy10  1  0.687175  0.690055  0.311385  1
  Dy  Dy11  1  0.561761  0.562412  0.937914  1
  Dy  Dy12  1  0.937914  0.562412  0.937914  1
  Dy  Dy13  1  0.311385  0.690055  0.687175  1
  Dy  Dy14  1  0.152490  0.150174  0.152490  1
  Dy  Dy15  1  0.310860  0.313776  0.687682  1
  Co  Co16  1  0.352612  0.366566  0.928211  1
  Co  Co17  1  0.358649  0.924053  0.358649  1
  Co  Co18  1  0.928211  0.366566  0.352612  1
  Co  Co19  1  0.352612  0.366566  0.352612  1
  Hg  Hg20  1  0.916740  0.249780  0.916740  1
  Hg  Hg21  1  0.916787  0.914710  0.916787  1
  Hg  Hg22  1  0.916787  0.914710  0.251717  1
  Hg  Hg23  1  0.251717  0.914710  0.916787  1
