# generated using pymatgen
data_ErHf3N4
_symmetry_space_group_name_H-M   'P 1'
_cell_length_a   10.81884259
_cell_length_b   10.81884271
_cell_length_c   10.81884208
_cell_angle_alpha   17.30460055
_cell_angle_beta   17.30460003
_cell_angle_gamma   17.30460988
_symmetry_Int_Tables_number   1
_chemical_formula_structural   ErHf3N4
_chemical_formula_sum   'Er1 Hf3 N4'
_cell_volume   97.76735759
_cell_formula_units_Z   1
loop_
 _symmetry_equiv_pos_site_id
 _symmetry_equiv_pos_as_xyz
  1  'x, y, z'
loop_
 _atom_site_type_symbol
 _atom_site_label
 _atom_site_symmetry_multiplicity
 _atom_site_fract_x
 _atom_site_fract_y
 _atom_site_fract_z
 _atom_site_occupancy
  Er  Er0  1  0.000000  0.000000  0.000000  1
  Hf  Hf1  1  0.247604  0.247604  0.247604  1
  Hf  Hf2  1  0.500000  0.500000  0.500000  1
  Hf  Hf3  1  0.752396  0.752396  0.752396  1
  N  N4  1  0.379427  0.379427  0.379427  1
  N  N5  1  0.125862  0.125862  0.125862  1
  N  N6  1  0.620573  0.620573  0.620573  1
  N  N7  1  0.874138  0.874138  0.874138  1
