# generated using pymatgen
data_Ho10Co4AgOs
_symmetry_space_group_name_H-M   'P 1'
_cell_length_a   8.68584635
_cell_length_b   8.68584656
_cell_length_c   8.68584509
_cell_angle_alpha   131.07106201
_cell_angle_beta   131.07106095
_cell_angle_gamma   71.70020448
_symmetry_Int_Tables_number   1
_chemical_formula_structural   Ho10Co4AgOs
_chemical_formula_sum   'Ho10 Co4 Ag1 Os1'
_cell_volume   364.37473759
_cell_formula_units_Z   1
loop_
 _symmetry_equiv_pos_site_id
 _symmetry_equiv_pos_as_xyz
  1  'x, y, z'
loop_
 _atom_site_type_symbol
 _atom_site_label
 _atom_site_symmetry_multiplicity
 _atom_site_fract_x
 _atom_site_fract_y
 _atom_site_fract_z
 _atom_site_occupancy
  Ho  Ho0  1  0.699425  0.550349  0.528332  1
  Ho  Ho1  1  0.477984  0.949651  0.149076  1
  Ho  Ho2  1  0.800575  0.328907  0.850924  1
  Ho  Ho3  1  0.550349  0.022016  0.850924  1
  Ho  Ho4  1  0.011491  0.011491  0.000000  1
  Ho  Ho5  1  0.022016  0.171093  0.471668  1
  Ho  Ho6  1  0.328907  0.477984  0.528332  1
  Ho  Ho7  1  0.171093  0.699425  0.149076  1
  Ho  Ho8  1  0.949651  0.800575  0.471668  1
  Ho  Ho9  1  0.488509  0.488509  0.000000  1
  Co  Co10  1  0.112455  0.612455  0.724908  1
  Co  Co11  1  0.887545  0.387545  0.275092  1
  Co  Co12  1  0.612455  0.887545  0.500000  1
  Co  Co13  1  0.387545  0.112455  0.500000  1
  Ag  Ag14  1  0.250000  0.250000  0.000000  1
  Os  Os15  1  0.750000  0.750000  0.000000  1
