# generated using pymatgen
data_Th8Sc12Tl5Sb11
_symmetry_space_group_name_H-M   'P 1'
_cell_length_a   7.95117600
_cell_length_b   7.85488181
_cell_length_c   14.93131700
_cell_angle_alpha   90.00000000
_cell_angle_beta   90.00000000
_cell_angle_gamma   90.13501012
_symmetry_Int_Tables_number   1
_chemical_formula_structural   Th8Sc12Tl5Sb11
_chemical_formula_sum   'Th8 Sc12 Tl5 Sb11'
_cell_volume   932.54099226
_cell_formula_units_Z   1
loop_
 _symmetry_equiv_pos_site_id
 _symmetry_equiv_pos_as_xyz
  1  'x, y, z'
loop_
 _atom_site_type_symbol
 _atom_site_label
 _atom_site_symmetry_multiplicity
 _atom_site_fract_x
 _atom_site_fract_y
 _atom_site_fract_z
 _atom_site_occupancy
  Th  Th0  1  0.515720  0.324042  0.908070  1
  Th  Th1  1  0.015177  0.175086  0.591760  1
  Th  Th2  1  0.484904  0.676490  0.407606  1
  Th  Th3  1  0.985899  0.822345  0.089137  1
  Th  Th4  1  0.484904  0.676490  0.092394  1
  Th  Th5  1  0.985899  0.822345  0.410863  1
  Th  Th6  1  0.515720  0.324042  0.591930  1
  Th  Th7  1  0.015177  0.175086  0.908240  1
  Sc  Sc8  1  0.348190  0.845770  0.875693  1
  Sc  Sc9  1  0.849609  0.653967  0.624640  1
  Sc  Sc10  1  0.648141  0.155069  0.376615  1
  Sc  Sc11  1  0.149612  0.344690  0.124383  1
  Sc  Sc12  1  0.648141  0.155069  0.123385  1
  Sc  Sc13  1  0.149612  0.344690  0.375617  1
  Sc  Sc14  1  0.348190  0.845770  0.624307  1
  Sc  Sc15  1  0.849609  0.653967  0.875360  1
  Sc  Sc16  1  0.181771  0.501704  0.750000  1
  Sc  Sc17  1  0.681943  0.998067  0.750000  1
  Sc  Sc18  1  0.816124  0.501493  0.250000  1
  Sc  Sc19  1  0.318073  0.999149  0.250000  1
  Tl  Tl20  1  0.955480  0.131376  0.250000  1
  Tl  Tl21  1  0.323726  0.149537  0.750000  1
  Tl  Tl22  1  0.823355  0.350456  0.750000  1
  Tl  Tl23  1  0.684222  0.857004  0.250000  1
  Tl  Tl24  1  0.174328  0.649539  0.250000  1
  Sb  Sb25  1  0.308779  0.048589  0.045769  1
  Sb  Sb26  1  0.807353  0.452530  0.453803  1
  Sb  Sb27  1  0.691883  0.950896  0.546843  1
  Sb  Sb28  1  0.193121  0.546859  0.953622  1
  Sb  Sb29  1  0.691883  0.950896  0.953157  1
  Sb  Sb30  1  0.193121  0.546859  0.546378  1
  Sb  Sb31  1  0.308779  0.048589  0.454231  1
  Sb  Sb32  1  0.807353  0.452530  0.046197  1
  Sb  Sb33  1  0.544339  0.632541  0.750000  1
  Sb  Sb34  1  0.045135  0.868052  0.750000  1
  Sb  Sb35  1  0.454726  0.368414  0.250000  1
