# generated using pymatgen
data_Y10In8CoPd3
_symmetry_space_group_name_H-M   'P 1'
_cell_length_a   3.62884600
_cell_length_b   8.16753712
_cell_length_c   18.31048737
_cell_angle_alpha   90.11549519
_cell_angle_beta   90.00000000
_cell_angle_gamma   90.00000000
_symmetry_Int_Tables_number   1
_chemical_formula_structural   Y10In8CoPd3
_chemical_formula_sum   'Y10 In8 Co1 Pd3'
_cell_volume   542.69856928
_cell_formula_units_Z   1
loop_
 _symmetry_equiv_pos_site_id
 _symmetry_equiv_pos_as_xyz
  1  'x, y, z'
loop_
 _atom_site_type_symbol
 _atom_site_label
 _atom_site_symmetry_multiplicity
 _atom_site_fract_x
 _atom_site_fract_y
 _atom_site_fract_z
 _atom_site_occupancy
  Y  Y0  1  0.500000  0.226207  0.776327  1
  Y  Y1  1  0.500000  0.760387  0.218649  1
  Y  Y2  1  0.500000  0.259150  0.281140  1
  Y  Y3  1  0.500000  0.760578  0.718867  1
  Y  Y4  1  0.500000  0.113642  0.590276  1
  Y  Y5  1  0.500000  0.881683  0.418373  1
  Y  Y6  1  0.500000  0.381029  0.082057  1
  Y  Y7  1  0.500000  0.618984  0.914778  1
  Y  Y8  1  0.500000  0.999767  0.998864  1
  Y  Y9  1  0.500000  0.500033  0.501755  1
  In  In10  1  0.000000  0.078724  0.150014  1
  In  In11  1  0.000000  0.925052  0.847456  1
  In  In12  1  0.000000  0.423209  0.651100  1
  In  In13  1  0.000000  0.579434  0.350458  1
  In  In14  1  0.000000  0.207521  0.434081  1
  In  In15  1  0.000000  0.795011  0.570647  1
  In  In16  1  0.000000  0.291846  0.929951  1
  In  In17  1  0.000000  0.707299  0.067059  1
  Co  Co18  1  0.000000  0.018386  0.694955  1
  Pd  Pd19  1  0.000000  0.975295  0.304492  1
  Pd  Pd20  1  0.000000  0.475519  0.195958  1
  Pd  Pd21  1  0.000000  0.521244  0.802744  1
