# generated using pymatgen
data_ScTi3(SbRh5)2
_symmetry_space_group_name_H-M   'P 1'
_cell_length_a   4.09102700
_cell_length_b   5.54295013
_cell_length_c   10.85893500
_cell_angle_alpha   89.92203029
_cell_angle_beta   90.00000000
_cell_angle_gamma   90.00000000
_symmetry_Int_Tables_number   1
_chemical_formula_structural   ScTi3(SbRh5)2
_chemical_formula_sum   'Sc1 Ti3 Sb2 Rh10'
_cell_volume   246.24087663
_cell_formula_units_Z   1
loop_
 _symmetry_equiv_pos_site_id
 _symmetry_equiv_pos_as_xyz
  1  'x, y, z'
loop_
 _atom_site_type_symbol
 _atom_site_label
 _atom_site_symmetry_multiplicity
 _atom_site_fract_x
 _atom_site_fract_y
 _atom_site_fract_z
 _atom_site_occupancy
  Sc  Sc0  1  0.500000  0.322228  0.142381  1
  Ti  Ti1  1  0.500000  0.670928  0.854874  1
  Ti  Ti2  1  0.500000  0.825160  0.352961  1
  Ti  Ti3  1  0.500000  0.169651  0.642960  1
  Sb  Sb4  1  0.000000  0.004719  0.999536  1
  Sb  Sb5  1  0.000000  0.501597  0.500249  1
  Rh  Rh6  1  0.000000  0.998663  0.502753  1
  Rh  Rh7  1  0.000000  0.511968  0.993291  1
  Rh  Rh8  1  0.000000  0.055833  0.252076  1
  Rh  Rh9  1  0.000000  0.934093  0.754469  1
  Rh  Rh10  1  0.000000  0.566370  0.257001  1
  Rh  Rh11  1  0.000000  0.433905  0.743551  1
  Rh  Rh12  1  0.500000  0.288300  0.392367  1
  Rh  Rh13  1  0.500000  0.708010  0.616342  1
  Rh  Rh14  1  0.500000  0.801581  0.115713  1
  Rh  Rh15  1  0.500000  0.206994  0.879476  1
