# generated using pymatgen
data_La10Sb9Cl
_symmetry_space_group_name_H-M   'P 1'
_cell_length_a   7.97836843
_cell_length_b   9.24518551
_cell_length_c   10.28284200
_cell_angle_alpha   102.81074093
_cell_angle_beta   97.53186434
_cell_angle_gamma   106.85355271
_symmetry_Int_Tables_number   1
_chemical_formula_structural   La10Sb9Cl
_chemical_formula_sum   'La10 Sb9 Cl1'
_cell_volume   692.14735332
_cell_formula_units_Z   1
loop_
 _symmetry_equiv_pos_site_id
 _symmetry_equiv_pos_as_xyz
  1  'x, y, z'
loop_
 _atom_site_type_symbol
 _atom_site_label
 _atom_site_symmetry_multiplicity
 _atom_site_fract_x
 _atom_site_fract_y
 _atom_site_fract_z
 _atom_site_occupancy
  La  La0  1  0.901211  0.549501  0.800226  1
  La  La1  1  0.694365  0.152606  0.398425  1
  La  La2  1  0.500287  0.749287  0.000918  1
  La  La3  1  0.694897  0.643105  0.397563  1
  La  La4  1  0.305103  0.356895  0.602437  1
  La  La5  1  0.101308  0.947811  0.193860  1
  La  La6  1  0.499713  0.250713  0.999082  1
  La  La7  1  0.305635  0.847394  0.601575  1
  La  La8  1  0.098789  0.450499  0.199774  1
  La  La9  1  0.898692  0.052189  0.806140  1
  Sb  Sb10  1  0.800723  0.602324  0.102703  1
  Sb  Sb11  1  0.598561  0.198018  0.698514  1
  Sb  Sb12  1  0.401439  0.801982  0.301486  1
  Sb  Sb13  1  0.801298  0.099396  0.101973  1
  Sb  Sb14  1  0.199277  0.397676  0.897297  1
  Sb  Sb15  1  0.601844  0.701754  0.698873  1
  Sb  Sb16  1  0.398156  0.298246  0.301127  1
  Sb  Sb17  1  0.198702  0.900604  0.898027  1
  Sb  Sb18  1  0.000000  0.500000  0.500000  1
  Cl  Cl19  1  0.000000  0.000000  0.500000  1
