# generated using pymatgen
data_Ta3ReSi3RuW
_symmetry_space_group_name_H-M   'P 1'
_cell_length_a   7.54802529
_cell_length_b   7.56530836
_cell_length_c   7.56530950
_cell_angle_alpha   127.03034302
_cell_angle_beta   124.76289886
_cell_angle_gamma   80.12443597
_symmetry_Int_Tables_number   1
_chemical_formula_structural   Ta3ReSi3RuW
_chemical_formula_sum   'Ta6 Re2 Si6 Ru2 W2'
_cell_volume   273.41867931
_cell_formula_units_Z   2
loop_
 _symmetry_equiv_pos_site_id
 _symmetry_equiv_pos_as_xyz
  1  'x, y, z'
loop_
 _atom_site_type_symbol
 _atom_site_label
 _atom_site_symmetry_multiplicity
 _atom_site_fract_x
 _atom_site_fract_y
 _atom_site_fract_z
 _atom_site_occupancy
  Ta  Ta0  1  0.940038  0.905544  0.462532  1
  Ta  Ta1  1  0.059962  0.522495  0.965507  1
  Ta  Ta2  1  0.535750  0.509685  0.467385  1
  Ta  Ta3  1  0.464250  0.931633  0.973934  1
  Ta  Ta4  1  0.750935  0.083734  0.840733  1
  Ta  Ta5  1  0.249065  0.089800  0.332799  1
  Re  Re6  1  0.903146  0.247583  0.407768  1
  Re  Re7  1  0.096854  0.504622  0.344436  1
  Si  Si8  1  0.717765  0.451920  0.226784  1
  Si  Si9  1  0.282235  0.509019  0.734156  1
  Si  Si10  1  0.673707  0.181946  0.518945  1
  Si  Si11  1  0.326293  0.845238  0.508238  1
  Si  Si12  1  0.166055  0.178085  0.003133  1
  Si  Si13  1  0.833945  0.837078  0.012029  1
  Ru  Ru14  1  0.334505  0.251051  0.838662  1
  Ru  Ru15  1  0.665495  0.504158  0.916546  1
  W  W16  1  0.500000  0.752469  0.252469  1
  W  W17  1  0.000000  0.751741  0.751741  1
