# generated using pymatgen
data_HoSnHIr
_symmetry_space_group_name_H-M   'P 1'
_cell_length_a   4.43181500
_cell_length_b   7.23633800
_cell_length_c   8.30920200
_cell_angle_alpha   90.00000000
_cell_angle_beta   90.00000000
_cell_angle_gamma   90.00000000
_symmetry_Int_Tables_number   1
_chemical_formula_structural   HoSnHIr
_chemical_formula_sum   'Ho4 Sn4 H4 Ir4'
_cell_volume   266.47703290
_cell_formula_units_Z   4
loop_
 _symmetry_equiv_pos_site_id
 _symmetry_equiv_pos_as_xyz
  1  'x, y, z'
loop_
 _atom_site_type_symbol
 _atom_site_label
 _atom_site_symmetry_multiplicity
 _atom_site_fract_x
 _atom_site_fract_y
 _atom_site_fract_z
 _atom_site_occupancy
  Ho  Ho0  1  0.750000  0.016258  0.691028  1
  Ho  Ho1  1  0.250000  0.983742  0.308972  1
  Ho  Ho2  1  0.250000  0.483742  0.191028  1
  Ho  Ho3  1  0.750000  0.516258  0.808972  1
  Sn  Sn4  1  0.750000  0.656186  0.420156  1
  Sn  Sn5  1  0.250000  0.343814  0.579844  1
  Sn  Sn6  1  0.250000  0.843814  0.920156  1
  Sn  Sn7  1  0.750000  0.156186  0.079844  1
  H  H8  1  0.250000  0.459290  0.920094  1
  H  H9  1  0.750000  0.540710  0.079906  1
  H  H10  1  0.750000  0.040710  0.420094  1
  H  H11  1  0.250000  0.959290  0.579906  1
  Ir  Ir12  1  0.750000  0.773440  0.100219  1
  Ir  Ir13  1  0.250000  0.226560  0.899781  1
  Ir  Ir14  1  0.250000  0.726560  0.600219  1
  Ir  Ir15  1  0.750000  0.273440  0.399781  1
