# generated using pymatgen
data_Mn3Mo3N
_symmetry_space_group_name_H-M   'P 1'
_cell_length_a   7.82380544
_cell_length_b   7.82380611
_cell_length_c   7.82374400
_cell_angle_alpha   60.00026262
_cell_angle_beta   60.00025977
_cell_angle_gamma   60.00021872
_symmetry_Int_Tables_number   1
_chemical_formula_structural   Mn3Mo3N
_chemical_formula_sum   'Mn12 Mo12 N4'
_cell_volume   338.63994700
_cell_formula_units_Z   4
loop_
 _symmetry_equiv_pos_site_id
 _symmetry_equiv_pos_as_xyz
  1  'x, y, z'
loop_
 _atom_site_type_symbol
 _atom_site_label
 _atom_site_symmetry_multiplicity
 _atom_site_fract_x
 _atom_site_fract_y
 _atom_site_fract_z
 _atom_site_occupancy
  Mn  Mn0  1  0.125000  0.125000  0.625000  1
  Mn  Mn1  1  0.236012  0.921336  0.921326  1
  Mn  Mn2  1  0.921336  0.236012  0.921326  1
  Mn  Mn3  1  0.328671  0.328671  0.328674  1
  Mn  Mn4  1  0.328664  0.013988  0.328674  1
  Mn  Mn5  1  0.328671  0.328671  0.013984  1
  Mn  Mn6  1  0.013988  0.328664  0.328674  1
  Mn  Mn7  1  0.921329  0.921329  0.921326  1
  Mn  Mn8  1  0.125000  0.625000  0.125000  1
  Mn  Mn9  1  0.625000  0.125000  0.125000  1
  Mn  Mn10  1  0.125000  0.125000  0.125000  1
  Mn  Mn11  1  0.921329  0.921329  0.236016  1
  Mo  Mo12  1  0.550963  0.550963  0.949037  1
  Mo  Mo13  1  0.949048  0.949048  0.550952  1
  Mo  Mo14  1  0.699037  0.699037  0.300963  1
  Mo  Mo15  1  0.300962  0.699043  0.699047  1
  Mo  Mo16  1  0.699043  0.300962  0.300948  1
  Mo  Mo17  1  0.300952  0.300952  0.699048  1
  Mo  Mo18  1  0.550957  0.949038  0.550953  1
  Mo  Mo19  1  0.300962  0.699043  0.300948  1
  Mo  Mo20  1  0.949038  0.550957  0.949052  1
  Mo  Mo21  1  0.949038  0.550957  0.550953  1
  Mo  Mo22  1  0.699043  0.300962  0.699047  1
  Mo  Mo23  1  0.550957  0.949038  0.949052  1
  N  N24  1  0.625000  0.625000  0.125000  1
  N  N25  1  0.125000  0.625000  0.625000  1
  N  N26  1  0.625000  0.125000  0.625000  1
  N  N27  1  0.625000  0.625000  0.625000  1
