# generated using pymatgen
data_Li3TbPrZn14
_symmetry_space_group_name_H-M   'P 1'
_cell_length_a   8.97916600
_cell_length_b   8.97916525
_cell_length_c   8.78317200
_cell_angle_alpha   90.00000000
_cell_angle_beta   90.00000000
_cell_angle_gamma   120.00000275
_symmetry_Int_Tables_number   1
_chemical_formula_structural   Li3TbPrZn14
_chemical_formula_sum   'Li6 Tb2 Pr2 Zn28'
_cell_volume   613.27317998
_cell_formula_units_Z   2
loop_
 _symmetry_equiv_pos_site_id
 _symmetry_equiv_pos_as_xyz
  1  'x, y, z'
loop_
 _atom_site_type_symbol
 _atom_site_label
 _atom_site_symmetry_multiplicity
 _atom_site_fract_x
 _atom_site_fract_y
 _atom_site_fract_z
 _atom_site_occupancy
  Li  Li0  1  0.500000  0.500000  0.500000  1
  Li  Li1  1  0.500000  0.000000  0.500000  1
  Li  Li2  1  0.000000  0.500000  0.500000  1
  Li  Li3  1  0.500000  0.500000  0.000000  1
  Li  Li4  1  0.500000  0.000000  0.000000  1
  Li  Li5  1  0.000000  0.500000  0.000000  1
  Tb  Tb6  1  0.333333  0.666667  0.750000  1
  Tb  Tb7  1  0.666667  0.333333  0.250000  1
  Pr  Pr8  1  0.000000  0.000000  0.250000  1
  Pr  Pr9  1  0.000000  0.000000  0.750000  1
  Zn  Zn10  1  0.333333  0.666667  0.402771  1
  Zn  Zn11  1  0.666667  0.333333  0.597229  1
  Zn  Zn12  1  0.666667  0.333333  0.902771  1
  Zn  Zn13  1  0.333333  0.666667  0.097229  1
  Zn  Zn14  1  0.335175  0.372883  0.250000  1
  Zn  Zn15  1  0.627117  0.962292  0.250000  1
  Zn  Zn16  1  0.037708  0.664825  0.250000  1
  Zn  Zn17  1  0.627117  0.664825  0.250000  1
  Zn  Zn18  1  0.037708  0.372883  0.250000  1
  Zn  Zn19  1  0.335175  0.962292  0.250000  1
  Zn  Zn20  1  0.664825  0.627117  0.750000  1
  Zn  Zn21  1  0.372883  0.037708  0.750000  1
  Zn  Zn22  1  0.962292  0.335175  0.750000  1
  Zn  Zn23  1  0.372883  0.335175  0.750000  1
  Zn  Zn24  1  0.962292  0.627117  0.750000  1
  Zn  Zn25  1  0.664825  0.037708  0.750000  1
  Zn  Zn26  1  0.165380  0.834620  0.516593  1
  Zn  Zn27  1  0.165380  0.330760  0.516593  1
  Zn  Zn28  1  0.669240  0.834620  0.516593  1
  Zn  Zn29  1  0.834620  0.165380  0.483407  1
  Zn  Zn30  1  0.834620  0.669240  0.483407  1
  Zn  Zn31  1  0.330760  0.165380  0.483407  1
  Zn  Zn32  1  0.834620  0.165380  0.016593  1
  Zn  Zn33  1  0.834620  0.669240  0.016593  1
  Zn  Zn34  1  0.330760  0.165380  0.016593  1
  Zn  Zn35  1  0.165380  0.834620  0.983407  1
  Zn  Zn36  1  0.165380  0.330760  0.983407  1
  Zn  Zn37  1  0.669240  0.834620  0.983407  1
