# generated using pymatgen
data_Cs(AlGe)2
_symmetry_space_group_name_H-M   'P 1'
_cell_length_a   8.95762062
_cell_length_b   8.95762033
_cell_length_c   8.95762177
_cell_angle_alpha   153.85459788
_cell_angle_beta   153.85459054
_cell_angle_gamma   37.31098350
_symmetry_Int_Tables_number   1
_chemical_formula_structural   Cs(AlGe)2
_chemical_formula_sum   'Cs1 Al2 Ge2'
_cell_volume   139.35890960
_cell_formula_units_Z   1
loop_
 _symmetry_equiv_pos_site_id
 _symmetry_equiv_pos_as_xyz
  1  'x, y, z'
loop_
 _atom_site_type_symbol
 _atom_site_label
 _atom_site_symmetry_multiplicity
 _atom_site_fract_x
 _atom_site_fract_y
 _atom_site_fract_z
 _atom_site_occupancy
  Cs  Cs0  1  0.000000  0.000000  0.000000  1
  Al  Al1  1  0.750000  0.250000  0.500000  1
  Al  Al2  1  0.250000  0.750000  0.500000  1
  Ge  Ge3  1  0.651649  0.651649  0.000000  1
  Ge  Ge4  1  0.348351  0.348351  0.000000  1
