# generated using pymatgen
data_Ho16MgCd2InPd4
_symmetry_space_group_name_H-M   'P 1'
_cell_length_a   9.65671200
_cell_length_b   9.65671104
_cell_length_c   9.67494255
_cell_angle_alpha   60.01748344
_cell_angle_beta   60.01748506
_cell_angle_gamma   60.14137459
_symmetry_Int_Tables_number   1
_chemical_formula_structural   Ho16MgCd2InPd4
_chemical_formula_sum   'Ho16 Mg1 Cd2 In1 Pd4'
_cell_volume   638.80565261
_cell_formula_units_Z   1
loop_
 _symmetry_equiv_pos_site_id
 _symmetry_equiv_pos_as_xyz
  1  'x, y, z'
loop_
 _atom_site_type_symbol
 _atom_site_label
 _atom_site_symmetry_multiplicity
 _atom_site_fract_x
 _atom_site_fract_y
 _atom_site_fract_z
 _atom_site_occupancy
  Ho  Ho0  1  0.351287  0.351287  0.352047  1
  Ho  Ho1  1  0.353830  0.353830  0.939650  1
  Ho  Ho2  1  0.355295  0.938346  0.354522  1
  Ho  Ho3  1  0.938346  0.355295  0.354522  1
  Ho  Ho4  1  0.808998  0.191723  0.191313  1
  Ho  Ho5  1  0.188505  0.812368  0.811810  1
  Ho  Ho6  1  0.191723  0.808998  0.191313  1
  Ho  Ho7  1  0.812368  0.188505  0.811810  1
  Ho  Ho8  1  0.190451  0.190451  0.810661  1
  Ho  Ho9  1  0.810764  0.810764  0.189274  1
  Ho  Ho10  1  0.935724  0.567176  0.565985  1
  Ho  Ho11  1  0.563292  0.937838  0.933379  1
  Ho  Ho12  1  0.567176  0.935724  0.565985  1
  Ho  Ho13  1  0.937838  0.563292  0.933379  1
  Ho  Ho14  1  0.566589  0.566589  0.934382  1
  Ho  Ho15  1  0.936653  0.936653  0.562122  1
  Mg  Mg16  1  0.576965  0.576965  0.578344  1
  Cd  Cd17  1  0.581176  0.252624  0.583193  1
  Cd  Cd18  1  0.252624  0.581176  0.583193  1
  In  In19  1  0.581707  0.581707  0.253347  1
  Pd  Pd20  1  0.144910  0.144910  0.145172  1
  Pd  Pd21  1  0.143103  0.143103  0.567273  1
  Pd  Pd22  1  0.142919  0.567754  0.143661  1
  Pd  Pd23  1  0.567754  0.142919  0.143661  1
