# generated using pymatgen
data_Er3GaSn3Ru2
_symmetry_space_group_name_H-M   'P 1'
_cell_length_a   7.62864200
_cell_length_b   7.62864307
_cell_length_c   3.83513500
_cell_angle_alpha   90.00000000
_cell_angle_beta   90.00000000
_cell_angle_gamma   119.99999537
_symmetry_Int_Tables_number   1
_chemical_formula_structural   Er3GaSn3Ru2
_chemical_formula_sum   'Er3 Ga1 Sn3 Ru2'
_cell_volume   193.28842088
_cell_formula_units_Z   1
loop_
 _symmetry_equiv_pos_site_id
 _symmetry_equiv_pos_as_xyz
  1  'x, y, z'
loop_
 _atom_site_type_symbol
 _atom_site_label
 _atom_site_symmetry_multiplicity
 _atom_site_fract_x
 _atom_site_fract_y
 _atom_site_fract_z
 _atom_site_occupancy
  Er  Er0  1  0.408389  0.389184  0.500000  1
  Er  Er1  1  0.610816  0.019205  0.500000  1
  Er  Er2  1  0.980795  0.591611  0.500000  1
  Ga  Ga3  1  0.333333  0.666667  0.000000  1
  Sn  Sn4  1  0.740657  0.736852  0.000000  1
  Sn  Sn5  1  0.263148  0.003806  0.000000  1
  Sn  Sn6  1  0.996194  0.259343  0.000000  1
  Ru  Ru7  1  0.666667  0.333333  0.000000  1
  Ru  Ru8  1  0.000000  0.000000  0.500000  1
