# generated using pymatgen
data_La4In2Pt3Au
_symmetry_space_group_name_H-M   'P 1'
_cell_length_a   8.07329572
_cell_length_b   8.07329572
_cell_length_c   3.92748400
_cell_angle_alpha   90.00000000
_cell_angle_beta   90.00000000
_cell_angle_gamma   89.60600492
_symmetry_Int_Tables_number   1
_chemical_formula_structural   La4In2Pt3Au
_chemical_formula_sum   'La4 In2 Pt3 Au1'
_cell_volume   255.97990743
_cell_formula_units_Z   1
loop_
 _symmetry_equiv_pos_site_id
 _symmetry_equiv_pos_as_xyz
  1  'x, y, z'
loop_
 _atom_site_type_symbol
 _atom_site_label
 _atom_site_symmetry_multiplicity
 _atom_site_fract_x
 _atom_site_fract_y
 _atom_site_fract_z
 _atom_site_occupancy
  La  La0  1  0.315942  0.170193  0.500001  1
  La  La1  1  0.837200  0.337200  0.500001  1
  La  La2  1  0.174652  0.674652  0.500001  1
  La  La3  1  0.670193  0.815942  0.500001  1
  In  In4  1  0.001401  0.998324  0.000000  1
  In  In5  1  0.498324  0.501401  0.000000  1
  Pt  Pt6  1  0.130128  0.372131  0.000000  1
  Pt  Pt7  1  0.872130  0.630129  0.000000  1
  Pt  Pt8  1  0.371830  0.871829  0.000000  1
  Au  Au9  1  0.628201  0.128200  0.000000  1
