# generated using pymatgen
data_YHo2Co8P6W
_symmetry_space_group_name_H-M   'P 1'
_cell_length_a   3.71699000
_cell_length_b   10.55170200
_cell_length_c   12.23785600
_cell_angle_alpha   90.00000000
_cell_angle_beta   90.00000000
_cell_angle_gamma   90.00000000
_symmetry_Int_Tables_number   1
_chemical_formula_structural   YHo2Co8P6W
_chemical_formula_sum   'Y2 Ho4 Co16 P12 W2'
_cell_volume   479.97569790
_cell_formula_units_Z   2
loop_
 _symmetry_equiv_pos_site_id
 _symmetry_equiv_pos_as_xyz
  1  'x, y, z'
loop_
 _atom_site_type_symbol
 _atom_site_label
 _atom_site_symmetry_multiplicity
 _atom_site_fract_x
 _atom_site_fract_y
 _atom_site_fract_z
 _atom_site_occupancy
  Y  Y0  1  0.000000  0.500000  0.524213  1
  Y  Y1  1  0.500000  0.000000  0.475787  1
  Ho  Ho2  1  0.500000  0.819465  0.204819  1
  Ho  Ho3  1  0.500000  0.180535  0.204819  1
  Ho  Ho4  1  0.000000  0.680535  0.795181  1
  Ho  Ho5  1  0.000000  0.319465  0.795181  1
  Co  Co6  1  0.500000  0.500000  0.701926  1
  Co  Co7  1  0.000000  0.000000  0.298074  1
  Co  Co8  1  0.000000  0.500000  0.986994  1
  Co  Co9  1  0.500000  0.000000  0.013006  1
  Co  Co10  1  0.500000  0.332606  0.990320  1
  Co  Co11  1  0.500000  0.667394  0.990320  1
  Co  Co12  1  0.000000  0.167394  0.009680  1
  Co  Co13  1  0.000000  0.832606  0.009680  1
  Co  Co14  1  0.500000  0.295688  0.431251  1
  Co  Co15  1  0.500000  0.704312  0.431251  1
  Co  Co16  1  0.000000  0.204312  0.568749  1
  Co  Co17  1  0.000000  0.795688  0.568749  1
  Co  Co18  1  0.500000  0.878018  0.707791  1
  Co  Co19  1  0.500000  0.121982  0.707791  1
  Co  Co20  1  0.000000  0.621982  0.292209  1
  Co  Co21  1  0.000000  0.378018  0.292209  1
  P  P22  1  0.500000  0.500000  0.880544  1
  P  P23  1  0.000000  0.000000  0.119456  1
  P  P24  1  0.500000  0.500000  0.349676  1
  P  P25  1  0.000000  0.000000  0.650324  1
  P  P26  1  0.500000  0.311015  0.616288  1
  P  P27  1  0.500000  0.688985  0.616288  1
  P  P28  1  0.000000  0.188985  0.383712  1
  P  P29  1  0.000000  0.811015  0.383712  1
  P  P30  1  0.500000  0.843942  0.892731  1
  P  P31  1  0.500000  0.156058  0.892731  1
  P  P32  1  0.000000  0.656058  0.107269  1
  P  P33  1  0.000000  0.343942  0.107269  1
  W  W34  1  0.500000  0.500000  0.156216  1
  W  W35  1  0.000000  0.000000  0.843784  1
