# generated using pymatgen
data_La3Pr5(CdCo)2
_symmetry_space_group_name_H-M   'P 1'
_cell_length_a   9.93332179
_cell_length_b   9.92914932
_cell_length_c   9.92914977
_cell_angle_alpha   60.11429227
_cell_angle_beta   59.62237371
_cell_angle_gamma   59.62237933
_symmetry_Int_Tables_number   1
_chemical_formula_structural   La3Pr5(CdCo)2
_chemical_formula_sum   'La6 Pr10 Cd4 Co4'
_cell_volume   689.08118878
_cell_formula_units_Z   2
loop_
 _symmetry_equiv_pos_site_id
 _symmetry_equiv_pos_as_xyz
  1  'x, y, z'
loop_
 _atom_site_type_symbol
 _atom_site_label
 _atom_site_symmetry_multiplicity
 _atom_site_fract_x
 _atom_site_fract_y
 _atom_site_fract_z
 _atom_site_occupancy
  La  La0  1  0.813965  0.187644  0.809305  1
  La  La1  1  0.813965  0.809305  0.187644  1
  La  La2  1  0.344640  0.343756  0.343756  1
  La  La3  1  0.343714  0.347291  0.963533  1
  La  La4  1  0.960389  0.346141  0.346141  1
  La  La5  1  0.343714  0.963533  0.347291  1
  Pr  Pr6  1  0.940578  0.561650  0.561650  1
  Pr  Pr7  1  0.560660  0.939439  0.939439  1
  Pr  Pr8  1  0.563523  0.938446  0.562809  1
  Pr  Pr9  1  0.563523  0.562809  0.938446  1
  Pr  Pr10  1  0.937959  0.561061  0.938015  1
  Pr  Pr11  1  0.937959  0.938015  0.561061  1
  Pr  Pr12  1  0.812582  0.189524  0.189524  1
  Pr  Pr13  1  0.193258  0.807553  0.807553  1
  Pr  Pr14  1  0.190818  0.810989  0.188366  1
  Pr  Pr15  1  0.190818  0.188366  0.810989  1
  Cd  Cd16  1  0.577278  0.579964  0.579964  1
  Cd  Cd17  1  0.577884  0.579373  0.261091  1
  Cd  Cd18  1  0.261224  0.579291  0.579291  1
  Cd  Cd19  1  0.577884  0.261091  0.579373  1
  Co  Co20  1  0.143132  0.142574  0.142574  1
  Co  Co21  1  0.134522  0.147146  0.577948  1
  Co  Co22  1  0.581487  0.137089  0.137089  1
  Co  Co23  1  0.134522  0.577948  0.147146  1
