# generated using pymatgen
data_Y12AlIn(FeSi)2
_symmetry_space_group_name_H-M   'P 1'
_cell_length_a   8.48469148
_cell_length_b   8.48469807
_cell_length_c   8.48469279
_cell_angle_alpha   112.82904079
_cell_angle_beta   110.40815193
_cell_angle_gamma   105.26662957
_symmetry_Int_Tables_number   1
_chemical_formula_structural   Y12AlIn(FeSi)2
_chemical_formula_sum   'Y12 Al1 In1 Fe2 Si2'
_cell_volume   468.09731568
_cell_formula_units_Z   1
loop_
 _symmetry_equiv_pos_site_id
 _symmetry_equiv_pos_as_xyz
  1  'x, y, z'
loop_
 _atom_site_type_symbol
 _atom_site_label
 _atom_site_symmetry_multiplicity
 _atom_site_fract_x
 _atom_site_fract_y
 _atom_site_fract_z
 _atom_site_occupancy
  Y  Y0  1  0.436092  0.237326  0.198766  1
  Y  Y1  1  0.563908  0.762674  0.801234  1
  Y  Y2  1  0.038560  0.237326  0.801234  1
  Y  Y3  1  0.961440  0.762674  0.198766  1
  Y  Y4  1  0.185601  0.284214  0.469817  1
  Y  Y5  1  0.814399  0.715786  0.530183  1
  Y  Y6  1  0.185602  0.715786  0.901388  1
  Y  Y7  1  0.814398  0.284214  0.098612  1
  Y  Y8  1  0.305702  0.615210  0.309509  1
  Y  Y9  1  0.694298  0.384790  0.690491  1
  Y  Y10  1  0.305701  0.996193  0.690492  1
  Y  Y11  1  0.694299  0.003807  0.309508  1
  Al  Al12  1  0.000000  0.000000  0.000000  1
  In  In13  1  0.500000  0.500000  0.000000  1
  Fe  Fe14  1  0.103083  0.603082  0.500000  1
  Fe  Fe15  1  0.896917  0.396918  0.500000  1
  Si  Si16  1  0.364079  0.000000  0.364079  1
  Si  Si17  1  0.635921  0.000000  0.635921  1
