# generated using pymatgen
data_Rb5BaNbAs4
_symmetry_space_group_name_H-M   'P 1'
_cell_length_a   10.87510206
_cell_length_b   10.87510279
_cell_length_c   8.35879615
_cell_angle_alpha   88.63092979
_cell_angle_beta   88.63093101
_cell_angle_gamma   120.62669531
_symmetry_Int_Tables_number   1
_chemical_formula_structural   Rb5BaNbAs4
_chemical_formula_sum   'Rb10 Ba2 Nb2 As8'
_cell_volume   849.68461517
_cell_formula_units_Z   2
loop_
 _symmetry_equiv_pos_site_id
 _symmetry_equiv_pos_as_xyz
  1  'x, y, z'
loop_
 _atom_site_type_symbol
 _atom_site_label
 _atom_site_symmetry_multiplicity
 _atom_site_fract_x
 _atom_site_fract_y
 _atom_site_fract_z
 _atom_site_occupancy
  Rb  Rb0  1  0.465594  0.526520  0.605552  1
  Rb  Rb1  1  0.060704  0.528820  0.607905  1
  Rb  Rb2  1  0.526520  0.465594  0.105552  1
  Rb  Rb3  1  0.528820  0.060704  0.107905  1
  Rb  Rb4  1  0.864301  0.142303  0.787449  1
  Rb  Rb5  1  0.292982  0.152442  0.825003  1
  Rb  Rb6  1  0.854789  0.714128  0.766598  1
  Rb  Rb7  1  0.142303  0.864301  0.287449  1
  Rb  Rb8  1  0.714128  0.854789  0.266598  1
  Rb  Rb9  1  0.152442  0.292982  0.325003  1
  Ba  Ba10  1  0.464048  0.936132  0.602071  1
  Ba  Ba11  1  0.936132  0.464048  0.102071  1
  Nb  Nb12  1  0.669854  0.330705  0.501999  1
  Nb  Nb13  1  0.330705  0.669854  0.001999  1
  As  As14  1  0.686078  0.337531  0.802385  1
  As  As15  1  0.337531  0.686078  0.302385  1
  As  As16  1  0.200095  0.791126  0.897361  1
  As  As17  1  0.580890  0.797617  0.879953  1
  As  As18  1  0.193576  0.409765  0.930924  1
  As  As19  1  0.791126  0.200095  0.397361  1
  As  As20  1  0.409765  0.193576  0.430924  1
  As  As21  1  0.797617  0.580890  0.379953  1
