# generated using pymatgen
data_Yb4Eu16(Ga3Bi)3
_symmetry_space_group_name_H-M   'P 1'
_cell_length_a   8.29439300
_cell_length_b   8.29439300
_cell_length_c   14.95875100
_cell_angle_alpha   90.00000000
_cell_angle_beta   90.00000000
_cell_angle_gamma   90.00000000
_symmetry_Int_Tables_number   1
_chemical_formula_structural   Yb4Eu16(Ga3Bi)3
_chemical_formula_sum   'Yb4 Eu16 Ga9 Bi3'
_cell_volume   1029.11652297
_cell_formula_units_Z   1
loop_
 _symmetry_equiv_pos_site_id
 _symmetry_equiv_pos_as_xyz
  1  'x, y, z'
loop_
 _atom_site_type_symbol
 _atom_site_label
 _atom_site_symmetry_multiplicity
 _atom_site_fract_x
 _atom_site_fract_y
 _atom_site_fract_z
 _atom_site_occupancy
  Yb  Yb0  1  0.500000  0.500000  0.755065  1
  Yb  Yb1  1  0.000000  0.000000  0.245608  1
  Yb  Yb2  1  0.000000  0.000000  0.754392  1
  Yb  Yb3  1  0.500000  0.500000  0.244935  1
  Eu  Eu4  1  0.679440  0.169077  0.107048  1
  Eu  Eu5  1  0.173259  0.673285  0.610457  1
  Eu  Eu6  1  0.320560  0.830923  0.107048  1
  Eu  Eu7  1  0.826741  0.326715  0.610457  1
  Eu  Eu8  1  0.830923  0.679440  0.107048  1
  Eu  Eu9  1  0.326715  0.173259  0.610457  1
  Eu  Eu10  1  0.169077  0.320560  0.107048  1
  Eu  Eu11  1  0.673285  0.826741  0.610457  1
  Eu  Eu12  1  0.830923  0.320560  0.892952  1
  Eu  Eu13  1  0.326715  0.826741  0.389543  1
  Eu  Eu14  1  0.169077  0.679440  0.892952  1
  Eu  Eu15  1  0.673285  0.173259  0.389543  1
  Eu  Eu16  1  0.679440  0.830923  0.892952  1
  Eu  Eu17  1  0.173259  0.326715  0.389543  1
  Eu  Eu18  1  0.320560  0.169077  0.892952  1
  Eu  Eu19  1  0.826741  0.673285  0.389543  1
  Ga  Ga20  1  0.612408  0.113721  0.750885  1
  Ga  Ga21  1  0.113721  0.612408  0.249115  1
  Ga  Ga22  1  0.886279  0.387592  0.249115  1
  Ga  Ga23  1  0.387592  0.886279  0.750885  1
  Ga  Ga24  1  0.886279  0.612408  0.750885  1
  Ga  Ga25  1  0.387592  0.113721  0.249115  1
  Ga  Ga26  1  0.113721  0.387592  0.750885  1
  Ga  Ga27  1  0.612408  0.886279  0.249115  1
  Ga  Ga28  1  0.000000  0.000000  0.000000  1
  Bi  Bi29  1  0.500000  0.500000  0.500000  1
  Bi  Bi30  1  0.500000  0.500000  0.000000  1
  Bi  Bi31  1  0.000000  0.000000  0.500000  1
