# generated using pymatgen
data_Lu3ThMgIr
_symmetry_space_group_name_H-M   'P 1'
_cell_length_a   9.65414131
_cell_length_b   9.65414134
_cell_length_c   9.65414300
_cell_angle_alpha   60.00000459
_cell_angle_beta   60.00000448
_cell_angle_gamma   60.00000705
_symmetry_Int_Tables_number   1
_chemical_formula_structural   Lu3ThMgIr
_chemical_formula_sum   'Lu12 Th4 Mg4 Ir4'
_cell_volume   636.24749644
_cell_formula_units_Z   4
loop_
 _symmetry_equiv_pos_site_id
 _symmetry_equiv_pos_as_xyz
  1  'x, y, z'
loop_
 _atom_site_type_symbol
 _atom_site_label
 _atom_site_symmetry_multiplicity
 _atom_site_fract_x
 _atom_site_fract_y
 _atom_site_fract_z
 _atom_site_occupancy
  Lu  Lu0  1  0.813735  0.186265  0.186265  1
  Lu  Lu1  1  0.186265  0.813735  0.813735  1
  Lu  Lu2  1  0.186265  0.813735  0.186265  1
  Lu  Lu3  1  0.813735  0.186265  0.813735  1
  Lu  Lu4  1  0.186265  0.186265  0.813735  1
  Lu  Lu5  1  0.813735  0.813735  0.186265  1
  Lu  Lu6  1  0.932877  0.567123  0.567123  1
  Lu  Lu7  1  0.567123  0.932877  0.932877  1
  Lu  Lu8  1  0.567123  0.932877  0.567123  1
  Lu  Lu9  1  0.932877  0.567123  0.932877  1
  Lu  Lu10  1  0.567123  0.567123  0.932877  1
  Lu  Lu11  1  0.932877  0.932877  0.567123  1
  Th  Th12  1  0.349805  0.349805  0.349805  1
  Th  Th13  1  0.349805  0.349805  0.950587  1
  Th  Th14  1  0.349805  0.950587  0.349805  1
  Th  Th15  1  0.950587  0.349805  0.349805  1
  Mg  Mg16  1  0.581409  0.581409  0.581409  1
  Mg  Mg17  1  0.581409  0.581409  0.255772  1
  Mg  Mg18  1  0.581409  0.255772  0.581409  1
  Mg  Mg19  1  0.255772  0.581409  0.581409  1
  Ir  Ir20  1  0.142001  0.142001  0.142001  1
  Ir  Ir21  1  0.142001  0.142001  0.573997  1
  Ir  Ir22  1  0.142001  0.573997  0.142001  1
  Ir  Ir23  1  0.573997  0.142001  0.142001  1
