# generated using pymatgen
data_SrLaCu2(PdO4)2
_symmetry_space_group_name_H-M   'P 1'
_cell_length_a   6.50183966
_cell_length_b   6.50184036
_cell_length_c   6.63974630
_cell_angle_alpha   128.22941292
_cell_angle_beta   123.57171649
_cell_angle_gamma   78.65910429
_symmetry_Int_Tables_number   1
_chemical_formula_structural   SrLaCu2(PdO4)2
_chemical_formula_sum   'Sr1 La1 Cu2 Pd2 O8'
_cell_volume   179.11246471
_cell_formula_units_Z   1
loop_
 _symmetry_equiv_pos_site_id
 _symmetry_equiv_pos_as_xyz
  1  'x, y, z'
loop_
 _atom_site_type_symbol
 _atom_site_label
 _atom_site_symmetry_multiplicity
 _atom_site_fract_x
 _atom_site_fract_y
 _atom_site_fract_z
 _atom_site_occupancy
  Sr  Sr0  1  0.748082  0.248082  0.500000  1
  La  La1  1  0.999810  0.999810  0.000000  1
  Cu  Cu2  1  0.876219  0.630317  0.255960  1
  Cu  Cu3  1  0.374357  0.620259  0.744040  1
  Pd  Pd4  1  0.370326  0.625884  0.245899  1
  Pd  Pd5  1  0.379985  0.124427  0.754101  1
  O  O6  1  0.582251  0.926401  0.921061  1
  O  O7  1  0.395446  0.823035  0.113089  1
  O  O8  1  0.709946  0.282356  0.886911  1
  O  O9  1  0.005338  0.661190  0.078939  1
  O  O10  1  0.176947  0.309528  0.568504  1
  O  O11  1  0.333917  0.421329  0.364980  1
  O  O12  1  0.741026  0.608443  0.431496  1
  O  O13  1  0.056349  0.968938  0.635020  1
