# generated using pymatgen
data_Ho8Tm2(IrAu)3
_symmetry_space_group_name_H-M   'P 1'
_cell_length_a   11.19560916
_cell_length_b   11.16265500
_cell_length_c   6.28328131
_cell_angle_alpha   90.00000000
_cell_angle_beta   89.76118999
_cell_angle_gamma   90.00000000
_symmetry_Int_Tables_number   1
_chemical_formula_structural   Ho8Tm2(IrAu)3
_chemical_formula_sum   'Ho16 Tm4 Ir6 Au6'
_cell_volume   785.23195081
_cell_formula_units_Z   2
loop_
 _symmetry_equiv_pos_site_id
 _symmetry_equiv_pos_as_xyz
  1  'x, y, z'
loop_
 _atom_site_type_symbol
 _atom_site_label
 _atom_site_symmetry_multiplicity
 _atom_site_fract_x
 _atom_site_fract_y
 _atom_site_fract_z
 _atom_site_occupancy
  Ho  Ho0  1  0.299670  0.091340  0.366064  1
  Ho  Ho1  1  0.299670  0.908660  0.866064  1
  Ho  Ho2  1  0.698362  0.083839  0.859373  1
  Ho  Ho3  1  0.698362  0.916161  0.359373  1
  Ho  Ho4  1  0.575373  0.790498  0.862540  1
  Ho  Ho5  1  0.575373  0.209502  0.362540  1
  Ho  Ho6  1  0.410401  0.792635  0.376399  1
  Ho  Ho7  1  0.410401  0.207365  0.876399  1
  Ho  Ho8  1  0.213479  0.417676  0.624245  1
  Ho  Ho9  1  0.213479  0.582324  0.124245  1
  Ho  Ho10  1  0.798415  0.415017  0.136702  1
  Ho  Ho11  1  0.798415  0.584983  0.636702  1
  Ho  Ho12  1  0.919779  0.700106  0.138586  1
  Ho  Ho13  1  0.919779  0.299894  0.638586  1
  Ho  Ho14  1  0.096209  0.698821  0.636430  1
  Ho  Ho15  1  0.096209  0.301179  0.136430  1
  Tm  Tm16  1  0.999309  0.999363  0.500188  1
  Tm  Tm17  1  0.999309  0.000637  0.000188  1
  Tm  Tm18  1  0.491443  0.497889  0.998614  1
  Tm  Tm19  1  0.491443  0.502111  0.498614  1
  Ir  Ir20  1  0.347551  0.347016  0.250102  1
  Ir  Ir21  1  0.347551  0.652984  0.750102  1
  Ir  Ir22  1  0.499039  0.999150  0.113221  1
  Ir  Ir23  1  0.499039  0.000850  0.613221  1
  Ir  Ir24  1  0.999952  0.500360  0.888428  1
  Ir  Ir25  1  0.999952  0.499640  0.388428  1
  Au  Au26  1  0.843826  0.154076  0.251100  1
  Au  Au27  1  0.843826  0.845924  0.751100  1
  Au  Au28  1  0.153465  0.154604  0.749346  1
  Au  Au29  1  0.153465  0.845396  0.249346  1
  Au  Au30  1  0.653725  0.348007  0.748663  1
  Au  Au31  1  0.653725  0.651993  0.248663  1
