# generated using pymatgen
data_CaSmY6(B6Ru)4
_symmetry_space_group_name_H-M   'P 1'
_cell_length_a   3.67498600
_cell_length_b   9.17873021
_cell_length_c   11.57560107
_cell_angle_alpha   89.89553716
_cell_angle_beta   90.00000000
_cell_angle_gamma   90.00000000
_symmetry_Int_Tables_number   1
_chemical_formula_structural   CaSmY6(B6Ru)4
_chemical_formula_sum   'Ca1 Sm1 Y6 B24 Ru4'
_cell_volume   390.46411167
_cell_formula_units_Z   1
loop_
 _symmetry_equiv_pos_site_id
 _symmetry_equiv_pos_as_xyz
  1  'x, y, z'
loop_
 _atom_site_type_symbol
 _atom_site_label
 _atom_site_symmetry_multiplicity
 _atom_site_fract_x
 _atom_site_fract_y
 _atom_site_fract_z
 _atom_site_occupancy
  Ca  Ca0  1  0.000000  0.322834  0.413640  1
  Sm  Sm1  1  0.000000  0.675343  0.585348  1
  Y  Y2  1  0.000000  0.822874  0.086344  1
  Y  Y3  1  0.000000  0.177566  0.914685  1
  Y  Y4  1  0.000000  0.944259  0.370589  1
  Y  Y5  1  0.000000  0.058296  0.628346  1
  Y  Y6  1  0.000000  0.442744  0.129247  1
  Y  Y7  1  0.000000  0.556080  0.872735  1
  B  B8  1  0.500000  0.554231  0.431176  1
  B  B9  1  0.500000  0.444613  0.568275  1
  B  B10  1  0.500000  0.053248  0.066655  1
  B  B11  1  0.500000  0.946170  0.932605  1
  B  B12  1  0.500000  0.748308  0.417517  1
  B  B13  1  0.500000  0.252218  0.581387  1
  B  B14  1  0.500000  0.246941  0.080506  1
  B  B15  1  0.500000  0.752389  0.919861  1
  B  B16  1  0.500000  0.791355  0.265562  1
  B  B17  1  0.500000  0.209654  0.734231  1
  B  B18  1  0.500000  0.289251  0.232975  1
  B  B19  1  0.500000  0.710607  0.767682  1
  B  B20  1  0.500000  0.631966  0.185702  1
  B  B21  1  0.500000  0.367956  0.815514  1
  B  B22  1  0.500000  0.131151  0.313284  1
  B  B23  1  0.500000  0.869617  0.686264  1
  B  B24  1  0.500000  0.983635  0.211458  1
  B  B25  1  0.500000  0.016740  0.787749  1
  B  B26  1  0.500000  0.484145  0.287255  1
  B  B27  1  0.500000  0.514535  0.713523  1
  B  B28  1  0.500000  0.609124  0.030506  1
  B  B29  1  0.500000  0.390809  0.970398  1
  B  B30  1  0.500000  0.104539  0.470924  1
  B  B31  1  0.500000  0.896586  0.528620  1
  Ru  Ru32  1  0.000000  0.639975  0.319588  1
  Ru  Ru33  1  0.000000  0.361063  0.681145  1
  Ru  Ru34  1  0.000000  0.136288  0.177056  1
  Ru  Ru35  1  0.000000  0.862891  0.821653  1
