# generated using pymatgen
data_Co4GeP3
_symmetry_space_group_name_H-M   'P 1'
_cell_length_a   3.29841100
_cell_length_b   5.10732226
_cell_length_c   5.65073650
_cell_angle_alpha   89.91800992
_cell_angle_beta   90.00000000
_cell_angle_gamma   90.00000000
_symmetry_Int_Tables_number   1
_chemical_formula_structural   Co4GeP3
_chemical_formula_sum   'Co4 Ge1 P3'
_cell_volume   95.19248041
_cell_formula_units_Z   1
loop_
 _symmetry_equiv_pos_site_id
 _symmetry_equiv_pos_as_xyz
  1  'x, y, z'
loop_
 _atom_site_type_symbol
 _atom_site_label
 _atom_site_symmetry_multiplicity
 _atom_site_fract_x
 _atom_site_fract_y
 _atom_site_fract_z
 _atom_site_occupancy
  Co  Co0  1  0.500000  0.497714  0.308292  1
  Co  Co1  1  0.500000  0.007079  0.212897  1
  Co  Co2  1  0.000000  0.489437  0.682964  1
  Co  Co3  1  0.000000  0.010485  0.796071  1
  Ge  Ge4  1  0.500000  0.689893  0.916861  1
  P  P5  1  0.500000  0.193211  0.583316  1
  P  P6  1  0.000000  0.308967  0.081219  1
  P  P7  1  0.000000  0.803215  0.418378  1
