# generated using pymatgen
data_Dy2Lu2Si4RuRh3
_symmetry_space_group_name_H-M   'P 1'
_cell_length_a   4.25973000
_cell_length_b   6.86630450
_cell_length_c   7.27360685
_cell_angle_alpha   90.07874076
_cell_angle_beta   90.00000000
_cell_angle_gamma   90.00000000
_symmetry_Int_Tables_number   1
_chemical_formula_structural   Dy2Lu2Si4RuRh3
_chemical_formula_sum   'Dy2 Lu2 Si4 Ru1 Rh3'
_cell_volume   212.74264020
_cell_formula_units_Z   1
loop_
 _symmetry_equiv_pos_site_id
 _symmetry_equiv_pos_as_xyz
  1  'x, y, z'
loop_
 _atom_site_type_symbol
 _atom_site_label
 _atom_site_symmetry_multiplicity
 _atom_site_fract_x
 _atom_site_fract_y
 _atom_site_fract_z
 _atom_site_occupancy
  Dy  Dy0  1  0.750000  0.000299  0.814921  1
  Dy  Dy1  1  0.750000  0.504930  0.687127  1
  Lu  Lu2  1  0.250000  0.494292  0.307197  1
  Lu  Lu3  1  0.250000  0.995498  0.190629  1
  Si  Si4  1  0.750000  0.201002  0.391646  1
  Si  Si5  1  0.250000  0.295140  0.896937  1
  Si  Si6  1  0.750000  0.703151  0.115626  1
  Si  Si7  1  0.250000  0.797380  0.594837  1
  Ru  Ru8  1  0.750000  0.847962  0.429305  1
  Rh  Rh9  1  0.250000  0.158490  0.563375  1
  Rh  Rh10  1  0.750000  0.344523  0.073286  1
  Rh  Rh11  1  0.250000  0.657333  0.935113  1
