# generated using pymatgen
data_YbDy14Ho(InIr)4
_symmetry_space_group_name_H-M   'P 1'
_cell_length_a   9.67873286
_cell_length_b   9.67887557
_cell_length_c   9.67996504
_cell_angle_alpha   60.00045398
_cell_angle_beta   60.00637454
_cell_angle_gamma   59.98589245
_symmetry_Int_Tables_number   1
_chemical_formula_structural   YbDy14Ho(InIr)4
_chemical_formula_sum   'Yb1 Dy14 Ho1 In4 Ir4'
_cell_volume   641.17750824
_cell_formula_units_Z   1
loop_
 _symmetry_equiv_pos_site_id
 _symmetry_equiv_pos_as_xyz
  1  'x, y, z'
loop_
 _atom_site_type_symbol
 _atom_site_label
 _atom_site_symmetry_multiplicity
 _atom_site_fract_x
 _atom_site_fract_y
 _atom_site_fract_z
 _atom_site_occupancy
  Yb  Yb0  1  0.439645  0.439590  0.060429  1
  Dy  Dy1  1  0.651676  0.651689  0.046259  1
  Dy  Dy2  1  0.190840  0.810139  0.191306  1
  Dy  Dy3  1  0.059643  0.439151  0.060535  1
  Dy  Dy4  1  0.190900  0.810203  0.807626  1
  Dy  Dy5  1  0.059795  0.439039  0.440657  1
  Dy  Dy6  1  0.810055  0.190832  0.191340  1
  Dy  Dy7  1  0.651644  0.651753  0.650350  1
  Dy  Dy8  1  0.810136  0.190850  0.807725  1
  Dy  Dy9  1  0.190342  0.190291  0.809607  1
  Dy  Dy10  1  0.047140  0.650116  0.651356  1
  Dy  Dy11  1  0.439144  0.059654  0.060670  1
  Dy  Dy12  1  0.061377  0.061238  0.438752  1
  Dy  Dy13  1  0.650065  0.047147  0.651334  1
  Dy  Dy14  1  0.809245  0.809397  0.190692  1
  Ho  Ho15  1  0.439274  0.059548  0.440765  1
  In  In16  1  0.416206  0.416120  0.419363  1
  In  In17  1  0.416208  0.416228  0.748183  1
  In  In18  1  0.417282  0.748433  0.417183  1
  In  In19  1  0.748290  0.417308  0.417192  1
  Ir  Ir20  1  0.423712  0.860341  0.857881  1
  Ir  Ir21  1  0.858609  0.858614  0.858899  1
  Ir  Ir22  1  0.860291  0.423668  0.858008  1
  Ir  Ir23  1  0.858484  0.858652  0.423891  1
