# generated using pymatgen
data_Ho5Cr3Fe5Co11P12
_symmetry_space_group_name_H-M   'P 1'
_cell_length_a   11.99866880
_cell_length_b   11.99920578
_cell_length_c   3.67495000
_cell_angle_alpha   90.00000000
_cell_angle_beta   90.00000000
_cell_angle_gamma   119.86792605
_symmetry_Int_Tables_number   1
_chemical_formula_structural   Ho5Cr3Fe5Co11P12
_chemical_formula_sum   'Ho5 Cr3 Fe5 Co11 P12'
_cell_volume   458.82184091
_cell_formula_units_Z   1
loop_
 _symmetry_equiv_pos_site_id
 _symmetry_equiv_pos_as_xyz
  1  'x, y, z'
loop_
 _atom_site_type_symbol
 _atom_site_label
 _atom_site_symmetry_multiplicity
 _atom_site_fract_x
 _atom_site_fract_y
 _atom_site_fract_z
 _atom_site_occupancy
  Ho  Ho0  1  0.666535  0.333291  0.000000  1
  Ho  Ho1  1  0.333606  0.666995  0.000000  1
  Ho  Ho2  1  0.813670  0.813593  0.500000  1
  Ho  Ho3  1  0.186392  0.999592  0.500000  1
  Ho  Ho4  1  0.999738  0.185528  0.500000  1
  Cr  Cr5  1  0.442339  0.443184  0.000000  1
  Cr  Cr6  1  0.557937  0.000337  0.000000  1
  Cr  Cr7  1  0.000095  0.557892  0.000000  1
  Fe  Fe8  1  0.800459  0.178797  0.000000  1
  Fe  Fe9  1  0.821044  0.621228  0.000000  1
  Fe  Fe10  1  0.377761  0.199920  0.000000  1
  Fe  Fe11  1  0.179041  0.800174  0.000000  1
  Fe  Fe12  1  0.621392  0.821042  0.000000  1
  Co  Co13  1  0.876962  0.360237  0.500000  1
  Co  Co14  1  0.639804  0.515892  0.500000  1
  Co  Co15  1  0.484014  0.124503  0.500000  1
  Co  Co16  1  0.360118  0.876333  0.500000  1
  Co  Co17  1  0.516840  0.640930  0.500000  1
  Co  Co18  1  0.125667  0.483612  0.500000  1
  Co  Co19  1  0.198244  0.377378  0.000000  1
  Co  Co20  1  0.282445  0.284346  0.500000  1
  Co  Co21  1  0.716213  0.999989  0.500000  1
  Co  Co22  1  0.000135  0.716083  0.500000  1
  Co  Co23  1  0.999655  0.999888  0.000000  1
  P  P24  1  0.687989  0.166639  0.500000  1
  P  P25  1  0.833248  0.521476  0.500000  1
  P  P26  1  0.478196  0.312087  0.500000  1
  P  P27  1  0.167226  0.688505  0.500000  1
  P  P28  1  0.521508  0.833889  0.500000  1
  P  P29  1  0.314759  0.480269  0.500000  1
  P  P30  1  0.181578  0.179768  0.000000  1
  P  P31  1  0.817515  0.999366  0.000000  1
  P  P32  1  0.999795  0.817662  0.000000  1
  P  P33  1  0.637266  0.637048  0.000000  1
  P  P34  1  0.363228  0.000152  0.000000  1
  P  P35  1  0.997588  0.362377  0.000000  1
