# generated using pymatgen
data_MnNb8V(B2P)2
_symmetry_space_group_name_H-M   'P 1'
_cell_length_a   6.06262254
_cell_length_b   6.06262345
_cell_length_c   7.20546205
_cell_angle_alpha   114.87856248
_cell_angle_beta   114.87856015
_cell_angle_gamma   89.99999805
_symmetry_Int_Tables_number   1
_chemical_formula_structural   MnNb8V(B2P)2
_chemical_formula_sum   'Mn1 Nb8 V1 B4 P2'
_cell_volume   212.86732529
_cell_formula_units_Z   1
loop_
 _symmetry_equiv_pos_site_id
 _symmetry_equiv_pos_as_xyz
  1  'x, y, z'
loop_
 _atom_site_type_symbol
 _atom_site_label
 _atom_site_symmetry_multiplicity
 _atom_site_fract_x
 _atom_site_fract_y
 _atom_site_fract_z
 _atom_site_occupancy
  Mn  Mn0  1  0.500000  0.500000  0.000000  1
  Nb  Nb1  1  0.036250  0.531223  0.724577  1
  Nb  Nb2  1  0.688326  0.193353  0.724577  1
  Nb  Nb3  1  0.193353  0.036250  0.724577  1
  Nb  Nb4  1  0.531223  0.688326  0.724577  1
  Nb  Nb5  1  0.963750  0.468777  0.275423  1
  Nb  Nb6  1  0.311674  0.806647  0.275423  1
  Nb  Nb7  1  0.806647  0.963750  0.275423  1
  Nb  Nb8  1  0.468777  0.311674  0.275423  1
  V  V9  1  0.000000  0.000000  0.000000  1
  B  B10  1  0.383756  0.883909  0.000000  1
  B  B11  1  0.616244  0.116091  0.000000  1
  B  B12  1  0.116091  0.383756  0.000000  1
  B  B13  1  0.883909  0.616244  0.000000  1
  P  P14  1  0.244569  0.244569  0.489139  1
  P  P15  1  0.755431  0.755431  0.510861  1
