# generated using pymatgen
data_Er4GaCo4
_symmetry_space_group_name_H-M   'P 1'
_cell_length_a   5.41369618
_cell_length_b   5.41369644
_cell_length_c   8.84174034
_cell_angle_alpha   70.76561627
_cell_angle_beta   70.76561311
_cell_angle_gamma   43.43668696
_symmetry_Int_Tables_number   1
_chemical_formula_structural   Er4GaCo4
_chemical_formula_sum   'Er4 Ga1 Co4'
_cell_volume   166.59062118
_cell_formula_units_Z   1
loop_
 _symmetry_equiv_pos_site_id
 _symmetry_equiv_pos_as_xyz
  1  'x, y, z'
loop_
 _atom_site_type_symbol
 _atom_site_label
 _atom_site_symmetry_multiplicity
 _atom_site_fract_x
 _atom_site_fract_y
 _atom_site_fract_z
 _atom_site_occupancy
  Er  Er0  1  0.746128  0.746128  0.662097  1
  Er  Er1  1  0.253872  0.253872  0.337903  1
  Er  Er2  1  0.391079  0.391079  0.885566  1
  Er  Er3  1  0.608921  0.608921  0.114434  1
  Ga  Ga4  1  0.500000  0.500000  0.500000  1
  Co  Co5  1  0.037767  0.037767  0.645353  1
  Co  Co6  1  0.962233  0.962233  0.354647  1
  Co  Co7  1  0.094260  0.094260  0.880193  1
  Co  Co8  1  0.905740  0.905740  0.119807  1
