# generated using pymatgen
data_Y10In8RuAu3
_symmetry_space_group_name_H-M   'P 1'
_cell_length_a   3.62715500
_cell_length_b   8.28616910
_cell_length_c   18.46446525
_cell_angle_alpha   89.98157042
_cell_angle_beta   90.00000000
_cell_angle_gamma   90.00000000
_symmetry_Int_Tables_number   1
_chemical_formula_structural   Y10In8RuAu3
_chemical_formula_sum   'Y10 In8 Ru1 Au3'
_cell_volume   554.95353084
_cell_formula_units_Z   1
loop_
 _symmetry_equiv_pos_site_id
 _symmetry_equiv_pos_as_xyz
  1  'x, y, z'
loop_
 _atom_site_type_symbol
 _atom_site_label
 _atom_site_symmetry_multiplicity
 _atom_site_fract_x
 _atom_site_fract_y
 _atom_site_fract_z
 _atom_site_occupancy
  Y  Y0  1  0.500000  0.259471  0.782155  1
  Y  Y1  1  0.500000  0.763741  0.216312  1
  Y  Y2  1  0.500000  0.262901  0.283208  1
  Y  Y3  1  0.500000  0.722670  0.722137  1
  Y  Y4  1  0.500000  0.121333  0.580864  1
  Y  Y5  1  0.500000  0.877971  0.420524  1
  Y  Y6  1  0.500000  0.377435  0.079256  1
  Y  Y7  1  0.500000  0.615263  0.914958  1
  Y  Y8  1  0.500000  0.003340  0.998198  1
  Y  Y9  1  0.500000  0.502172  0.501308  1
  In  In10  1  0.000000  0.079810  0.147033  1
  In  In11  1  0.000000  0.915637  0.850849  1
  In  In12  1  0.000000  0.424406  0.651234  1
  In  In13  1  0.000000  0.579661  0.352451  1
  In  In14  1  0.000000  0.210605  0.433675  1
  In  In15  1  0.000000  0.791260  0.568292  1
  In  In16  1  0.000000  0.294911  0.929783  1
  In  In17  1  0.000000  0.708288  0.064697  1
  Ru  Ru18  1  0.000000  0.520760  0.804915  1
  Au  Au19  1  0.000000  0.022411  0.698617  1
  Au  Au20  1  0.000000  0.972470  0.302934  1
  Au  Au21  1  0.000000  0.473485  0.196601  1
