# generated using pymatgen
data_Fe5PbI16
_symmetry_space_group_name_H-M   'P 1'
_cell_length_a   11.70179265
_cell_length_b   11.70179383
_cell_length_c   14.03036600
_cell_angle_alpha   55.04908412
_cell_angle_beta   55.04908604
_cell_angle_gamma   49.34745731
_symmetry_Int_Tables_number   1
_chemical_formula_structural   Fe5PbI16
_chemical_formula_sum   'Fe5 Pb1 I16'
_cell_volume   1131.42854107
_cell_formula_units_Z   1
loop_
 _symmetry_equiv_pos_site_id
 _symmetry_equiv_pos_as_xyz
  1  'x, y, z'
loop_
 _atom_site_type_symbol
 _atom_site_label
 _atom_site_symmetry_multiplicity
 _atom_site_fract_x
 _atom_site_fract_y
 _atom_site_fract_z
 _atom_site_occupancy
  Fe  Fe0  1  0.031645  0.968355  0.750000  1
  Fe  Fe1  1  0.318475  0.848026  0.482621  1
  Fe  Fe2  1  0.151974  0.681525  0.017379  1
  Fe  Fe3  1  0.681296  0.153185  0.541006  1
  Fe  Fe4  1  0.846815  0.318704  0.958994  1
  Pb  Pb5  1  0.997611  0.002389  0.250000  1
  I  I6  1  0.599963  0.703064  0.473420  1
  I  I7  1  0.296936  0.400037  0.026580  1
  I  I8  1  0.391902  0.301159  0.568093  1
  I  I9  1  0.698841  0.608098  0.931907  1
  I  I10  1  0.150589  0.128868  0.503924  1
  I  I11  1  0.871132  0.849411  0.996076  1
  I  I12  1  0.812134  0.872387  0.536383  1
  I  I13  1  0.127613  0.187866  0.963617  1
  I  I14  1  0.329191  0.853369  0.291471  1
  I  I15  1  0.146631  0.670809  0.208529  1
  I  I16  1  0.713143  0.129981  0.720204  1
  I  I17  1  0.870019  0.286857  0.779796  1
  I  I18  1  0.151817  0.716501  0.687007  1
  I  I19  1  0.283499  0.848183  0.812993  1
  I  I20  1  0.827340  0.298564  0.333414  1
  I  I21  1  0.701436  0.172660  0.166586  1
