# generated using pymatgen
data_PaPd4Pt
_symmetry_space_group_name_H-M   'P 1'
_cell_length_a   6.36821371
_cell_length_b   6.36821420
_cell_length_c   4.15186100
_cell_angle_alpha   90.00000000
_cell_angle_beta   90.00000000
_cell_angle_gamma   142.11675012
_symmetry_Int_Tables_number   1
_chemical_formula_structural   PaPd4Pt
_chemical_formula_sum   'Pa1 Pd4 Pt1'
_cell_volume   103.39154103
_cell_formula_units_Z   1
loop_
 _symmetry_equiv_pos_site_id
 _symmetry_equiv_pos_as_xyz
  1  'x, y, z'
loop_
 _atom_site_type_symbol
 _atom_site_label
 _atom_site_symmetry_multiplicity
 _atom_site_fract_x
 _atom_site_fract_y
 _atom_site_fract_z
 _atom_site_occupancy
  Pa  Pa0  1  0.000000  0.000000  0.000000  1
  Pd  Pd1  1  0.336637  0.663363  0.000000  1
  Pd  Pd2  1  0.663363  0.336637  0.000000  1
  Pd  Pd3  1  0.832627  0.167373  0.500000  1
  Pd  Pd4  1  0.167373  0.832627  0.500000  1
  Pt  Pt5  1  0.500000  0.500000  0.500000  1
