# generated using pymatgen
data_SmBi(WF7)2
_symmetry_space_group_name_H-M   'P 1'
_cell_length_a   5.75927100
_cell_length_b   9.33432633
_cell_length_c   12.42468100
_cell_angle_alpha   62.16099601
_cell_angle_beta   90.00000000
_cell_angle_gamma   90.00000000
_symmetry_Int_Tables_number   1
_chemical_formula_structural   SmBi(WF7)2
_chemical_formula_sum   'Sm2 Bi2 W4 F28'
_cell_volume   590.63248752
_cell_formula_units_Z   2
loop_
 _symmetry_equiv_pos_site_id
 _symmetry_equiv_pos_as_xyz
  1  'x, y, z'
loop_
 _atom_site_type_symbol
 _atom_site_label
 _atom_site_symmetry_multiplicity
 _atom_site_fract_x
 _atom_site_fract_y
 _atom_site_fract_z
 _atom_site_occupancy
  Sm  Sm0  1  0.238600  0.186573  0.235060  1
  Sm  Sm1  1  0.738600  0.813427  0.264940  1
  Bi  Bi2  1  0.768806  0.815260  0.762677  1
  Bi  Bi3  1  0.268806  0.184740  0.737323  1
  W  W4  1  0.756390  0.271891  0.959152  1
  W  W5  1  0.256390  0.728109  0.540848  1
  W  W6  1  0.243035  0.724872  0.044644  1
  W  W7  1  0.743035  0.275128  0.455356  1
  F  F8  1  0.440276  0.710484  0.918689  1
  F  F9  1  0.940276  0.289516  0.581311  1
  F  F10  1  0.554798  0.287564  0.084282  1
  F  F11  1  0.054798  0.712436  0.415718  1
  F  F12  1  0.446624  0.279700  0.548724  1
  F  F13  1  0.946624  0.720300  0.951276  1
  F  F14  1  0.551241  0.720217  0.448959  1
  F  F15  1  0.051241  0.279783  0.051041  1
  F  F16  1  0.764011  0.512264  0.861877  1
  F  F17  1  0.264011  0.487736  0.638123  1
  F  F18  1  0.237325  0.483685  0.140832  1
  F  F19  1  0.737325  0.516315  0.359168  1
  F  F20  1  0.756512  0.029984  0.055609  1
  F  F21  1  0.256512  0.970016  0.444391  1
  F  F22  1  0.244192  0.967200  0.946829  1
  F  F23  1  0.744192  0.032800  0.553171  1
  F  F24  1  0.969256  0.732536  0.639368  1
  F  F25  1  0.469256  0.267464  0.860632  1
  F  F26  1  0.023696  0.268506  0.355243  1
  F  F27  1  0.523696  0.731494  0.144757  1
  F  F28  1  0.044139  0.746985  0.168847  1
  F  F29  1  0.544139  0.253015  0.331153  1
  F  F30  1  0.949189  0.250754  0.833397  1
  F  F31  1  0.449189  0.749246  0.666603  1
  F  F32  1  0.422855  0.975094  0.232786  1
  F  F33  1  0.922855  0.024906  0.267214  1
  F  F34  1  0.589054  0.029264  0.770078  1
  F  F35  1  0.089054  0.970736  0.729922  1
