# generated using pymatgen
data_Pr2SiTc16C3
_symmetry_space_group_name_H-M   'P 1'
_cell_length_a   7.01309885
_cell_length_b   6.98330288
_cell_length_c   6.98330288
_cell_angle_alpha   82.61754814
_cell_angle_beta   82.84438738
_cell_angle_gamma   82.84438400
_symmetry_Int_Tables_number   1
_chemical_formula_structural   Pr2SiTc16C3
_chemical_formula_sum   'Pr2 Si1 Tc16 C3'
_cell_volume   334.47343191
_cell_formula_units_Z   1
loop_
 _symmetry_equiv_pos_site_id
 _symmetry_equiv_pos_as_xyz
  1  'x, y, z'
loop_
 _atom_site_type_symbol
 _atom_site_label
 _atom_site_symmetry_multiplicity
 _atom_site_fract_x
 _atom_site_fract_y
 _atom_site_fract_z
 _atom_site_occupancy
  Pr  Pr0  1  0.651013  0.649946  0.649946  1
  Pr  Pr1  1  0.348987  0.350054  0.350054  1
  Si  Si2  1  0.500000  0.000000  0.000000  1
  Tc  Tc3  1  0.000000  0.000000  0.500000  1
  Tc  Tc4  1  0.000000  0.500000  0.000000  1
  Tc  Tc5  1  0.719958  0.273067  0.002817  1
  Tc  Tc6  1  0.000000  0.724048  0.275952  1
  Tc  Tc7  1  0.280042  0.997183  0.726933  1
  Tc  Tc8  1  0.000000  0.275952  0.724048  1
  Tc  Tc9  1  0.719958  0.002817  0.273067  1
  Tc  Tc10  1  0.280042  0.726933  0.997183  1
  Tc  Tc11  1  0.347469  0.344511  0.865415  1
  Tc  Tc12  1  0.861993  0.351529  0.351529  1
  Tc  Tc13  1  0.347469  0.865415  0.344511  1
  Tc  Tc14  1  0.652531  0.655489  0.134585  1
  Tc  Tc15  1  0.138007  0.648471  0.648471  1
  Tc  Tc16  1  0.652531  0.134585  0.655489  1
  Tc  Tc17  1  0.906142  0.900551  0.900551  1
  Tc  Tc18  1  0.093858  0.099449  0.099449  1
  C  C19  1  0.500000  0.500000  0.000000  1
  C  C20  1  0.000000  0.500000  0.500000  1
  C  C21  1  0.500000  0.000000  0.500000  1
