# generated using pymatgen
data_Tb17Er(LuPb8)2
_symmetry_space_group_name_H-M   'P 1'
_cell_length_a   8.20346807
_cell_length_b   8.30123990
_cell_length_c   15.69292300
_cell_angle_alpha   90.00000000
_cell_angle_beta   90.00000000
_cell_angle_gamma   89.94516080
_symmetry_Int_Tables_number   1
_chemical_formula_structural   Tb17Er(LuPb8)2
_chemical_formula_sum   'Tb17 Er1 Lu2 Pb16'
_cell_volume   1068.67119084
_cell_formula_units_Z   1
loop_
 _symmetry_equiv_pos_site_id
 _symmetry_equiv_pos_as_xyz
  1  'x, y, z'
loop_
 _atom_site_type_symbol
 _atom_site_label
 _atom_site_symmetry_multiplicity
 _atom_site_fract_x
 _atom_site_fract_y
 _atom_site_fract_z
 _atom_site_occupancy
  Tb  Tb0  1  0.376933  0.841228  0.879385  1
  Tb  Tb1  1  0.876566  0.658927  0.620349  1
  Tb  Tb2  1  0.623836  0.159359  0.379794  1
  Tb  Tb3  1  0.122751  0.341399  0.120311  1
  Tb  Tb4  1  0.623836  0.159359  0.120206  1
  Tb  Tb5  1  0.122751  0.341399  0.379689  1
  Tb  Tb6  1  0.376933  0.841228  0.620615  1
  Tb  Tb7  1  0.876566  0.658927  0.879651  1
  Tb  Tb8  1  0.533874  0.323037  0.899986  1
  Tb  Tb9  1  0.033818  0.176806  0.600232  1
  Tb  Tb10  1  0.466511  0.676438  0.399949  1
  Tb  Tb11  1  0.965891  0.822779  0.099978  1
  Tb  Tb12  1  0.466511  0.676438  0.100051  1
  Tb  Tb13  1  0.965891  0.822779  0.400022  1
  Tb  Tb14  1  0.533874  0.323037  0.600014  1
  Tb  Tb15  1  0.033818  0.176806  0.899768  1
  Tb  Tb16  1  0.291569  0.003565  0.250000  1
  Er  Er17  1  0.208643  0.503706  0.750000  1
  Lu  Lu18  1  0.708777  0.995911  0.750000  1
  Lu  Lu19  1  0.791109  0.495928  0.250000  1
  Pb  Pb20  1  0.281161  0.033231  0.042834  1
  Pb  Pb21  1  0.781295  0.467080  0.456369  1
  Pb  Pb22  1  0.718728  0.967170  0.543832  1
  Pb  Pb23  1  0.218836  0.532980  0.956323  1
  Pb  Pb24  1  0.718728  0.967170  0.956168  1
  Pb  Pb25  1  0.218836  0.532980  0.543677  1
  Pb  Pb26  1  0.281161  0.033231  0.457166  1
  Pb  Pb27  1  0.781295  0.467080  0.043631  1
  Pb  Pb28  1  0.571807  0.626610  0.750000  1
  Pb  Pb29  1  0.071442  0.873511  0.750000  1
  Pb  Pb30  1  0.428754  0.374563  0.250000  1
  Pb  Pb31  1  0.926609  0.127405  0.250000  1
  Pb  Pb32  1  0.345721  0.153669  0.750000  1
  Pb  Pb33  1  0.845489  0.346534  0.750000  1
  Pb  Pb34  1  0.655275  0.846140  0.250000  1
  Pb  Pb35  1  0.154404  0.651587  0.250000  1
