# generated using pymatgen
data_PrMnAgPt3
_symmetry_space_group_name_H-M   'P 1'
_cell_length_a   5.53373112
_cell_length_b   5.53373078
_cell_length_c   5.28570286
_cell_angle_alpha   58.43520742
_cell_angle_beta   58.43522110
_cell_angle_gamma   59.99999732
_symmetry_Int_Tables_number   1
_chemical_formula_structural   PrMnAgPt3
_chemical_formula_sum   'Pr1 Mn1 Ag1 Pt3'
_cell_volume   111.66998244
_cell_formula_units_Z   1
loop_
 _symmetry_equiv_pos_site_id
 _symmetry_equiv_pos_as_xyz
  1  'x, y, z'
loop_
 _atom_site_type_symbol
 _atom_site_label
 _atom_site_symmetry_multiplicity
 _atom_site_fract_x
 _atom_site_fract_y
 _atom_site_fract_z
 _atom_site_occupancy
  Pr  Pr0  1  0.995866  0.995866  0.012402  1
  Mn  Mn1  1  0.377385  0.377385  0.867846  1
  Ag  Ag2  1  0.747014  0.747014  0.758960  1
  Pt  Pt3  1  0.377585  0.377585  0.370264  1
  Pt  Pt4  1  0.874566  0.377585  0.370264  1
  Pt  Pt5  1  0.377585  0.874566  0.370264  1
