# generated using pymatgen
data_Tb11DyEr8(CoSb2)4
_symmetry_space_group_name_H-M   'P 1'
_cell_length_a   7.85879570
_cell_length_b   8.76480700
_cell_length_c   12.19927854
_cell_angle_alpha   90.00000000
_cell_angle_beta   89.97932068
_cell_angle_gamma   90.00000000
_symmetry_Int_Tables_number   1
_chemical_formula_structural   Tb11DyEr8(CoSb2)4
_chemical_formula_sum   'Tb11 Dy1 Er8 Co4 Sb8'
_cell_volume   840.29634679
_cell_formula_units_Z   1
loop_
 _symmetry_equiv_pos_site_id
 _symmetry_equiv_pos_as_xyz
  1  'x, y, z'
loop_
 _atom_site_type_symbol
 _atom_site_label
 _atom_site_symmetry_multiplicity
 _atom_site_fract_x
 _atom_site_fract_y
 _atom_site_fract_z
 _atom_site_occupancy
  Tb  Tb0  1  0.653456  0.250000  0.296822  1
  Tb  Tb1  1  0.846985  0.250000  0.797248  1
  Tb  Tb2  1  0.346762  0.750000  0.703031  1
  Tb  Tb3  1  0.452981  0.750000  0.997911  1
  Tb  Tb4  1  0.953742  0.250000  0.501836  1
  Tb  Tb5  1  0.546264  0.250000  0.002557  1
  Tb  Tb6  1  0.046654  0.750000  0.497548  1
  Tb  Tb7  1  0.621914  0.750000  0.307391  1
  Tb  Tb8  1  0.122127  0.250000  0.192444  1
  Tb  Tb9  1  0.377780  0.250000  0.692577  1
  Tb  Tb10  1  0.877574  0.750000  0.807353  1
  Dy  Dy11  1  0.153097  0.750000  0.202491  1
  Er  Er12  1  0.823428  0.963939  0.065183  1
  Er  Er13  1  0.323332  0.035561  0.435087  1
  Er  Er14  1  0.176627  0.464811  0.935335  1
  Er  Er15  1  0.676775  0.535105  0.564865  1
  Er  Er16  1  0.176627  0.035189  0.935335  1
  Er  Er17  1  0.676775  0.964895  0.564865  1
  Er  Er18  1  0.823428  0.536061  0.065183  1
  Er  Er19  1  0.323332  0.464439  0.435087  1
  Co  Co20  1  0.436175  0.750000  0.491321  1
  Co  Co21  1  0.935731  0.250000  0.008968  1
  Co  Co22  1  0.564401  0.250000  0.508640  1
  Co  Co23  1  0.064280  0.750000  0.991388  1
  Sb  Sb24  1  0.929751  0.991612  0.326495  1
  Sb  Sb25  1  0.428139  0.007444  0.173274  1
  Sb  Sb26  1  0.070973  0.492163  0.672896  1
  Sb  Sb27  1  0.571013  0.507805  0.827102  1
  Sb  Sb28  1  0.070973  0.007837  0.672896  1
  Sb  Sb29  1  0.571013  0.992195  0.827102  1
  Sb  Sb30  1  0.929751  0.508388  0.326495  1
  Sb  Sb31  1  0.428139  0.492556  0.173274  1
