# generated using pymatgen
data_YbY6IrBr12
_symmetry_space_group_name_H-M   'P 1'
_cell_length_a   9.32335983
_cell_length_b   9.31589775
_cell_length_c   9.24917886
_cell_angle_alpha   107.02453429
_cell_angle_beta   107.20967247
_cell_angle_gamma   106.92250412
_symmetry_Int_Tables_number   1
_chemical_formula_structural   YbY6IrBr12
_chemical_formula_sum   'Yb1 Y6 Ir1 Br12'
_cell_volume   668.07172232
_cell_formula_units_Z   1
loop_
 _symmetry_equiv_pos_site_id
 _symmetry_equiv_pos_as_xyz
  1  'x, y, z'
loop_
 _atom_site_type_symbol
 _atom_site_label
 _atom_site_symmetry_multiplicity
 _atom_site_fract_x
 _atom_site_fract_y
 _atom_site_fract_z
 _atom_site_occupancy
  Yb  Yb0  1  0.499999  0.499998  0.500000  1
  Y  Y1  1  0.105891  0.315357  0.022946  1
  Y  Y2  1  0.315725  0.024469  0.104726  1
  Y  Y3  1  0.023031  0.101553  0.307655  1
  Y  Y4  1  0.976973  0.898450  0.692344  1
  Y  Y5  1  0.684275  0.975532  0.895275  1
  Y  Y6  1  0.894109  0.684644  0.977053  1
  Ir  Ir7  1  0.000001  0.000001  0.000000  1
  Br  Br8  1  0.218683  0.677829  0.073223  1
  Br  Br9  1  0.456849  0.376778  0.158527  1
  Br  Br10  1  0.679523  0.074164  0.219898  1
  Br  Br11  1  0.927173  0.782236  0.322475  1
  Br  Br12  1  0.159442  0.454629  0.376488  1
  Br  Br13  1  0.376641  0.159940  0.456592  1
  Br  Br14  1  0.623351  0.840048  0.543409  1
  Br  Br15  1  0.840557  0.545372  0.623512  1
  Br  Br16  1  0.072828  0.217767  0.677526  1
  Br  Br17  1  0.320478  0.925837  0.780103  1
  Br  Br18  1  0.543154  0.623226  0.841474  1
  Br  Br19  1  0.781319  0.322172  0.926778  1
