# generated using pymatgen
data_LiVGaF6
_symmetry_space_group_name_H-M   'P 1'
_cell_length_a   8.76804700
_cell_length_b   8.76804723
_cell_length_c   4.72787000
_cell_angle_alpha   90.00000000
_cell_angle_beta   90.00000000
_cell_angle_gamma   119.99999535
_symmetry_Int_Tables_number   1
_chemical_formula_structural   LiVGaF6
_chemical_formula_sum   'Li3 V3 Ga3 F18'
_cell_volume   314.77622898
_cell_formula_units_Z   3
loop_
 _symmetry_equiv_pos_site_id
 _symmetry_equiv_pos_as_xyz
  1  'x, y, z'
loop_
 _atom_site_type_symbol
 _atom_site_label
 _atom_site_symmetry_multiplicity
 _atom_site_fract_x
 _atom_site_fract_y
 _atom_site_fract_z
 _atom_site_occupancy
  Li  Li0  1  0.300510  0.000000  0.500000  1
  Li  Li1  1  0.000000  0.300510  0.500000  1
  Li  Li2  1  0.699490  0.699490  0.500000  1
  V  V3  1  0.642880  0.000000  0.000000  1
  V  V4  1  0.000000  0.642880  0.000000  1
  V  V5  1  0.357120  0.357120  0.000000  1
  Ga  Ga6  1  0.000000  0.000000  0.000000  1
  Ga  Ga7  1  0.333333  0.666667  0.505961  1
  Ga  Ga8  1  0.666667  0.333333  0.494039  1
  F  F9  1  0.099272  0.887767  0.774864  1
  F  F10  1  0.112233  0.211505  0.774864  1
  F  F11  1  0.788495  0.900728  0.774864  1
  F  F12  1  0.211505  0.112233  0.225136  1
  F  F13  1  0.900728  0.788495  0.225136  1
  F  F14  1  0.887767  0.099272  0.225136  1
  F  F15  1  0.457566  0.581339  0.731628  1
  F  F16  1  0.418661  0.876227  0.731628  1
  F  F17  1  0.123773  0.542434  0.731628  1
  F  F18  1  0.876227  0.418661  0.268372  1
  F  F19  1  0.542434  0.123773  0.268372  1
  F  F20  1  0.581339  0.457566  0.268372  1
  F  F21  1  0.220936  0.765260  0.280896  1
  F  F22  1  0.234740  0.455676  0.280896  1
  F  F23  1  0.544324  0.779064  0.280896  1
  F  F24  1  0.455676  0.234740  0.719104  1
  F  F25  1  0.779064  0.544324  0.719104  1
  F  F26  1  0.765260  0.220936  0.719104  1
