# generated using pymatgen
data_Mg3Mn4VRh8
_symmetry_space_group_name_H-M   'P 1'
_cell_length_a   6.12445800
_cell_length_b   6.11932300
_cell_length_c   6.12792700
_cell_angle_alpha   90.00000000
_cell_angle_beta   90.00000000
_cell_angle_gamma   90.00000000
_symmetry_Int_Tables_number   1
_chemical_formula_structural   Mg3Mn4VRh8
_chemical_formula_sum   'Mg3 Mn4 V1 Rh8'
_cell_volume   229.65960905
_cell_formula_units_Z   1
loop_
 _symmetry_equiv_pos_site_id
 _symmetry_equiv_pos_as_xyz
  1  'x, y, z'
loop_
 _atom_site_type_symbol
 _atom_site_label
 _atom_site_symmetry_multiplicity
 _atom_site_fract_x
 _atom_site_fract_y
 _atom_site_fract_z
 _atom_site_occupancy
  Mg  Mg0  1  0.250017  0.750000  0.000000  1
  Mg  Mg1  1  0.750032  0.250000  0.499999  1
  Mg  Mg2  1  0.249969  0.750000  0.500001  1
  Mn  Mn3  1  0.249999  0.250000  0.000000  1
  Mn  Mn4  1  0.749984  0.750000  0.000000  1
  Mn  Mn5  1  0.749990  0.750000  0.499999  1
  Mn  Mn6  1  0.250003  0.250000  0.500001  1
  V  V7  1  0.749976  0.250000  0.000000  1
  Rh  Rh8  1  0.993708  0.006228  0.242505  1
  Rh  Rh9  1  0.993708  0.493772  0.242505  1
  Rh  Rh10  1  0.506300  0.006231  0.242528  1
  Rh  Rh11  1  0.506300  0.493769  0.242528  1
  Rh  Rh12  1  0.506298  0.006231  0.757473  1
  Rh  Rh13  1  0.506298  0.493769  0.757473  1
  Rh  Rh14  1  0.993708  0.006228  0.757495  1
  Rh  Rh15  1  0.993708  0.493772  0.757495  1
