# generated using pymatgen
data_LiCePrAgAs4
_symmetry_space_group_name_H-M   'P 1'
_cell_length_a   4.04127702
_cell_length_b   4.04127614
_cell_length_c   21.00711228
_cell_angle_alpha   90.11350962
_cell_angle_beta   90.11350791
_cell_angle_gamma   90.01634638
_symmetry_Int_Tables_number   1
_chemical_formula_structural   LiCePrAgAs4
_chemical_formula_sum   'Li2 Ce2 Pr2 Ag2 As8'
_cell_volume   343.08504052
_cell_formula_units_Z   2
loop_
 _symmetry_equiv_pos_site_id
 _symmetry_equiv_pos_as_xyz
  1  'x, y, z'
loop_
 _atom_site_type_symbol
 _atom_site_label
 _atom_site_symmetry_multiplicity
 _atom_site_fract_x
 _atom_site_fract_y
 _atom_site_fract_z
 _atom_site_occupancy
  Li  Li0  1  0.245578  0.745689  0.753484  1
  Li  Li1  1  0.254311  0.754422  0.246516  1
  Ce  Ce2  1  0.752578  0.752283  0.109854  1
  Ce  Ce3  1  0.247717  0.247422  0.890146  1
  Pr  Pr4  1  0.254624  0.254997  0.383135  1
  Pr  Pr5  1  0.745003  0.745376  0.616865  1
  Ag  Ag6  1  0.754751  0.254480  0.244748  1
  Ag  Ag7  1  0.745520  0.245249  0.755252  1
  As  As8  1  0.746936  0.746637  0.842272  1
  As  As9  1  0.253363  0.253064  0.157728  1
  As  As10  1  0.245038  0.245415  0.670441  1
  As  As11  1  0.754585  0.754962  0.329559  1
  As  As12  1  0.250543  0.749457  0.000000  1
  As  As13  1  0.240303  0.759697  0.500000  1
  As  As14  1  0.749728  0.250272  0.000000  1
  As  As15  1  0.759420  0.240580  0.500000  1
