# generated using pymatgen
data_Sm2Hg3(TeCl4)2
_symmetry_space_group_name_H-M   'P 1'
_cell_length_a   9.99977381
_cell_length_b   9.99977448
_cell_length_c   13.41908776
_cell_angle_alpha   75.12892596
_cell_angle_beta   75.12892372
_cell_angle_gamma   45.12199564
_symmetry_Int_Tables_number   1
_chemical_formula_structural   Sm2Hg3(TeCl4)2
_chemical_formula_sum   'Sm4 Hg6 Te4 Cl16'
_cell_volume   913.39054180
_cell_formula_units_Z   2
loop_
 _symmetry_equiv_pos_site_id
 _symmetry_equiv_pos_as_xyz
  1  'x, y, z'
loop_
 _atom_site_type_symbol
 _atom_site_label
 _atom_site_symmetry_multiplicity
 _atom_site_fract_x
 _atom_site_fract_y
 _atom_site_fract_z
 _atom_site_occupancy
  Sm  Sm0  1  0.214795  0.733907  0.929930  1
  Sm  Sm1  1  0.266093  0.785205  0.570070  1
  Sm  Sm2  1  0.785205  0.266093  0.070070  1
  Sm  Sm3  1  0.733907  0.214795  0.429930  1
  Hg  Hg4  1  0.500000  0.000000  0.000000  1
  Hg  Hg5  1  0.000000  0.500000  0.500000  1
  Hg  Hg6  1  0.254936  0.234124  0.753081  1
  Hg  Hg7  1  0.765876  0.745064  0.746919  1
  Hg  Hg8  1  0.745064  0.765876  0.246919  1
  Hg  Hg9  1  0.234124  0.254936  0.253081  1
  Te  Te10  1  0.587469  0.084825  0.801523  1
  Te  Te11  1  0.915175  0.412531  0.698477  1
  Te  Te12  1  0.412531  0.915175  0.198477  1
  Te  Te13  1  0.084825  0.587469  0.301523  1
  Cl  Cl14  1  0.449666  0.366936  0.032527  1
  Cl  Cl15  1  0.633064  0.550334  0.467473  1
  Cl  Cl16  1  0.550334  0.633064  0.967473  1
  Cl  Cl17  1  0.366936  0.449666  0.532527  1
  Cl  Cl18  1  0.177519  0.641155  0.763336  1
  Cl  Cl19  1  0.358845  0.822481  0.736664  1
  Cl  Cl20  1  0.822481  0.358845  0.236664  1
  Cl  Cl21  1  0.641155  0.177519  0.263336  1
  Cl  Cl22  1  0.951983  0.714671  0.020965  1
  Cl  Cl23  1  0.285329  0.048017  0.479035  1
  Cl  Cl24  1  0.048017  0.285329  0.979035  1
  Cl  Cl25  1  0.714671  0.951983  0.520965  1
  Cl  Cl26  1  0.106594  0.889450  0.111147  1
  Cl  Cl27  1  0.110550  0.893406  0.388853  1
  Cl  Cl28  1  0.893406  0.110550  0.888853  1
  Cl  Cl29  1  0.889450  0.106594  0.611147  1
