# generated using pymatgen
data_Ca4Er2SbRuO12
_symmetry_space_group_name_H-M   'P 1'
_cell_length_a   5.80685058
_cell_length_b   5.60679487
_cell_length_c   9.79224629
_cell_angle_alpha   55.44657806
_cell_angle_beta   89.56057669
_cell_angle_gamma   89.97886070
_symmetry_Int_Tables_number   1
_chemical_formula_structural   Ca4Er2SbRuO12
_chemical_formula_sum   'Ca4 Er2 Sb1 Ru1 O12'
_cell_volume   262.56385243
_cell_formula_units_Z   1
loop_
 _symmetry_equiv_pos_site_id
 _symmetry_equiv_pos_as_xyz
  1  'x, y, z'
loop_
 _atom_site_type_symbol
 _atom_site_label
 _atom_site_symmetry_multiplicity
 _atom_site_fract_x
 _atom_site_fract_y
 _atom_site_fract_z
 _atom_site_occupancy
  Ca  Ca0  1  0.550570  0.740055  0.744100  1
  Ca  Ca1  1  0.056745  0.269392  0.744868  1
  Ca  Ca2  1  0.943255  0.730608  0.255132  1
  Ca  Ca3  1  0.449430  0.259945  0.255900  1
  Er  Er4  1  0.000000  0.000000  0.500000  1
  Er  Er5  1  0.500000  0.000000  0.000000  1
  Sb  Sb6  1  0.000000  0.500000  0.000000  1
  Ru  Ru7  1  0.500000  0.500000  0.500000  1
  O  O8  1  0.541829  0.839935  0.266232  1
  O  O9  1  0.043100  0.153762  0.235987  1
  O  O10  1  0.458171  0.160065  0.733768  1
  O  O11  1  0.956900  0.846238  0.764013  1
  O  O12  1  0.783997  0.625345  0.556753  1
  O  O13  1  0.287966  0.381590  0.936495  1
  O  O14  1  0.216003  0.374655  0.443247  1
  O  O15  1  0.712034  0.618410  0.063505  1
  O  O16  1  0.187323  0.732080  0.057136  1
  O  O17  1  0.688868  0.266233  0.447815  1
  O  O18  1  0.812677  0.267920  0.942864  1
  O  O19  1  0.311132  0.733767  0.552185  1
