# generated using pymatgen
data_Rb2Cd(AuS)4
_symmetry_space_group_name_H-M   'P 1'
_cell_length_a   10.07482068
_cell_length_b   10.07482070
_cell_length_c   10.07482074
_cell_angle_alpha   138.37674267
_cell_angle_beta   111.94654165
_cell_angle_gamma   83.03460523
_symmetry_Int_Tables_number   1
_chemical_formula_structural   Rb2Cd(AuS)4
_chemical_formula_sum   'Rb4 Cd2 Au8 S8'
_cell_volume   608.92677806
_cell_formula_units_Z   2
loop_
 _symmetry_equiv_pos_site_id
 _symmetry_equiv_pos_as_xyz
  1  'x, y, z'
loop_
 _atom_site_type_symbol
 _atom_site_label
 _atom_site_symmetry_multiplicity
 _atom_site_fract_x
 _atom_site_fract_y
 _atom_site_fract_z
 _atom_site_occupancy
  Rb  Rb0  1  0.153138  0.163978  0.317117  1
  Rb  Rb1  1  0.346862  0.663978  0.010839  1
  Rb  Rb2  1  0.653138  0.336022  0.989161  1
  Rb  Rb3  1  0.846862  0.836022  0.682883  1
  Cd  Cd4  1  0.750000  0.750000  0.000000  1
  Cd  Cd5  1  0.250000  0.250000  0.000000  1
  Au  Au6  1  0.144761  0.644761  0.500000  1
  Au  Au7  1  0.855239  0.355239  0.500000  1
  Au  Au8  1  0.500000  0.000000  0.000000  1
  Au  Au9  1  0.644761  0.144761  0.500000  1
  Au  Au10  1  0.355239  0.855239  0.500000  1
  Au  Au11  1  0.000000  0.500000  0.000000  1
  Au  Au12  1  0.000000  0.000000  0.500000  1
  Au  Au13  1  0.500000  0.500000  0.500000  1
  S  S14  1  0.027563  0.358819  0.112678  1
  S  S15  1  0.746142  0.858819  0.331256  1
  S  S16  1  0.753858  0.085115  0.112678  1
  S  S17  1  0.972437  0.641181  0.887322  1
  S  S18  1  0.253858  0.141181  0.668744  1
  S  S19  1  0.527563  0.414885  0.668744  1
  S  S20  1  0.472437  0.585115  0.331256  1
  S  S21  1  0.246142  0.914885  0.887322  1
