# generated using pymatgen
data_Tb9YSi6C
_symmetry_space_group_name_H-M   'P 1'
_cell_length_a   8.51206603
_cell_length_b   8.51128799
_cell_length_c   6.41912902
_cell_angle_alpha   89.99549763
_cell_angle_beta   90.00901065
_cell_angle_gamma   120.00302396
_symmetry_Int_Tables_number   1
_chemical_formula_structural   Tb9YSi6C
_chemical_formula_sum   'Tb9 Y1 Si6 C1'
_cell_volume   402.73907279
_cell_formula_units_Z   1
loop_
 _symmetry_equiv_pos_site_id
 _symmetry_equiv_pos_as_xyz
  1  'x, y, z'
loop_
 _atom_site_type_symbol
 _atom_site_label
 _atom_site_symmetry_multiplicity
 _atom_site_fract_x
 _atom_site_fract_y
 _atom_site_fract_z
 _atom_site_occupancy
  Tb  Tb0  1  0.333318  0.666686  0.500019  1
  Tb  Tb1  1  0.666633  0.333314  0.500019  1
  Tb  Tb2  1  0.666634  0.333321  0.999988  1
  Tb  Tb3  1  0.333312  0.666679  0.999988  1
  Tb  Tb4  1  0.000018  0.764175  0.270899  1
  Tb  Tb5  1  0.235843  0.235825  0.270899  1
  Tb  Tb6  1  0.764181  0.000000  0.270954  1
  Tb  Tb7  1  0.000025  0.235828  0.729102  1
  Tb  Tb8  1  0.764197  0.764172  0.729102  1
  Y  Y9  1  0.235838  0.000000  0.728978  1
  Si  Si10  1  0.000016  0.398796  0.253305  1
  Si  Si11  1  0.601221  0.601204  0.253305  1
  Si  Si12  1  0.398826  0.000000  0.253300  1
  Si  Si13  1  0.000078  0.601338  0.746693  1
  Si  Si14  1  0.398740  0.398662  0.746693  1
  Si  Si15  1  0.601138  0.000000  0.746692  1
  C  C16  1  0.999981  0.000000  0.500066  1
