# generated using pymatgen
data_Dy5HoAl24Os5Pd2Pt
_symmetry_space_group_name_H-M   'P 1'
_cell_length_a   8.81646186
_cell_length_b   8.83861942
_cell_length_c   9.55604900
_cell_angle_alpha   90.14450012
_cell_angle_beta   89.70753002
_cell_angle_gamma   119.51022386
_symmetry_Int_Tables_number   1
_chemical_formula_structural   Dy5HoAl24Os5Pd2Pt
_chemical_formula_sum   'Dy5 Ho1 Al24 Os5 Pd2 Pt1'
_cell_volume   648.04385825
_cell_formula_units_Z   1
loop_
 _symmetry_equiv_pos_site_id
 _symmetry_equiv_pos_as_xyz
  1  'x, y, z'
loop_
 _atom_site_type_symbol
 _atom_site_label
 _atom_site_symmetry_multiplicity
 _atom_site_fract_x
 _atom_site_fract_y
 _atom_site_fract_z
 _atom_site_occupancy
  Dy  Dy0  1  0.187667  0.382671  0.251148  1
  Dy  Dy1  1  0.812453  0.617314  0.748939  1
  Dy  Dy2  1  0.614742  0.814408  0.252784  1
  Dy  Dy3  1  0.385417  0.185520  0.747269  1
  Dy  Dy4  1  0.194442  0.809843  0.251906  1
  Ho  Ho5  1  0.804840  0.190636  0.747869  1
  Al  Al6  1  0.335004  0.671295  0.029771  1
  Al  Al7  1  0.665204  0.328770  0.969883  1
  Al  Al8  1  0.669072  0.331304  0.527964  1
  Al  Al9  1  0.330940  0.668661  0.472275  1
  Al  Al10  1  0.158197  0.325656  0.574585  1
  Al  Al11  1  0.841572  0.674113  0.425715  1
  Al  Al12  1  0.673200  0.840444  0.575454  1
  Al  Al13  1  0.836673  0.676281  0.078846  1
  Al  Al14  1  0.326956  0.159677  0.424799  1
  Al  Al15  1  0.163109  0.323521  0.920931  1
  Al  Al16  1  0.163860  0.834946  0.576099  1
  Al  Al17  1  0.325643  0.158705  0.076636  1
  Al  Al18  1  0.836150  0.164990  0.424253  1
  Al  Al19  1  0.674589  0.841483  0.923110  1
  Al  Al20  1  0.831334  0.159214  0.077840  1
  Al  Al21  1  0.168794  0.840819  0.921807  1
  Al  Al22  1  0.560908  0.125042  0.249992  1
  Al  Al23  1  0.439380  0.875015  0.750006  1
  Al  Al24  1  0.874348  0.437903  0.252599  1
  Al  Al25  1  0.125504  0.561740  0.747549  1
  Al  Al26  1  0.562233  0.436938  0.249492  1
  Al  Al27  1  0.437790  0.562971  0.750531  1
  Al  Al28  1  0.998398  0.003176  0.250342  1
  Al  Al29  1  0.001181  0.997279  0.749680  1
  Os  Os30  1  0.500141  0.000071  0.999810  1
  Os  Os31  1  0.500160  0.000041  0.500185  1
  Os  Os32  1  0.999906  0.499822  0.500177  1
  Os  Os33  1  0.000084  0.999957  0.999882  1
  Os  Os34  1  0.000043  0.999930  0.499967  1
  Pd  Pd35  1  0.000031  0.499929  0.999913  1
  Pd  Pd36  1  0.500018  0.499966  0.000007  1
  Pt  Pt37  1  0.500016  0.499948  0.499988  1
