# generated using pymatgen
data_La4Th4Al8Ru5Rh3
_symmetry_space_group_name_H-M   'P 1'
_cell_length_a   4.22196100
_cell_length_b   7.20193216
_cell_length_c   16.36286882
_cell_angle_alpha   90.52855837
_cell_angle_beta   90.00000000
_cell_angle_gamma   90.00000000
_symmetry_Int_Tables_number   1
_chemical_formula_structural   La4Th4Al8Ru5Rh3
_chemical_formula_sum   'La4 Th4 Al8 Ru5 Rh3'
_cell_volume   497.51274669
_cell_formula_units_Z   1
loop_
 _symmetry_equiv_pos_site_id
 _symmetry_equiv_pos_as_xyz
  1  'x, y, z'
loop_
 _atom_site_type_symbol
 _atom_site_label
 _atom_site_symmetry_multiplicity
 _atom_site_fract_x
 _atom_site_fract_y
 _atom_site_fract_z
 _atom_site_occupancy
  La  La0  1  0.250000  0.655108  0.562847  1
  La  La1  1  0.750000  0.347533  0.438603  1
  La  La2  1  0.750000  0.839761  0.060019  1
  La  La3  1  0.250000  0.154853  0.938375  1
  Th  Th4  1  0.250000  0.521753  0.782174  1
  Th  Th5  1  0.750000  0.479419  0.220584  1
  Th  Th6  1  0.750000  0.980185  0.279166  1
  Th  Th7  1  0.250000  0.020167  0.720697  1
  Al  Al8  1  0.250000  0.652709  0.350260  1
  Al  Al9  1  0.750000  0.349407  0.650551  1
  Al  Al10  1  0.750000  0.847263  0.849743  1
  Al  Al11  1  0.250000  0.151650  0.149278  1
  Al  Al12  1  0.250000  0.505306  0.061774  1
  Al  Al13  1  0.750000  0.493203  0.937647  1
  Al  Al14  1  0.750000  0.994873  0.561025  1
  Al  Al15  1  0.250000  0.005834  0.438736  1
  Ru  Ru16  1  0.250000  0.761652  0.189755  1
  Ru  Ru17  1  0.750000  0.237831  0.810452  1
  Ru  Ru18  1  0.750000  0.744805  0.686853  1
  Ru  Ru19  1  0.250000  0.256476  0.311904  1
  Ru  Ru20  1  0.250000  0.718162  0.926964  1
  Rh  Rh21  1  0.750000  0.282316  0.072605  1
  Rh  Rh22  1  0.750000  0.781683  0.426747  1
  Rh  Rh23  1  0.250000  0.218049  0.573241  1
