# generated using pymatgen
data_FeB2F8
_symmetry_space_group_name_H-M   'P 1'
_cell_length_a   5.09277197
_cell_length_b   4.97249552
_cell_length_c   6.24635406
_cell_angle_alpha   91.69153217
_cell_angle_beta   90.61827682
_cell_angle_gamma   114.66038939
_symmetry_Int_Tables_number   1
_chemical_formula_structural   FeB2F8
_chemical_formula_sum   'Fe1 B2 F8'
_cell_volume   143.64555761
_cell_formula_units_Z   1
loop_
 _symmetry_equiv_pos_site_id
 _symmetry_equiv_pos_as_xyz
  1  'x, y, z'
loop_
 _atom_site_type_symbol
 _atom_site_label
 _atom_site_symmetry_multiplicity
 _atom_site_fract_x
 _atom_site_fract_y
 _atom_site_fract_z
 _atom_site_occupancy
  Fe  Fe0  1  0.283740  0.709407  0.212252  1
  B  B1  1  0.630025  0.340106  0.958717  1
  B  B2  1  0.938208  0.078492  0.466227  1
  F  F3  1  0.518144  0.464616  0.129792  1
  F  F4  1  0.051171  0.955929  0.294644  1
  F  F5  1  0.575895  0.416654  0.763151  1
  F  F6  1  0.066309  0.393857  0.443809  1
  F  F7  1  0.632456  0.973307  0.420518  1
  F  F8  1  0.992580  0.001040  0.661402  1
  F  F9  1  0.935745  0.444053  0.004324  1
  F  F10  1  0.500793  0.024829  0.981845  1
