# generated using pymatgen
data_Tm4NiB16Ru3
_symmetry_space_group_name_H-M   'P 1'
_cell_length_a   3.51282400
_cell_length_b   5.91298448
_cell_length_c   11.44100994
_cell_angle_alpha   89.95374051
_cell_angle_beta   90.00000000
_cell_angle_gamma   90.00000000
_symmetry_Int_Tables_number   1
_chemical_formula_structural   Tm4NiB16Ru3
_chemical_formula_sum   'Tm4 Ni1 B16 Ru3'
_cell_volume   237.64427239
_cell_formula_units_Z   1
loop_
 _symmetry_equiv_pos_site_id
 _symmetry_equiv_pos_as_xyz
  1  'x, y, z'
loop_
 _atom_site_type_symbol
 _atom_site_label
 _atom_site_symmetry_multiplicity
 _atom_site_fract_x
 _atom_site_fract_y
 _atom_site_fract_z
 _atom_site_occupancy
  Tm  Tm0  1  0.000000  0.628526  0.352139  1
  Tm  Tm1  1  0.000000  0.371564  0.646787  1
  Tm  Tm2  1  0.000000  0.130600  0.151602  1
  Tm  Tm3  1  0.000000  0.870654  0.848685  1
  Ni  Ni4  1  0.000000  0.855095  0.597752  1
  B  B5  1  0.500000  0.789160  0.186993  1
  B  B6  1  0.500000  0.209082  0.812463  1
  B  B7  1  0.500000  0.289139  0.314898  1
  B  B8  1  0.500000  0.714040  0.684260  1
  B  B9  1  0.500000  0.864868  0.029531  1
  B  B10  1  0.500000  0.135212  0.969510  1
  B  B11  1  0.500000  0.365642  0.469951  1
  B  B12  1  0.500000  0.640277  0.531363  1
  B  B13  1  0.500000  0.888500  0.451448  1
  B  B14  1  0.500000  0.113705  0.546177  1
  B  B15  1  0.500000  0.387094  0.046846  1
  B  B16  1  0.500000  0.613178  0.952077  1
  B  B17  1  0.500000  0.977749  0.306929  1
  B  B18  1  0.500000  0.020645  0.691277  1
  B  B19  1  0.500000  0.474383  0.192731  1
  B  B20  1  0.500000  0.527097  0.806039  1
  Ru  Ru21  1  0.000000  0.641968  0.092395  1
  Ru  Ru22  1  0.000000  0.359172  0.906502  1
  Ru  Ru23  1  0.000000  0.132648  0.411644  1
