# generated using pymatgen
data_PrSmTm4(RuO7)2
_symmetry_space_group_name_H-M   'P 1'
_cell_length_a   6.38237939
_cell_length_b   6.38238087
_cell_length_c   7.44880396
_cell_angle_alpha   90.03335834
_cell_angle_beta   90.03336166
_cell_angle_gamma   109.78050597
_symmetry_Int_Tables_number   1
_chemical_formula_structural   PrSmTm4(RuO7)2
_chemical_formula_sum   'Pr1 Sm1 Tm4 Ru2 O14'
_cell_volume   285.52189496
_cell_formula_units_Z   1
loop_
 _symmetry_equiv_pos_site_id
 _symmetry_equiv_pos_as_xyz
  1  'x, y, z'
loop_
 _atom_site_type_symbol
 _atom_site_label
 _atom_site_symmetry_multiplicity
 _atom_site_fract_x
 _atom_site_fract_y
 _atom_site_fract_z
 _atom_site_occupancy
  Pr  Pr0  1  0.000000  0.000000  0.500000  1
  Sm  Sm1  1  0.000000  0.000000  0.000000  1
  Tm  Tm2  1  0.483847  0.934542  0.751540  1
  Tm  Tm3  1  0.516153  0.065458  0.248460  1
  Tm  Tm4  1  0.934542  0.483847  0.751540  1
  Tm  Tm5  1  0.065458  0.516153  0.248460  1
  Ru  Ru6  1  0.500000  0.500000  0.500000  1
  Ru  Ru7  1  0.500000  0.500000  0.000000  1
  O  O8  1  0.592247  0.592247  0.749836  1
  O  O9  1  0.407753  0.407753  0.250164  1
  O  O10  1  0.836640  0.120291  0.754910  1
  O  O11  1  0.163360  0.879709  0.245090  1
  O  O12  1  0.120291  0.836640  0.754910  1
  O  O13  1  0.879709  0.163360  0.245090  1
  O  O14  1  0.438823  0.179131  0.963336  1
  O  O15  1  0.558674  0.820896  0.463169  1
  O  O16  1  0.179131  0.438823  0.963336  1
  O  O17  1  0.820896  0.558674  0.463169  1
  O  O18  1  0.441326  0.179104  0.536831  1
  O  O19  1  0.561177  0.820869  0.036664  1
  O  O20  1  0.820869  0.561177  0.036664  1
  O  O21  1  0.179104  0.441326  0.536831  1
