# generated using pymatgen
data_Mg4TaZn3Rh8
_symmetry_space_group_name_H-M   'P 1'
_cell_length_a   6.12730800
_cell_length_b   6.10741401
_cell_length_c   6.23749900
_cell_angle_alpha   89.99916506
_cell_angle_beta   90.00059846
_cell_angle_gamma   90.00303018
_symmetry_Int_Tables_number   1
_chemical_formula_structural   Mg4TaZn3Rh8
_chemical_formula_sum   'Mg4 Ta1 Zn3 Rh8'
_cell_volume   233.41972913
_cell_formula_units_Z   1
loop_
 _symmetry_equiv_pos_site_id
 _symmetry_equiv_pos_as_xyz
  1  'x, y, z'
loop_
 _atom_site_type_symbol
 _atom_site_label
 _atom_site_symmetry_multiplicity
 _atom_site_fract_x
 _atom_site_fract_y
 _atom_site_fract_z
 _atom_site_occupancy
  Mg  Mg0  1  0.250078  0.249976  0.999907  1
  Mg  Mg1  1  0.749945  0.750045  0.999872  1
  Mg  Mg2  1  0.750029  0.750005  0.500106  1
  Mg  Mg3  1  0.250033  0.249989  0.500076  1
  Ta  Ta4  1  0.249898  0.750066  0.499799  1
  Zn  Zn5  1  0.749961  0.250008  0.999831  1
  Zn  Zn6  1  0.250063  0.750040  0.999882  1
  Zn  Zn7  1  0.749962  0.250001  0.500199  1
  Rh  Rh8  1  0.499810  0.999815  0.252128  1
  Rh  Rh9  1  0.000192  0.999742  0.252116  1
  Rh  Rh10  1  0.499795  0.500141  0.252078  1
  Rh  Rh11  1  0.000232  0.500214  0.252081  1
  Rh  Rh12  1  0.499862  0.999818  0.747954  1
  Rh  Rh13  1  0.000136  0.999740  0.747974  1
  Rh  Rh14  1  0.499817  0.500153  0.748002  1
  Rh  Rh15  1  0.000187  0.500247  0.747992  1
