# generated using pymatgen
data_Rb3(GaAu)4
_symmetry_space_group_name_H-M   'P 1'
_cell_length_a   7.12085873
_cell_length_b   7.12085800
_cell_length_c   12.60105300
_cell_angle_alpha   90.00000000
_cell_angle_beta   90.00000000
_cell_angle_gamma   104.82814011
_symmetry_Int_Tables_number   1
_chemical_formula_structural   Rb3(GaAu)4
_chemical_formula_sum   'Rb6 Ga8 Au8'
_cell_volume   617.67819366
_cell_formula_units_Z   2
loop_
 _symmetry_equiv_pos_site_id
 _symmetry_equiv_pos_as_xyz
  1  'x, y, z'
loop_
 _atom_site_type_symbol
 _atom_site_label
 _atom_site_symmetry_multiplicity
 _atom_site_fract_x
 _atom_site_fract_y
 _atom_site_fract_z
 _atom_site_occupancy
  Rb  Rb0  1  0.212488  0.787512  0.500000  1
  Rb  Rb1  1  0.212488  0.787512  0.000000  1
  Rb  Rb2  1  0.787512  0.212488  0.500000  1
  Rb  Rb3  1  0.787512  0.212488  0.000000  1
  Rb  Rb4  1  0.012334  0.012334  0.250000  1
  Rb  Rb5  1  0.987666  0.987666  0.750000  1
  Ga  Ga6  1  0.516050  0.778160  0.250000  1
  Ga  Ga7  1  0.221840  0.483950  0.750000  1
  Ga  Ga8  1  0.483950  0.221840  0.750000  1
  Ga  Ga9  1  0.778160  0.516050  0.250000  1
  Ga  Ga10  1  0.379226  0.379226  0.368603  1
  Ga  Ga11  1  0.620774  0.620774  0.631397  1
  Ga  Ga12  1  0.379226  0.379226  0.131397  1
  Ga  Ga13  1  0.620774  0.620774  0.868603  1
  Au  Au14  1  0.531974  0.147264  0.250000  1
  Au  Au15  1  0.852736  0.468026  0.750000  1
  Au  Au16  1  0.468026  0.852736  0.750000  1
  Au  Au17  1  0.147264  0.531974  0.250000  1
  Au  Au18  1  0.328636  0.328636  0.928398  1
  Au  Au19  1  0.671364  0.671364  0.071602  1
  Au  Au20  1  0.328636  0.328636  0.571602  1
  Au  Au21  1  0.671364  0.671364  0.428398  1
