# generated using pymatgen
data_Zr10CuSi(Bi2Pb)2
_symmetry_space_group_name_H-M   'P 1'
_cell_length_a   8.83194229
_cell_length_b   8.83194375
_cell_length_c   5.95432987
_cell_angle_alpha   90.04580656
_cell_angle_beta   90.04581149
_cell_angle_gamma   119.89654819
_symmetry_Int_Tables_number   1
_chemical_formula_structural   Zr10CuSi(Bi2Pb)2
_chemical_formula_sum   'Zr10 Cu1 Si1 Bi4 Pb2'
_cell_volume   402.64960027
_cell_formula_units_Z   1
loop_
 _symmetry_equiv_pos_site_id
 _symmetry_equiv_pos_as_xyz
  1  'x, y, z'
loop_
 _atom_site_type_symbol
 _atom_site_label
 _atom_site_symmetry_multiplicity
 _atom_site_fract_x
 _atom_site_fract_y
 _atom_site_fract_z
 _atom_site_occupancy
  Zr  Zr0  1  0.667201  0.333257  0.501572  1
  Zr  Zr1  1  0.333257  0.667201  0.501572  1
  Zr  Zr2  1  0.334101  0.667236  0.998856  1
  Zr  Zr3  1  0.667236  0.334101  0.998856  1
  Zr  Zr4  1  0.743530  0.743530  0.257708  1
  Zr  Zr5  1  0.254540  0.999939  0.256103  1
  Zr  Zr6  1  0.999939  0.254540  0.256103  1
  Zr  Zr7  1  0.257909  0.257909  0.743661  1
  Zr  Zr8  1  0.741734  0.000755  0.743098  1
  Zr  Zr9  1  0.000755  0.741734  0.743098  1
  Cu  Cu10  1  0.000594  0.000594  0.995258  1
  Si  Si11  1  0.999565  0.999565  0.503961  1
  Bi  Bi12  1  0.390668  0.390668  0.247759  1
  Bi  Bi13  1  0.608048  0.001116  0.246615  1
  Bi  Bi14  1  0.001116  0.608048  0.246615  1
  Bi  Bi15  1  0.610424  0.610424  0.753406  1
  Pb  Pb16  1  0.389058  0.000322  0.752878  1
  Pb  Pb17  1  0.000322  0.389058  0.752878  1
