# generated using pymatgen
data_Ce5MnB6Os
_symmetry_space_group_name_H-M   'P 1'
_cell_length_a   5.41573114
_cell_length_b   5.41573300
_cell_length_c   8.32147247
_cell_angle_alpha   71.00594862
_cell_angle_beta   71.00595684
_cell_angle_gamma   60.00396990
_symmetry_Int_Tables_number   1
_chemical_formula_structural   Ce5MnB6Os
_chemical_formula_sum   'Ce5 Mn1 B6 Os1'
_cell_volume   195.88301300
_cell_formula_units_Z   1
loop_
 _symmetry_equiv_pos_site_id
 _symmetry_equiv_pos_as_xyz
  1  'x, y, z'
loop_
 _atom_site_type_symbol
 _atom_site_label
 _atom_site_symmetry_multiplicity
 _atom_site_fract_x
 _atom_site_fract_y
 _atom_site_fract_z
 _atom_site_occupancy
  Ce  Ce0  1  0.011460  0.011460  0.965711  1
  Ce  Ce1  1  0.744970  0.744970  0.764862  1
  Ce  Ce2  1  0.255454  0.255454  0.233656  1
  Ce  Ce3  1  0.587910  0.587910  0.236321  1
  Ce  Ce4  1  0.411479  0.411479  0.765484  1
  Mn  Mn5  1  0.109562  0.109562  0.671322  1
  B  B6  1  0.494745  0.168941  0.505657  1
  B  B7  1  0.830682  0.494731  0.505657  1
  B  B8  1  0.168943  0.830652  0.505677  1
  B  B9  1  0.168941  0.494745  0.505657  1
  B  B10  1  0.830652  0.168943  0.505677  1
  B  B11  1  0.494731  0.830682  0.505657  1
  Os  Os12  1  0.890471  0.890471  0.328662  1
