# generated using pymatgen
data_Pr4Nd11Er5Sn16
_symmetry_space_group_name_H-M   'P 1'
_cell_length_a   8.20829884
_cell_length_b   8.37259123
_cell_length_c   15.89739767
_cell_angle_alpha   90.07125306
_cell_angle_beta   89.67509139
_cell_angle_gamma   90.10496945
_symmetry_Int_Tables_number   1
_chemical_formula_structural   Pr4Nd11Er5Sn16
_chemical_formula_sum   'Pr4 Nd11 Er5 Sn16'
_cell_volume   1092.52414501
_cell_formula_units_Z   1
loop_
 _symmetry_equiv_pos_site_id
 _symmetry_equiv_pos_as_xyz
  1  'x, y, z'
loop_
 _atom_site_type_symbol
 _atom_site_label
 _atom_site_symmetry_multiplicity
 _atom_site_fract_x
 _atom_site_fract_y
 _atom_site_fract_z
 _atom_site_occupancy
  Pr  Pr0  1  0.485266  0.681561  0.095193  1
  Pr  Pr1  1  0.982624  0.818445  0.401263  1
  Pr  Pr2  1  0.517941  0.318940  0.600221  1
  Pr  Pr3  1  0.014340  0.179858  0.902593  1
  Nd  Nd4  1  0.863177  0.661405  0.622836  1
  Nd  Nd5  1  0.635965  0.160763  0.378942  1
  Nd  Nd6  1  0.140479  0.336902  0.118585  1
  Nd  Nd7  1  0.637915  0.163338  0.122016  1
  Nd  Nd8  1  0.136000  0.337988  0.379082  1
  Nd  Nd9  1  0.363690  0.838770  0.621926  1
  Nd  Nd10  1  0.863797  0.662171  0.879418  1
  Nd  Nd11  1  0.516043  0.319154  0.902025  1
  Nd  Nd12  1  0.018765  0.180368  0.599705  1
  Nd  Nd13  1  0.482662  0.681076  0.402072  1
  Nd  Nd14  1  0.984441  0.818111  0.097383  1
  Er  Er15  1  0.359176  0.839036  0.874706  1
  Er  Er16  1  0.195461  0.503137  0.751212  1
  Er  Er17  1  0.693137  0.997441  0.750703  1
  Er  Er18  1  0.805970  0.497685  0.250005  1
  Er  Er19  1  0.304505  0.001993  0.249093  1
  Sn  Sn20  1  0.299720  0.031601  0.039358  1
  Sn  Sn21  1  0.794520  0.465457  0.456077  1
  Sn  Sn22  1  0.707091  0.965474  0.545342  1
  Sn  Sn23  1  0.209165  0.542566  0.954318  1
  Sn  Sn24  1  0.690778  0.961724  0.955077  1
  Sn  Sn25  1  0.205613  0.533939  0.545796  1
  Sn  Sn26  1  0.293316  0.033772  0.455060  1
  Sn  Sn27  1  0.797901  0.464514  0.044459  1
  Sn  Sn28  1  0.556522  0.620944  0.752308  1
  Sn  Sn29  1  0.060234  0.883943  0.752261  1
  Sn  Sn30  1  0.440371  0.384259  0.250192  1
  Sn  Sn31  1  0.941391  0.117556  0.248745  1
  Sn  Sn32  1  0.322602  0.146360  0.752484  1
  Sn  Sn33  1  0.822239  0.351641  0.751499  1
  Sn  Sn34  1  0.678422  0.851616  0.249334  1
  Sn  Sn35  1  0.178761  0.646495  0.248707  1
