# generated using pymatgen
data_TbSc7Ti11Si16Ru
_symmetry_space_group_name_H-M   'P 1'
_cell_length_a   6.86304678
_cell_length_b   6.86718237
_cell_length_c   12.57355009
_cell_angle_alpha   89.95200709
_cell_angle_beta   89.98008142
_cell_angle_gamma   89.86149786
_symmetry_Int_Tables_number   1
_chemical_formula_structural   TbSc7Ti11Si16Ru
_chemical_formula_sum   'Tb1 Sc7 Ti11 Si16 Ru1'
_cell_volume   592.58684904
_cell_formula_units_Z   1
loop_
 _symmetry_equiv_pos_site_id
 _symmetry_equiv_pos_as_xyz
  1  'x, y, z'
loop_
 _atom_site_type_symbol
 _atom_site_label
 _atom_site_symmetry_multiplicity
 _atom_site_fract_x
 _atom_site_fract_y
 _atom_site_fract_z
 _atom_site_occupancy
  Tb  Tb0  1  0.995817  0.659330  0.031326  1
  Sc  Sc1  1  0.341558  0.002629  0.467900  1
  Sc  Sc2  1  0.497516  0.842214  0.717161  1
  Sc  Sc3  1  0.499526  0.158058  0.217359  1
  Sc  Sc4  1  0.841986  0.497409  0.282799  1
  Sc  Sc5  1  0.158489  0.499275  0.783983  1
  Sc  Sc6  1  0.656814  0.000121  0.967459  1
  Sc  Sc7  1  0.002692  0.341598  0.532366  1
  Ti  Ti8  1  0.174506  0.829159  0.249319  1
  Ti  Ti9  1  0.827278  0.173526  0.750386  1
  Ti  Ti10  1  0.673240  0.673413  0.499937  1
  Ti  Ti11  1  0.150436  0.999890  0.872189  1
  Ti  Ti12  1  0.494088  0.653904  0.124735  1
  Ti  Ti13  1  0.505353  0.351939  0.627287  1
  Ti  Ti14  1  0.653218  0.491611  0.874120  1
  Ti  Ti15  1  0.352543  0.505363  0.373855  1
  Ti  Ti16  1  0.851637  0.996349  0.376053  1
  Ti  Ti17  1  0.001008  0.149898  0.126913  1
  Ti  Ti18  1  0.995504  0.851944  0.624404  1
  Si  Si19  1  0.204321  0.138092  0.680243  1
  Si  Si20  1  0.372495  0.705087  0.927653  1
  Si  Si21  1  0.636662  0.295064  0.430795  1
  Si  Si22  1  0.697007  0.362069  0.069819  1
  Si  Si23  1  0.294890  0.636756  0.569761  1
  Si  Si24  1  0.790681  0.868037  0.184169  1
  Si  Si25  1  0.138028  0.203893  0.320226  1
  Si  Si26  1  0.861010  0.796476  0.816615  1
  Si  Si27  1  0.296571  0.960866  0.064708  1
  Si  Si28  1  0.544563  0.798772  0.316925  1
  Si  Si29  1  0.450909  0.203467  0.817533  1
  Si  Si30  1  0.798883  0.546017  0.683353  1
  Si  Si31  1  0.207999  0.447638  0.184499  1
  Si  Si32  1  0.701751  0.047317  0.565708  1
  Si  Si33  1  0.954293  0.285923  0.934019  1
  Si  Si34  1  0.047246  0.702143  0.434327  1
  Ru  Ru35  1  0.329484  0.324751  0.000096  1
