# generated using pymatgen
data_Li(AcAs)2
_symmetry_space_group_name_H-M   'P 1'
_cell_length_a   4.49420500
_cell_length_b   4.49420514
_cell_length_c   16.00902400
_cell_angle_alpha   90.00000000
_cell_angle_beta   90.00000000
_cell_angle_gamma   120.00002102
_symmetry_Int_Tables_number   1
_chemical_formula_structural   Li(AcAs)2
_chemical_formula_sum   'Li2 Ac4 As4'
_cell_volume   280.02781161
_cell_formula_units_Z   2
loop_
 _symmetry_equiv_pos_site_id
 _symmetry_equiv_pos_as_xyz
  1  'x, y, z'
loop_
 _atom_site_type_symbol
 _atom_site_label
 _atom_site_symmetry_multiplicity
 _atom_site_fract_x
 _atom_site_fract_y
 _atom_site_fract_z
 _atom_site_occupancy
  Li  Li0  1  0.000000  0.000000  0.250000  1
  Li  Li1  1  0.000000  0.000000  0.750000  1
  Ac  Ac2  1  0.333333  0.666667  0.388486  1
  Ac  Ac3  1  0.666667  0.333333  0.611514  1
  Ac  Ac4  1  0.666667  0.333333  0.888486  1
  Ac  Ac5  1  0.333333  0.666667  0.111514  1
  As  As6  1  0.000000  0.000000  0.500000  1
  As  As7  1  0.000000  0.000000  0.000000  1
  As  As8  1  0.333333  0.666667  0.750000  1
  As  As9  1  0.666667  0.333333  0.250000  1
