# generated using pymatgen
data_Tb4Nd16Sn15Sb
_symmetry_space_group_name_H-M   'P 1'
_cell_length_a   8.28570246
_cell_length_b   8.39754712
_cell_length_c   15.91643273
_cell_angle_alpha   90.04432809
_cell_angle_beta   90.59993087
_cell_angle_gamma   90.23073445
_symmetry_Int_Tables_number   1
_chemical_formula_structural   Tb4Nd16Sn15Sb
_chemical_formula_sum   'Tb4 Nd16 Sn15 Sb1'
_cell_volume   1107.38859717
_cell_formula_units_Z   1
loop_
 _symmetry_equiv_pos_site_id
 _symmetry_equiv_pos_as_xyz
  1  'x, y, z'
loop_
 _atom_site_type_symbol
 _atom_site_label
 _atom_site_symmetry_multiplicity
 _atom_site_fract_x
 _atom_site_fract_y
 _atom_site_fract_z
 _atom_site_occupancy
  Tb  Tb0  1  0.199998  0.502108  0.749613  1
  Tb  Tb1  1  0.699949  0.997633  0.750559  1
  Tb  Tb2  1  0.799721  0.497850  0.250482  1
  Tb  Tb3  1  0.299849  0.001775  0.251463  1
  Nd  Nd4  1  0.369772  0.839147  0.880863  1
  Nd  Nd5  1  0.867187  0.662340  0.621597  1
  Nd  Nd6  1  0.633086  0.161348  0.378826  1
  Nd  Nd7  1  0.130469  0.338832  0.120517  1
  Nd  Nd8  1  0.630998  0.161422  0.119304  1
  Nd  Nd9  1  0.133856  0.337650  0.378228  1
  Nd  Nd10  1  0.366726  0.838869  0.620831  1
  Nd  Nd11  1  0.868964  0.661203  0.879271  1
  Nd  Nd12  1  0.522541  0.321410  0.899840  1
  Nd  Nd13  1  0.018742  0.180377  0.598678  1
  Nd  Nd14  1  0.481820  0.680077  0.401077  1
  Nd  Nd15  1  0.975656  0.820823  0.100154  1
  Nd  Nd16  1  0.478661  0.679480  0.099420  1
  Nd  Nd17  1  0.981029  0.819637  0.401023  1
  Nd  Nd18  1  0.518553  0.319226  0.598874  1
  Nd  Nd19  1  0.021037  0.180591  0.900081  1
  Sn  Sn20  1  0.793350  0.464683  0.456321  1
  Sn  Sn21  1  0.707928  0.964023  0.543457  1
  Sn  Sn22  1  0.210719  0.532923  0.955717  1
  Sn  Sn23  1  0.714655  0.966640  0.955512  1
  Sn  Sn24  1  0.207042  0.534941  0.543492  1
  Sn  Sn25  1  0.292453  0.035124  0.455918  1
  Sn  Sn26  1  0.790063  0.467087  0.044637  1
  Sn  Sn27  1  0.565146  0.618619  0.750135  1
  Sn  Sn28  1  0.066726  0.882621  0.750855  1
  Sn  Sn29  1  0.435011  0.382517  0.249064  1
  Sn  Sn30  1  0.933661  0.117463  0.248980  1
  Sn  Sn31  1  0.326188  0.145722  0.749866  1
  Sn  Sn32  1  0.826303  0.353681  0.749490  1
  Sn  Sn33  1  0.672856  0.853886  0.249939  1
  Sn  Sn34  1  0.172819  0.646479  0.249751  1
  Sb  Sb35  1  0.286466  0.031794  0.046164  1
