# generated using pymatgen
data_Lu2UGa3Ir2Ru
_symmetry_space_group_name_H-M   'P 1'
_cell_length_a   7.11011642
_cell_length_b   7.07017516
_cell_length_c   3.75375400
_cell_angle_alpha   90.00000000
_cell_angle_beta   90.00000000
_cell_angle_gamma   117.80305117
_symmetry_Int_Tables_number   1
_chemical_formula_structural   Lu2UGa3Ir2Ru
_chemical_formula_sum   'Lu2 U1 Ga3 Ir2 Ru1'
_cell_volume   166.91604782
_cell_formula_units_Z   1
loop_
 _symmetry_equiv_pos_site_id
 _symmetry_equiv_pos_as_xyz
  1  'x, y, z'
loop_
 _atom_site_type_symbol
 _atom_site_label
 _atom_site_symmetry_multiplicity
 _atom_site_fract_x
 _atom_site_fract_y
 _atom_site_fract_z
 _atom_site_occupancy
  Lu  Lu0  1  0.404822  0.999479  0.500000  1
  Lu  Lu1  1  0.006835  0.409908  0.500000  1
  U  U2  1  0.586005  0.576174  0.500000  1
  Ga  Ga3  1  0.744173  0.014009  0.000000  1
  Ga  Ga4  1  0.012372  0.745039  0.000000  1
  Ga  Ga5  1  0.238227  0.235508  0.000000  1
  Ir  Ir6  1  0.359100  0.663638  0.000000  1
  Ir  Ir7  1  0.985991  0.987936  0.500000  1
  Ru  Ru8  1  0.662477  0.368310  0.000000  1
