# generated using pymatgen
data_Nd7Y9MgNi4Ag3
_symmetry_space_group_name_H-M   'P 1'
_cell_length_a   9.64895583
_cell_length_b   9.70430570
_cell_length_c   9.69943745
_cell_angle_alpha   59.92754196
_cell_angle_beta   59.91243653
_cell_angle_gamma   59.87441722
_symmetry_Int_Tables_number   1
_chemical_formula_structural   Nd7Y9MgNi4Ag3
_chemical_formula_sum   'Nd7 Y9 Mg1 Ni4 Ag3'
_cell_volume   640.82162405
_cell_formula_units_Z   1
loop_
 _symmetry_equiv_pos_site_id
 _symmetry_equiv_pos_as_xyz
  1  'x, y, z'
loop_
 _atom_site_type_symbol
 _atom_site_label
 _atom_site_symmetry_multiplicity
 _atom_site_fract_x
 _atom_site_fract_y
 _atom_site_fract_z
 _atom_site_occupancy
  Nd  Nd0  1  0.936660  0.564252  0.933625  1
  Nd  Nd1  1  0.563887  0.567075  0.936169  1
  Nd  Nd2  1  0.934923  0.932272  0.565562  1
  Nd  Nd3  1  0.348182  0.349635  0.348732  1
  Nd  Nd4  1  0.352684  0.350737  0.950559  1
  Nd  Nd5  1  0.351945  0.949828  0.350588  1
  Nd  Nd6  1  0.937173  0.354843  0.355001  1
  Y  Y7  1  0.812276  0.184598  0.189246  1
  Y  Y8  1  0.185048  0.816142  0.814139  1
  Y  Y9  1  0.185055  0.814730  0.186269  1
  Y  Y10  1  0.812103  0.185789  0.812858  1
  Y  Y11  1  0.186654  0.184893  0.814075  1
  Y  Y12  1  0.810870  0.813225  0.186701  1
  Y  Y13  1  0.932795  0.563995  0.563036  1
  Y  Y14  1  0.560872  0.939252  0.935962  1
  Y  Y15  1  0.562162  0.936781  0.564576  1
  Mg  Mg16  1  0.290281  0.568414  0.568717  1
  Ni  Ni17  1  0.142003  0.142264  0.141833  1
  Ni  Ni18  1  0.140293  0.143984  0.575532  1
  Ni  Ni19  1  0.136831  0.575884  0.144767  1
  Ni  Ni20  1  0.574162  0.139997  0.143006  1
  Ag  Ag21  1  0.583805  0.586546  0.582307  1
  Ag  Ag22  1  0.579798  0.588002  0.249237  1
  Ag  Ag23  1  0.579540  0.246868  0.587505  1
