# generated using pymatgen
data_Gd6Mn2NbMoC12
_symmetry_space_group_name_H-M   'P 1'
_cell_length_a   8.32431700
_cell_length_b   8.32431799
_cell_length_c   5.14585400
_cell_angle_alpha   90.00000000
_cell_angle_beta   90.00000000
_cell_angle_gamma   119.99998415
_symmetry_Int_Tables_number   1
_chemical_formula_structural   Gd6Mn2NbMoC12
_chemical_formula_sum   'Gd6 Mn2 Nb1 Mo1 C12'
_cell_volume   308.80578916
_cell_formula_units_Z   1
loop_
 _symmetry_equiv_pos_site_id
 _symmetry_equiv_pos_as_xyz
  1  'x, y, z'
loop_
 _atom_site_type_symbol
 _atom_site_label
 _atom_site_symmetry_multiplicity
 _atom_site_fract_x
 _atom_site_fract_y
 _atom_site_fract_z
 _atom_site_occupancy
  Gd  Gd0  1  0.620466  0.679709  0.750041  1
  Gd  Gd1  1  0.940758  0.620466  0.249959  1
  Gd  Gd2  1  0.679709  0.059242  0.249959  1
  Gd  Gd3  1  0.320291  0.940758  0.750041  1
  Gd  Gd4  1  0.059242  0.379534  0.750041  1
  Gd  Gd5  1  0.379534  0.320291  0.249959  1
  Mn  Mn6  1  0.666667  0.333333  0.749567  1
  Mn  Mn7  1  0.333333  0.666667  0.250433  1
  Nb  Nb8  1  0.000000  0.000000  0.500000  1
  Mo  Mo9  1  0.000000  0.000000  0.000000  1
  C  C10  1  0.961866  0.757813  0.751585  1
  C  C11  1  0.204053  0.961866  0.248415  1
  C  C12  1  0.757813  0.795947  0.248415  1
  C  C13  1  0.242187  0.204053  0.751585  1
  C  C14  1  0.795947  0.038134  0.751585  1
  C  C15  1  0.038134  0.242187  0.248415  1
  C  C16  1  0.860689  0.568245  0.752071  1
  C  C17  1  0.292442  0.860689  0.247929  1
  C  C18  1  0.568245  0.707558  0.247929  1
  C  C19  1  0.431755  0.292442  0.752071  1
  C  C20  1  0.139311  0.431755  0.247929  1
  C  C21  1  0.707558  0.139311  0.752071  1
