# generated using pymatgen
data_Tb2Tm7Lu7(Ga3Co)2
_symmetry_space_group_name_H-M   'P 1'
_cell_length_a   9.83467400
_cell_length_b   9.83467441
_cell_length_c   6.87695600
_cell_angle_alpha   90.00000000
_cell_angle_beta   90.00000000
_cell_angle_gamma   119.99999861
_symmetry_Int_Tables_number   1
_chemical_formula_structural   Tb2Tm7Lu7(Ga3Co)2
_chemical_formula_sum   'Tb2 Tm7 Lu7 Ga6 Co2'
_cell_volume   576.03230306
_cell_formula_units_Z   1
loop_
 _symmetry_equiv_pos_site_id
 _symmetry_equiv_pos_as_xyz
  1  'x, y, z'
loop_
 _atom_site_type_symbol
 _atom_site_label
 _atom_site_symmetry_multiplicity
 _atom_site_fract_x
 _atom_site_fract_y
 _atom_site_fract_z
 _atom_site_occupancy
  Tb  Tb0  1  0.000000  0.000000  0.769080  1
  Tb  Tb1  1  0.000000  0.000000  0.269203  1
  Tm  Tm2  1  0.333333  0.666667  0.672408  1
  Tm  Tm3  1  0.536630  0.073260  0.792712  1
  Tm  Tm4  1  0.926740  0.463370  0.792712  1
  Tm  Tm5  1  0.536630  0.463370  0.792712  1
  Tm  Tm6  1  0.463496  0.926992  0.292520  1
  Tm  Tm7  1  0.073008  0.536504  0.292520  1
  Tm  Tm8  1  0.463496  0.536504  0.292520  1
  Lu  Lu9  1  0.825558  0.651118  0.488495  1
  Lu  Lu10  1  0.348882  0.174442  0.488495  1
  Lu  Lu11  1  0.825558  0.174442  0.488495  1
  Lu  Lu12  1  0.174327  0.348652  0.988776  1
  Lu  Lu13  1  0.651348  0.825673  0.988776  1
  Lu  Lu14  1  0.174327  0.825673  0.988776  1
  Lu  Lu15  1  0.666667  0.333333  0.173143  1
  Ga  Ga16  1  0.835982  0.671966  0.040603  1
  Ga  Ga17  1  0.328034  0.164018  0.040603  1
  Ga  Ga18  1  0.835982  0.164018  0.040603  1
  Ga  Ga19  1  0.163843  0.327686  0.540402  1
  Ga  Ga20  1  0.672314  0.836157  0.540402  1
  Ga  Ga21  1  0.163843  0.836157  0.540402  1
  Co  Co22  1  0.666667  0.333333  0.555867  1
  Co  Co23  1  0.333333  0.666667  0.055842  1
