# generated using pymatgen
data_Nb12Cr2Ga8CuRuN4
_symmetry_space_group_name_H-M   'P 1'
_cell_length_a   8.21079046
_cell_length_b   8.24541454
_cell_length_c   8.24541500
_cell_angle_alpha   60.57130585
_cell_angle_beta   60.47958264
_cell_angle_gamma   60.47958324
_symmetry_Int_Tables_number   1
_chemical_formula_structural   Nb12Cr2Ga8CuRuN4
_chemical_formula_sum   'Nb12 Cr2 Ga8 Cu1 Ru1 N4'
_cell_volume   399.27533026
_cell_formula_units_Z   1
loop_
 _symmetry_equiv_pos_site_id
 _symmetry_equiv_pos_as_xyz
  1  'x, y, z'
loop_
 _atom_site_type_symbol
 _atom_site_label
 _atom_site_symmetry_multiplicity
 _atom_site_fract_x
 _atom_site_fract_y
 _atom_site_fract_z
 _atom_site_occupancy
  Nb  Nb0  1  0.803312  0.803224  0.194602  1
  Nb  Nb1  1  0.198107  0.190340  0.805399  1
  Nb  Nb2  1  0.803312  0.194602  0.803224  1
  Nb  Nb3  1  0.198107  0.805399  0.190340  1
  Nb  Nb4  1  0.193587  0.807024  0.807024  1
  Nb  Nb5  1  0.801501  0.197894  0.197894  1
  Nb  Nb6  1  0.446688  0.446776  0.055398  1
  Nb  Nb7  1  0.051893  0.059660  0.444601  1
  Nb  Nb8  1  0.446688  0.055398  0.446776  1
  Nb  Nb9  1  0.051893  0.444601  0.059660  1
  Nb  Nb10  1  0.056413  0.442976  0.442976  1
  Nb  Nb11  1  0.448499  0.052106  0.052106  1
  Cr  Cr12  1  0.625000  0.125000  0.625000  1
  Cr  Cr13  1  0.625000  0.625000  0.125000  1
  Ga  Ga14  1  0.755191  0.415990  0.415990  1
  Ga  Ga15  1  0.415667  0.758880  0.413220  1
  Ga  Ga16  1  0.415667  0.413220  0.758880  1
  Ga  Ga17  1  0.415717  0.413935  0.413935  1
  Ga  Ga18  1  0.494809  0.834010  0.834010  1
  Ga  Ga19  1  0.834333  0.491120  0.836780  1
  Ga  Ga20  1  0.834333  0.836780  0.491120  1
  Ga  Ga21  1  0.834283  0.836065  0.836065  1
  Cu  Cu22  1  0.625000  0.625000  0.625000  1
  Ru  Ru23  1  0.125000  0.625000  0.625000  1
  N  N24  1  0.625000  0.125000  0.125000  1
  N  N25  1  0.125000  0.625000  0.125000  1
  N  N26  1  0.125000  0.125000  0.625000  1
  N  N27  1  0.125000  0.125000  0.125000  1
