# generated using pymatgen
data_Dy3Er3Al25Os7
_symmetry_space_group_name_H-M   'P 1'
_cell_length_a   8.86919806
_cell_length_b   8.86682305
_cell_length_c   9.55114071
_cell_angle_alpha   90.21853549
_cell_angle_beta   89.75583621
_cell_angle_gamma   120.05585471
_symmetry_Int_Tables_number   1
_chemical_formula_structural   Dy3Er3Al25Os7
_chemical_formula_sum   'Dy3 Er3 Al25 Os7'
_cell_volume   650.11292418
_cell_formula_units_Z   1
loop_
 _symmetry_equiv_pos_site_id
 _symmetry_equiv_pos_as_xyz
  1  'x, y, z'
loop_
 _atom_site_type_symbol
 _atom_site_label
 _atom_site_symmetry_multiplicity
 _atom_site_fract_x
 _atom_site_fract_y
 _atom_site_fract_z
 _atom_site_occupancy
  Dy  Dy0  1  0.192733  0.384761  0.244853  1
  Dy  Dy1  1  0.807145  0.615562  0.755053  1
  Dy  Dy2  1  0.615319  0.807136  0.245083  1
  Er  Er3  1  0.386833  0.193231  0.754625  1
  Er  Er4  1  0.195078  0.804427  0.256607  1
  Er  Er5  1  0.804540  0.195221  0.743136  1
  Al  Al6  1  0.327050  0.673188  0.022824  1
  Al  Al7  1  0.672846  0.327228  0.976294  1
  Al  Al8  1  0.665827  0.334053  0.519524  1
  Al  Al9  1  0.334010  0.665820  0.480833  1
  Al  Al10  1  0.162371  0.325691  0.571200  1
  Al  Al11  1  0.837730  0.673979  0.429180  1
  Al  Al12  1  0.673984  0.837561  0.571231  1
  Al  Al13  1  0.852550  0.677981  0.082662  1
  Al  Al14  1  0.325799  0.162177  0.429418  1
  Al  Al15  1  0.147606  0.321773  0.917120  1
  Al  Al16  1  0.162805  0.837348  0.576407  1
  Al  Al17  1  0.321826  0.147442  0.082119  1
  Al  Al18  1  0.837136  0.162784  0.423841  1
  Al  Al19  1  0.678061  0.852743  0.917209  1
  Al  Al20  1  0.836741  0.163122  0.075807  1
  Al  Al21  1  0.163136  0.837304  0.923705  1
  Al  Al22  1  0.561982  0.120345  0.249583  1
  Al  Al23  1  0.437511  0.879622  0.750222  1
  Al  Al24  1  0.879322  0.437570  0.249781  1
  Al  Al25  1  0.120252  0.562106  0.750305  1
  Al  Al26  1  0.565848  0.433980  0.258824  1
  Al  Al27  1  0.433744  0.565310  0.741668  1
  Al  Al28  1  0.000244  0.999861  0.250954  1
  Al  Al29  1  0.001804  0.001259  0.749324  1
  Al  Al30  1  0.499865  0.500026  0.000205  1
  Os  Os31  1  0.499623  0.000290  0.999484  1
  Os  Os32  1  0.999845  0.499873  0.999943  1
  Os  Os33  1  0.499795  0.000129  0.500318  1
  Os  Os34  1  0.999749  0.499708  0.500184  1
  Os  Os35  1  0.499802  0.499743  0.500306  1
  Os  Os36  1  0.999700  0.999818  0.000045  1
  Os  Os37  1  0.999786  0.999828  0.500120  1
