# generated using pymatgen
data_Y3MgAl2Si2Rh
_symmetry_space_group_name_H-M   'P 1'
_cell_length_a   7.05017000
_cell_length_b   6.95984774
_cell_length_c   4.28125000
_cell_angle_alpha   90.00000000
_cell_angle_beta   90.00000000
_cell_angle_gamma   120.43024241
_symmetry_Int_Tables_number   1
_chemical_formula_structural   Y3MgAl2Si2Rh
_chemical_formula_sum   'Y3 Mg1 Al2 Si2 Rh1'
_cell_volume   181.13456450
_cell_formula_units_Z   1
loop_
 _symmetry_equiv_pos_site_id
 _symmetry_equiv_pos_as_xyz
  1  'x, y, z'
loop_
 _atom_site_type_symbol
 _atom_site_label
 _atom_site_symmetry_multiplicity
 _atom_site_fract_x
 _atom_site_fract_y
 _atom_site_fract_z
 _atom_site_occupancy
  Y  Y0  1  0.415775  0.000000  0.000000  1
  Y  Y1  1  0.997200  0.416993  0.000000  1
  Y  Y2  1  0.580208  0.583007  0.000000  1
  Mg  Mg3  1  0.763705  0.000000  0.500000  1
  Al  Al4  1  0.234622  0.234430  0.500000  1
  Al  Al5  1  0.000191  0.765570  0.500000  1
  Si  Si6  1  0.663851  0.340326  0.500000  1
  Si  Si7  1  0.323524  0.659674  0.500000  1
  Rh  Rh8  1  0.020925  0.000000  0.000000  1
