# generated using pymatgen
data_Ta16AlCr2FeTe16
_symmetry_space_group_name_H-M   'P 1'
_cell_length_a   4.88761500
_cell_length_b   11.06380384
_cell_length_c   19.46462100
_cell_angle_alpha   89.96661662
_cell_angle_beta   90.00000000
_cell_angle_gamma   90.00000000
_symmetry_Int_Tables_number   1
_chemical_formula_structural   Ta16AlCr2FeTe16
_chemical_formula_sum   'Ta16 Al1 Cr2 Fe1 Te16'
_cell_volume   1052.56114510
_cell_formula_units_Z   1
loop_
 _symmetry_equiv_pos_site_id
 _symmetry_equiv_pos_as_xyz
  1  'x, y, z'
loop_
 _atom_site_type_symbol
 _atom_site_label
 _atom_site_symmetry_multiplicity
 _atom_site_fract_x
 _atom_site_fract_y
 _atom_site_fract_z
 _atom_site_occupancy
  Ta  Ta0  1  0.500771  0.596124  0.606587  1
  Ta  Ta1  1  0.500771  0.403876  0.393413  1
  Ta  Ta2  1  0.499262  0.095929  0.893537  1
  Ta  Ta3  1  0.499262  0.904071  0.106463  1
  Ta  Ta4  1  0.999044  0.298795  0.463296  1
  Ta  Ta5  1  0.999044  0.701205  0.536704  1
  Ta  Ta6  1  0.000590  0.799330  0.036809  1
  Ta  Ta7  1  0.000590  0.200670  0.963191  1
  Ta  Ta8  1  0.501290  0.312026  0.554835  1
  Ta  Ta9  1  0.501290  0.687974  0.445165  1
  Ta  Ta10  1  0.499162  0.812409  0.945372  1
  Ta  Ta11  1  0.499162  0.187591  0.054628  1
  Ta  Ta12  1  0.999607  0.435197  0.614107  1
  Ta  Ta13  1  0.999607  0.564803  0.385893  1
  Ta  Ta14  1  0.000635  0.935314  0.886193  1
  Ta  Ta15  1  0.000635  0.064686  0.113807  1
  Al  Al16  1  0.750899  0.500000  0.500000  1
  Cr  Cr17  1  0.250678  0.500000  0.500000  1
  Cr  Cr18  1  0.750825  0.000000  0.000000  1
  Fe  Fe19  1  0.250452  0.000000  0.000000  1
  Te  Te20  1  0.002600  0.664473  0.682418  1
  Te  Te21  1  0.002600  0.335527  0.317582  1
  Te  Te22  1  0.001912  0.164147  0.817882  1
  Te  Te23  1  0.001912  0.835853  0.182118  1
  Te  Te24  1  0.497124  0.389057  0.695285  1
  Te  Te25  1  0.497124  0.610943  0.304715  1
  Te  Te26  1  0.497803  0.889275  0.805220  1
  Te  Te27  1  0.497803  0.110725  0.194780  1
  Te  Te28  1  0.496199  0.156320  0.437082  1
  Te  Te29  1  0.496199  0.843680  0.562918  1
  Te  Te30  1  0.497860  0.657098  0.063013  1
  Te  Te31  1  0.497860  0.342902  0.936987  1
  Te  Te32  1  0.001724  0.320939  0.093294  1
  Te  Te33  1  0.001724  0.679061  0.906706  1
  Te  Te34  1  0.002993  0.821626  0.406276  1
  Te  Te35  1  0.002993  0.178374  0.593724  1
