# generated using pymatgen
data_Ho4ReTc3B16
_symmetry_space_group_name_H-M   'P 1'
_cell_length_a   3.59620400
_cell_length_b   5.96197606
_cell_length_c   11.54705199
_cell_angle_alpha   89.97857563
_cell_angle_beta   90.00000000
_cell_angle_gamma   90.00000000
_symmetry_Int_Tables_number   1
_chemical_formula_structural   Ho4ReTc3B16
_chemical_formula_sum   'Ho4 Re1 Tc3 B16'
_cell_volume   247.57434497
_cell_formula_units_Z   1
loop_
 _symmetry_equiv_pos_site_id
 _symmetry_equiv_pos_as_xyz
  1  'x, y, z'
loop_
 _atom_site_type_symbol
 _atom_site_label
 _atom_site_symmetry_multiplicity
 _atom_site_fract_x
 _atom_site_fract_y
 _atom_site_fract_z
 _atom_site_occupancy
  Ho  Ho0  1  0.000000  0.626796  0.349825  1
  Ho  Ho1  1  0.000000  0.372928  0.650244  1
  Ho  Ho2  1  0.000000  0.127089  0.149472  1
  Ho  Ho3  1  0.000000  0.873060  0.850626  1
  Re  Re4  1  0.000000  0.866122  0.587846  1
  Tc  Tc5  1  0.000000  0.634196  0.087841  1
  Tc  Tc6  1  0.000000  0.366280  0.912042  1
  Tc  Tc7  1  0.000000  0.133404  0.412495  1
  B  B8  1  0.500000  0.787901  0.185106  1
  B  B9  1  0.500000  0.212515  0.814856  1
  B  B10  1  0.500000  0.287651  0.315012  1
  B  B11  1  0.500000  0.712198  0.685301  1
  B  B12  1  0.500000  0.864472  0.031476  1
  B  B13  1  0.500000  0.135795  0.968436  1
  B  B14  1  0.500000  0.364186  0.468758  1
  B  B15  1  0.500000  0.635656  0.531111  1
  B  B16  1  0.500000  0.886284  0.452395  1
  B  B17  1  0.500000  0.113897  0.547261  1
  B  B18  1  0.500000  0.386273  0.047323  1
  B  B19  1  0.500000  0.613746  0.952672  1
  B  B20  1  0.500000  0.976529  0.307356  1
  B  B21  1  0.500000  0.023570  0.692549  1
  B  B22  1  0.500000  0.476210  0.192543  1
  B  B23  1  0.500000  0.523240  0.807458  1
