# generated using pymatgen
data_CdHg(NO3)4
_symmetry_space_group_name_H-M   'P 1'
_cell_length_a   7.97343500
_cell_length_b   7.96988085
_cell_length_c   7.96906785
_cell_angle_alpha   89.67097642
_cell_angle_beta   90.00002879
_cell_angle_gamma   90.00002879
_symmetry_Int_Tables_number   1
_chemical_formula_structural   CdHg(NO3)4
_chemical_formula_sum   'Cd2 Hg2 N8 O24'
_cell_volume   506.40461007
_cell_formula_units_Z   2
loop_
 _symmetry_equiv_pos_site_id
 _symmetry_equiv_pos_as_xyz
  1  'x, y, z'
loop_
 _atom_site_type_symbol
 _atom_site_label
 _atom_site_symmetry_multiplicity
 _atom_site_fract_x
 _atom_site_fract_y
 _atom_site_fract_z
 _atom_site_occupancy
  Cd  Cd0  1  0.500000  0.000001  0.500000  1
  Cd  Cd1  1  0.000000  0.500000  0.500000  1
  Hg  Hg2  1  0.000000  0.000000  0.000000  1
  Hg  Hg3  1  0.500000  0.499996  0.000002  1
  N  N4  1  0.835643  0.333033  0.171267  1
  N  N5  1  0.664357  0.833033  0.171267  1
  N  N6  1  0.329278  0.331732  0.336016  1
  N  N7  1  0.170723  0.831732  0.336016  1
  N  N8  1  0.829278  0.168269  0.663984  1
  N  N9  1  0.670722  0.668268  0.663984  1
  N  N10  1  0.335643  0.166967  0.828734  1
  N  N11  1  0.164358  0.666967  0.828734  1
  O  O12  1  0.736965  0.309688  0.048940  1
  O  O13  1  0.763035  0.809690  0.048941  1
  O  O14  1  0.958286  0.234021  0.194681  1
  O  O15  1  0.541714  0.734022  0.194682  1
  O  O16  1  0.309124  0.453634  0.234867  1
  O  O17  1  0.190877  0.953634  0.234866  1
  O  O18  1  0.812999  0.454460  0.270567  1
  O  O19  1  0.687001  0.954461  0.270567  1
  O  O20  1  0.449768  0.230389  0.316575  1
  O  O21  1  0.050232  0.730389  0.316575  1
  O  O22  1  0.227705  0.312307  0.456865  1
  O  O23  1  0.272296  0.812307  0.456865  1
  O  O24  1  0.727704  0.187694  0.543135  1
  O  O25  1  0.772296  0.687694  0.543135  1
  O  O26  1  0.949768  0.269612  0.683425  1
  O  O27  1  0.550232  0.769611  0.683425  1
  O  O28  1  0.312999  0.045540  0.729433  1
  O  O29  1  0.187001  0.545540  0.729433  1
  O  O30  1  0.809124  0.046367  0.765133  1
  O  O31  1  0.690876  0.546366  0.765133  1
  O  O32  1  0.458287  0.265978  0.805319  1
  O  O33  1  0.041714  0.765978  0.805320  1
  O  O34  1  0.236964  0.190312  0.951060  1
  O  O35  1  0.263037  0.690311  0.951060  1
