# generated using pymatgen
data_Tb3Nd2YTa2O14
_symmetry_space_group_name_H-M   'P 1'
_cell_length_a   6.52495177
_cell_length_b   6.52895454
_cell_length_c   7.62670700
_cell_angle_alpha   90.00000000
_cell_angle_beta   90.00000000
_cell_angle_gamma   109.38867493
_symmetry_Int_Tables_number   1
_chemical_formula_structural   Tb3Nd2YTa2O14
_chemical_formula_sum   'Tb3 Nd2 Y1 Ta2 O14'
_cell_volume   306.48022528
_cell_formula_units_Z   1
loop_
 _symmetry_equiv_pos_site_id
 _symmetry_equiv_pos_as_xyz
  1  'x, y, z'
loop_
 _atom_site_type_symbol
 _atom_site_label
 _atom_site_symmetry_multiplicity
 _atom_site_fract_x
 _atom_site_fract_y
 _atom_site_fract_z
 _atom_site_occupancy
  Tb  Tb0  1  0.533909  0.000458  0.750000  1
  Tb  Tb1  1  0.000401  0.533719  0.250000  1
  Tb  Tb2  1  0.466228  0.999622  0.250000  1
  Nd  Nd3  1  0.499898  0.499943  0.499993  1
  Nd  Nd4  1  0.499898  0.499943  0.000007  1
  Y  Y5  1  0.999571  0.466948  0.750000  1
  Ta  Ta6  1  0.999993  0.999949  0.500120  1
  Ta  Ta7  1  0.999993  0.999949  0.999880  1
  O  O8  1  0.680765  0.930727  0.468309  1
  O  O9  1  0.930945  0.680913  0.531835  1
  O  O10  1  0.680765  0.930727  0.031691  1
  O  O11  1  0.930945  0.680913  0.968165  1
  O  O12  1  0.319283  0.069242  0.531727  1
  O  O13  1  0.069163  0.319173  0.468506  1
  O  O14  1  0.319283  0.069242  0.968273  1
  O  O15  1  0.069163  0.319173  0.031494  1
  O  O16  1  0.937119  0.062746  0.750000  1
  O  O17  1  0.062859  0.937164  0.250000  1
  O  O18  1  0.364004  0.634237  0.750000  1
  O  O19  1  0.634768  0.365133  0.250000  1
  O  O20  1  0.642607  0.358394  0.750000  1
  O  O21  1  0.358441  0.641684  0.250000  1
