# generated using pymatgen
data_Dy18Tm2(Ir3Pt)3
_symmetry_space_group_name_H-M   'P 1'
_cell_length_a   10.96154476
_cell_length_b   10.96154472
_cell_length_c   6.32987106
_cell_angle_alpha   89.97319631
_cell_angle_beta   89.97319137
_cell_angle_gamma   90.23927352
_symmetry_Int_Tables_number   1
_chemical_formula_structural   Dy18Tm2(Ir3Pt)3
_chemical_formula_sum   'Dy18 Tm2 Ir9 Pt3'
_cell_volume   760.56178937
_cell_formula_units_Z   1
loop_
 _symmetry_equiv_pos_site_id
 _symmetry_equiv_pos_as_xyz
  1  'x, y, z'
loop_
 _atom_site_type_symbol
 _atom_site_label
 _atom_site_symmetry_multiplicity
 _atom_site_fract_x
 _atom_site_fract_y
 _atom_site_fract_z
 _atom_site_occupancy
  Dy  Dy0  1  0.293623  0.086491  0.370755  1
  Dy  Dy1  1  0.293122  0.908118  0.876190  1
  Dy  Dy2  1  0.705190  0.090154  0.872951  1
  Dy  Dy3  1  0.703958  0.909600  0.372298  1
  Dy  Dy4  1  0.584532  0.789672  0.877687  1
  Dy  Dy5  1  0.585042  0.210113  0.377485  1
  Dy  Dy6  1  0.410779  0.790020  0.377736  1
  Dy  Dy7  1  0.414477  0.210200  0.877200  1
  Dy  Dy8  1  0.210328  0.415468  0.622313  1
  Dy  Dy9  1  0.209980  0.589221  0.122264  1
  Dy  Dy10  1  0.789887  0.414958  0.122515  1
  Dy  Dy11  1  0.789800  0.585523  0.622800  1
  Dy  Dy12  1  0.913509  0.706377  0.129245  1
  Dy  Dy13  1  0.909846  0.294810  0.627049  1
  Dy  Dy14  1  0.091882  0.706878  0.623810  1
  Dy  Dy15  1  0.090400  0.296042  0.127702  1
  Dy  Dy16  1  0.000900  0.997963  0.499988  1
  Dy  Dy17  1  0.002037  0.999100  0.000012  1
  Tm  Tm18  1  0.499730  0.499726  0.000576  1
  Tm  Tm19  1  0.500274  0.500270  0.499424  1
  Ir  Ir20  1  0.152708  0.847292  0.250000  1
  Ir  Ir21  1  0.652280  0.347720  0.750000  1
  Ir  Ir22  1  0.653087  0.652238  0.249360  1
  Ir  Ir23  1  0.347762  0.346913  0.250640  1
  Ir  Ir24  1  0.348730  0.651270  0.750000  1
  Ir  Ir25  1  0.500349  0.999929  0.122389  1
  Ir  Ir26  1  0.500047  0.000213  0.624000  1
  Ir  Ir27  1  0.999787  0.499953  0.876000  1
  Ir  Ir28  1  0.000071  0.499651  0.377611  1
  Pt  Pt29  1  0.846607  0.153393  0.250000  1
  Pt  Pt30  1  0.844552  0.845275  0.750063  1
  Pt  Pt31  1  0.154725  0.155448  0.749937  1
