# generated using pymatgen
data_Li2DyThSi2Sn
_symmetry_space_group_name_H-M   'P 1'
_cell_length_a   9.64104802
_cell_length_b   9.64104817
_cell_length_c   6.84727300
_cell_angle_alpha   90.00000000
_cell_angle_beta   90.00000000
_cell_angle_gamma   153.28707550
_symmetry_Int_Tables_number   1
_chemical_formula_structural   Li2DyThSi2Sn
_chemical_formula_sum   'Li4 Dy2 Th2 Si4 Sn2'
_cell_volume   286.09854763
_cell_formula_units_Z   2
loop_
 _symmetry_equiv_pos_site_id
 _symmetry_equiv_pos_as_xyz
  1  'x, y, z'
loop_
 _atom_site_type_symbol
 _atom_site_label
 _atom_site_symmetry_multiplicity
 _atom_site_fract_x
 _atom_site_fract_y
 _atom_site_fract_z
 _atom_site_occupancy
  Li  Li0  1  0.184228  0.815772  0.056925  1
  Li  Li1  1  0.184228  0.815772  0.443075  1
  Li  Li2  1  0.815772  0.184228  0.943075  1
  Li  Li3  1  0.815772  0.184228  0.556925  1
  Dy  Dy4  1  0.352980  0.647020  0.250000  1
  Dy  Dy5  1  0.647020  0.352980  0.750000  1
  Th  Th6  1  0.548451  0.451549  0.250000  1
  Th  Th7  1  0.451549  0.548451  0.750000  1
  Si  Si8  1  0.058279  0.941721  0.930681  1
  Si  Si9  1  0.941721  0.058279  0.069319  1
  Si  Si10  1  0.941721  0.058279  0.430681  1
  Si  Si11  1  0.058279  0.941721  0.569319  1
  Sn  Sn12  1  0.722596  0.277404  0.250000  1
  Sn  Sn13  1  0.277404  0.722596  0.750000  1
