# generated using pymatgen
data_Tb7Th7Rh6
_symmetry_space_group_name_H-M   'P 1'
_cell_length_a   9.97483800
_cell_length_b   9.84878098
_cell_length_c   6.35906479
_cell_angle_alpha   90.17819125
_cell_angle_beta   90.00000000
_cell_angle_gamma   120.42431352
_symmetry_Int_Tables_number   1
_chemical_formula_structural   Tb7Th7Rh6
_chemical_formula_sum   'Tb7 Th7 Rh6'
_cell_volume   538.68708737
_cell_formula_units_Z   1
loop_
 _symmetry_equiv_pos_site_id
 _symmetry_equiv_pos_as_xyz
  1  'x, y, z'
loop_
 _atom_site_type_symbol
 _atom_site_label
 _atom_site_symmetry_multiplicity
 _atom_site_fract_x
 _atom_site_fract_y
 _atom_site_fract_z
 _atom_site_occupancy
  Tb  Tb0  1  0.873476  0.746953  0.743507  1
  Tb  Tb1  1  0.539208  0.462215  0.445234  1
  Tb  Tb2  1  0.923007  0.462215  0.445234  1
  Tb  Tb3  1  0.539003  0.078006  0.446967  1
  Tb  Tb4  1  0.462445  0.539053  0.942576  1
  Tb  Tb5  1  0.076608  0.539053  0.942576  1
  Tb  Tb6  1  0.462863  0.925725  0.944803  1
  Th  Th7  1  0.333815  0.667630  0.461394  1
  Th  Th8  1  0.666498  0.332995  0.960778  1
  Th  Th9  1  0.125945  0.870967  0.244606  1
  Th  Th10  1  0.745022  0.870967  0.244606  1
  Th  Th11  1  0.126886  0.253772  0.242099  1
  Th  Th12  1  0.869885  0.124533  0.742700  1
  Th  Th13  1  0.254648  0.124533  0.742700  1
  Rh  Rh14  1  0.813117  0.185361  0.189473  1
  Rh  Rh15  1  0.372245  0.185361  0.189473  1
  Rh  Rh16  1  0.813475  0.626948  0.195812  1
  Rh  Rh17  1  0.193321  0.816385  0.685406  1
  Rh  Rh18  1  0.623063  0.816385  0.685406  1
  Rh  Rh19  1  0.185471  0.370943  0.691213  1
