# generated using pymatgen
data_Zr5NiBi3
_symmetry_space_group_name_H-M   'P 1'
_cell_length_a   5.89437800
_cell_length_b   8.84504590
_cell_length_c   8.84504700
_cell_angle_alpha   119.99999288
_cell_angle_beta   90.00000000
_cell_angle_gamma   90.00000000
_symmetry_Int_Tables_number   1
_chemical_formula_structural   Zr5NiBi3
_chemical_formula_sum   'Zr10 Ni2 Bi6'
_cell_volume   399.36397118
_cell_formula_units_Z   2
loop_
 _symmetry_equiv_pos_site_id
 _symmetry_equiv_pos_as_xyz
  1  'x, y, z'
loop_
 _atom_site_type_symbol
 _atom_site_label
 _atom_site_symmetry_multiplicity
 _atom_site_fract_x
 _atom_site_fract_y
 _atom_site_fract_z
 _atom_site_occupancy
  Zr  Zr0  1  0.750000  0.750006  0.750006  1
  Zr  Zr1  1  0.250000  0.249994  0.249994  1
  Zr  Zr2  1  0.750000  0.000000  0.249994  1
  Zr  Zr3  1  0.250000  0.000000  0.750006  1
  Zr  Zr4  1  0.750000  0.249994  0.000000  1
  Zr  Zr5  1  0.250000  0.750006  0.000000  1
  Zr  Zr6  1  0.000000  0.666667  0.333333  1
  Zr  Zr7  1  0.000000  0.333333  0.666667  1
  Zr  Zr8  1  0.500000  0.333333  0.666667  1
  Zr  Zr9  1  0.500000  0.666667  0.333333  1
  Ni  Ni10  1  0.000000  0.000000  0.000000  1
  Ni  Ni11  1  0.500000  0.000000  0.000000  1
  Bi  Bi12  1  0.750000  0.389292  0.389292  1
  Bi  Bi13  1  0.250000  0.610708  0.610708  1
  Bi  Bi14  1  0.750000  0.000000  0.610708  1
  Bi  Bi15  1  0.250000  0.000000  0.389292  1
  Bi  Bi16  1  0.750000  0.610708  0.000000  1
  Bi  Bi17  1  0.250000  0.389292  0.000000  1
