# generated using pymatgen
data_CsZr2V3O12
_symmetry_space_group_name_H-M   'P 1'
_cell_length_a   10.24144153
_cell_length_b   10.24144174
_cell_length_c   10.24144101
_cell_angle_alpha   53.94394900
_cell_angle_beta   53.94394713
_cell_angle_gamma   53.94394441
_symmetry_Int_Tables_number   1
_chemical_formula_structural   CsZr2V3O12
_chemical_formula_sum   'Cs2 Zr4 V6 O24'
_cell_volume   652.10401730
_cell_formula_units_Z   2
loop_
 _symmetry_equiv_pos_site_id
 _symmetry_equiv_pos_as_xyz
  1  'x, y, z'
loop_
 _atom_site_type_symbol
 _atom_site_label
 _atom_site_symmetry_multiplicity
 _atom_site_fract_x
 _atom_site_fract_y
 _atom_site_fract_z
 _atom_site_occupancy
  Cs  Cs0  1  0.500000  0.500000  0.500000  1
  Cs  Cs1  1  0.000000  0.000000  0.000000  1
  Zr  Zr2  1  0.349856  0.349856  0.349856  1
  Zr  Zr3  1  0.849856  0.849856  0.849856  1
  Zr  Zr4  1  0.650144  0.650144  0.650144  1
  Zr  Zr5  1  0.150144  0.150144  0.150144  1
  V  V6  1  0.968749  0.531251  0.250000  1
  V  V7  1  0.250000  0.968749  0.531251  1
  V  V8  1  0.531251  0.250000  0.968749  1
  V  V9  1  0.750000  0.031251  0.468749  1
  V  V10  1  0.468749  0.750000  0.031251  1
  V  V11  1  0.031251  0.468749  0.750000  1
  O  O12  1  0.154137  0.507630  0.244270  1
  O  O13  1  0.244270  0.154137  0.507630  1
  O  O14  1  0.507630  0.244270  0.154137  1
  O  O15  1  0.744270  0.007630  0.654137  1
  O  O16  1  0.654137  0.744270  0.007630  1
  O  O17  1  0.007630  0.654137  0.744270  1
  O  O18  1  0.845863  0.492370  0.755730  1
  O  O19  1  0.755730  0.845863  0.492370  1
  O  O20  1  0.492370  0.755730  0.845863  1
  O  O21  1  0.255730  0.992370  0.345863  1
  O  O22  1  0.345863  0.255730  0.992370  1
  O  O23  1  0.992370  0.345863  0.255730  1
  O  O24  1  0.204779  0.426241  0.564543  1
  O  O25  1  0.564543  0.204779  0.426241  1
  O  O26  1  0.426241  0.564543  0.204779  1
  O  O27  1  0.064543  0.926241  0.704779  1
  O  O28  1  0.704779  0.064543  0.926241  1
  O  O29  1  0.926241  0.704779  0.064543  1
  O  O30  1  0.795221  0.573759  0.435457  1
  O  O31  1  0.435457  0.795221  0.573759  1
  O  O32  1  0.573759  0.435457  0.795221  1
  O  O33  1  0.935457  0.073759  0.295221  1
  O  O34  1  0.295221  0.935457  0.073759  1
  O  O35  1  0.073759  0.295221  0.935457  1
