# generated using pymatgen
data_TaNb2Cr3Ge2P
_symmetry_space_group_name_H-M   'P 1'
_cell_length_a   6.71521891
_cell_length_b   6.70114765
_cell_length_c   3.31501600
_cell_angle_alpha   90.00000000
_cell_angle_beta   90.00000000
_cell_angle_gamma   119.93070295
_symmetry_Int_Tables_number   1
_chemical_formula_structural   TaNb2Cr3Ge2P
_chemical_formula_sum   'Ta1 Nb2 Cr3 Ge2 P1'
_cell_volume   129.27914163
_cell_formula_units_Z   1
loop_
 _symmetry_equiv_pos_site_id
 _symmetry_equiv_pos_as_xyz
  1  'x, y, z'
loop_
 _atom_site_type_symbol
 _atom_site_label
 _atom_site_symmetry_multiplicity
 _atom_site_fract_x
 _atom_site_fract_y
 _atom_site_fract_z
 _atom_site_occupancy
  Ta  Ta0  1  0.000000  0.606655  0.500000  1
  Nb  Nb1  1  0.605769  0.999873  0.500000  1
  Nb  Nb2  1  0.394231  0.394104  0.500000  1
  Cr  Cr3  1  0.244057  0.999255  0.000000  1
  Cr  Cr4  1  0.755943  0.755199  0.000000  1
  Cr  Cr5  1  0.000000  0.245061  0.000000  1
  Ge  Ge6  1  0.666578  0.333246  0.000000  1
  Ge  Ge7  1  0.333422  0.666669  0.000000  1
  P  P8  1  0.000000  0.999939  0.500000  1
