# generated using pymatgen
data_Tb5Dy3Tm8(Ga3Co)2
_symmetry_space_group_name_H-M   'P 1'
_cell_length_a   9.92229700
_cell_length_b   9.92229565
_cell_length_c   6.96100800
_cell_angle_alpha   90.00000000
_cell_angle_beta   90.00000000
_cell_angle_gamma   120.00000115
_symmetry_Int_Tables_number   1
_chemical_formula_structural   Tb5Dy3Tm8(Ga3Co)2
_chemical_formula_sum   'Tb5 Dy3 Tm8 Ga6 Co2'
_cell_volume   593.50877655
_cell_formula_units_Z   1
loop_
 _symmetry_equiv_pos_site_id
 _symmetry_equiv_pos_as_xyz
  1  'x, y, z'
loop_
 _atom_site_type_symbol
 _atom_site_label
 _atom_site_symmetry_multiplicity
 _atom_site_fract_x
 _atom_site_fract_y
 _atom_site_fract_z
 _atom_site_occupancy
  Tb  Tb0  1  0.463800  0.927602  0.291710  1
  Tb  Tb1  1  0.072398  0.536200  0.291710  1
  Tb  Tb2  1  0.463800  0.536200  0.291710  1
  Tb  Tb3  1  0.000000  0.000000  0.768951  1
  Tb  Tb4  1  0.000000  0.000000  0.268964  1
  Dy  Dy5  1  0.536538  0.073073  0.791651  1
  Dy  Dy6  1  0.926927  0.463462  0.791651  1
  Dy  Dy7  1  0.536538  0.463462  0.791651  1
  Tm  Tm8  1  0.826438  0.652877  0.487508  1
  Tm  Tm9  1  0.347123  0.173562  0.487508  1
  Tm  Tm10  1  0.826438  0.173562  0.487508  1
  Tm  Tm11  1  0.173470  0.346941  0.986990  1
  Tm  Tm12  1  0.653059  0.826530  0.986990  1
  Tm  Tm13  1  0.173470  0.826530  0.986990  1
  Tm  Tm14  1  0.666667  0.333333  0.174084  1
  Tm  Tm15  1  0.333333  0.666667  0.674586  1
  Ga  Ga16  1  0.836168  0.672335  0.043116  1
  Ga  Ga17  1  0.327665  0.163832  0.043116  1
  Ga  Ga18  1  0.836168  0.163832  0.043116  1
  Ga  Ga19  1  0.163733  0.327466  0.543501  1
  Ga  Ga20  1  0.672534  0.836267  0.543501  1
  Ga  Ga21  1  0.163733  0.836267  0.543501  1
  Co  Co22  1  0.666667  0.333333  0.553382  1
  Co  Co23  1  0.333333  0.666667  0.052682  1
