# generated using pymatgen
data_Y3Ho5In3Ru
_symmetry_space_group_name_H-M   'P 1'
_cell_length_a   10.38440800
_cell_length_b   10.38440875
_cell_length_c   7.07817300
_cell_angle_alpha   90.00000000
_cell_angle_beta   90.00000000
_cell_angle_gamma   119.99999760
_symmetry_Int_Tables_number   1
_chemical_formula_structural   Y3Ho5In3Ru
_chemical_formula_sum   'Y6 Ho10 In6 Ru2'
_cell_volume   661.02111591
_cell_formula_units_Z   2
loop_
 _symmetry_equiv_pos_site_id
 _symmetry_equiv_pos_as_xyz
  1  'x, y, z'
loop_
 _atom_site_type_symbol
 _atom_site_label
 _atom_site_symmetry_multiplicity
 _atom_site_fract_x
 _atom_site_fract_y
 _atom_site_fract_z
 _atom_site_occupancy
  Y  Y0  1  0.532637  0.065273  0.508288  1
  Y  Y1  1  0.934727  0.467363  0.508288  1
  Y  Y2  1  0.532637  0.467363  0.508288  1
  Y  Y3  1  0.467363  0.934727  0.008288  1
  Y  Y4  1  0.065273  0.532637  0.008288  1
  Y  Y5  1  0.467363  0.532637  0.008288  1
  Ho  Ho6  1  0.177226  0.354452  0.712239  1
  Ho  Ho7  1  0.645548  0.822774  0.712239  1
  Ho  Ho8  1  0.177226  0.822774  0.712239  1
  Ho  Ho9  1  0.822774  0.645548  0.212239  1
  Ho  Ho10  1  0.354452  0.177226  0.212239  1
  Ho  Ho11  1  0.822774  0.177226  0.212239  1
  Ho  Ho12  1  0.666667  0.333333  0.885059  1
  Ho  Ho13  1  0.333333  0.666667  0.385059  1
  Ho  Ho14  1  0.000000  0.000000  0.492266  1
  Ho  Ho15  1  0.000000  0.000000  0.992266  1
  In  In16  1  0.837383  0.674766  0.753647  1
  In  In17  1  0.325234  0.162617  0.753647  1
  In  In18  1  0.837383  0.162617  0.753647  1
  In  In19  1  0.162617  0.325234  0.253647  1
  In  In20  1  0.674766  0.837383  0.253647  1
  In  In21  1  0.162617  0.837383  0.253647  1
  Ru  Ru22  1  0.666667  0.333333  0.279178  1
  Ru  Ru23  1  0.333333  0.666667  0.779178  1
