# generated using pymatgen
data_Dy3Mg3ZnAgPb
_symmetry_space_group_name_H-M   'P 1'
_cell_length_a   7.53452500
_cell_length_b   7.53452297
_cell_length_c   4.42157100
_cell_angle_alpha   90.00000000
_cell_angle_beta   90.00000000
_cell_angle_gamma   120.00000452
_symmetry_Int_Tables_number   1
_chemical_formula_structural   Dy3Mg3ZnAgPb
_chemical_formula_sum   'Dy3 Mg3 Zn1 Ag1 Pb1'
_cell_volume   217.37963465
_cell_formula_units_Z   1
loop_
 _symmetry_equiv_pos_site_id
 _symmetry_equiv_pos_as_xyz
  1  'x, y, z'
loop_
 _atom_site_type_symbol
 _atom_site_label
 _atom_site_symmetry_multiplicity
 _atom_site_fract_x
 _atom_site_fract_y
 _atom_site_fract_z
 _atom_site_occupancy
  Dy  Dy0  1  0.410590  0.425857  0.500000  1
  Dy  Dy1  1  0.574143  0.984731  0.500000  1
  Dy  Dy2  1  0.015269  0.589410  0.500000  1
  Mg  Mg3  1  0.754659  0.765824  0.000000  1
  Mg  Mg4  1  0.234176  0.988835  0.000000  1
  Mg  Mg5  1  0.011165  0.245341  0.000000  1
  Zn  Zn6  1  0.333333  0.666667  0.000000  1
  Ag  Ag7  1  0.000000  0.000000  0.500000  1
  Pb  Pb8  1  0.666667  0.333333  0.000000  1
