# generated using pymatgen
data_Hf5Zr3(Rh2N)2
_symmetry_space_group_name_H-M   'P 1'
_cell_length_a   8.75325285
_cell_length_b   8.75325328
_cell_length_c   8.75325300
_cell_angle_alpha   59.99999727
_cell_angle_beta   59.99999565
_cell_angle_gamma   59.99999436
_symmetry_Int_Tables_number   1
_chemical_formula_structural   Hf5Zr3(Rh2N)2
_chemical_formula_sum   'Hf10 Zr6 Rh8 N4'
_cell_volume   474.23478979
_cell_formula_units_Z   2
loop_
 _symmetry_equiv_pos_site_id
 _symmetry_equiv_pos_as_xyz
  1  'x, y, z'
loop_
 _atom_site_type_symbol
 _atom_site_label
 _atom_site_symmetry_multiplicity
 _atom_site_fract_x
 _atom_site_fract_y
 _atom_site_fract_z
 _atom_site_occupancy
  Hf  Hf0  1  0.121633  0.626122  0.626122  1
  Hf  Hf1  1  0.626122  0.121633  0.626122  1
  Hf  Hf2  1  0.626122  0.626122  0.121633  1
  Hf  Hf3  1  0.626122  0.626122  0.626122  1
  Hf  Hf4  1  0.817510  0.817510  0.182490  1
  Hf  Hf5  1  0.182490  0.182490  0.817510  1
  Hf  Hf6  1  0.817510  0.182490  0.817510  1
  Hf  Hf7  1  0.182490  0.817510  0.182490  1
  Hf  Hf8  1  0.182490  0.817510  0.817510  1
  Hf  Hf9  1  0.817510  0.182490  0.182490  1
  Zr  Zr10  1  0.434135  0.434135  0.065865  1
  Zr  Zr11  1  0.065865  0.065865  0.434135  1
  Zr  Zr12  1  0.434135  0.065865  0.434135  1
  Zr  Zr13  1  0.065865  0.434135  0.065865  1
  Zr  Zr14  1  0.065865  0.434135  0.434135  1
  Zr  Zr15  1  0.434135  0.065865  0.065865  1
  Rh  Rh16  1  0.763359  0.412214  0.412214  1
  Rh  Rh17  1  0.412214  0.763359  0.412214  1
  Rh  Rh18  1  0.412214  0.412214  0.763359  1
  Rh  Rh19  1  0.412214  0.412214  0.412214  1
  Rh  Rh20  1  0.476420  0.841193  0.841193  1
  Rh  Rh21  1  0.841193  0.476420  0.841193  1
  Rh  Rh22  1  0.841193  0.841193  0.476420  1
  Rh  Rh23  1  0.841193  0.841193  0.841193  1
  N  N24  1  0.631491  0.122836  0.122836  1
  N  N25  1  0.122836  0.631491  0.122836  1
  N  N26  1  0.122836  0.122836  0.631491  1
  N  N27  1  0.122836  0.122836  0.122836  1
