# generated using pymatgen
data_TbHo2In3Ga2Pd
_symmetry_space_group_name_H-M   'P 1'
_cell_length_a   7.24674890
_cell_length_b   7.24050452
_cell_length_c   4.43456900
_cell_angle_alpha   90.00000000
_cell_angle_beta   90.00000000
_cell_angle_gamma   119.97149501
_symmetry_Int_Tables_number   1
_chemical_formula_structural   TbHo2In3Ga2Pd
_chemical_formula_sum   'Tb1 Ho2 In3 Ga2 Pd1'
_cell_volume   201.56668967
_cell_formula_units_Z   1
loop_
 _symmetry_equiv_pos_site_id
 _symmetry_equiv_pos_as_xyz
  1  'x, y, z'
loop_
 _atom_site_type_symbol
 _atom_site_label
 _atom_site_symmetry_multiplicity
 _atom_site_fract_x
 _atom_site_fract_y
 _atom_site_fract_z
 _atom_site_occupancy
  Tb  Tb0  1  0.000000  0.587986  0.000000  1
  Ho  Ho1  1  0.411595  0.411527  0.000000  1
  Ho  Ho2  1  0.588405  0.999932  0.000000  1
  In  In3  1  0.749758  0.750027  0.500000  1
  In  In4  1  0.000000  0.249743  0.500000  1
  In  In5  1  0.250242  0.000269  0.500000  1
  Ga  Ga6  1  0.333885  0.666825  0.500000  1
  Ga  Ga7  1  0.666115  0.332940  0.500000  1
  Pd  Pd8  1  0.000000  0.000750  0.000000  1
