# generated using pymatgen
data_TbTm5Fe2(Co4P3)4
_symmetry_space_group_name_H-M   'P 1'
_cell_length_a   3.67438600
_cell_length_b   10.48804300
_cell_length_c   12.12631600
_cell_angle_alpha   90.00000000
_cell_angle_beta   90.00000000
_cell_angle_gamma   90.00000000
_symmetry_Int_Tables_number   1
_chemical_formula_structural   TbTm5Fe2(Co4P3)4
_chemical_formula_sum   'Tb1 Tm5 Fe2 Co16 P12'
_cell_volume   467.31327504
_cell_formula_units_Z   1
loop_
 _symmetry_equiv_pos_site_id
 _symmetry_equiv_pos_as_xyz
  1  'x, y, z'
loop_
 _atom_site_type_symbol
 _atom_site_label
 _atom_site_symmetry_multiplicity
 _atom_site_fract_x
 _atom_site_fract_y
 _atom_site_fract_z
 _atom_site_occupancy
  Tb  Tb0  1  0.000000  0.500000  0.522568  1
  Tm  Tm1  1  0.500000  0.000000  0.477458  1
  Tm  Tm2  1  0.500000  0.818464  0.205313  1
  Tm  Tm3  1  0.500000  0.181536  0.205313  1
  Tm  Tm4  1  0.000000  0.682079  0.795119  1
  Tm  Tm5  1  0.000000  0.317921  0.795119  1
  Fe  Fe6  1  0.500000  0.500000  0.156843  1
  Fe  Fe7  1  0.000000  0.000000  0.842054  1
  Co  Co8  1  0.500000  0.500000  0.703402  1
  Co  Co9  1  0.000000  0.000000  0.297817  1
  Co  Co10  1  0.000000  0.500000  0.986463  1
  Co  Co11  1  0.500000  0.000000  0.013852  1
  Co  Co12  1  0.500000  0.332552  0.993761  1
  Co  Co13  1  0.500000  0.667448  0.993761  1
  Co  Co14  1  0.000000  0.166964  0.006048  1
  Co  Co15  1  0.000000  0.833036  0.006048  1
  Co  Co16  1  0.500000  0.295614  0.430648  1
  Co  Co17  1  0.500000  0.704386  0.430648  1
  Co  Co18  1  0.000000  0.201784  0.569473  1
  Co  Co19  1  0.000000  0.798216  0.569473  1
  Co  Co20  1  0.500000  0.878690  0.709089  1
  Co  Co21  1  0.500000  0.121310  0.709089  1
  Co  Co22  1  0.000000  0.622058  0.290534  1
  Co  Co23  1  0.000000  0.377942  0.290534  1
  P  P24  1  0.500000  0.500000  0.882133  1
  P  P25  1  0.000000  0.000000  0.118471  1
  P  P26  1  0.500000  0.500000  0.342504  1
  P  P27  1  0.000000  0.000000  0.655616  1
  P  P28  1  0.500000  0.310211  0.617249  1
  P  P29  1  0.500000  0.689789  0.617249  1
  P  P30  1  0.000000  0.188152  0.383475  1
  P  P31  1  0.000000  0.811848  0.383475  1
  P  P32  1  0.500000  0.847309  0.891889  1
  P  P33  1  0.500000  0.152691  0.891889  1
  P  P34  1  0.000000  0.653446  0.107813  1
  P  P35  1  0.000000  0.346554  0.107813  1
