# generated using pymatgen
data_NdSn6(IrRu)2
_symmetry_space_group_name_H-M   'P 1'
_cell_length_a   7.00605364
_cell_length_b   7.00605379
_cell_length_c   7.01783803
_cell_angle_alpha   120.63997286
_cell_angle_beta   120.63996988
_cell_angle_gamma   88.79680135
_symmetry_Int_Tables_number   1
_chemical_formula_structural   NdSn6(IrRu)2
_chemical_formula_sum   'Nd1 Sn6 Ir2 Ru2'
_cell_volume   241.37368740
_cell_formula_units_Z   1
loop_
 _symmetry_equiv_pos_site_id
 _symmetry_equiv_pos_as_xyz
  1  'x, y, z'
loop_
 _atom_site_type_symbol
 _atom_site_label
 _atom_site_symmetry_multiplicity
 _atom_site_fract_x
 _atom_site_fract_y
 _atom_site_fract_z
 _atom_site_occupancy
  Nd  Nd0  1  0.001386  0.001386  0.002773  1
  Sn  Sn1  1  0.467645  0.467645  0.593661  1
  Sn  Sn2  1  0.126016  0.126016  0.593661  1
  Sn  Sn3  1  0.877333  0.530465  0.407797  1
  Sn  Sn4  1  0.530465  0.877333  0.407797  1
  Sn  Sn5  1  0.994386  0.494386  0.988772  1
  Sn  Sn6  1  0.494386  0.994386  0.988772  1
  Ir  Ir7  1  0.396520  0.396520  0.160133  1
  Ir  Ir8  1  0.763613  0.763613  0.160133  1
  Ru  Ru9  1  0.253057  0.595192  0.848249  1
  Ru  Ru10  1  0.595192  0.253057  0.848249  1
