# generated using pymatgen
data_Ho3Co(P3Rh4)2
_symmetry_space_group_name_H-M   'P 1'
_cell_length_a   3.86159000
_cell_length_b   11.13588400
_cell_length_c   12.77805400
_cell_angle_alpha   90.00000000
_cell_angle_beta   90.00000000
_cell_angle_gamma   90.00000000
_symmetry_Int_Tables_number   1
_chemical_formula_structural   Ho3Co(P3Rh4)2
_chemical_formula_sum   'Ho6 Co2 P12 Rh16'
_cell_volume   549.48466750
_cell_formula_units_Z   2
loop_
 _symmetry_equiv_pos_site_id
 _symmetry_equiv_pos_as_xyz
  1  'x, y, z'
loop_
 _atom_site_type_symbol
 _atom_site_label
 _atom_site_symmetry_multiplicity
 _atom_site_fract_x
 _atom_site_fract_y
 _atom_site_fract_z
 _atom_site_occupancy
  Ho  Ho0  1  0.000000  0.500000  0.521685  1
  Ho  Ho1  1  0.500000  0.000000  0.478315  1
  Ho  Ho2  1  0.500000  0.815508  0.201868  1
  Ho  Ho3  1  0.500000  0.184492  0.201868  1
  Ho  Ho4  1  0.000000  0.684492  0.798132  1
  Ho  Ho5  1  0.000000  0.315508  0.798132  1
  Co  Co6  1  0.000000  0.500000  0.980013  1
  Co  Co7  1  0.500000  0.000000  0.019987  1
  P  P8  1  0.500000  0.500000  0.881426  1
  P  P9  1  0.000000  0.000000  0.118574  1
  P  P10  1  0.500000  0.500000  0.351802  1
  P  P11  1  0.000000  0.000000  0.648198  1
  P  P12  1  0.500000  0.316030  0.619481  1
  P  P13  1  0.500000  0.683970  0.619481  1
  P  P14  1  0.000000  0.183970  0.380519  1
  P  P15  1  0.000000  0.816030  0.380519  1
  P  P16  1  0.500000  0.852813  0.895600  1
  P  P17  1  0.500000  0.147187  0.895600  1
  P  P18  1  0.000000  0.647187  0.104400  1
  P  P19  1  0.000000  0.352813  0.104400  1
  Rh  Rh20  1  0.500000  0.500000  0.168037  1
  Rh  Rh21  1  0.000000  0.000000  0.831963  1
  Rh  Rh22  1  0.500000  0.500000  0.703227  1
  Rh  Rh23  1  0.000000  0.000000  0.296773  1
  Rh  Rh24  1  0.500000  0.336623  0.993747  1
  Rh  Rh25  1  0.500000  0.663377  0.993747  1
  Rh  Rh26  1  0.000000  0.163377  0.006253  1
  Rh  Rh27  1  0.000000  0.836623  0.006253  1
  Rh  Rh28  1  0.500000  0.294051  0.430366  1
  Rh  Rh29  1  0.500000  0.705949  0.430366  1
  Rh  Rh30  1  0.000000  0.205949  0.569634  1
  Rh  Rh31  1  0.000000  0.794051  0.569634  1
  Rh  Rh32  1  0.500000  0.872961  0.712270  1
  Rh  Rh33  1  0.500000  0.127039  0.712270  1
  Rh  Rh34  1  0.000000  0.627039  0.287730  1
  Rh  Rh35  1  0.000000  0.372961  0.287730  1
