# generated using pymatgen
data_Y2Ho3Tm7Ru4
_symmetry_space_group_name_H-M   'P 1'
_cell_length_a   6.25643908
_cell_length_b   7.29281238
_cell_length_c   9.05374327
_cell_angle_alpha   89.96350965
_cell_angle_beta   89.78714218
_cell_angle_gamma   89.83983435
_symmetry_Int_Tables_number   1
_chemical_formula_structural   Y2Ho3Tm7Ru4
_chemical_formula_sum   'Y2 Ho3 Tm7 Ru4'
_cell_volume   413.09092754
_cell_formula_units_Z   1
loop_
 _symmetry_equiv_pos_site_id
 _symmetry_equiv_pos_as_xyz
  1  'x, y, z'
loop_
 _atom_site_type_symbol
 _atom_site_label
 _atom_site_symmetry_multiplicity
 _atom_site_fract_x
 _atom_site_fract_y
 _atom_site_fract_z
 _atom_site_occupancy
  Y  Y0  1  0.868494  0.540953  0.250496  1
  Y  Y1  1  0.168240  0.176368  0.063325  1
  Ho  Ho2  1  0.632490  0.040657  0.251018  1
  Ho  Ho3  1  0.368340  0.958888  0.748843  1
  Ho  Ho4  1  0.131153  0.459565  0.748911  1
  Tm  Tm5  1  0.830972  0.823780  0.934940  1
  Tm  Tm6  1  0.668079  0.324613  0.935131  1
  Tm  Tm7  1  0.831856  0.824094  0.564038  1
  Tm  Tm8  1  0.332655  0.675625  0.064053  1
  Tm  Tm9  1  0.168003  0.175205  0.436808  1
  Tm  Tm10  1  0.332381  0.676298  0.435891  1
  Tm  Tm11  1  0.667296  0.324219  0.564227  1
  Ru  Ru12  1  0.459070  0.385764  0.251816  1
  Ru  Ru13  1  0.541752  0.614858  0.750551  1
  Ru  Ru14  1  0.957124  0.114550  0.747822  1
  Ru  Ru15  1  0.042093  0.884562  0.252132  1
