# generated using pymatgen
data_SmHo3Er(In2Pd)2
_symmetry_space_group_name_H-M   'P 1'
_cell_length_a   3.61268500
_cell_length_b   8.17991900
_cell_length_c   18.32452201
_cell_angle_alpha   89.99726775
_cell_angle_beta   90.00000000
_cell_angle_gamma   90.00000000
_symmetry_Int_Tables_number   1
_chemical_formula_structural   SmHo3Er(In2Pd)2
_chemical_formula_sum   'Sm2 Ho6 Er2 In8 Pd4'
_cell_volume   541.51657416
_cell_formula_units_Z   2
loop_
 _symmetry_equiv_pos_site_id
 _symmetry_equiv_pos_as_xyz
  1  'x, y, z'
loop_
 _atom_site_type_symbol
 _atom_site_label
 _atom_site_symmetry_multiplicity
 _atom_site_fract_x
 _atom_site_fract_y
 _atom_site_fract_z
 _atom_site_occupancy
  Sm  Sm0  1  0.000000  0.500000  0.500000  1
  Sm  Sm1  1  0.000000  0.000000  0.000000  1
  Ho  Ho2  1  0.000000  0.738971  0.281656  1
  Ho  Ho3  1  0.000000  0.261029  0.718344  1
  Ho  Ho4  1  0.000000  0.761075  0.781636  1
  Ho  Ho5  1  0.000000  0.238925  0.218364  1
  Ho  Ho6  1  0.000000  0.620029  0.084111  1
  Ho  Ho7  1  0.000000  0.379971  0.915889  1
  Er  Er8  1  0.000000  0.879976  0.584158  1
  Er  Er9  1  0.000000  0.120024  0.415842  1
  In  In10  1  0.500000  0.702374  0.932344  1
  In  In11  1  0.500000  0.297626  0.067656  1
  In  In12  1  0.500000  0.797772  0.432380  1
  In  In13  1  0.500000  0.202228  0.567620  1
  In  In14  1  0.500000  0.582098  0.652455  1
  In  In15  1  0.500000  0.417902  0.347545  1
  In  In16  1  0.500000  0.918023  0.152484  1
  In  In17  1  0.500000  0.081977  0.847516  1
  Pd  Pd18  1  0.500000  0.523890  0.195678  1
  Pd  Pd19  1  0.500000  0.476110  0.804322  1
  Pd  Pd20  1  0.500000  0.976036  0.695589  1
  Pd  Pd21  1  0.500000  0.023964  0.304411  1
