# generated using pymatgen
data_Pr7Nd9(CdPt)4
_symmetry_space_group_name_H-M   'P 1'
_cell_length_a   10.06268025
_cell_length_b   10.06268095
_cell_length_c   10.02043300
_cell_angle_alpha   60.13878435
_cell_angle_beta   60.13878206
_cell_angle_gamma   60.33427395
_symmetry_Int_Tables_number   1
_chemical_formula_structural   Pr7Nd9(CdPt)4
_chemical_formula_sum   'Pr7 Nd9 Cd4 Pt4'
_cell_volume   720.76961181
_cell_formula_units_Z   1
loop_
 _symmetry_equiv_pos_site_id
 _symmetry_equiv_pos_as_xyz
  1  'x, y, z'
loop_
 _atom_site_type_symbol
 _atom_site_label
 _atom_site_symmetry_multiplicity
 _atom_site_fract_x
 _atom_site_fract_y
 _atom_site_fract_z
 _atom_site_occupancy
  Pr  Pr0  1  0.808171  0.808171  0.191829  1
  Pr  Pr1  1  0.937870  0.562421  0.564639  1
  Pr  Pr2  1  0.562421  0.937870  0.935070  1
  Pr  Pr3  1  0.562421  0.937870  0.564639  1
  Pr  Pr4  1  0.937870  0.562421  0.935070  1
  Pr  Pr5  1  0.563087  0.563087  0.936913  1
  Pr  Pr6  1  0.936050  0.936050  0.563950  1
  Nd  Nd7  1  0.349866  0.349866  0.349647  1
  Nd  Nd8  1  0.349866  0.349866  0.950622  1
  Nd  Nd9  1  0.350184  0.948412  0.350702  1
  Nd  Nd10  1  0.948412  0.350184  0.350702  1
  Nd  Nd11  1  0.808988  0.191756  0.191890  1
  Nd  Nd12  1  0.191756  0.808988  0.807366  1
  Nd  Nd13  1  0.191756  0.808988  0.191890  1
  Nd  Nd14  1  0.808988  0.191756  0.807366  1
  Nd  Nd15  1  0.191708  0.191708  0.808292  1
  Cd  Cd16  1  0.580061  0.580061  0.580517  1
  Cd  Cd17  1  0.580061  0.580061  0.259360  1
  Cd  Cd18  1  0.580283  0.259192  0.580262  1
  Cd  Cd19  1  0.259192  0.580283  0.580262  1
  Pt  Pt20  1  0.142931  0.142931  0.143028  1
  Pt  Pt21  1  0.142931  0.142931  0.571111  1
  Pt  Pt22  1  0.144119  0.571009  0.142436  1
  Pt  Pt23  1  0.571009  0.144119  0.142436  1
