# generated using pymatgen
data_TiZn8Pd3O16
_symmetry_space_group_name_H-M   'P 1'
_cell_length_a   6.12820700
_cell_length_b   6.10066378
_cell_length_c   8.56001428
_cell_angle_alpha   89.25194890
_cell_angle_beta   90.00000000
_cell_angle_gamma   90.00000000
_symmetry_Int_Tables_number   1
_chemical_formula_structural   TiZn8Pd3O16
_chemical_formula_sum   'Ti1 Zn8 Pd3 O16'
_cell_volume   319.99853577
_cell_formula_units_Z   1
loop_
 _symmetry_equiv_pos_site_id
 _symmetry_equiv_pos_as_xyz
  1  'x, y, z'
loop_
 _atom_site_type_symbol
 _atom_site_label
 _atom_site_symmetry_multiplicity
 _atom_site_fract_x
 _atom_site_fract_y
 _atom_site_fract_z
 _atom_site_occupancy
  Ti  Ti0  1  0.776279  0.500000  0.750000  1
  Zn  Zn1  1  0.997546  0.236633  0.001733  1
  Zn  Zn2  1  0.997546  0.763367  0.498267  1
  Zn  Zn3  1  0.260779  0.242931  0.627207  1
  Zn  Zn4  1  0.260779  0.757069  0.872793  1
  Zn  Zn5  1  0.237001  0.000000  0.250000  1
  Zn  Zn6  1  0.752967  0.000000  0.750000  1
  Zn  Zn7  1  0.747532  0.253621  0.374564  1
  Zn  Zn8  1  0.747532  0.746379  0.125436  1
  Pd  Pd9  1  0.247363  0.500000  0.250000  1
  Pd  Pd10  1  0.498839  0.747640  0.501530  1
  Pd  Pd11  1  0.498839  0.252360  0.998470  1
  O  O12  1  0.522697  0.736250  0.737528  1
  O  O13  1  0.522697  0.263750  0.762472  1
  O  O14  1  0.739708  0.977093  0.506451  1
  O  O15  1  0.739708  0.022907  0.993549  1
  O  O16  1  0.737135  0.511144  0.518973  1
  O  O17  1  0.737135  0.488856  0.981027  1
  O  O18  1  0.979235  0.732433  0.755423  1
  O  O19  1  0.979235  0.267567  0.744577  1
  O  O20  1  0.017509  0.739310  0.253945  1
  O  O21  1  0.017509  0.260690  0.246055  1
  O  O22  1  0.252669  0.519545  0.487969  1
  O  O23  1  0.252669  0.480455  0.012031  1
  O  O24  1  0.260508  0.977704  0.495808  1
  O  O25  1  0.260508  0.022296  0.004192  1
  O  O26  1  0.479038  0.743778  0.262561  1
  O  O27  1  0.479038  0.256222  0.237439  1
