# generated using pymatgen
data_Hf8Al14POs7
_symmetry_space_group_name_H-M   'P 1'
_cell_length_a   8.83153851
_cell_length_b   8.83153562
_cell_length_c   8.83154100
_cell_angle_alpha   120.12153950
_cell_angle_beta   119.76087938
_cell_angle_gamma   90.10215804
_symmetry_Int_Tables_number   1
_chemical_formula_structural   Hf8Al14POs7
_chemical_formula_sum   'Hf8 Al14 P1 Os7'
_cell_volume   487.49892124
_cell_formula_units_Z   1
loop_
 _symmetry_equiv_pos_site_id
 _symmetry_equiv_pos_as_xyz
  1  'x, y, z'
loop_
 _atom_site_type_symbol
 _atom_site_label
 _atom_site_symmetry_multiplicity
 _atom_site_fract_x
 _atom_site_fract_y
 _atom_site_fract_z
 _atom_site_occupancy
  Hf  Hf0  1  0.805247  0.297138  0.090971  1
  Hf  Hf1  1  0.206164  0.297141  0.491887  1
  Hf  Hf2  1  0.198482  0.698484  0.500002  1
  Hf  Hf3  1  0.206165  0.714275  0.909024  1
  Hf  Hf4  1  0.805251  0.714273  0.508109  1
  Hf  Hf5  1  0.787907  0.287909  0.500003  1
  Hf  Hf6  1  0.379182  0.118577  0.739398  1
  Hf  Hf7  1  0.379178  0.639784  0.260601  1
  Al  Al8  1  0.163347  0.331713  0.168360  1
  Al  Al9  1  0.163350  0.994986  0.831639  1
  Al  Al10  1  0.157613  0.337108  0.820501  1
  Al  Al11  1  0.516606  0.337111  0.179499  1
  Al  Al12  1  0.835832  0.663205  0.827373  1
  Al  Al13  1  0.835832  0.008459  0.172628  1
  Al  Al14  1  0.834476  0.663957  0.170515  1
  Al  Al15  1  0.493441  0.663958  0.829483  1
  Al  Al16  1  0.378481  0.120074  0.258407  1
  Al  Al17  1  0.861665  0.120073  0.741590  1
  Al  Al18  1  0.620799  0.877242  0.256444  1
  Al  Al19  1  0.620798  0.364357  0.743557  1
  Al  Al20  1  0.622569  0.880920  0.741646  1
  Al  Al21  1  0.139272  0.880922  0.258351  1
  P  P22  1  0.993581  0.493581  0.499997  1
  Os  Os23  1  0.995818  0.997623  0.498881  1
  Os  Os24  1  0.498745  0.997627  0.001819  1
  Os  Os25  1  0.499573  0.499569  0.000021  1
  Os  Os26  1  0.498746  0.496935  0.501117  1
  Os  Os27  1  0.995819  0.496931  0.998185  1
  Os  Os28  1  0.999081  0.999084  0.000001  1
  Os  Os29  1  0.506972  0.006983  0.499993  1
