# generated using pymatgen
data_Pr3Al9Si3Os4
_symmetry_space_group_name_H-M   'P 1'
_cell_length_a   8.81739600
_cell_length_b   8.79251131
_cell_length_c   9.68365600
_cell_angle_alpha   90.00000000
_cell_angle_beta   90.00000000
_cell_angle_gamma   120.09366697
_symmetry_Int_Tables_number   1
_chemical_formula_structural   Pr3Al9Si3Os4
_chemical_formula_sum   'Pr6 Al18 Si6 Os8'
_cell_volume   649.54999413
_cell_formula_units_Z   2
loop_
 _symmetry_equiv_pos_site_id
 _symmetry_equiv_pos_as_xyz
  1  'x, y, z'
loop_
 _atom_site_type_symbol
 _atom_site_label
 _atom_site_symmetry_multiplicity
 _atom_site_fract_x
 _atom_site_fract_y
 _atom_site_fract_z
 _atom_site_occupancy
  Pr  Pr0  1  0.190947  0.381894  0.250000  1
  Pr  Pr1  1  0.809053  0.618106  0.750000  1
  Pr  Pr2  1  0.614059  0.810001  0.250000  1
  Pr  Pr3  1  0.385941  0.189999  0.750000  1
  Pr  Pr4  1  0.195942  0.810001  0.250000  1
  Pr  Pr5  1  0.804058  0.189999  0.750000  1
  Al  Al6  1  0.165201  0.330400  0.576318  1
  Al  Al7  1  0.834799  0.669600  0.423682  1
  Al  Al8  1  0.670081  0.834140  0.573816  1
  Al  Al9  1  0.834799  0.669600  0.076318  1
  Al  Al10  1  0.329919  0.165860  0.426184  1
  Al  Al11  1  0.165201  0.330400  0.923682  1
  Al  Al12  1  0.164059  0.834140  0.573816  1
  Al  Al13  1  0.329919  0.165860  0.073816  1
  Al  Al14  1  0.835941  0.165860  0.426184  1
  Al  Al15  1  0.670081  0.834140  0.926184  1
  Al  Al16  1  0.835941  0.165860  0.073816  1
  Al  Al17  1  0.164059  0.834140  0.926184  1
  Al  Al18  1  0.869069  0.430823  0.250000  1
  Al  Al19  1  0.130931  0.569177  0.750000  1
  Al  Al20  1  0.561753  0.430823  0.250000  1
  Al  Al21  1  0.438247  0.569177  0.750000  1
  Al  Al22  1  0.998756  0.997511  0.250000  1
  Al  Al23  1  0.001244  0.002489  0.750000  1
  Si  Si24  1  0.331711  0.663425  0.031412  1
  Si  Si25  1  0.668289  0.336575  0.968588  1
  Si  Si26  1  0.668289  0.336575  0.531412  1
  Si  Si27  1  0.331711  0.663425  0.468588  1
  Si  Si28  1  0.565236  0.130472  0.250000  1
  Si  Si29  1  0.434764  0.869528  0.750000  1
  Os  Os30  1  0.500000  0.000000  0.000000  1
  Os  Os31  1  0.000000  0.500000  0.000000  1
  Os  Os32  1  0.500000  0.000000  0.500000  1
  Os  Os33  1  0.500000  0.500000  0.000000  1
  Os  Os34  1  0.000000  0.500000  0.500000  1
  Os  Os35  1  0.500000  0.500000  0.500000  1
  Os  Os36  1  0.000000  0.000000  0.000000  1
  Os  Os37  1  0.000000  0.000000  0.500000  1
