# generated using pymatgen
data_Nd3Th(Si5Os3)2
_symmetry_space_group_name_H-M   'P 1'
_cell_length_a   8.23745532
_cell_length_b   8.22698463
_cell_length_c   5.90243505
_cell_angle_alpha   70.37901717
_cell_angle_beta   70.42675487
_cell_angle_gamma   93.70605851
_symmetry_Int_Tables_number   1
_chemical_formula_structural   Nd3Th(Si5Os3)2
_chemical_formula_sum   'Nd3 Th1 Si10 Os6'
_cell_volume   347.86301504
_cell_formula_units_Z   1
loop_
 _symmetry_equiv_pos_site_id
 _symmetry_equiv_pos_as_xyz
  1  'x, y, z'
loop_
 _atom_site_type_symbol
 _atom_site_label
 _atom_site_symmetry_multiplicity
 _atom_site_fract_x
 _atom_site_fract_y
 _atom_site_fract_z
 _atom_site_occupancy
  Nd  Nd0  1  0.867280  0.602242  0.756075  1
  Nd  Nd1  1  0.396688  0.133883  0.743164  1
  Nd  Nd2  1  0.133512  0.397570  0.243263  1
  Th  Th3  1  0.601490  0.867017  0.258300  1
  Si  Si4  1  0.061804  0.260351  0.836459  1
  Si  Si5  1  0.741025  0.939252  0.662619  1
  Si  Si6  1  0.940150  0.738180  0.163040  1
  Si  Si7  1  0.259488  0.061299  0.337143  1
  Si  Si8  1  0.207893  0.791601  0.750406  1
  Si  Si9  1  0.793178  0.210433  0.250020  1
  Si  Si10  1  0.512440  0.486829  0.751488  1
  Si  Si11  1  0.487007  0.509925  0.251035  1
  Si  Si12  1  0.772297  0.229904  0.747454  1
  Si  Si13  1  0.226243  0.772633  0.250513  1
  Os  Os14  1  0.257825  0.543070  0.630305  1
  Os  Os15  1  0.459073  0.744756  0.866440  1
  Os  Os16  1  0.742499  0.458651  0.366805  1
  Os  Os17  1  0.543786  0.254153  0.132203  1
  Os  Os18  1  0.001495  0.996251  0.751762  1
  Os  Os19  1  0.994828  0.002000  0.251506  1
