# generated using pymatgen
data_Sm3VFeC6
_symmetry_space_group_name_H-M   'P 1'
_cell_length_a   8.26329700
_cell_length_b   8.26329665
_cell_length_c   5.07735300
_cell_angle_alpha   90.00000000
_cell_angle_beta   90.00000000
_cell_angle_gamma   119.99999742
_symmetry_Int_Tables_number   1
_chemical_formula_structural   Sm3VFeC6
_chemical_formula_sum   'Sm6 V2 Fe2 C12'
_cell_volume   300.24425614
_cell_formula_units_Z   2
loop_
 _symmetry_equiv_pos_site_id
 _symmetry_equiv_pos_as_xyz
  1  'x, y, z'
loop_
 _atom_site_type_symbol
 _atom_site_label
 _atom_site_symmetry_multiplicity
 _atom_site_fract_x
 _atom_site_fract_y
 _atom_site_fract_z
 _atom_site_occupancy
  Sm  Sm0  1  0.620000  0.680316  0.750000  1
  Sm  Sm1  1  0.939684  0.620000  0.250000  1
  Sm  Sm2  1  0.680316  0.060316  0.250000  1
  Sm  Sm3  1  0.319684  0.939684  0.750000  1
  Sm  Sm4  1  0.060316  0.380000  0.750000  1
  Sm  Sm5  1  0.380000  0.319684  0.250000  1
  V  V6  1  0.000000  0.000000  0.500000  1
  V  V7  1  0.000000  0.000000  0.000000  1
  Fe  Fe8  1  0.666667  0.333333  0.750000  1
  Fe  Fe9  1  0.333333  0.666667  0.250000  1
  C  C10  1  0.957321  0.763272  0.750000  1
  C  C11  1  0.194050  0.957321  0.250000  1
  C  C12  1  0.763272  0.805950  0.250000  1
  C  C13  1  0.236728  0.194050  0.750000  1
  C  C14  1  0.805950  0.042679  0.750000  1
  C  C15  1  0.042679  0.236728  0.250000  1
  C  C16  1  0.863454  0.572787  0.750000  1
  C  C17  1  0.290667  0.863454  0.250000  1
  C  C18  1  0.572787  0.709333  0.250000  1
  C  C19  1  0.427213  0.290667  0.750000  1
  C  C20  1  0.136546  0.427213  0.250000  1
  C  C21  1  0.709333  0.136546  0.750000  1
