# generated using pymatgen
data_Tb3Ce(GaIr)4
_symmetry_space_group_name_H-M   'P 1'
_cell_length_a   4.34332800
_cell_length_b   6.88392781
_cell_length_c   7.85416151
_cell_angle_alpha   90.12170169
_cell_angle_beta   90.00000000
_cell_angle_gamma   90.00000000
_symmetry_Int_Tables_number   1
_chemical_formula_structural   Tb3Ce(GaIr)4
_chemical_formula_sum   'Tb3 Ce1 Ga4 Ir4'
_cell_volume   234.83227376
_cell_formula_units_Z   1
loop_
 _symmetry_equiv_pos_site_id
 _symmetry_equiv_pos_as_xyz
  1  'x, y, z'
loop_
 _atom_site_type_symbol
 _atom_site_label
 _atom_site_symmetry_multiplicity
 _atom_site_fract_x
 _atom_site_fract_y
 _atom_site_fract_z
 _atom_site_occupancy
  Tb  Tb0  1  0.250000  0.529062  0.186620  1
  Tb  Tb1  1  0.750000  0.471584  0.811758  1
  Tb  Tb2  1  0.750000  0.970701  0.692024  1
  Ce  Ce3  1  0.250000  0.029212  0.315747  1
  Ga  Ga4  1  0.250000  0.651245  0.568857  1
  Ga  Ga5  1  0.750000  0.352381  0.433764  1
  Ga  Ga6  1  0.750000  0.844113  0.065189  1
  Ga  Ga7  1  0.250000  0.153519  0.929854  1
  Ir  Ir8  1  0.250000  0.766756  0.887321  1
  Ir  Ir9  1  0.750000  0.229467  0.115208  1
  Ir  Ir10  1  0.750000  0.736615  0.386407  1
  Ir  Ir11  1  0.250000  0.265346  0.607252  1
