# generated using pymatgen
data_Li2Nd3Dy3(Co4P3)4
_symmetry_space_group_name_H-M   'P 1'
_cell_length_a   3.75118300
_cell_length_b   10.65718670
_cell_length_c   12.30856397
_cell_angle_alpha   89.93524223
_cell_angle_beta   90.00000000
_cell_angle_gamma   90.00000000
_symmetry_Int_Tables_number   1
_chemical_formula_structural   Li2Nd3Dy3(Co4P3)4
_chemical_formula_sum   'Li2 Nd3 Dy3 Co16 P12'
_cell_volume   492.05985613
_cell_formula_units_Z   1
loop_
 _symmetry_equiv_pos_site_id
 _symmetry_equiv_pos_as_xyz
  1  'x, y, z'
loop_
 _atom_site_type_symbol
 _atom_site_label
 _atom_site_symmetry_multiplicity
 _atom_site_fract_x
 _atom_site_fract_y
 _atom_site_fract_z
 _atom_site_occupancy
  Li  Li0  1  0.500000  0.500225  0.150708  1
  Li  Li1  1  0.000000  0.999443  0.849680  1
  Nd  Nd2  1  0.000000  0.500392  0.522260  1
  Nd  Nd3  1  0.500000  0.999731  0.476628  1
  Nd  Nd4  1  0.000000  0.319558  0.793903  1
  Dy  Dy5  1  0.500000  0.819110  0.205966  1
  Dy  Dy6  1  0.500000  0.180390  0.205036  1
  Dy  Dy7  1  0.000000  0.681954  0.794844  1
  Co  Co8  1  0.500000  0.503539  0.707058  1
  Co  Co9  1  0.000000  0.999508  0.292550  1
  Co  Co10  1  0.000000  0.501434  0.988981  1
  Co  Co11  1  0.500000  0.998658  0.014054  1
  Co  Co12  1  0.500000  0.333043  0.998618  1
  Co  Co13  1  0.500000  0.668414  0.997944  1
  Co  Co14  1  0.000000  0.165916  0.004894  1
  Co  Co15  1  0.000000  0.832916  0.003435  1
  Co  Co16  1  0.500000  0.296211  0.427829  1
  Co  Co17  1  0.500000  0.704097  0.429656  1
  Co  Co18  1  0.000000  0.202755  0.567656  1
  Co  Co19  1  0.000000  0.796354  0.569992  1
  Co  Co20  1  0.500000  0.878494  0.709292  1
  Co  Co21  1  0.500000  0.118843  0.707070  1
  Co  Co22  1  0.000000  0.621069  0.290928  1
  Co  Co23  1  0.000000  0.378917  0.290392  1
  P  P24  1  0.500000  0.502889  0.887837  1
  P  P25  1  0.000000  0.999091  0.114845  1
  P  P26  1  0.500000  0.500040  0.341534  1
  P  P27  1  0.000000  0.999745  0.657887  1
  P  P28  1  0.500000  0.305212  0.612857  1
  P  P29  1  0.500000  0.694020  0.616831  1
  P  P30  1  0.000000  0.192954  0.381684  1
  P  P31  1  0.000000  0.806333  0.382961  1
  P  P32  1  0.500000  0.843252  0.894758  1
  P  P33  1  0.500000  0.154689  0.897467  1
  P  P34  1  0.000000  0.657822  0.106262  1
  P  P35  1  0.000000  0.342983  0.105702  1
