# generated using pymatgen
data_Tb5LuSi24Os7Ru
_symmetry_space_group_name_H-M   'P 1'
_cell_length_a   10.13031447
_cell_length_b   10.13031445
_cell_length_c   8.17397421
_cell_angle_alpha   90.01776294
_cell_angle_beta   90.01776292
_cell_angle_gamma   132.43785026
_symmetry_Int_Tables_number   1
_chemical_formula_structural   Tb5LuSi24Os7Ru
_chemical_formula_sum   'Tb5 Lu1 Si24 Os7 Ru1'
_cell_volume   619.07187516
_cell_formula_units_Z   1
loop_
 _symmetry_equiv_pos_site_id
 _symmetry_equiv_pos_as_xyz
  1  'x, y, z'
loop_
 _atom_site_type_symbol
 _atom_site_label
 _atom_site_symmetry_multiplicity
 _atom_site_fract_x
 _atom_site_fract_y
 _atom_site_fract_z
 _atom_site_occupancy
  Tb  Tb0  1  0.000647  0.000647  0.999846  1
  Tb  Tb1  1  0.501182  0.000992  0.749070  1
  Tb  Tb2  1  0.998720  0.498962  0.250969  1
  Tb  Tb3  1  0.498962  0.998720  0.250969  1
  Tb  Tb4  1  0.000992  0.501182  0.749070  1
  Lu  Lu5  1  0.500080  0.500080  0.499053  1
  Si  Si6  1  0.794763  0.205107  0.500151  1
  Si  Si7  1  0.295824  0.704168  0.000169  1
  Si  Si8  1  0.205107  0.794763  0.500151  1
  Si  Si9  1  0.704168  0.295824  0.000169  1
  Si  Si10  1  0.334029  0.334029  0.831506  1
  Si  Si11  1  0.668778  0.668778  0.165702  1
  Si  Si12  1  0.167599  0.167599  0.332976  1
  Si  Si13  1  0.831754  0.831754  0.667536  1
  Si  Si14  1  0.118868  0.884455  0.727529  1
  Si  Si15  1  0.115301  0.880196  0.272549  1
  Si  Si16  1  0.610329  0.376800  0.228977  1
  Si  Si17  1  0.622052  0.389260  0.771379  1
  Si  Si18  1  0.880196  0.115301  0.272549  1
  Si  Si19  1  0.884455  0.118868  0.727529  1
  Si  Si20  1  0.389260  0.622052  0.771379  1
  Si  Si21  1  0.376800  0.610329  0.228977  1
  Si  Si22  1  0.344841  0.111185  0.503618  1
  Si  Si23  1  0.888253  0.655193  0.497029  1
  Si  Si24  1  0.388212  0.154511  0.005779  1
  Si  Si25  1  0.845179  0.612055  0.994885  1
  Si  Si26  1  0.655193  0.888253  0.497029  1
  Si  Si27  1  0.111185  0.344841  0.503618  1
  Si  Si28  1  0.612055  0.845179  0.994885  1
  Si  Si29  1  0.154511  0.388212  0.005779  1
  Os  Os30  1  0.668001  0.332251  0.500010  1
  Os  Os31  1  0.169764  0.830411  0.999668  1
  Os  Os32  1  0.332251  0.668001  0.500010  1
  Os  Os33  1  0.830411  0.169764  0.999668  1
  Os  Os34  1  0.127408  0.127408  0.625941  1
  Os  Os35  1  0.872790  0.872790  0.373933  1
  Os  Os36  1  0.373848  0.373848  0.128938  1
  Ru  Ru37  1  0.626226  0.626226  0.871005  1
