# generated using pymatgen
data_CaTm4Pa3(ReB6)4
_symmetry_space_group_name_H-M   'P 1'
_cell_length_a   3.69131500
_cell_length_b   9.13677895
_cell_length_c   11.50155702
_cell_angle_alpha   90.17806718
_cell_angle_beta   90.00000000
_cell_angle_gamma   90.00000000
_symmetry_Int_Tables_number   1
_chemical_formula_structural   CaTm4Pa3(ReB6)4
_chemical_formula_sum   'Ca1 Tm4 Pa3 Re4 B24'
_cell_volume   387.90802578
_cell_formula_units_Z   1
loop_
 _symmetry_equiv_pos_site_id
 _symmetry_equiv_pos_as_xyz
  1  'x, y, z'
loop_
 _atom_site_type_symbol
 _atom_site_label
 _atom_site_symmetry_multiplicity
 _atom_site_fract_x
 _atom_site_fract_y
 _atom_site_fract_z
 _atom_site_occupancy
  Ca  Ca0  1  0.000000  0.179358  0.913178  1
  Tm  Tm1  1  0.000000  0.945758  0.374591  1
  Tm  Tm2  1  0.000000  0.055910  0.628748  1
  Tm  Tm3  1  0.000000  0.442917  0.124570  1
  Tm  Tm4  1  0.000000  0.552932  0.873661  1
  Pa  Pa5  1  0.000000  0.320869  0.413381  1
  Pa  Pa6  1  0.000000  0.678157  0.587786  1
  Pa  Pa7  1  0.000000  0.824476  0.085209  1
  Re  Re8  1  0.000000  0.638720  0.321717  1
  Re  Re9  1  0.000000  0.364849  0.674165  1
  Re  Re10  1  0.000000  0.138378  0.182795  1
  Re  Re11  1  0.000000  0.857574  0.820057  1
  B  B12  1  0.500000  0.553911  0.432113  1
  B  B13  1  0.500000  0.446854  0.566360  1
  B  B14  1  0.500000  0.052996  0.068887  1
  B  B15  1  0.500000  0.944612  0.932605  1
  B  B16  1  0.500000  0.749685  0.420144  1
  B  B17  1  0.500000  0.251156  0.580372  1
  B  B18  1  0.500000  0.248889  0.080271  1
  B  B19  1  0.500000  0.750547  0.919994  1
  B  B20  1  0.500000  0.792703  0.265553  1
  B  B21  1  0.500000  0.208385  0.733514  1
  B  B22  1  0.500000  0.292570  0.233978  1
  B  B23  1  0.500000  0.706606  0.765956  1
  B  B24  1  0.500000  0.632159  0.184233  1
  B  B25  1  0.500000  0.368812  0.814273  1
  B  B26  1  0.500000  0.132021  0.315544  1
  B  B27  1  0.500000  0.867624  0.685800  1
  B  B28  1  0.500000  0.982269  0.213408  1
  B  B29  1  0.500000  0.017181  0.786845  1
  B  B30  1  0.500000  0.482744  0.285799  1
  B  B31  1  0.500000  0.517144  0.713270  1
  B  B32  1  0.500000  0.606513  0.029635  1
  B  B33  1  0.500000  0.394646  0.970503  1
  B  B34  1  0.500000  0.108512  0.470671  1
  B  B35  1  0.500000  0.891562  0.530416  1
