# generated using pymatgen
data_Er2UGa9
_symmetry_space_group_name_H-M   'P 1'
_cell_length_a   14.50991706
_cell_length_b   14.50991725
_cell_length_c   14.50991800
_cell_angle_alpha   24.52580862
_cell_angle_beta   24.52580695
_cell_angle_gamma   24.52581342
_symmetry_Int_Tables_number   1
_chemical_formula_structural   Er2UGa9
_chemical_formula_sum   'Er4 U2 Ga18'
_cell_volume   462.82257041
_cell_formula_units_Z   2
loop_
 _symmetry_equiv_pos_site_id
 _symmetry_equiv_pos_as_xyz
  1  'x, y, z'
loop_
 _atom_site_type_symbol
 _atom_site_label
 _atom_site_symmetry_multiplicity
 _atom_site_fract_x
 _atom_site_fract_y
 _atom_site_fract_z
 _atom_site_occupancy
  Er  Er0  1  0.390844  0.390844  0.390844  1
  Er  Er1  1  0.999943  0.999943  0.999943  1
  Er  Er2  1  0.500007  0.500007  0.500007  1
  Er  Er3  1  0.609066  0.609066  0.609066  1
  U  U4  1  0.108238  0.108238  0.108238  1
  U  U5  1  0.891693  0.891693  0.891693  1
  Ga  Ga6  1  0.920649  0.372615  0.372615  1
  Ga  Ga7  1  0.421262  0.871252  0.871252  1
  Ga  Ga8  1  0.372615  0.372615  0.920649  1
  Ga  Ga9  1  0.871252  0.871252  0.421262  1
  Ga  Ga10  1  0.372615  0.920649  0.372615  1
  Ga  Ga11  1  0.871252  0.421262  0.871252  1
  Ga  Ga12  1  0.577893  0.129315  0.129315  1
  Ga  Ga13  1  0.079494  0.627329  0.627329  1
  Ga  Ga14  1  0.129315  0.129315  0.577893  1
  Ga  Ga15  1  0.627329  0.627329  0.079494  1
  Ga  Ga16  1  0.129315  0.577893  0.129315  1
  Ga  Ga17  1  0.627329  0.079494  0.627329  1
  Ga  Ga18  1  0.500245  0.500245  0.999487  1
  Ga  Ga19  1  0.000325  0.000325  0.499257  1
  Ga  Ga20  1  0.500245  0.999487  0.500245  1
  Ga  Ga21  1  0.000325  0.499257  0.000325  1
  Ga  Ga22  1  0.999487  0.500245  0.500245  1
  Ga  Ga23  1  0.499257  0.000325  0.000325  1
