# generated using pymatgen
data_ErLuCo3Si4Rh3
_symmetry_space_group_name_H-M   'P 1'
_cell_length_a   6.42518577
_cell_length_b   6.48233155
_cell_length_c   6.42407230
_cell_angle_alpha   131.37156638
_cell_angle_beta   113.94507291
_cell_angle_gamma   85.87539690
_symmetry_Int_Tables_number   1
_chemical_formula_structural   ErLuCo3Si4Rh3
_chemical_formula_sum   'Er1 Lu1 Co3 Si4 Rh3'
_cell_volume   175.83050090
_cell_formula_units_Z   1
loop_
 _symmetry_equiv_pos_site_id
 _symmetry_equiv_pos_as_xyz
  1  'x, y, z'
loop_
 _atom_site_type_symbol
 _atom_site_label
 _atom_site_symmetry_multiplicity
 _atom_site_fract_x
 _atom_site_fract_y
 _atom_site_fract_z
 _atom_site_occupancy
  Er  Er0  1  0.249845  0.963753  0.717169  1
  Lu  Lu1  1  0.753750  0.038787  0.288388  1
  Co  Co2  1  0.216743  0.497767  0.716251  1
  Co  Co3  1  0.779535  0.498202  0.279441  1
  Co  Co4  1  0.718936  0.999681  0.717078  1
  Si  Si5  1  0.576903  0.378852  0.810965  1
  Si  Si6  1  0.923203  0.724645  0.789596  1
  Si  Si7  1  0.431401  0.621489  0.199356  1
  Si  Si8  1  0.065405  0.276817  0.199338  1
  Rh  Rh9  1  0.502908  0.511304  0.511848  1
  Rh  Rh10  1  0.997066  0.488775  0.988344  1
  Rh  Rh11  1  0.284308  0.999928  0.282226  1
