# generated using pymatgen
data_Sc20Sn9Bi7
_symmetry_space_group_name_H-M   'P 1'
_cell_length_a   7.76879893
_cell_length_b   7.77846377
_cell_length_c   14.78341249
_cell_angle_alpha   90.08150280
_cell_angle_beta   89.63249836
_cell_angle_gamma   89.96543390
_symmetry_Int_Tables_number   1
_chemical_formula_structural   Sc20Sn9Bi7
_chemical_formula_sum   'Sc20 Sn9 Bi7'
_cell_volume   893.33213149
_cell_formula_units_Z   1
loop_
 _symmetry_equiv_pos_site_id
 _symmetry_equiv_pos_as_xyz
  1  'x, y, z'
loop_
 _atom_site_type_symbol
 _atom_site_label
 _atom_site_symmetry_multiplicity
 _atom_site_fract_x
 _atom_site_fract_y
 _atom_site_fract_z
 _atom_site_occupancy
  Sc  Sc0  1  0.393496  0.838764  0.876247  1
  Sc  Sc1  1  0.896370  0.662705  0.622873  1
  Sc  Sc2  1  0.603793  0.161260  0.376552  1
  Sc  Sc3  1  0.102660  0.339241  0.122843  1
  Sc  Sc4  1  0.608463  0.166657  0.122724  1
  Sc  Sc5  1  0.103896  0.337660  0.376679  1
  Sc  Sc6  1  0.394928  0.839531  0.624081  1
  Sc  Sc7  1  0.890696  0.659410  0.878771  1
  Sc  Sc8  1  0.568476  0.334146  0.889670  1
  Sc  Sc9  1  0.068498  0.168737  0.614590  1
  Sc  Sc10  1  0.432398  0.668069  0.385886  1
  Sc  Sc11  1  0.934165  0.823003  0.111709  1
  Sc  Sc12  1  0.443592  0.665170  0.110465  1
  Sc  Sc13  1  0.931774  0.830965  0.385313  1
  Sc  Sc14  1  0.568244  0.331993  0.614116  1
  Sc  Sc15  1  0.059431  0.173928  0.889340  1
  Sc  Sc16  1  0.227474  0.501878  0.750674  1
  Sc  Sc17  1  0.727331  0.000704  0.750798  1
  Sc  Sc18  1  0.772872  0.498193  0.246109  1
  Sc  Sc19  1  0.272432  0.999738  0.249086  1
  Sn  Sn20  1  0.768831  0.479942  0.043570  1
  Sn  Sn21  1  0.591432  0.631152  0.749767  1
  Sn  Sn22  1  0.089686  0.870432  0.751358  1
  Sn  Sn23  1  0.407845  0.368959  0.250120  1
  Sn  Sn24  1  0.908967  0.128757  0.249865  1
  Sn  Sn25  1  0.369383  0.146491  0.751816  1
  Sn  Sn26  1  0.869643  0.356823  0.750189  1
  Sn  Sn27  1  0.630386  0.855542  0.249060  1
  Sn  Sn28  1  0.132335  0.643484  0.249452  1
  Bi  Bi29  1  0.264924  0.016383  0.043804  1
  Bi  Bi30  1  0.763435  0.486150  0.454730  1
  Bi  Bi31  1  0.736529  0.986680  0.544342  1
  Bi  Bi32  1  0.233271  0.518774  0.956550  1
  Bi  Bi33  1  0.732288  0.981563  0.956733  1
  Bi  Bi34  1  0.237402  0.514003  0.544494  1
  Bi  Bi35  1  0.262651  0.013111  0.455620  1
