# generated using pymatgen
data_Dy4B4I5
_symmetry_space_group_name_H-M   'P 1'
_cell_length_a   9.72372892
_cell_length_b   9.72372914
_cell_length_c   9.77232355
_cell_angle_alpha   75.27344702
_cell_angle_beta   75.27344704
_cell_angle_gamma   25.40875715
_symmetry_Int_Tables_number   1
_chemical_formula_structural   Dy4B4I5
_chemical_formula_sum   'Dy4 B4 I5'
_cell_volume   382.75863937
_cell_formula_units_Z   1
loop_
 _symmetry_equiv_pos_site_id
 _symmetry_equiv_pos_as_xyz
  1  'x, y, z'
loop_
 _atom_site_type_symbol
 _atom_site_label
 _atom_site_symmetry_multiplicity
 _atom_site_fract_x
 _atom_site_fract_y
 _atom_site_fract_z
 _atom_site_occupancy
  Dy  Dy0  1  0.504804  0.504804  0.755612  1
  Dy  Dy1  1  0.497126  0.497126  0.243761  1
  Dy  Dy2  1  0.127841  0.127841  0.936612  1
  Dy  Dy3  1  0.873703  0.873703  0.061746  1
  B  B4  1  0.314710  0.686799  0.999793  1
  B  B5  1  0.686799  0.314710  0.999793  1
  B  B6  1  0.000128  0.000128  0.099639  1
  B  B7  1  0.001431  0.001431  0.899879  1
  I  I8  1  0.674761  0.674761  0.689455  1
  I  I9  1  0.327122  0.327122  0.309360  1
  I  I10  1  0.331557  0.331557  0.853489  1
  I  I11  1  0.671116  0.671116  0.142537  1
  I  I12  1  0.003204  0.003204  0.498524  1
