# generated using pymatgen
data_TbDy17(MgIr6)2
_symmetry_space_group_name_H-M   'P 1'
_cell_length_a   10.80522800
_cell_length_b   10.80522800
_cell_length_c   6.32514900
_cell_angle_alpha   90.00000000
_cell_angle_beta   90.00000000
_cell_angle_gamma   90.00000000
_symmetry_Int_Tables_number   1
_chemical_formula_structural   TbDy17(MgIr6)2
_chemical_formula_sum   'Tb1 Dy17 Mg2 Ir12'
_cell_volume   738.47981842
_cell_formula_units_Z   1
loop_
 _symmetry_equiv_pos_site_id
 _symmetry_equiv_pos_as_xyz
  1  'x, y, z'
loop_
 _atom_site_type_symbol
 _atom_site_label
 _atom_site_symmetry_multiplicity
 _atom_site_fract_x
 _atom_site_fract_y
 _atom_site_fract_z
 _atom_site_occupancy
  Tb  Tb0  1  0.000000  0.000000  0.500000  1
  Dy  Dy1  1  0.291498  0.089333  0.381140  1
  Dy  Dy2  1  0.285342  0.915323  0.878659  1
  Dy  Dy3  1  0.714658  0.084677  0.878659  1
  Dy  Dy4  1  0.708502  0.910667  0.381140  1
  Dy  Dy5  1  0.584960  0.784995  0.878681  1
  Dy  Dy6  1  0.589119  0.207947  0.380974  1
  Dy  Dy7  1  0.410881  0.792053  0.380974  1
  Dy  Dy8  1  0.415040  0.215005  0.878681  1
  Dy  Dy9  1  0.207947  0.410881  0.619026  1
  Dy  Dy10  1  0.215005  0.584960  0.121319  1
  Dy  Dy11  1  0.784995  0.415040  0.121319  1
  Dy  Dy12  1  0.792053  0.589119  0.619026  1
  Dy  Dy13  1  0.915323  0.714658  0.121341  1
  Dy  Dy14  1  0.910667  0.291498  0.618860  1
  Dy  Dy15  1  0.089333  0.708502  0.618860  1
  Dy  Dy16  1  0.084677  0.285342  0.121341  1
  Dy  Dy17  1  0.500000  0.500000  0.500000  1
  Mg  Mg18  1  0.000000  0.000000  0.000000  1
  Mg  Mg19  1  0.500000  0.500000  0.000000  1
  Ir  Ir20  1  0.845752  0.154053  0.249558  1
  Ir  Ir21  1  0.845947  0.845752  0.750442  1
  Ir  Ir22  1  0.154053  0.154248  0.750442  1
  Ir  Ir23  1  0.154248  0.845947  0.249558  1
  Ir  Ir24  1  0.654859  0.346486  0.748403  1
  Ir  Ir25  1  0.653514  0.654859  0.251597  1
  Ir  Ir26  1  0.346486  0.345141  0.251597  1
  Ir  Ir27  1  0.345141  0.653514  0.748403  1
  Ir  Ir28  1  0.500000  0.000000  0.119370  1
  Ir  Ir29  1  0.500000  0.000000  0.627923  1
  Ir  Ir30  1  0.000000  0.500000  0.880630  1
  Ir  Ir31  1  0.000000  0.500000  0.372077  1
