# generated using pymatgen
data_KZn2In7Ir2
_symmetry_space_group_name_H-M   'P 1'
_cell_length_a   8.92418900
_cell_length_b   9.04285502
_cell_length_c   4.03676500
_cell_angle_alpha   90.00000000
_cell_angle_beta   90.00000000
_cell_angle_gamma   119.56684448
_symmetry_Int_Tables_number   1
_chemical_formula_structural   KZn2In7Ir2
_chemical_formula_sum   'K1 Zn2 In7 Ir2'
_cell_volume   283.34628266
_cell_formula_units_Z   1
loop_
 _symmetry_equiv_pos_site_id
 _symmetry_equiv_pos_as_xyz
  1  'x, y, z'
loop_
 _atom_site_type_symbol
 _atom_site_label
 _atom_site_symmetry_multiplicity
 _atom_site_fract_x
 _atom_site_fract_y
 _atom_site_fract_z
 _atom_site_occupancy
  K  K0  1  0.000000  0.000000  0.000000  1
  Zn  Zn1  1  0.000000  0.500000  0.000000  1
  Zn  Zn2  1  0.500000  0.500000  0.000000  1
  In  In3  1  0.592045  0.784440  0.500000  1
  In  In4  1  0.192396  0.784440  0.500000  1
  In  In5  1  0.205223  0.410445  0.500000  1
  In  In6  1  0.794777  0.589555  0.500000  1
  In  In7  1  0.807604  0.215560  0.500000  1
  In  In8  1  0.407955  0.215560  0.500000  1
  In  In9  1  0.500000  0.000000  0.000000  1
  Ir  Ir10  1  0.330849  0.661698  0.000000  1
  Ir  Ir11  1  0.669151  0.338302  0.000000  1
