# generated using pymatgen
data_Ca6La9Pr(CdIr)4
_symmetry_space_group_name_H-M   'P 1'
_cell_length_a   10.10031006
_cell_length_b   10.10031076
_cell_length_c   10.10387100
_cell_angle_alpha   59.98833582
_cell_angle_beta   59.98833353
_cell_angle_gamma   60.44627408
_symmetry_Int_Tables_number   1
_chemical_formula_structural   Ca6La9Pr(CdIr)4
_chemical_formula_sum   'Ca6 La9 Pr1 Cd4 Ir4'
_cell_volume   731.15337791
_cell_formula_units_Z   1
loop_
 _symmetry_equiv_pos_site_id
 _symmetry_equiv_pos_as_xyz
  1  'x, y, z'
loop_
 _atom_site_type_symbol
 _atom_site_label
 _atom_site_symmetry_multiplicity
 _atom_site_fract_x
 _atom_site_fract_y
 _atom_site_fract_z
 _atom_site_occupancy
  Ca  Ca0  1  0.805200  0.805200  0.194800  1
  Ca  Ca1  1  0.935024  0.564240  0.561091  1
  Ca  Ca2  1  0.564240  0.935024  0.939645  1
  Ca  Ca3  1  0.564240  0.935024  0.561091  1
  Ca  Ca4  1  0.935024  0.564240  0.939645  1
  Ca  Ca5  1  0.558321  0.558321  0.941679  1
  La  La6  1  0.347943  0.347943  0.346543  1
  La  La7  1  0.347943  0.347943  0.957570  1
  La  La8  1  0.347136  0.964394  0.344235  1
  La  La9  1  0.964394  0.347136  0.344235  1
  La  La10  1  0.807133  0.186458  0.194287  1
  La  La11  1  0.186458  0.807133  0.812122  1
  La  La12  1  0.186458  0.807133  0.194287  1
  La  La13  1  0.807133  0.186458  0.812122  1
  La  La14  1  0.192028  0.192028  0.807972  1
  Pr  Pr15  1  0.939404  0.939404  0.560596  1
  Cd  Cd16  1  0.578901  0.578901  0.576957  1
  Cd  Cd17  1  0.578901  0.578901  0.265242  1
  Cd  Cd18  1  0.582024  0.262049  0.577963  1
  Cd  Cd19  1  0.262049  0.582024  0.577963  1
  Ir  Ir20  1  0.139015  0.139015  0.141495  1
  Ir  Ir21  1  0.139015  0.139015  0.580476  1
  Ir  Ir22  1  0.154422  0.577595  0.133991  1
  Ir  Ir23  1  0.577595  0.154422  0.133991  1
