# generated using pymatgen
data_Tb6Dy3Tm7(CdPt)4
_symmetry_space_group_name_H-M   'P 1'
_cell_length_a   9.64585834
_cell_length_b   9.63540350
_cell_length_c   9.63540400
_cell_angle_alpha   59.99999828
_cell_angle_beta   60.03584588
_cell_angle_gamma   60.03584847
_symmetry_Int_Tables_number   1
_chemical_formula_structural   Tb6Dy3Tm7(CdPt)4
_chemical_formula_sum   'Tb6 Dy3 Tm7 Cd4 Pt4'
_cell_volume   633.57905559
_cell_formula_units_Z   1
loop_
 _symmetry_equiv_pos_site_id
 _symmetry_equiv_pos_as_xyz
  1  'x, y, z'
loop_
 _atom_site_type_symbol
 _atom_site_label
 _atom_site_symmetry_multiplicity
 _atom_site_fract_x
 _atom_site_fract_y
 _atom_site_fract_z
 _atom_site_occupancy
  Tb  Tb0  1  0.935466  0.564341  0.564341  1
  Tb  Tb1  1  0.564564  0.935422  0.935422  1
  Tb  Tb2  1  0.564564  0.935422  0.564593  1
  Tb  Tb3  1  0.935466  0.564341  0.935852  1
  Tb  Tb4  1  0.564564  0.564593  0.935422  1
  Tb  Tb5  1  0.935466  0.935852  0.564341  1
  Dy  Dy6  1  0.352162  0.352269  0.352269  1
  Dy  Dy7  1  0.352162  0.352269  0.943301  1
  Dy  Dy8  1  0.352162  0.943301  0.352269  1
  Tm  Tm9  1  0.945240  0.351587  0.351587  1
  Tm  Tm10  1  0.812575  0.187610  0.187610  1
  Tm  Tm11  1  0.187140  0.812840  0.812840  1
  Tm  Tm12  1  0.187140  0.812840  0.187181  1
  Tm  Tm13  1  0.812575  0.187610  0.812205  1
  Tm  Tm14  1  0.187140  0.187181  0.812840  1
  Tm  Tm15  1  0.812575  0.812205  0.187610  1
  Cd  Cd16  1  0.582390  0.581171  0.581171  1
  Cd  Cd17  1  0.582390  0.581171  0.255267  1
  Cd  Cd18  1  0.582390  0.255267  0.581171  1
  Cd  Cd19  1  0.255235  0.581588  0.581588  1
  Pt  Pt20  1  0.141097  0.143341  0.143341  1
  Pt  Pt21  1  0.141097  0.143341  0.572223  1
  Pt  Pt22  1  0.141097  0.572223  0.143341  1
  Pt  Pt23  1  0.573347  0.142218  0.142218  1
