# generated using pymatgen
data_Y20Ir5Ru4Rh3
_symmetry_space_group_name_H-M   'P 1'
_cell_length_a   10.90863143
_cell_length_b   10.90863143
_cell_length_c   6.45051606
_cell_angle_alpha   90.01111586
_cell_angle_beta   90.01111586
_cell_angle_gamma   90.03012685
_symmetry_Int_Tables_number   1
_chemical_formula_structural   Y20Ir5Ru4Rh3
_chemical_formula_sum   'Y20 Ir5 Ru4 Rh3'
_cell_volume   767.59992097
_cell_formula_units_Z   1
loop_
 _symmetry_equiv_pos_site_id
 _symmetry_equiv_pos_as_xyz
  1  'x, y, z'
loop_
 _atom_site_type_symbol
 _atom_site_label
 _atom_site_symmetry_multiplicity
 _atom_site_fract_x
 _atom_site_fract_y
 _atom_site_fract_z
 _atom_site_occupancy
  Y  Y0  1  0.294112  0.086245  0.377062  1
  Y  Y1  1  0.293896  0.911871  0.878808  1
  Y  Y2  1  0.705183  0.087634  0.877706  1
  Y  Y3  1  0.705162  0.912178  0.377308  1
  Y  Y4  1  0.585697  0.793360  0.878964  1
  Y  Y5  1  0.585685  0.206652  0.378671  1
  Y  Y6  1  0.412977  0.793445  0.378452  1
  Y  Y7  1  0.414230  0.206621  0.878607  1
  Y  Y8  1  0.206640  0.414303  0.621036  1
  Y  Y9  1  0.206555  0.587023  0.121548  1
  Y  Y10  1  0.793348  0.414315  0.121329  1
  Y  Y11  1  0.793379  0.585770  0.621393  1
  Y  Y12  1  0.913755  0.705888  0.122938  1
  Y  Y13  1  0.912366  0.294817  0.622294  1
  Y  Y14  1  0.088129  0.706104  0.621192  1
  Y  Y15  1  0.087822  0.294838  0.122692  1
  Y  Y16  1  0.000336  0.999740  0.499780  1
  Y  Y17  1  0.000260  0.999664  0.000220  1
  Y  Y18  1  0.500033  0.500033  0.000097  1
  Y  Y19  1  0.499967  0.499967  0.499903  1
  Ir  Ir20  1  0.151983  0.848017  0.250000  1
  Ir  Ir21  1  0.653158  0.346842  0.750000  1
  Ir  Ir22  1  0.653138  0.653136  0.250058  1
  Ir  Ir23  1  0.346864  0.346862  0.249942  1
  Ir  Ir24  1  0.347308  0.652692  0.750000  1
  Ru  Ru25  1  0.500518  0.000222  0.123890  1
  Ru  Ru26  1  0.500485  0.000239  0.624091  1
  Ru  Ru27  1  0.999761  0.499515  0.875909  1
  Ru  Ru28  1  0.999778  0.499482  0.376110  1
  Rh  Rh29  1  0.847977  0.152023  0.250000  1
  Rh  Rh30  1  0.847455  0.847956  0.749852  1
  Rh  Rh31  1  0.152044  0.152545  0.750148  1
