# generated using pymatgen
data_Tb2Lu8In8PtRh3
_symmetry_space_group_name_H-M   'P 1'
_cell_length_a   3.57009700
_cell_length_b   7.99185607
_cell_length_c   18.11554360
_cell_angle_alpha   90.08207969
_cell_angle_beta   90.00000000
_cell_angle_gamma   90.00000000
_symmetry_Int_Tables_number   1
_chemical_formula_structural   Tb2Lu8In8PtRh3
_chemical_formula_sum   'Tb2 Lu8 In8 Pt1 Rh3'
_cell_volume   516.86675003
_cell_formula_units_Z   1
loop_
 _symmetry_equiv_pos_site_id
 _symmetry_equiv_pos_as_xyz
  1  'x, y, z'
loop_
 _atom_site_type_symbol
 _atom_site_label
 _atom_site_symmetry_multiplicity
 _atom_site_fract_x
 _atom_site_fract_y
 _atom_site_fract_z
 _atom_site_occupancy
  Tb  Tb0  1  0.000000  0.999903  0.000041  1
  Tb  Tb1  1  0.000000  0.500283  0.499957  1
  Lu  Lu2  1  0.000000  0.116774  0.412086  1
  Lu  Lu3  1  0.000000  0.882703  0.588180  1
  Lu  Lu4  1  0.000000  0.382763  0.911656  1
  Lu  Lu5  1  0.000000  0.618332  0.086576  1
  Lu  Lu6  1  0.000000  0.241362  0.221695  1
  Lu  Lu7  1  0.000000  0.754557  0.778618  1
  Lu  Lu8  1  0.000000  0.254772  0.721503  1
  Lu  Lu9  1  0.000000  0.748814  0.279237  1
  In  In10  1  0.500000  0.423532  0.350762  1
  In  In11  1  0.500000  0.574149  0.650635  1
  In  In12  1  0.500000  0.074483  0.849320  1
  In  In13  1  0.500000  0.927487  0.150359  1
  In  In14  1  0.500000  0.295720  0.066162  1
  In  In15  1  0.500000  0.702641  0.932444  1
  In  In16  1  0.500000  0.202800  0.567311  1
  In  In17  1  0.500000  0.797355  0.432404  1
  Pt  Pt18  1  0.500000  0.525525  0.196403  1
  Rh  Rh19  1  0.500000  0.025051  0.304613  1
  Rh  Rh20  1  0.500000  0.975675  0.695379  1
  Rh  Rh21  1  0.500000  0.475318  0.804658  1
