# generated using pymatgen
data_Yb2MgSc2Si7Pt9
_symmetry_space_group_name_H-M   'P 1'
_cell_length_a   10.08372551
_cell_length_b   10.06885401
_cell_length_c   3.94628700
_cell_angle_alpha   90.00000000
_cell_angle_beta   90.00000000
_cell_angle_gamma   119.84791685
_symmetry_Int_Tables_number   1
_chemical_formula_structural   Yb2MgSc2Si7Pt9
_chemical_formula_sum   'Yb2 Mg1 Sc2 Si7 Pt9'
_cell_volume   347.52325560
_cell_formula_units_Z   1
loop_
 _symmetry_equiv_pos_site_id
 _symmetry_equiv_pos_as_xyz
  1  'x, y, z'
loop_
 _atom_site_type_symbol
 _atom_site_label
 _atom_site_symmetry_multiplicity
 _atom_site_fract_x
 _atom_site_fract_y
 _atom_site_fract_z
 _atom_site_occupancy
  Yb  Yb0  1  0.000767  0.996940  0.000000  1
  Yb  Yb1  1  0.333482  0.667821  0.500000  1
  Mg  Mg2  1  0.892977  0.453860  0.500000  1
  Sc  Sc3  1  0.563219  0.106898  0.500000  1
  Sc  Sc4  1  0.546001  0.438215  0.500000  1
  Si  Si5  1  0.248810  0.202339  0.500000  1
  Si  Si6  1  0.801858  0.048127  0.500000  1
  Si  Si7  1  0.952192  0.747815  0.500000  1
  Si  Si8  1  0.553786  0.646220  0.000000  1
  Si  Si9  1  0.351153  0.907280  0.000000  1
  Si  Si10  1  0.091902  0.447321  0.000000  1
  Si  Si11  1  0.668152  0.333990  0.000000  1
  Pt  Pt12  1  0.218938  0.941223  0.500000  1
  Pt  Pt13  1  0.060474  0.282278  0.500000  1
  Pt  Pt14  1  0.719119  0.780708  0.500000  1
  Pt  Pt15  1  0.310115  0.408406  0.000000  1
  Pt  Pt16  1  0.589730  0.903245  0.000000  1
  Pt  Pt17  1  0.096302  0.687175  0.000000  1
  Pt  Pt18  1  0.388209  0.174419  0.000000  1
  Pt  Pt19  1  0.828523  0.213455  0.000000  1
  Pt  Pt20  1  0.784289  0.612266  0.000000  1
