# generated using pymatgen
data_Tb9Tm7(In3Fe)2
_symmetry_space_group_name_H-M   'P 1'
_cell_length_a   10.30453801
_cell_length_b   10.30878876
_cell_length_c   7.09652013
_cell_angle_alpha   89.97807165
_cell_angle_beta   90.00894746
_cell_angle_gamma   119.98758418
_symmetry_Int_Tables_number   1
_chemical_formula_structural   Tb9Tm7(In3Fe)2
_chemical_formula_sum   'Tb9 Tm7 In6 Fe2'
_cell_volume   652.92985240
_cell_formula_units_Z   1
loop_
 _symmetry_equiv_pos_site_id
 _symmetry_equiv_pos_as_xyz
  1  'x, y, z'
loop_
 _atom_site_type_symbol
 _atom_site_label
 _atom_site_symmetry_multiplicity
 _atom_site_fract_x
 _atom_site_fract_y
 _atom_site_fract_z
 _atom_site_occupancy
  Tb  Tb0  1  0.333231  0.666565  0.680421  1
  Tb  Tb1  1  0.536428  0.072704  0.787677  1
  Tb  Tb2  1  0.927368  0.463703  0.787527  1
  Tb  Tb3  1  0.536284  0.463808  0.787594  1
  Tb  Tb4  1  0.464136  0.928203  0.286446  1
  Tb  Tb5  1  0.071716  0.535853  0.286350  1
  Tb  Tb6  1  0.464179  0.535787  0.286298  1
  Tb  Tb7  1  0.000071  0.999968  0.773620  1
  Tb  Tb8  1  0.000048  0.999978  0.274523  1
  Tm  Tm9  1  0.820307  0.640634  0.490512  1
  Tm  Tm10  1  0.359419  0.179706  0.490937  1
  Tm  Tm11  1  0.820201  0.179642  0.490631  1
  Tm  Tm12  1  0.178499  0.356907  0.990818  1
  Tm  Tm13  1  0.642967  0.821576  0.990759  1
  Tm  Tm14  1  0.178536  0.821481  0.990934  1
  Tm  Tm15  1  0.666760  0.333392  0.181209  1
  In  In16  1  0.836200  0.672681  0.038608  1
  In  In17  1  0.327474  0.163694  0.038719  1
  In  In18  1  0.836418  0.163761  0.038812  1
  In  In19  1  0.162061  0.324650  0.538043  1
  In  In20  1  0.675266  0.837571  0.538370  1
  In  In21  1  0.162276  0.837602  0.538337  1
  Fe  Fe22  1  0.666824  0.333549  0.560990  1
  Fe  Fe23  1  0.333327  0.666586  0.057939  1
