# generated using pymatgen
data_Hf6Ga3CuSn2
_symmetry_space_group_name_H-M   'P 1'
_cell_length_a   5.72735600
_cell_length_b   8.71060100
_cell_length_c   9.33729400
_cell_angle_alpha   90.00000000
_cell_angle_beta   90.00000000
_cell_angle_gamma   90.00000000
_symmetry_Int_Tables_number   1
_chemical_formula_structural   Hf6Ga3CuSn2
_chemical_formula_sum   'Hf12 Ga6 Cu2 Sn4'
_cell_volume   465.82557964
_cell_formula_units_Z   2
loop_
 _symmetry_equiv_pos_site_id
 _symmetry_equiv_pos_as_xyz
  1  'x, y, z'
loop_
 _atom_site_type_symbol
 _atom_site_label
 _atom_site_symmetry_multiplicity
 _atom_site_fract_x
 _atom_site_fract_y
 _atom_site_fract_z
 _atom_site_occupancy
  Hf  Hf0  1  0.000000  0.750000  0.124862  1
  Hf  Hf1  1  0.500000  0.250000  0.875138  1
  Hf  Hf2  1  0.000000  0.250000  0.876010  1
  Hf  Hf3  1  0.500000  0.750000  0.123990  1
  Hf  Hf4  1  0.751486  0.471867  0.608429  1
  Hf  Hf5  1  0.251486  0.528133  0.391571  1
  Hf  Hf6  1  0.748514  0.971867  0.391571  1
  Hf  Hf7  1  0.248514  0.028133  0.608429  1
  Hf  Hf8  1  0.745279  0.372387  0.204168  1
  Hf  Hf9  1  0.245279  0.627613  0.795832  1
  Hf  Hf10  1  0.754721  0.872387  0.795832  1
  Hf  Hf11  1  0.254721  0.127613  0.204168  1
  Ga  Ga12  1  0.000000  0.250000  0.431338  1
  Ga  Ga13  1  0.500000  0.750000  0.568662  1
  Ga  Ga14  1  0.747502  0.138377  0.642799  1
  Ga  Ga15  1  0.247502  0.861623  0.357201  1
  Ga  Ga16  1  0.752498  0.638377  0.357201  1
  Ga  Ga17  1  0.252498  0.361623  0.642799  1
  Cu  Cu18  1  0.000000  0.750000  0.561073  1
  Cu  Cu19  1  0.500000  0.250000  0.438927  1
  Sn  Sn20  1  0.751782  0.053585  0.088548  1
  Sn  Sn21  1  0.251782  0.946415  0.911452  1
  Sn  Sn22  1  0.748218  0.553585  0.911452  1
  Sn  Sn23  1  0.248218  0.446415  0.088548  1
