# generated using pymatgen
data_Tb2HoSi4(PPd10)2
_symmetry_space_group_name_H-M   'P 1'
_cell_length_a   8.70270094
_cell_length_b   8.70270102
_cell_length_c   8.69874300
_cell_angle_alpha   60.01503985
_cell_angle_beta   60.01503955
_cell_angle_gamma   59.96992008
_symmetry_Int_Tables_number   1
_chemical_formula_structural   Tb2HoSi4(PPd10)2
_chemical_formula_sum   'Tb2 Ho1 Si4 P2 Pd20'
_cell_volume   465.85358774
_cell_formula_units_Z   1
loop_
 _symmetry_equiv_pos_site_id
 _symmetry_equiv_pos_as_xyz
  1  'x, y, z'
loop_
 _atom_site_type_symbol
 _atom_site_label
 _atom_site_symmetry_multiplicity
 _atom_site_fract_x
 _atom_site_fract_y
 _atom_site_fract_z
 _atom_site_occupancy
  Tb  Tb0  1  0.250000  0.250000  0.250000  1
  Tb  Tb1  1  0.750000  0.750000  0.750000  1
  Ho  Ho2  1  0.000000  0.000000  0.000000  1
  Si  Si3  1  0.733704  0.266296  0.266296  1
  Si  Si4  1  0.266296  0.733704  0.733704  1
  Si  Si5  1  0.266296  0.733704  0.266296  1
  Si  Si6  1  0.733704  0.266296  0.733704  1
  P  P7  1  0.265526  0.265526  0.734474  1
  P  P8  1  0.734474  0.734474  0.265526  1
  Pd  Pd9  1  0.383439  0.383439  0.385205  1
  Pd  Pd10  1  0.616561  0.616561  0.614795  1
  Pd  Pd11  1  0.383439  0.383439  0.847917  1
  Pd  Pd12  1  0.385205  0.847917  0.383439  1
  Pd  Pd13  1  0.616561  0.616561  0.152083  1
  Pd  Pd14  1  0.614795  0.152083  0.616561  1
  Pd  Pd15  1  0.847917  0.385205  0.383439  1
  Pd  Pd16  1  0.152083  0.614795  0.616561  1
  Pd  Pd17  1  0.345168  0.001271  0.998729  1
  Pd  Pd18  1  0.654832  0.998729  0.001271  1
  Pd  Pd19  1  0.001271  0.345168  0.654832  1
  Pd  Pd20  1  0.998729  0.654832  0.345168  1
  Pd  Pd21  1  0.001271  0.345168  0.998729  1
  Pd  Pd22  1  0.654832  0.998729  0.345168  1
  Pd  Pd23  1  0.998729  0.654832  0.001271  1
  Pd  Pd24  1  0.345168  0.001271  0.654832  1
  Pd  Pd25  1  0.000000  0.000000  0.346083  1
  Pd  Pd26  1  0.000000  0.000000  0.653917  1
  Pd  Pd27  1  0.653917  0.346083  0.000000  1
  Pd  Pd28  1  0.346083  0.653917  0.000000  1
