# generated using pymatgen
data_TbY2Th(ReB6)2
_symmetry_space_group_name_H-M   'P 1'
_cell_length_a   3.73578400
_cell_length_b   9.24162739
_cell_length_c   11.65246908
_cell_angle_alpha   89.88043025
_cell_angle_beta   90.00000000
_cell_angle_gamma   90.00000000
_symmetry_Int_Tables_number   1
_chemical_formula_structural   TbY2Th(ReB6)2
_chemical_formula_sum   'Tb2 Y4 Th2 Re4 B24'
_cell_volume   402.29739989
_cell_formula_units_Z   2
loop_
 _symmetry_equiv_pos_site_id
 _symmetry_equiv_pos_as_xyz
  1  'x, y, z'
loop_
 _atom_site_type_symbol
 _atom_site_label
 _atom_site_symmetry_multiplicity
 _atom_site_fract_x
 _atom_site_fract_y
 _atom_site_fract_z
 _atom_site_occupancy
  Tb  Tb0  1  0.000000  0.324406  0.414700  1
  Tb  Tb1  1  0.000000  0.675594  0.585300  1
  Y  Y2  1  0.000000  0.443119  0.130438  1
  Y  Y3  1  0.000000  0.556881  0.869562  1
  Y  Y4  1  0.000000  0.942795  0.372369  1
  Y  Y5  1  0.000000  0.057205  0.627631  1
  Th  Th6  1  0.000000  0.821485  0.086598  1
  Th  Th7  1  0.000000  0.178515  0.913402  1
  Re  Re8  1  0.000000  0.138352  0.179796  1
  Re  Re9  1  0.000000  0.861648  0.820204  1
  Re  Re10  1  0.000000  0.638628  0.321327  1
  Re  Re11  1  0.000000  0.361372  0.678673  1
  B  B12  1  0.500000  0.055429  0.070566  1
  B  B13  1  0.500000  0.944571  0.929435  1
  B  B14  1  0.500000  0.553433  0.433232  1
  B  B15  1  0.500000  0.446567  0.566767  1
  B  B16  1  0.500000  0.249273  0.085018  1
  B  B17  1  0.500000  0.750727  0.914982  1
  B  B18  1  0.500000  0.747780  0.419436  1
  B  B19  1  0.500000  0.252220  0.580564  1
  B  B20  1  0.500000  0.291426  0.235925  1
  B  B21  1  0.500000  0.708574  0.764075  1
  B  B22  1  0.500000  0.789610  0.268205  1
  B  B23  1  0.500000  0.210390  0.731795  1
  B  B24  1  0.500000  0.131346  0.315626  1
  B  B25  1  0.500000  0.868654  0.684374  1
  B  B26  1  0.500000  0.629598  0.188333  1
  B  B27  1  0.500000  0.370402  0.811667  1
  B  B28  1  0.500000  0.482703  0.289320  1
  B  B29  1  0.500000  0.517297  0.710680  1
  B  B30  1  0.500000  0.984939  0.214821  1
  B  B31  1  0.500000  0.015061  0.785179  1
  B  B32  1  0.500000  0.102585  0.471549  1
  B  B33  1  0.500000  0.897415  0.528451  1
  B  B34  1  0.500000  0.600648  0.028071  1
  B  B35  1  0.500000  0.399352  0.971929  1
