# generated using pymatgen
data_Y20Cd6CoRu
_symmetry_space_group_name_H-M   'P 1'
_cell_length_a   9.66958700
_cell_length_b   9.66958726
_cell_length_c   9.82489500
_cell_angle_alpha   90.00000000
_cell_angle_beta   90.00000000
_cell_angle_gamma   120.00000252
_symmetry_Int_Tables_number   1
_chemical_formula_structural   Y20Cd6CoRu
_chemical_formula_sum   'Y20 Cd6 Co1 Ru1'
_cell_volume   795.56267722
_cell_formula_units_Z   1
loop_
 _symmetry_equiv_pos_site_id
 _symmetry_equiv_pos_as_xyz
  1  'x, y, z'
loop_
 _atom_site_type_symbol
 _atom_site_label
 _atom_site_symmetry_multiplicity
 _atom_site_fract_x
 _atom_site_fract_y
 _atom_site_fract_z
 _atom_site_occupancy
  Y  Y0  1  0.000000  0.000000  0.499827  1
  Y  Y1  1  0.000000  0.000000  0.000173  1
  Y  Y2  1  0.212086  0.787914  0.436181  1
  Y  Y3  1  0.212086  0.424173  0.436181  1
  Y  Y4  1  0.575827  0.787914  0.436181  1
  Y  Y5  1  0.790698  0.209302  0.559891  1
  Y  Y6  1  0.790698  0.581396  0.559891  1
  Y  Y7  1  0.418604  0.209302  0.559891  1
  Y  Y8  1  0.790698  0.209302  0.940109  1
  Y  Y9  1  0.790698  0.581396  0.940109  1
  Y  Y10  1  0.418604  0.209302  0.940109  1
  Y  Y11  1  0.212086  0.787914  0.063819  1
  Y  Y12  1  0.212086  0.424173  0.063819  1
  Y  Y13  1  0.575827  0.787914  0.063819  1
  Y  Y14  1  0.541480  0.458520  0.250000  1
  Y  Y15  1  0.541480  0.082960  0.250000  1
  Y  Y16  1  0.917040  0.458520  0.250000  1
  Y  Y17  1  0.458412  0.541588  0.750000  1
  Y  Y18  1  0.458412  0.916825  0.750000  1
  Y  Y19  1  0.083175  0.541588  0.750000  1
  Cd  Cd20  1  0.885342  0.114658  0.250000  1
  Cd  Cd21  1  0.885342  0.770685  0.250000  1
  Cd  Cd22  1  0.229315  0.114658  0.250000  1
  Cd  Cd23  1  0.114617  0.885383  0.750000  1
  Cd  Cd24  1  0.114617  0.229234  0.750000  1
  Cd  Cd25  1  0.770766  0.885383  0.750000  1
  Co  Co26  1  0.333333  0.666667  0.250000  1
  Ru  Ru27  1  0.666667  0.333333  0.750000  1
