# generated using pymatgen
data_Zr7Ti3Sn2(BSb2)2
_symmetry_space_group_name_H-M   'P 1'
_cell_length_a   8.41706912
_cell_length_b   8.41768413
_cell_length_c   5.66568310
_cell_angle_alpha   89.97983055
_cell_angle_beta   90.00498389
_cell_angle_gamma   120.01115233
_symmetry_Int_Tables_number   1
_chemical_formula_structural   Zr7Ti3Sn2(BSb2)2
_chemical_formula_sum   'Zr7 Ti3 Sn2 B2 Sb4'
_cell_volume   347.60625583
_cell_formula_units_Z   1
loop_
 _symmetry_equiv_pos_site_id
 _symmetry_equiv_pos_as_xyz
  1  'x, y, z'
loop_
 _atom_site_type_symbol
 _atom_site_label
 _atom_site_symmetry_multiplicity
 _atom_site_fract_x
 _atom_site_fract_y
 _atom_site_fract_z
 _atom_site_occupancy
  Zr  Zr0  1  0.666355  0.334683  0.499781  1
  Zr  Zr1  1  0.765027  0.763834  0.749374  1
  Zr  Zr2  1  0.233896  0.000271  0.749281  1
  Zr  Zr3  1  0.997480  0.232555  0.749159  1
  Zr  Zr4  1  0.237001  0.235694  0.250546  1
  Zr  Zr5  1  0.765309  0.002074  0.250697  1
  Zr  Zr6  1  0.999221  0.763879  0.250499  1
  Ti  Ti7  1  0.666369  0.334838  0.001184  1
  Ti  Ti8  1  0.334943  0.666338  0.000570  1
  Ti  Ti9  1  0.334811  0.666356  0.498965  1
  Sn  Sn10  1  0.400183  0.995077  0.245704  1
  Sn  Sn11  1  0.005325  0.405272  0.245668  1
  B  B12  1  0.000038  0.000042  0.001261  1
  B  B13  1  0.000038  0.000009  0.498753  1
  Sb  Sb14  1  0.398760  0.403957  0.754036  1
  Sb  Sb15  1  0.592996  0.995822  0.754380  1
  Sb  Sb16  1  0.006138  0.598119  0.754292  1
  Sb  Sb17  1  0.596106  0.601178  0.245850  1
