# generated using pymatgen
data_Rb8Tb4Dy2BBr20
_symmetry_space_group_name_H-M   'P 1'
_cell_length_a   12.27351616
_cell_length_b   12.27351548
_cell_length_c   12.27473600
_cell_angle_alpha   59.99670500
_cell_angle_beta   59.99670682
_cell_angle_gamma   60.00658020
_symmetry_Int_Tables_number   1
_chemical_formula_structural   Rb8Tb4Dy2BBr20
_chemical_formula_sum   'Rb8 Tb4 Dy2 B1 Br20'
_cell_volume   1307.48014066
_cell_formula_units_Z   1
loop_
 _symmetry_equiv_pos_site_id
 _symmetry_equiv_pos_as_xyz
  1  'x, y, z'
loop_
 _atom_site_type_symbol
 _atom_site_label
 _atom_site_symmetry_multiplicity
 _atom_site_fract_x
 _atom_site_fract_y
 _atom_site_fract_z
 _atom_site_occupancy
  Rb  Rb0  1  0.358943  0.358943  0.358819  1
  Rb  Rb1  1  0.641057  0.641057  0.641181  1
  Rb  Rb2  1  0.358943  0.358943  0.923296  1
  Rb  Rb3  1  0.358819  0.923296  0.358943  1
  Rb  Rb4  1  0.641057  0.641057  0.076704  1
  Rb  Rb5  1  0.641181  0.076704  0.641057  1
  Rb  Rb6  1  0.923296  0.358819  0.358943  1
  Rb  Rb7  1  0.076704  0.641181  0.641057  1
  Tb  Tb8  1  0.847927  0.152073  0.152073  1
  Tb  Tb9  1  0.152073  0.847927  0.847927  1
  Tb  Tb10  1  0.152073  0.847927  0.152073  1
  Tb  Tb11  1  0.847927  0.152073  0.847927  1
  Dy  Dy12  1  0.152057  0.152057  0.847943  1
  Dy  Dy13  1  0.847943  0.847943  0.152057  1
  B  B14  1  0.000000  0.000000  0.000000  1
  Br  Br15  1  0.331224  0.000345  0.999655  1
  Br  Br16  1  0.668776  0.999655  0.000345  1
  Br  Br17  1  0.000345  0.331224  0.668776  1
  Br  Br18  1  0.999655  0.668776  0.331224  1
  Br  Br19  1  0.000345  0.331224  0.999655  1
  Br  Br20  1  0.668776  0.999655  0.331224  1
  Br  Br21  1  0.999655  0.668776  0.000345  1
  Br  Br22  1  0.331224  0.000345  0.668776  1
  Br  Br23  1  0.000000  0.000000  0.331579  1
  Br  Br24  1  0.000000  0.000000  0.668421  1
  Br  Br25  1  0.668421  0.331579  0.000000  1
  Br  Br26  1  0.331579  0.668421  0.000000  1
  Br  Br27  1  0.680373  0.319627  0.319627  1
  Br  Br28  1  0.319627  0.680373  0.680373  1
  Br  Br29  1  0.319627  0.680373  0.319627  1
  Br  Br30  1  0.680373  0.319627  0.680373  1
  Br  Br31  1  0.319158  0.319158  0.680842  1
  Br  Br32  1  0.680842  0.680842  0.319158  1
  Br  Br33  1  0.250000  0.250000  0.250000  1
  Br  Br34  1  0.750000  0.750000  0.750000  1
