# generated using pymatgen
data_Pr8Si12Pd3Rh
_symmetry_space_group_name_H-M   'P 1'
_cell_length_a   8.28803200
_cell_length_b   8.28803314
_cell_length_c   8.60162800
_cell_angle_alpha   90.00000000
_cell_angle_beta   90.00000000
_cell_angle_gamma   120.00000343
_symmetry_Int_Tables_number   1
_chemical_formula_structural   Pr8Si12Pd3Rh
_chemical_formula_sum   'Pr8 Si12 Pd3 Rh1'
_cell_volume   511.69853237
_cell_formula_units_Z   1
loop_
 _symmetry_equiv_pos_site_id
 _symmetry_equiv_pos_as_xyz
  1  'x, y, z'
loop_
 _atom_site_type_symbol
 _atom_site_label
 _atom_site_symmetry_multiplicity
 _atom_site_fract_x
 _atom_site_fract_y
 _atom_site_fract_z
 _atom_site_occupancy
  Pr  Pr0  1  0.500887  0.499113  0.752552  1
  Pr  Pr1  1  0.501994  0.498006  0.247653  1
  Pr  Pr2  1  0.998227  0.499113  0.752552  1
  Pr  Pr3  1  0.996012  0.498006  0.247653  1
  Pr  Pr4  1  0.500887  0.001773  0.752552  1
  Pr  Pr5  1  0.501994  0.003988  0.247653  1
  Pr  Pr6  1  0.000000  0.000000  0.750049  1
  Pr  Pr7  1  0.000000  0.000000  0.249657  1
  Si  Si8  1  0.832504  0.167496  0.000476  1
  Si  Si9  1  0.164803  0.835197  0.999554  1
  Si  Si10  1  0.334992  0.167496  0.000476  1
  Si  Si11  1  0.165764  0.834236  0.500501  1
  Si  Si12  1  0.670393  0.835197  0.999554  1
  Si  Si13  1  0.834919  0.165081  0.499202  1
  Si  Si14  1  0.832504  0.665008  0.000476  1
  Si  Si15  1  0.668471  0.834236  0.500501  1
  Si  Si16  1  0.164803  0.329607  0.999554  1
  Si  Si17  1  0.330161  0.165081  0.499202  1
  Si  Si18  1  0.165764  0.331529  0.500501  1
  Si  Si19  1  0.834919  0.669839  0.499202  1
  Pd  Pd20  1  0.333333  0.666667  0.003169  1
  Pd  Pd21  1  0.333333  0.666667  0.498735  1
  Pd  Pd22  1  0.666667  0.333333  0.502302  1
  Rh  Rh23  1  0.666667  0.333333  0.996277  1
