# generated using pymatgen
data_Sr3Dy(NiAs)4
_symmetry_space_group_name_H-M   'P 1'
_cell_length_a   4.09123100
_cell_length_b   4.09123213
_cell_length_c   17.42057300
_cell_angle_alpha   90.00000000
_cell_angle_beta   90.00000000
_cell_angle_gamma   119.99999891
_symmetry_Int_Tables_number   1
_chemical_formula_structural   Sr3Dy(NiAs)4
_chemical_formula_sum   'Sr3 Dy1 Ni4 As4'
_cell_volume   252.52314848
_cell_formula_units_Z   1
loop_
 _symmetry_equiv_pos_site_id
 _symmetry_equiv_pos_as_xyz
  1  'x, y, z'
loop_
 _atom_site_type_symbol
 _atom_site_label
 _atom_site_symmetry_multiplicity
 _atom_site_fract_x
 _atom_site_fract_y
 _atom_site_fract_z
 _atom_site_occupancy
  Sr  Sr0  1  0.000000  0.000000  0.500000  1
  Sr  Sr1  1  0.000000  0.000000  0.241537  1
  Sr  Sr2  1  0.000000  0.000000  0.758463  1
  Dy  Dy3  1  0.000000  0.000000  0.000000  1
  Ni  Ni4  1  0.333333  0.666667  0.370047  1
  Ni  Ni5  1  0.666667  0.333333  0.629953  1
  Ni  Ni6  1  0.666667  0.333333  0.891426  1
  Ni  Ni7  1  0.333333  0.666667  0.108574  1
  As  As8  1  0.333333  0.666667  0.889277  1
  As  As9  1  0.666667  0.333333  0.110723  1
  As  As10  1  0.666667  0.333333  0.370638  1
  As  As11  1  0.333333  0.666667  0.629362  1
