# generated using pymatgen
data_Li2Hf6MnBr15
_symmetry_space_group_name_H-M   'P 1'
_cell_length_a   9.52699743
_cell_length_b   9.52706262
_cell_length_c   9.52699742
_cell_angle_alpha   108.14913232
_cell_angle_beta   108.14758303
_cell_angle_gamma   112.15033779
_symmetry_Int_Tables_number   1
_chemical_formula_structural   Li2Hf6MnBr15
_chemical_formula_sum   'Li2 Hf6 Mn1 Br15'
_cell_volume   664.56018463
_cell_formula_units_Z   1
loop_
 _symmetry_equiv_pos_site_id
 _symmetry_equiv_pos_as_xyz
  1  'x, y, z'
loop_
 _atom_site_type_symbol
 _atom_site_label
 _atom_site_symmetry_multiplicity
 _atom_site_fract_x
 _atom_site_fract_y
 _atom_site_fract_z
 _atom_site_occupancy
  Li  Li0  1  0.249988  0.749987  0.499999  1
  Li  Li1  1  0.750012  0.250013  0.500001  1
  Hf  Hf2  1  0.772382  0.772382  0.999999  1
  Hf  Hf3  1  0.000000  0.214344  0.214344  1
  Hf  Hf4  1  0.214343  0.000000  0.214343  1
  Hf  Hf5  1  0.227618  0.227618  0.000001  1
  Hf  Hf6  1  0.000000  0.785656  0.785656  1
  Hf  Hf7  1  0.785657  0.000000  0.785657  1
  Mn  Mn8  1  0.000000  0.000000  0.000000  1
  Br  Br9  1  0.500000  0.500000  0.000000  1
  Br  Br10  1  0.000000  0.500000  0.500000  1
  Br  Br11  1  0.500000  0.000000  0.500000  1
  Br  Br12  1  0.240210  0.240212  0.480422  1
  Br  Br13  1  0.991798  0.747683  0.244115  1
  Br  Br14  1  0.747685  0.991793  0.244108  1
  Br  Br15  1  0.240210  0.759788  0.999998  1
  Br  Br16  1  0.496431  0.252317  0.244115  1
  Br  Br17  1  0.252315  0.008207  0.755892  1
  Br  Br18  1  0.759790  0.240212  0.000002  1
  Br  Br19  1  0.008202  0.252317  0.755885  1
  Br  Br20  1  0.252317  0.496432  0.244116  1
  Br  Br21  1  0.759790  0.759788  0.519578  1
  Br  Br22  1  0.503569  0.747683  0.755885  1
  Br  Br23  1  0.747683  0.503568  0.755884  1
