# generated using pymatgen
data_RbTiF5
_symmetry_space_group_name_H-M   'P 1'
_cell_length_a   5.68987300
_cell_length_b   7.96150800
_cell_length_c   10.66507500
_cell_angle_alpha   90.00000000
_cell_angle_beta   90.00000000
_cell_angle_gamma   90.00000000
_symmetry_Int_Tables_number   1
_chemical_formula_structural   RbTiF5
_chemical_formula_sum   'Rb4 Ti4 F20'
_cell_volume   483.12757124
_cell_formula_units_Z   4
loop_
 _symmetry_equiv_pos_site_id
 _symmetry_equiv_pos_as_xyz
  1  'x, y, z'
loop_
 _atom_site_type_symbol
 _atom_site_label
 _atom_site_symmetry_multiplicity
 _atom_site_fract_x
 _atom_site_fract_y
 _atom_site_fract_z
 _atom_site_occupancy
  Rb  Rb0  1  0.500000  0.890118  0.980581  1
  Rb  Rb1  1  0.500000  0.109882  0.480581  1
  Rb  Rb2  1  0.000000  0.372783  0.122653  1
  Rb  Rb3  1  0.000000  0.627217  0.622653  1
  Ti  Ti4  1  0.000000  0.885317  0.241769  1
  Ti  Ti5  1  0.500000  0.572998  0.340223  1
  Ti  Ti6  1  0.500000  0.427002  0.840223  1
  Ti  Ti7  1  0.000000  0.114683  0.741769  1
  F  F8  1  0.266547  0.545922  0.917674  1
  F  F9  1  0.748899  0.703373  0.243584  1
  F  F10  1  0.232346  0.044695  0.234472  1
  F  F11  1  0.748899  0.296627  0.743584  1
  F  F12  1  0.500000  0.248884  0.950954  1
  F  F13  1  0.767654  0.955305  0.734472  1
  F  F14  1  0.500000  0.564538  0.699330  1
  F  F15  1  0.232346  0.955305  0.734472  1
  F  F16  1  0.000000  0.843016  0.070792  1
  F  F17  1  0.767654  0.044695  0.234472  1
  F  F18  1  0.500000  0.435462  0.199330  1
  F  F19  1  0.733453  0.454078  0.417674  1
  F  F20  1  0.251101  0.703373  0.243584  1
  F  F21  1  0.000000  0.862783  0.413747  1
  F  F22  1  0.000000  0.156984  0.570792  1
  F  F23  1  0.251101  0.296627  0.743584  1
  F  F24  1  0.000000  0.137217  0.913747  1
  F  F25  1  0.266547  0.454078  0.417674  1
  F  F26  1  0.500000  0.751116  0.450954  1
  F  F27  1  0.733453  0.545922  0.917674  1
