# generated using pymatgen
data_Gd9Y7(CdIr)4
_symmetry_space_group_name_H-M   'P 1'
_cell_length_a   9.65570363
_cell_length_b   9.65570408
_cell_length_c   9.63520400
_cell_angle_alpha   60.07020695
_cell_angle_beta   60.07020542
_cell_angle_gamma   60.02357705
_symmetry_Int_Tables_number   1
_chemical_formula_structural   Gd9Y7(CdIr)4
_chemical_formula_sum   'Gd9 Y7 Cd4 Ir4'
_cell_volume   635.99151767
_cell_formula_units_Z   1
loop_
 _symmetry_equiv_pos_site_id
 _symmetry_equiv_pos_as_xyz
  1  'x, y, z'
loop_
 _atom_site_type_symbol
 _atom_site_label
 _atom_site_symmetry_multiplicity
 _atom_site_fract_x
 _atom_site_fract_y
 _atom_site_fract_z
 _atom_site_occupancy
  Gd  Gd0  1  0.599335  0.599335  0.600577  1
  Gd  Gd1  1  0.599335  0.599335  0.200756  1
  Gd  Gd2  1  0.600343  0.202365  0.598645  1
  Gd  Gd3  1  0.202365  0.600343  0.598645  1
  Gd  Gd4  1  0.059339  0.439204  0.440178  1
  Gd  Gd5  1  0.439204  0.059339  0.061279  1
  Gd  Gd6  1  0.439204  0.059339  0.440178  1
  Gd  Gd7  1  0.059339  0.439204  0.061279  1
  Gd  Gd8  1  0.440423  0.440423  0.059577  1
  Y  Y9  1  0.059293  0.059293  0.440707  1
  Y  Y10  1  0.186048  0.813840  0.814043  1
  Y  Y11  1  0.813840  0.186048  0.186069  1
  Y  Y12  1  0.813840  0.186048  0.814043  1
  Y  Y13  1  0.186048  0.813840  0.186069  1
  Y  Y14  1  0.812530  0.812530  0.187470  1
  Y  Y15  1  0.187066  0.187066  0.812934  1
  Cd  Cd16  1  0.831037  0.831037  0.829050  1
  Cd  Cd17  1  0.831037  0.831037  0.508873  1
  Cd  Cd18  1  0.830375  0.509384  0.830120  1
  Cd  Cd19  1  0.509384  0.830375  0.830120  1
  Ir  Ir20  1  0.391655  0.391655  0.391576  1
  Ir  Ir21  1  0.391655  0.391655  0.825115  1
  Ir  Ir22  1  0.393381  0.823925  0.391348  1
  Ir  Ir23  1  0.823925  0.393381  0.391348  1
