# generated using pymatgen
data_KThTlI6
_symmetry_space_group_name_H-M   'P 1'
_cell_length_a   8.92640400
_cell_length_b   8.27252205
_cell_length_c   14.29371400
_cell_angle_alpha   55.18454282
_cell_angle_beta   90.00000000
_cell_angle_gamma   90.00000000
_symmetry_Int_Tables_number   1
_chemical_formula_structural   KThTlI6
_chemical_formula_sum   'K2 Th2 Tl2 I12'
_cell_volume   866.56308603
_cell_formula_units_Z   2
loop_
 _symmetry_equiv_pos_site_id
 _symmetry_equiv_pos_as_xyz
  1  'x, y, z'
loop_
 _atom_site_type_symbol
 _atom_site_label
 _atom_site_symmetry_multiplicity
 _atom_site_fract_x
 _atom_site_fract_y
 _atom_site_fract_z
 _atom_site_occupancy
  K  K0  1  0.408693  0.277725  0.748710  1
  K  K1  1  0.908693  0.722275  0.751290  1
  Th  Th2  1  0.000589  0.999852  0.000185  1
  Th  Th3  1  0.500589  0.000148  0.499815  1
  Tl  Tl4  1  0.592221  0.724513  0.251552  1
  Tl  Tl5  1  0.092221  0.275487  0.248448  1
  I  I6  1  0.970929  0.864988  0.250320  1
  I  I7  1  0.470929  0.135012  0.249680  1
  I  I8  1  0.027077  0.139087  0.749695  1
  I  I9  1  0.527077  0.860913  0.750305  1
  I  I10  1  0.680898  0.636295  0.556504  1
  I  I11  1  0.180898  0.363705  0.943496  1
  I  I12  1  0.320113  0.366892  0.439352  1
  I  I13  1  0.820113  0.633108  0.060648  1
  I  I14  1  0.702981  0.227376  0.946001  1
  I  I15  1  0.202981  0.772624  0.553999  1
  I  I16  1  0.296499  0.768106  0.057172  1
  I  I17  1  0.796499  0.231894  0.442828  1
