# generated using pymatgen
data_Sc3Pd2Pb3
_symmetry_space_group_name_H-M   'P 1'
_cell_length_a   7.69785100
_cell_length_b   7.69785117
_cell_length_c   3.44763900
_cell_angle_alpha   90.00000000
_cell_angle_beta   90.00000000
_cell_angle_gamma   119.99999499
_symmetry_Int_Tables_number   1
_chemical_formula_structural   Sc3Pd2Pb3
_chemical_formula_sum   'Sc3 Pd2 Pb3'
_cell_volume   176.92591447
_cell_formula_units_Z   1
loop_
 _symmetry_equiv_pos_site_id
 _symmetry_equiv_pos_as_xyz
  1  'x, y, z'
loop_
 _atom_site_type_symbol
 _atom_site_label
 _atom_site_symmetry_multiplicity
 _atom_site_fract_x
 _atom_site_fract_y
 _atom_site_fract_z
 _atom_site_occupancy
  Sc  Sc0  1  0.598376  0.000000  0.500001  1
  Sc  Sc1  1  0.401624  0.401624  0.500001  1
  Sc  Sc2  1  0.000000  0.598375  0.500001  1
  Pd  Pd3  1  0.666667  0.333333  0.000000  1
  Pd  Pd4  1  0.333333  0.666666  0.000000  1
  Pb  Pb5  1  0.253390  0.000000  0.000000  1
  Pb  Pb6  1  0.000000  0.253390  0.000000  1
  Pb  Pb7  1  0.746610  0.746610  0.000000  1
