# generated using pymatgen
data_TaCuP2F12
_symmetry_space_group_name_H-M   'P 1'
_cell_length_a   8.29818777
_cell_length_b   8.91354400
_cell_length_c   8.32150800
_cell_angle_alpha   90.00000000
_cell_angle_beta   119.65758548
_cell_angle_gamma   90.00000000
_symmetry_Int_Tables_number   1
_chemical_formula_structural   TaCuP2F12
_chemical_formula_sum   'Ta2 Cu2 P4 F24'
_cell_volume   534.87771986
_cell_formula_units_Z   2
loop_
 _symmetry_equiv_pos_site_id
 _symmetry_equiv_pos_as_xyz
  1  'x, y, z'
loop_
 _atom_site_type_symbol
 _atom_site_label
 _atom_site_symmetry_multiplicity
 _atom_site_fract_x
 _atom_site_fract_y
 _atom_site_fract_z
 _atom_site_occupancy
  Ta  Ta0  1  0.000000  0.500000  0.500000  1
  Ta  Ta1  1  0.000000  0.000000  0.000000  1
  Cu  Cu2  1  0.000000  0.000000  0.500000  1
  Cu  Cu3  1  0.000000  0.500000  0.000000  1
  P  P4  1  0.696709  0.025119  0.351407  1
  P  P5  1  0.303291  0.525119  0.148593  1
  P  P6  1  0.303291  0.974881  0.648593  1
  P  P7  1  0.696709  0.474881  0.851407  1
  F  F8  1  0.173647  0.425214  0.741999  1
  F  F9  1  0.826353  0.925214  0.758001  1
  F  F10  1  0.826353  0.574786  0.258001  1
  F  F11  1  0.173647  0.074786  0.241999  1
  F  F12  1  0.152444  0.426340  0.401912  1
  F  F13  1  0.847556  0.926340  0.098088  1
  F  F14  1  0.847556  0.573660  0.598088  1
  F  F15  1  0.152444  0.073660  0.901912  1
  F  F16  1  0.126835  0.691248  0.557331  1
  F  F17  1  0.873165  0.191248  0.942669  1
  F  F18  1  0.873165  0.308752  0.442669  1
  F  F19  1  0.126835  0.808752  0.057331  1
  F  F20  1  0.604592  0.109445  0.449263  1
  F  F21  1  0.395408  0.609445  0.050737  1
  F  F22  1  0.395408  0.890555  0.550737  1
  F  F23  1  0.604592  0.390555  0.949263  1
  F  F24  1  0.604036  0.108145  0.161647  1
  F  F25  1  0.395964  0.608145  0.338353  1
  F  F26  1  0.395964  0.891855  0.838353  1
  F  F27  1  0.604036  0.391855  0.661647  1
  F  F28  1  0.583535  0.875545  0.295378  1
  F  F29  1  0.416465  0.375545  0.204622  1
  F  F30  1  0.416465  0.124455  0.704622  1
  F  F31  1  0.583535  0.624455  0.795378  1
