# generated using pymatgen
data_Tb4FeCo3HgI
_symmetry_space_group_name_H-M   'P 1'
_cell_length_a   3.93775600
_cell_length_b   3.93775523
_cell_length_c   16.86444600
_cell_angle_alpha   90.00000000
_cell_angle_beta   90.00000000
_cell_angle_gamma   119.99997283
_symmetry_Int_Tables_number   1
_chemical_formula_structural   Tb4FeCo3HgI
_chemical_formula_sum   'Tb4 Fe1 Co3 Hg1 I1'
_cell_volume   226.46461276
_cell_formula_units_Z   1
loop_
 _symmetry_equiv_pos_site_id
 _symmetry_equiv_pos_as_xyz
  1  'x, y, z'
loop_
 _atom_site_type_symbol
 _atom_site_label
 _atom_site_symmetry_multiplicity
 _atom_site_fract_x
 _atom_site_fract_y
 _atom_site_fract_z
 _atom_site_occupancy
  Tb  Tb0  1  0.000000  0.000000  0.115263  1
  Tb  Tb1  1  0.000000  0.000000  0.600248  1
  Tb  Tb2  1  0.000000  0.000000  0.387100  1
  Tb  Tb3  1  0.000000  0.000000  0.896941  1
  Fe  Fe4  1  0.666667  0.333333  0.002574  1
  Co  Co5  1  0.333333  0.666667  0.004491  1
  Co  Co6  1  0.666667  0.333333  0.497142  1
  Co  Co7  1  0.333333  0.666667  0.496249  1
  Hg  Hg8  1  0.666667  0.333333  0.250129  1
  I  I9  1  0.333333  0.666667  0.749862  1
