# generated using pymatgen
data_Dy6Lu10Cd4IrPt3
_symmetry_space_group_name_H-M   'P 1'
_cell_length_a   9.55858277
_cell_length_b   9.52105283
_cell_length_c   9.52880500
_cell_angle_alpha   59.97306584
_cell_angle_beta   60.10300307
_cell_angle_gamma   60.15894830
_symmetry_Int_Tables_number   1
_chemical_formula_structural   Dy6Lu10Cd4IrPt3
_chemical_formula_sum   'Dy6 Lu10 Cd4 Ir1 Pt3'
_cell_volume   614.28488071
_cell_formula_units_Z   1
loop_
 _symmetry_equiv_pos_site_id
 _symmetry_equiv_pos_as_xyz
  1  'x, y, z'
loop_
 _atom_site_type_symbol
 _atom_site_label
 _atom_site_symmetry_multiplicity
 _atom_site_fract_x
 _atom_site_fract_y
 _atom_site_fract_z
 _atom_site_occupancy
  Dy  Dy0  1  0.188483  0.812438  0.812504  1
  Dy  Dy1  1  0.814143  0.188071  0.188112  1
  Dy  Dy2  1  0.814143  0.188071  0.809674  1
  Dy  Dy3  1  0.188483  0.812438  0.186575  1
  Dy  Dy4  1  0.815945  0.812076  0.185990  1
  Dy  Dy5  1  0.189182  0.189230  0.810794  1
  Lu  Lu6  1  0.602986  0.598588  0.597310  1
  Lu  Lu7  1  0.602986  0.598588  0.201116  1
  Lu  Lu8  1  0.604582  0.197701  0.598858  1
  Lu  Lu9  1  0.189066  0.605559  0.602688  1
  Lu  Lu10  1  0.059594  0.437350  0.438464  1
  Lu  Lu11  1  0.438967  0.061470  0.060938  1
  Lu  Lu12  1  0.438967  0.061470  0.438627  1
  Lu  Lu13  1  0.059594  0.437350  0.064593  1
  Lu  Lu14  1  0.440678  0.437908  0.060707  1
  Lu  Lu15  1  0.060462  0.065186  0.437176  1
  Cd  Cd16  1  0.830045  0.830164  0.831825  1
  Cd  Cd17  1  0.830045  0.830164  0.507966  1
  Cd  Cd18  1  0.829520  0.505360  0.832560  1
  Cd  Cd19  1  0.507330  0.830300  0.831185  1
  Ir  Ir20  1  0.824146  0.390444  0.392705  1
  Pt  Pt21  1  0.390315  0.393671  0.394944  1
  Pt  Pt22  1  0.390315  0.393671  0.821070  1
  Pt  Pt23  1  0.390025  0.822736  0.393619  1
