# generated using pymatgen
data_Sc2SnB2Rh5
_symmetry_space_group_name_H-M   'P 1'
_cell_length_a   9.37983500
_cell_length_b   9.37983500
_cell_length_c   3.21489900
_cell_angle_alpha   90.00000000
_cell_angle_beta   90.00000000
_cell_angle_gamma   90.00000000
_symmetry_Int_Tables_number   1
_chemical_formula_structural   Sc2SnB2Rh5
_chemical_formula_sum   'Sc4 Sn2 B4 Rh10'
_cell_volume   282.85100826
_cell_formula_units_Z   2
loop_
 _symmetry_equiv_pos_site_id
 _symmetry_equiv_pos_as_xyz
  1  'x, y, z'
loop_
 _atom_site_type_symbol
 _atom_site_label
 _atom_site_symmetry_multiplicity
 _atom_site_fract_x
 _atom_site_fract_y
 _atom_site_fract_z
 _atom_site_occupancy
  Sc  Sc0  1  0.825641  0.325641  0.000000  1
  Sc  Sc1  1  0.325641  0.174359  0.000000  1
  Sc  Sc2  1  0.674359  0.825641  0.000000  1
  Sc  Sc3  1  0.174359  0.674359  0.000000  1
  Sn  Sn4  1  0.000000  0.000000  0.000000  1
  Sn  Sn5  1  0.500000  0.500000  0.000000  1
  B  B6  1  0.621650  0.121650  0.000000  1
  B  B7  1  0.121650  0.378350  0.000000  1
  B  B8  1  0.878350  0.621650  0.000000  1
  B  B9  1  0.378350  0.878350  0.000000  1
  Rh  Rh10  1  0.072080  0.222246  0.500000  1
  Rh  Rh11  1  0.222246  0.927920  0.500000  1
  Rh  Rh12  1  0.777754  0.072080  0.500000  1
  Rh  Rh13  1  0.927920  0.777754  0.500000  1
  Rh  Rh14  1  0.427920  0.722246  0.500000  1
  Rh  Rh15  1  0.572080  0.277754  0.500000  1
  Rh  Rh16  1  0.722246  0.572080  0.500000  1
  Rh  Rh17  1  0.277754  0.427920  0.500000  1
  Rh  Rh18  1  0.500000  0.000000  0.500000  1
  Rh  Rh19  1  0.000000  0.500000  0.500000  1
