# generated using pymatgen
data_DyEr8Cd5Ni4
_symmetry_space_group_name_H-M   'P 1'
_cell_length_a   10.65555677
_cell_length_b   10.65555677
_cell_length_c   3.59009700
_cell_angle_alpha   90.00000000
_cell_angle_beta   90.00000000
_cell_angle_gamma   90.29691193
_symmetry_Int_Tables_number   1
_chemical_formula_structural   DyEr8Cd5Ni4
_chemical_formula_sum   'Dy1 Er8 Cd5 Ni4'
_cell_volume   407.61733555
_cell_formula_units_Z   1
loop_
 _symmetry_equiv_pos_site_id
 _symmetry_equiv_pos_as_xyz
  1  'x, y, z'
loop_
 _atom_site_type_symbol
 _atom_site_label
 _atom_site_symmetry_multiplicity
 _atom_site_fract_x
 _atom_site_fract_y
 _atom_site_fract_z
 _atom_site_occupancy
  Dy  Dy0  1  0.325549  0.325549  0.500000  1
  Er  Er1  1  0.675062  0.675062  0.500000  1
  Er  Er2  1  0.325860  0.673733  0.500000  1
  Er  Er3  1  0.673733  0.325860  0.500000  1
  Er  Er4  1  0.998900  0.284060  0.500000  1
  Er  Er5  1  0.000477  0.716277  0.500000  1
  Er  Er6  1  0.284060  0.998900  0.500000  1
  Er  Er7  1  0.716277  0.000477  0.500000  1
  Er  Er8  1  0.999877  0.999877  0.000000  1
  Cd  Cd9  1  0.500671  0.143465  0.000000  1
  Cd  Cd10  1  0.500117  0.854599  0.000000  1
  Cd  Cd11  1  0.143465  0.500671  0.000000  1
  Cd  Cd12  1  0.854599  0.500117  0.000000  1
  Cd  Cd13  1  0.501240  0.501240  0.000000  1
  Ni  Ni14  1  0.187277  0.187277  0.000000  1
  Ni  Ni15  1  0.812230  0.812230  0.000000  1
  Ni  Ni16  1  0.189587  0.811021  0.000000  1
  Ni  Ni17  1  0.811021  0.189587  0.000000  1
