# generated using pymatgen
data_Ta4Nb12Cu3Ni5N4
_symmetry_space_group_name_H-M   'P 1'
_cell_length_a   8.28743698
_cell_length_b   8.28743677
_cell_length_c   8.28743774
_cell_angle_alpha   60.07602363
_cell_angle_beta   60.07602696
_cell_angle_gamma   60.07602865
_symmetry_Int_Tables_number   1
_chemical_formula_structural   Ta4Nb12Cu3Ni5N4
_chemical_formula_sum   'Ta4 Nb12 Cu3 Ni5 N4'
_cell_volume   403.17476493
_cell_formula_units_Z   1
loop_
 _symmetry_equiv_pos_site_id
 _symmetry_equiv_pos_as_xyz
  1  'x, y, z'
loop_
 _atom_site_type_symbol
 _atom_site_label
 _atom_site_symmetry_multiplicity
 _atom_site_fract_x
 _atom_site_fract_y
 _atom_site_fract_z
 _atom_site_occupancy
  Ta  Ta0  1  0.120466  0.624625  0.624625  1
  Ta  Ta1  1  0.624625  0.120466  0.624625  1
  Ta  Ta2  1  0.624625  0.624625  0.120466  1
  Ta  Ta3  1  0.627443  0.627443  0.627443  1
  Nb  Nb4  1  0.816543  0.816543  0.183281  1
  Nb  Nb5  1  0.182779  0.182779  0.817486  1
  Nb  Nb6  1  0.816543  0.183281  0.816543  1
  Nb  Nb7  1  0.182779  0.817486  0.182779  1
  Nb  Nb8  1  0.183281  0.816543  0.816543  1
  Nb  Nb9  1  0.817486  0.182779  0.182779  1
  Nb  Nb10  1  0.433469  0.433469  0.068058  1
  Nb  Nb11  1  0.065676  0.065676  0.434490  1
  Nb  Nb12  1  0.433469  0.068058  0.433469  1
  Nb  Nb13  1  0.065676  0.434490  0.065676  1
  Nb  Nb14  1  0.068058  0.433469  0.433469  1
  Nb  Nb15  1  0.434490  0.065676  0.065676  1
  Cu  Cu16  1  0.745304  0.418357  0.418357  1
  Cu  Cu17  1  0.418357  0.745304  0.418357  1
  Cu  Cu18  1  0.418357  0.418357  0.745304  1
  Ni  Ni19  1  0.420621  0.420621  0.420621  1
  Ni  Ni20  1  0.511992  0.829268  0.829268  1
  Ni  Ni21  1  0.829268  0.511992  0.829268  1
  Ni  Ni22  1  0.829268  0.829268  0.511992  1
  Ni  Ni23  1  0.829274  0.829274  0.829274  1
  N  N24  1  0.623965  0.125283  0.125283  1
  N  N25  1  0.125283  0.623965  0.125283  1
  N  N26  1  0.125283  0.125283  0.623965  1
  N  N27  1  0.125618  0.125618  0.125618  1
