# generated using pymatgen
data_LaTb(Tc2P)4
_symmetry_space_group_name_H-M   'P 1'
_cell_length_a   7.49532235
_cell_length_b   7.49532235
_cell_length_c   3.96861100
_cell_angle_alpha   90.00000000
_cell_angle_beta   90.00000000
_cell_angle_gamma   90.71609848
_symmetry_Int_Tables_number   1
_chemical_formula_structural   LaTb(Tc2P)4
_chemical_formula_sum   'La1 Tb1 Tc8 P4'
_cell_volume   222.93858571
_cell_formula_units_Z   1
loop_
 _symmetry_equiv_pos_site_id
 _symmetry_equiv_pos_as_xyz
  1  'x, y, z'
loop_
 _atom_site_type_symbol
 _atom_site_label
 _atom_site_symmetry_multiplicity
 _atom_site_fract_x
 _atom_site_fract_y
 _atom_site_fract_z
 _atom_site_occupancy
  La  La0  1  0.000000  0.000000  0.500000  1
  Tb  Tb1  1  0.500000  0.500000  0.000000  1
  Tc  Tc2  1  0.084560  0.343070  0.000000  1
  Tc  Tc3  1  0.838315  0.420755  0.500000  1
  Tc  Tc4  1  0.161685  0.579245  0.500000  1
  Tc  Tc5  1  0.915440  0.656930  0.000000  1
  Tc  Tc6  1  0.420755  0.838315  0.500000  1
  Tc  Tc7  1  0.579245  0.161685  0.500000  1
  Tc  Tc8  1  0.343070  0.084560  0.000000  1
  Tc  Tc9  1  0.656930  0.915440  0.000000  1
  P  P10  1  0.782785  0.217215  0.000000  1
  P  P11  1  0.708594  0.708594  0.500000  1
  P  P12  1  0.291406  0.291406  0.500000  1
  P  P13  1  0.217215  0.782785  0.000000  1
