# generated using pymatgen
data_K3Fe(IO3)6
_symmetry_space_group_name_H-M   'P 1'
_cell_length_a   6.97931904
_cell_length_b   7.17478323
_cell_length_c   10.62677173
_cell_angle_alpha   97.99090908
_cell_angle_beta   108.59262287
_cell_angle_gamma   103.17993267
_symmetry_Int_Tables_number   1
_chemical_formula_structural   K3Fe(IO3)6
_chemical_formula_sum   'K3 Fe1 I6 O18'
_cell_volume   477.98092447
_cell_formula_units_Z   1
loop_
 _symmetry_equiv_pos_site_id
 _symmetry_equiv_pos_as_xyz
  1  'x, y, z'
loop_
 _atom_site_type_symbol
 _atom_site_label
 _atom_site_symmetry_multiplicity
 _atom_site_fract_x
 _atom_site_fract_y
 _atom_site_fract_z
 _atom_site_occupancy
  K  K0  1  0.375764  0.538893  0.294203  1
  K  K1  1  0.624236  0.461107  0.705797  1
  K  K2  1  0.000000  0.500000  0.500000  1
  Fe  Fe3  1  0.000000  0.000000  0.000000  1
  I  I4  1  0.552740  0.036818  0.191575  1
  I  I5  1  0.447260  0.963182  0.808425  1
  I  I6  1  0.784616  0.543685  0.100739  1
  I  I7  1  0.215384  0.456315  0.899261  1
  I  I8  1  0.133349  0.054041  0.373501  1
  I  I9  1  0.866651  0.945959  0.626499  1
  O  O10  1  0.585093  0.657855  0.124188  1
  O  O11  1  0.414907  0.342145  0.875812  1
  O  O12  1  0.002228  0.352775  0.733258  1
  O  O13  1  0.997772  0.647225  0.266742  1
  O  O14  1  0.613739  0.305580  0.234243  1
  O  O15  1  0.386261  0.694420  0.765757  1
  O  O16  1  0.049372  0.099084  0.197678  1
  O  O17  1  0.950628  0.900916  0.802322  1
  O  O18  1  0.297246  0.970426  0.039430  1
  O  O19  1  0.702754  0.029574  0.960570  1
  O  O20  1  0.292042  0.303932  0.462968  1
  O  O21  1  0.707958  0.696068  0.537032  1
  O  O22  1  0.882783  0.074326  0.394266  1
  O  O23  1  0.117217  0.925674  0.605734  1
  O  O24  1  0.562052  0.032689  0.683022  1
  O  O25  1  0.437948  0.967311  0.316978  1
  O  O26  1  0.107668  0.302173  0.002861  1
  O  O27  1  0.892332  0.697827  0.997139  1
