# generated using pymatgen
data_CsFeSn3O8
_symmetry_space_group_name_H-M   'P 1'
_cell_length_a   7.68074943
_cell_length_b   7.68074950
_cell_length_c   10.68089603
_cell_angle_alpha   46.66739967
_cell_angle_beta   46.66740074
_cell_angle_gamma   24.36859879
_symmetry_Int_Tables_number   1
_chemical_formula_structural   CsFeSn3O8
_chemical_formula_sum   'Cs1 Fe1 Sn3 O8'
_cell_volume   185.14390878
_cell_formula_units_Z   1
loop_
 _symmetry_equiv_pos_site_id
 _symmetry_equiv_pos_as_xyz
  1  'x, y, z'
loop_
 _atom_site_type_symbol
 _atom_site_label
 _atom_site_symmetry_multiplicity
 _atom_site_fract_x
 _atom_site_fract_y
 _atom_site_fract_z
 _atom_site_occupancy
  Cs  Cs0  1  0.497596  0.497596  0.998914  1
  Fe  Fe1  1  0.349213  0.349213  0.814250  1
  Sn  Sn2  1  0.657268  0.657268  0.171626  1
  Sn  Sn3  1  0.158828  0.158828  0.493124  1
  Sn  Sn4  1  0.837452  0.837452  0.519123  1
  O  O5  1  0.154346  0.154346  0.048428  1
  O  O6  1  0.846408  0.846408  0.944435  1
  O  O7  1  0.205098  0.205098  0.642210  1
  O  O8  1  0.792617  0.792617  0.366070  1
  O  O9  1  0.538193  0.538193  0.627591  1
  O  O10  1  0.460980  0.460980  0.372670  1
  O  O11  1  0.165774  0.165774  0.292343  1
  O  O12  1  0.836229  0.836229  0.709216  1
