# generated using pymatgen
data_DyY5Al24Ru7Pt
_symmetry_space_group_name_H-M   'P 1'
_cell_length_a   8.81402329
_cell_length_b   8.81452558
_cell_length_c   9.54245817
_cell_angle_alpha   90.15251460
_cell_angle_beta   89.84834813
_cell_angle_gamma   119.85483046
_symmetry_Int_Tables_number   1
_chemical_formula_structural   DyY5Al24Ru7Pt
_chemical_formula_sum   'Dy1 Y5 Al24 Ru7 Pt1'
_cell_volume   642.97698774
_cell_formula_units_Z   1
loop_
 _symmetry_equiv_pos_site_id
 _symmetry_equiv_pos_as_xyz
  1  'x, y, z'
loop_
 _atom_site_type_symbol
 _atom_site_label
 _atom_site_symmetry_multiplicity
 _atom_site_fract_x
 _atom_site_fract_y
 _atom_site_fract_z
 _atom_site_occupancy
  Dy  Dy0  1  0.386350  0.191853  0.750189  1
  Y  Y1  1  0.194147  0.805807  0.249753  1
  Y  Y2  1  0.191790  0.386125  0.249895  1
  Y  Y3  1  0.613908  0.808199  0.249861  1
  Y  Y4  1  0.805662  0.194201  0.750207  1
  Y  Y5  1  0.808059  0.613728  0.750120  1
  Al  Al6  1  0.561915  0.438107  0.247889  1
  Al  Al7  1  0.560686  0.121829  0.251329  1
  Al  Al8  1  0.878119  0.439287  0.251325  1
  Al  Al9  1  0.438036  0.561843  0.752105  1
  Al  Al10  1  0.439270  0.878165  0.748664  1
  Al  Al11  1  0.121852  0.560690  0.748682  1
  Al  Al12  1  0.323745  0.157725  0.422545  1
  Al  Al13  1  0.837390  0.162658  0.422543  1
  Al  Al14  1  0.842283  0.676251  0.422474  1
  Al  Al15  1  0.676250  0.842276  0.577555  1
  Al  Al16  1  0.162654  0.837459  0.577557  1
  Al  Al17  1  0.157766  0.323692  0.577626  1
  Al  Al18  1  0.675816  0.837376  0.921806  1
  Al  Al19  1  0.162668  0.837439  0.921917  1
  Al  Al20  1  0.162656  0.324124  0.921726  1
  Al  Al21  1  0.324178  0.162630  0.078100  1
  Al  Al22  1  0.837371  0.162659  0.077999  1
  Al  Al23  1  0.837390  0.675806  0.078172  1
  Al  Al24  1  0.669179  0.330727  0.519429  1
  Al  Al25  1  0.330764  0.669259  0.480731  1
  Al  Al26  1  0.333216  0.666783  0.016428  1
  Al  Al27  1  0.666726  0.333192  0.983423  1
  Al  Al28  1  0.999725  0.000328  0.250057  1
  Al  Al29  1  0.000646  0.999849  0.749952  1
  Ru  Ru30  1  0.999946  0.999979  0.499954  1
  Ru  Ru31  1  0.999932  0.999968  0.000052  1
  Ru  Ru32  1  0.499980  0.000046  0.500080  1
  Ru  Ru33  1  0.999996  0.499994  0.500005  1
  Ru  Ru34  1  0.499988  0.499948  0.999926  1
  Ru  Ru35  1  0.499960  0.000065  0.999877  1
  Ru  Ru36  1  0.000002  0.499997  0.000008  1
  Pt  Pt37  1  0.499978  0.499936  0.500041  1
