# generated using pymatgen
data_Dy16ZnGa5Ir2
_symmetry_space_group_name_H-M   'P 1'
_cell_length_a   10.05146835
_cell_length_b   10.05146956
_cell_length_c   7.03847012
_cell_angle_alpha   90.01841276
_cell_angle_beta   89.98158438
_cell_angle_gamma   120.11681984
_symmetry_Int_Tables_number   1
_chemical_formula_structural   Dy16ZnGa5Ir2
_chemical_formula_sum   'Dy16 Zn1 Ga5 Ir2'
_cell_volume   615.11385366
_cell_formula_units_Z   1
loop_
 _symmetry_equiv_pos_site_id
 _symmetry_equiv_pos_as_xyz
  1  'x, y, z'
loop_
 _atom_site_type_symbol
 _atom_site_label
 _atom_site_symmetry_multiplicity
 _atom_site_fract_x
 _atom_site_fract_y
 _atom_site_fract_z
 _atom_site_occupancy
  Dy  Dy0  1  0.170724  0.829276  0.515669  1
  Dy  Dy1  1  0.658812  0.829164  0.510260  1
  Dy  Dy2  1  0.170836  0.341188  0.510260  1
  Dy  Dy3  1  0.829434  0.170566  0.011146  1
  Dy  Dy4  1  0.339028  0.167272  0.008806  1
  Dy  Dy5  1  0.832728  0.660972  0.008806  1
  Dy  Dy6  1  0.331853  0.668147  0.839464  1
  Dy  Dy7  1  0.666445  0.333555  0.339349  1
  Dy  Dy8  1  0.465917  0.534083  0.204899  1
  Dy  Dy9  1  0.069614  0.535717  0.205868  1
  Dy  Dy10  1  0.464283  0.930386  0.205868  1
  Dy  Dy11  1  0.534369  0.465631  0.707220  1
  Dy  Dy12  1  0.930232  0.464746  0.706109  1
  Dy  Dy13  1  0.535254  0.069768  0.706109  1
  Dy  Dy14  1  0.999985  0.000015  0.234634  1
  Dy  Dy15  1  0.998905  0.001095  0.734223  1
  Zn  Zn16  1  0.164957  0.835043  0.953435  1
  Ga  Ga17  1  0.672021  0.835481  0.956518  1
  Ga  Ga18  1  0.164519  0.327979  0.956518  1
  Ga  Ga19  1  0.836084  0.163916  0.455122  1
  Ga  Ga20  1  0.327858  0.163839  0.456560  1
  Ga  Ga21  1  0.836161  0.672142  0.456560  1
  Ir  Ir22  1  0.333647  0.666353  0.445531  1
  Ir  Ir23  1  0.666337  0.333663  0.945902  1
