# generated using pymatgen
data_Yb4Ho5Er(CuPb3)2
_symmetry_space_group_name_H-M   'P 1'
_cell_length_a   9.17867808
_cell_length_b   9.17867798
_cell_length_c   6.78228100
_cell_angle_alpha   90.00000000
_cell_angle_beta   90.00000000
_cell_angle_gamma   119.98483421
_symmetry_Int_Tables_number   1
_chemical_formula_structural   Yb4Ho5Er(CuPb3)2
_chemical_formula_sum   'Yb4 Ho5 Er1 Cu2 Pb6'
_cell_volume   494.91775208
_cell_formula_units_Z   1
loop_
 _symmetry_equiv_pos_site_id
 _symmetry_equiv_pos_as_xyz
  1  'x, y, z'
loop_
 _atom_site_type_symbol
 _atom_site_label
 _atom_site_symmetry_multiplicity
 _atom_site_fract_x
 _atom_site_fract_y
 _atom_site_fract_z
 _atom_site_occupancy
  Yb  Yb0  1  0.333284  0.666559  0.999949  1
  Yb  Yb1  1  0.666559  0.333284  0.999949  1
  Yb  Yb2  1  0.666559  0.333284  0.500051  1
  Yb  Yb3  1  0.333284  0.666559  0.500051  1
  Ho  Ho4  1  0.257176  0.000042  0.250000  1
  Ho  Ho5  1  0.742861  0.000007  0.750000  1
  Ho  Ho6  1  0.000042  0.257176  0.250000  1
  Ho  Ho7  1  0.000007  0.742861  0.750000  1
  Ho  Ho8  1  0.742943  0.742943  0.250000  1
  Er  Er9  1  0.256892  0.256892  0.750000  1
  Cu  Cu10  1  0.000307  0.000307  0.999812  1
  Cu  Cu11  1  0.000307  0.000307  0.500188  1
  Pb  Pb12  1  0.612399  0.000029  0.250000  1
  Pb  Pb13  1  0.387481  0.000347  0.750000  1
  Pb  Pb14  1  0.000029  0.612399  0.250000  1
  Pb  Pb15  1  0.000347  0.387481  0.750000  1
  Pb  Pb16  1  0.387594  0.387594  0.250000  1
  Pb  Pb17  1  0.611929  0.611929  0.750000  1
