# generated using pymatgen
data_TbTh3(TcB4)4
_symmetry_space_group_name_H-M   'P 1'
_cell_length_a   3.71263300
_cell_length_b   6.04689141
_cell_length_c   11.71749337
_cell_angle_alpha   90.14315805
_cell_angle_beta   89.99999747
_cell_angle_gamma   89.99995677
_symmetry_Int_Tables_number   1
_chemical_formula_structural   TbTh3(TcB4)4
_chemical_formula_sum   'Tb1 Th3 Tc4 B16'
_cell_volume   263.05559962
_cell_formula_units_Z   1
loop_
 _symmetry_equiv_pos_site_id
 _symmetry_equiv_pos_as_xyz
  1  'x, y, z'
loop_
 _atom_site_type_symbol
 _atom_site_label
 _atom_site_symmetry_multiplicity
 _atom_site_fract_x
 _atom_site_fract_y
 _atom_site_fract_z
 _atom_site_occupancy
  Tb  Tb0  1  0.000001  0.625336  0.349410  1
  Th  Th1  1  0.000000  0.374742  0.649357  1
  Th  Th2  1  0.000000  0.126340  0.152422  1
  Th  Th3  1  0.000000  0.873879  0.849708  1
  Tc  Tc4  1  0.000000  0.635052  0.092398  1
  Tc  Tc5  1  0.999999  0.365382  0.909035  1
  Tc  Tc6  1  0.000000  0.134404  0.410234  1
  Tc  Tc7  1  0.000000  0.865671  0.588588  1
  B  B8  1  0.500000  0.782882  0.185536  1
  B  B9  1  0.499999  0.216896  0.816092  1
  B  B10  1  0.500000  0.285834  0.316341  1
  B  B11  1  0.500000  0.716980  0.682633  1
  B  B12  1  0.500000  0.860457  0.032448  1
  B  B13  1  0.499999  0.139893  0.968834  1
  B  B14  1  0.500000  0.361217  0.466875  1
  B  B15  1  0.500000  0.638981  0.530194  1
  B  B16  1  0.500001  0.886120  0.452721  1
  B  B17  1  0.500000  0.109442  0.543737  1
  B  B18  1  0.500000  0.390676  0.046685  1
  B  B19  1  0.500000  0.610434  0.955532  1
  B  B20  1  0.500000  0.976215  0.310509  1
  B  B21  1  0.500000  0.022471  0.688164  1
  B  B22  1  0.500000  0.476986  0.191406  1
  B  B23  1  0.500000  0.523708  0.811141  1
