# generated using pymatgen
data_V3Fe(SiRh3)3
_symmetry_space_group_name_H-M   'P 1'
_cell_length_a   3.92770400
_cell_length_b   5.30312191
_cell_length_c   10.33314880
_cell_angle_alpha   89.07296729
_cell_angle_beta   90.00000000
_cell_angle_gamma   90.00000000
_symmetry_Int_Tables_number   1
_chemical_formula_structural   V3Fe(SiRh3)3
_chemical_formula_sum   'V3 Fe1 Si3 Rh9'
_cell_volume   215.20194745
_cell_formula_units_Z   1
loop_
 _symmetry_equiv_pos_site_id
 _symmetry_equiv_pos_as_xyz
  1  'x, y, z'
loop_
 _atom_site_type_symbol
 _atom_site_label
 _atom_site_symmetry_multiplicity
 _atom_site_fract_x
 _atom_site_fract_y
 _atom_site_fract_z
 _atom_site_occupancy
  V  V0  1  0.500000  0.184650  0.647423  1
  V  V1  1  0.500000  0.847217  0.355383  1
  V  V2  1  0.500000  0.652111  0.853634  1
  Fe  Fe3  1  0.000000  0.426547  0.750548  1
  Si  Si4  1  0.500000  0.355220  0.148641  1
  Si  Si5  1  0.000000  0.487444  0.508513  1
  Si  Si6  1  0.000000  0.951035  0.988486  1
  Rh  Rh7  1  0.500000  0.322439  0.395346  1
  Rh  Rh8  1  0.500000  0.684047  0.608053  1
  Rh  Rh9  1  0.500000  0.806947  0.104931  1
  Rh  Rh10  1  0.500000  0.174679  0.893548  1
  Rh  Rh11  1  0.000000  0.611366  0.273812  1
  Rh  Rh12  1  0.000000  0.928383  0.752424  1
  Rh  Rh13  1  0.000000  0.103640  0.220597  1
  Rh  Rh14  1  0.000000  0.467109  0.006721  1
  Rh  Rh15  1  0.000000  0.997167  0.491943  1
