# generated using pymatgen
data_V4Fe3CoSiP3
_symmetry_space_group_name_H-M   'P 1'
_cell_length_a   3.49971800
_cell_length_b   5.91361061
_cell_length_c   6.73240743
_cell_angle_alpha   89.70283322
_cell_angle_beta   90.00000000
_cell_angle_gamma   90.00000000
_symmetry_Int_Tables_number   1
_chemical_formula_structural   V4Fe3CoSiP3
_chemical_formula_sum   'V4 Fe3 Co1 Si1 P3'
_cell_volume   139.33182471
_cell_formula_units_Z   1
loop_
 _symmetry_equiv_pos_site_id
 _symmetry_equiv_pos_as_xyz
  1  'x, y, z'
loop_
 _atom_site_type_symbol
 _atom_site_label
 _atom_site_symmetry_multiplicity
 _atom_site_fract_x
 _atom_site_fract_y
 _atom_site_fract_z
 _atom_site_occupancy
  V  V0  1  0.750000  0.476695  0.669676  1
  V  V1  1  0.750000  0.971391  0.824094  1
  V  V2  1  0.250000  0.527492  0.327520  1
  V  V3  1  0.250000  0.021332  0.177855  1
  Fe  Fe4  1  0.750000  0.854802  0.437195  1
  Fe  Fe5  1  0.250000  0.646826  0.940260  1
  Fe  Fe6  1  0.250000  0.141095  0.555199  1
  Co  Co7  1  0.750000  0.358972  0.068099  1
  Si  Si8  1  0.250000  0.268810  0.874161  1
  P  P9  1  0.750000  0.731837  0.124470  1
  P  P10  1  0.750000  0.230495  0.376502  1
  P  P11  1  0.250000  0.770255  0.624967  1
