# generated using pymatgen
data_SmY3Mn4(Co4P3)4
_symmetry_space_group_name_H-M   'P 1'
_cell_length_a   3.65696900
_cell_length_b   10.33714035
_cell_length_c   11.82970340
_cell_angle_alpha   89.97012406
_cell_angle_beta   90.00000000
_cell_angle_gamma   90.00000000
_symmetry_Int_Tables_number   1
_chemical_formula_structural   SmY3Mn4(Co4P3)4
_chemical_formula_sum   'Sm1 Y3 Mn4 Co16 P12'
_cell_volume   447.19350648
_cell_formula_units_Z   1
loop_
 _symmetry_equiv_pos_site_id
 _symmetry_equiv_pos_as_xyz
  1  'x, y, z'
loop_
 _atom_site_type_symbol
 _atom_site_label
 _atom_site_symmetry_multiplicity
 _atom_site_fract_x
 _atom_site_fract_y
 _atom_site_fract_z
 _atom_site_occupancy
  Sm  Sm0  1  0.250000  0.918099  0.203522  1
  Y  Y1  1  0.750000  0.082131  0.796571  1
  Y  Y2  1  0.750000  0.418085  0.295412  1
  Y  Y3  1  0.250000  0.582134  0.704570  1
  Mn  Mn4  1  0.250000  0.792623  0.489493  1
  Mn  Mn5  1  0.750000  0.207159  0.511280  1
  Mn  Mn6  1  0.750000  0.289942  0.010441  1
  Mn  Mn7  1  0.250000  0.710325  0.987958  1
  Co  Co8  1  0.250000  0.094629  0.987456  1
  Co  Co9  1  0.750000  0.906537  0.009775  1
  Co  Co10  1  0.750000  0.593829  0.512474  1
  Co  Co11  1  0.250000  0.406087  0.488135  1
  Co  Co12  1  0.250000  0.278653  0.677090  1
  Co  Co13  1  0.750000  0.720347  0.323694  1
  Co  Co14  1  0.750000  0.777945  0.824138  1
  Co  Co15  1  0.250000  0.221760  0.175149  1
  Co  Co16  1  0.250000  0.615136  0.198623  1
  Co  Co17  1  0.750000  0.383545  0.800912  1
  Co  Co18  1  0.750000  0.118980  0.301712  1
  Co  Co19  1  0.250000  0.882433  0.699751  1
  Co  Co20  1  0.250000  0.035737  0.434120  1
  Co  Co21  1  0.750000  0.965251  0.568647  1
  Co  Co22  1  0.750000  0.532685  0.066875  1
  Co  Co23  1  0.250000  0.466229  0.931878  1
  P  P24  1  0.250000  0.079962  0.614494  1
  P  P25  1  0.750000  0.920019  0.388622  1
  P  P26  1  0.750000  0.580803  0.887749  1
  P  P27  1  0.250000  0.418591  0.111344  1
  P  P28  1  0.250000  0.230422  0.366239  1
  P  P29  1  0.750000  0.769563  0.633648  1
  P  P30  1  0.750000  0.727425  0.130964  1
  P  P31  1  0.250000  0.270512  0.868056  1
  P  P32  1  0.250000  0.898522  0.892118  1
  P  P33  1  0.750000  0.103499  0.106694  1
  P  P34  1  0.750000  0.401065  0.609247  1
  P  P35  1  0.250000  0.599339  0.391149  1
