# generated using pymatgen
data_HoEr2Pa(InPd2)2
_symmetry_space_group_name_H-M   'P 1'
_cell_length_a   7.76960828
_cell_length_b   7.76690270
_cell_length_c   3.65796200
_cell_angle_alpha   90.00000000
_cell_angle_beta   90.00000000
_cell_angle_gamma   91.37443512
_symmetry_Int_Tables_number   1
_chemical_formula_structural   HoEr2Pa(InPd2)2
_chemical_formula_sum   'Ho1 Er2 Pa1 In2 Pd4'
_cell_volume   220.67910274
_cell_formula_units_Z   1
loop_
 _symmetry_equiv_pos_site_id
 _symmetry_equiv_pos_as_xyz
  1  'x, y, z'
loop_
 _atom_site_type_symbol
 _atom_site_label
 _atom_site_symmetry_multiplicity
 _atom_site_fract_x
 _atom_site_fract_y
 _atom_site_fract_z
 _atom_site_occupancy
  Ho  Ho0  1  0.825862  0.669198  0.500000  1
  Er  Er1  1  0.169227  0.325922  0.500000  1
  Er  Er2  1  0.674967  0.175120  0.500000  1
  Pa  Pa3  1  0.330814  0.831035  0.500000  1
  In  In4  1  0.996052  0.000843  0.000000  1
  In  In5  1  0.500400  0.495666  0.000000  1
  Pd  Pd6  1  0.368635  0.121275  0.000000  1
  Pd  Pd7  1  0.875884  0.374860  0.000000  1
  Pd  Pd8  1  0.137576  0.636691  0.000000  1
  Pd  Pd9  1  0.620583  0.869391  0.000000  1
