# generated using pymatgen
data_Ho6Er2Tc(B8Ru)3
_symmetry_space_group_name_H-M   'P 1'
_cell_length_a   3.65172600
_cell_length_b   9.11156650
_cell_length_c   11.49537904
_cell_angle_alpha   89.92189694
_cell_angle_beta   90.00000000
_cell_angle_gamma   90.00000000
_symmetry_Int_Tables_number   1
_chemical_formula_structural   Ho6Er2Tc(B8Ru)3
_chemical_formula_sum   'Ho6 Er2 Tc1 B24 Ru3'
_cell_volume   382.48475109
_cell_formula_units_Z   1
loop_
 _symmetry_equiv_pos_site_id
 _symmetry_equiv_pos_as_xyz
  1  'x, y, z'
loop_
 _atom_site_type_symbol
 _atom_site_label
 _atom_site_symmetry_multiplicity
 _atom_site_fract_x
 _atom_site_fract_y
 _atom_site_fract_z
 _atom_site_occupancy
  Ho  Ho0  1  0.000000  0.323982  0.413280  1
  Ho  Ho1  1  0.000000  0.677313  0.583424  1
  Ho  Ho2  1  0.000000  0.819856  0.088006  1
  Ho  Ho3  1  0.000000  0.177420  0.915121  1
  Ho  Ho4  1  0.000000  0.943063  0.372182  1
  Ho  Ho5  1  0.000000  0.057572  0.628478  1
  Er  Er6  1  0.000000  0.443809  0.128155  1
  Er  Er7  1  0.000000  0.556999  0.871323  1
  Tc  Tc8  1  0.000000  0.637246  0.320957  1
  B  B9  1  0.500000  0.552828  0.433209  1
  B  B10  1  0.500000  0.446567  0.567315  1
  B  B11  1  0.500000  0.053462  0.067026  1
  B  B12  1  0.500000  0.946121  0.933341  1
  B  B13  1  0.500000  0.748190  0.419444  1
  B  B14  1  0.500000  0.252281  0.580546  1
  B  B15  1  0.500000  0.248157  0.080238  1
  B  B16  1  0.500000  0.751503  0.919587  1
  B  B17  1  0.500000  0.791135  0.265769  1
  B  B18  1  0.500000  0.209529  0.734271  1
  B  B19  1  0.500000  0.290717  0.233347  1
  B  B20  1  0.500000  0.709643  0.765822  1
  B  B21  1  0.500000  0.630791  0.185283  1
  B  B22  1  0.500000  0.368851  0.815053  1
  B  B23  1  0.500000  0.131333  0.314369  1
  B  B24  1  0.500000  0.869243  0.685240  1
  B  B25  1  0.500000  0.982667  0.212488  1
  B  B26  1  0.500000  0.017289  0.788003  1
  B  B27  1  0.500000  0.481710  0.287287  1
  B  B28  1  0.500000  0.517295  0.712616  1
  B  B29  1  0.500000  0.606018  0.028781  1
  B  B30  1  0.500000  0.393291  0.970149  1
  B  B31  1  0.500000  0.107550  0.470625  1
  B  B32  1  0.500000  0.894180  0.529996  1
  Ru  Ru33  1  0.000000  0.362448  0.679653  1
  Ru  Ru34  1  0.000000  0.137509  0.178347  1
  Ru  Ru35  1  0.000000  0.862434  0.821268  1
