# generated using pymatgen
data_Hf2AlCo3Sn
_symmetry_space_group_name_H-M   'P 1'
_cell_length_a   7.48716457
_cell_length_b   7.48716384
_cell_length_c   7.48716513
_cell_angle_alpha   33.21567394
_cell_angle_beta   33.21568386
_cell_angle_gamma   33.21567533
_symmetry_Int_Tables_number   1
_chemical_formula_structural   Hf2AlCo3Sn
_chemical_formula_sum   'Hf2 Al1 Co3 Sn1'
_cell_volume   112.12019302
_cell_formula_units_Z   1
loop_
 _symmetry_equiv_pos_site_id
 _symmetry_equiv_pos_as_xyz
  1  'x, y, z'
loop_
 _atom_site_type_symbol
 _atom_site_label
 _atom_site_symmetry_multiplicity
 _atom_site_fract_x
 _atom_site_fract_y
 _atom_site_fract_z
 _atom_site_occupancy
  Hf  Hf0  1  0.751144  0.751144  0.751144  1
  Hf  Hf1  1  0.250365  0.250365  0.250365  1
  Al  Al2  1  0.999093  0.999093  0.999093  1
  Co  Co3  1  0.119634  0.119634  0.119634  1
  Co  Co4  1  0.630303  0.630303  0.630303  1
  Co  Co5  1  0.371721  0.371721  0.371721  1
  Sn  Sn6  1  0.502741  0.502741  0.502741  1
