# generated using pymatgen
data_K4Fe4Br10O
_symmetry_space_group_name_H-M   'P 1'
_cell_length_a   11.55281678
_cell_length_b   11.55281677
_cell_length_c   9.80415100
_cell_angle_alpha   78.74713664
_cell_angle_beta   78.74713665
_cell_angle_gamma   90.38930314
_symmetry_Int_Tables_number   1
_chemical_formula_structural   K4Fe4Br10O
_chemical_formula_sum   'K8 Fe8 Br20 O2'
_cell_volume   1257.33765839
_cell_formula_units_Z   2
loop_
 _symmetry_equiv_pos_site_id
 _symmetry_equiv_pos_as_xyz
  1  'x, y, z'
loop_
 _atom_site_type_symbol
 _atom_site_label
 _atom_site_symmetry_multiplicity
 _atom_site_fract_x
 _atom_site_fract_y
 _atom_site_fract_z
 _atom_site_occupancy
  K  K0  1  0.296131  0.439285  0.140369  1
  K  K1  1  0.719127  0.957754  0.871745  1
  K  K2  1  0.957754  0.719127  0.371745  1
  K  K3  1  0.560715  0.703869  0.359631  1
  K  K4  1  0.439285  0.296131  0.640369  1
  K  K5  1  0.042246  0.280873  0.628255  1
  K  K6  1  0.703869  0.560715  0.859631  1
  K  K7  1  0.280873  0.042246  0.128255  1
  Fe  Fe8  1  0.947374  0.240023  0.119201  1
  Fe  Fe9  1  0.052626  0.759977  0.880799  1
  Fe  Fe10  1  0.651368  0.233397  0.134723  1
  Fe  Fe11  1  0.766603  0.348632  0.365277  1
  Fe  Fe12  1  0.233397  0.651368  0.634723  1
  Fe  Fe13  1  0.348632  0.766603  0.865277  1
  Fe  Fe14  1  0.759977  0.052626  0.380799  1
  Fe  Fe15  1  0.240023  0.947374  0.619201  1
  Br  Br16  1  0.149914  0.274778  0.950838  1
  Br  Br17  1  0.976058  0.023942  0.250000  1
  Br  Br18  1  0.725222  0.850086  0.549162  1
  Br  Br19  1  0.380935  0.999483  0.787070  1
  Br  Br20  1  0.260522  0.490957  0.486741  1
  Br  Br21  1  0.000517  0.619065  0.712930  1
  Br  Br22  1  0.829536  0.275460  0.910882  1
  Br  Br23  1  0.421250  0.578750  0.750000  1
  Br  Br24  1  0.490957  0.260522  0.986741  1
  Br  Br25  1  0.023942  0.976058  0.750000  1
  Br  Br26  1  0.275460  0.829536  0.410882  1
  Br  Br27  1  0.999483  0.380935  0.287070  1
  Br  Br28  1  0.850086  0.725222  0.049162  1
  Br  Br29  1  0.739478  0.509043  0.513259  1
  Br  Br30  1  0.619065  0.000517  0.212930  1
  Br  Br31  1  0.724540  0.170464  0.589118  1
  Br  Br32  1  0.170464  0.724540  0.089118  1
  Br  Br33  1  0.578750  0.421250  0.250000  1
  Br  Br34  1  0.274778  0.149914  0.450838  1
  Br  Br35  1  0.509043  0.739478  0.013259  1
  O  O36  1  0.223133  0.776867  0.750000  1
  O  O37  1  0.776867  0.223133  0.250000  1
