# generated using pymatgen
data_Gd12CdNi6
_symmetry_space_group_name_H-M   'P 1'
_cell_length_a   8.48162103
_cell_length_b   8.48162161
_cell_length_c   8.48162100
_cell_angle_alpha   109.47121917
_cell_angle_beta   109.47122056
_cell_angle_gamma   109.47122270
_symmetry_Int_Tables_number   1
_chemical_formula_structural   Gd12CdNi6
_chemical_formula_sum   'Gd12 Cd1 Ni6'
_cell_volume   469.69369023
_cell_formula_units_Z   1
loop_
 _symmetry_equiv_pos_site_id
 _symmetry_equiv_pos_as_xyz
  1  'x, y, z'
loop_
 _atom_site_type_symbol
 _atom_site_label
 _atom_site_symmetry_multiplicity
 _atom_site_fract_x
 _atom_site_fract_y
 _atom_site_fract_z
 _atom_site_occupancy
  Gd  Gd0  1  0.814230  0.695725  0.509955  1
  Gd  Gd1  1  0.185770  0.304275  0.490045  1
  Gd  Gd2  1  0.185770  0.695725  0.881496  1
  Gd  Gd3  1  0.814230  0.304275  0.118504  1
  Gd  Gd4  1  0.695725  0.509955  0.814230  1
  Gd  Gd5  1  0.304275  0.490045  0.185770  1
  Gd  Gd6  1  0.695725  0.881496  0.185770  1
  Gd  Gd7  1  0.304275  0.118504  0.814230  1
  Gd  Gd8  1  0.509955  0.814230  0.695725  1
  Gd  Gd9  1  0.490045  0.185770  0.304275  1
  Gd  Gd10  1  0.118504  0.814230  0.304275  1
  Gd  Gd11  1  0.881496  0.185770  0.695725  1
  Cd  Cd12  1  0.000000  0.000000  0.000000  1
  Ni  Ni13  1  0.875678  0.375678  0.500000  1
  Ni  Ni14  1  0.124322  0.624322  0.500000  1
  Ni  Ni15  1  0.375678  0.500000  0.875678  1
  Ni  Ni16  1  0.624322  0.500000  0.124322  1
  Ni  Ni17  1  0.500000  0.875678  0.375678  1
  Ni  Ni18  1  0.500000  0.124322  0.624322  1
