# generated using pymatgen
data_Tm2CoNiH8
_symmetry_space_group_name_H-M   'P 1'
_cell_length_a   5.96896057
_cell_length_b   5.96896042
_cell_length_c   4.68555800
_cell_angle_alpha   90.00000000
_cell_angle_beta   90.00000000
_cell_angle_gamma   145.58456750
_symmetry_Int_Tables_number   1
_chemical_formula_structural   Tm2CoNiH8
_chemical_formula_sum   'Tm2 Co1 Ni1 H8'
_cell_volume   94.35232405
_cell_formula_units_Z   1
loop_
 _symmetry_equiv_pos_site_id
 _symmetry_equiv_pos_as_xyz
  1  'x, y, z'
loop_
 _atom_site_type_symbol
 _atom_site_label
 _atom_site_symmetry_multiplicity
 _atom_site_fract_x
 _atom_site_fract_y
 _atom_site_fract_z
 _atom_site_occupancy
  Tm  Tm0  1  0.866316  0.133684  0.750000  1
  Tm  Tm1  1  0.131678  0.868322  0.250000  1
  Co  Co2  1  0.402950  0.597050  0.250000  1
  Ni  Ni3  1  0.599735  0.400265  0.750000  1
  H  H4  1  0.086090  0.913910  0.750000  1
  H  H5  1  0.912523  0.087477  0.250000  1
  H  H6  1  0.694565  0.305435  0.489963  1
  H  H7  1  0.306145  0.693855  0.500258  1
  H  H8  1  0.694565  0.305435  0.010037  1
  H  H9  1  0.306145  0.693855  0.999742  1
  H  H10  1  0.499645  0.500355  0.002967  1
  H  H11  1  0.499645  0.500355  0.497033  1
