# generated using pymatgen
data_Tc3Se4Br
_symmetry_space_group_name_H-M   'P 1'
_cell_length_a   11.95767100
_cell_length_b   6.67853681
_cell_length_c   11.62051422
_cell_angle_alpha   68.26749715
_cell_angle_beta   90.00000000
_cell_angle_gamma   90.00000000
_symmetry_Int_Tables_number   1
_chemical_formula_structural   Tc3Se4Br
_chemical_formula_sum   'Tc12 Se16 Br4'
_cell_volume   862.05074854
_cell_formula_units_Z   4
loop_
 _symmetry_equiv_pos_site_id
 _symmetry_equiv_pos_as_xyz
  1  'x, y, z'
loop_
 _atom_site_type_symbol
 _atom_site_label
 _atom_site_symmetry_multiplicity
 _atom_site_fract_x
 _atom_site_fract_y
 _atom_site_fract_z
 _atom_site_occupancy
  Tc  Tc0  1  0.519044  0.296955  0.441689  1
  Tc  Tc1  1  0.432055  0.023481  0.350097  1
  Tc  Tc2  1  0.358830  0.031099  0.561889  1
  Tc  Tc3  1  0.480956  0.703045  0.558311  1
  Tc  Tc4  1  0.019044  0.703045  0.058311  1
  Tc  Tc5  1  0.980956  0.296955  0.941689  1
  Tc  Tc6  1  0.567945  0.976519  0.649903  1
  Tc  Tc7  1  0.067945  0.023481  0.850097  1
  Tc  Tc8  1  0.641170  0.968901  0.438111  1
  Tc  Tc9  1  0.932055  0.976519  0.149903  1
  Tc  Tc10  1  0.858830  0.968901  0.938111  1
  Tc  Tc11  1  0.141170  0.031099  0.061889  1
  Se  Se12  1  0.677697  0.664123  0.640908  1
  Se  Se13  1  0.555265  0.718993  0.343156  1
  Se  Se14  1  0.944735  0.718993  0.843156  1
  Se  Se15  1  0.284924  0.766332  0.474548  1
  Se  Se16  1  0.784924  0.233668  0.025452  1
  Se  Se17  1  0.911500  0.276089  0.742036  1
  Se  Se18  1  0.088500  0.723911  0.257964  1
  Se  Se19  1  0.715076  0.233668  0.525452  1
  Se  Se20  1  0.055265  0.281007  0.156844  1
  Se  Se21  1  0.444735  0.281007  0.656844  1
  Se  Se22  1  0.411500  0.723911  0.757964  1
  Se  Se23  1  0.322303  0.335877  0.359092  1
  Se  Se24  1  0.177697  0.335877  0.859092  1
  Se  Se25  1  0.588500  0.276089  0.242036  1
  Se  Se26  1  0.822303  0.664123  0.140908  1
  Se  Se27  1  0.215076  0.766332  0.974548  1
  Br  Br28  1  0.650677  0.917125  0.872469  1
  Br  Br29  1  0.849323  0.917125  0.372469  1
  Br  Br30  1  0.349323  0.082875  0.127531  1
  Br  Br31  1  0.150677  0.082875  0.627531  1
