# generated using pymatgen
data_Zr2VSi7Ni11
_symmetry_space_group_name_H-M   'P 1'
_cell_length_a   9.16573711
_cell_length_b   9.17393108
_cell_length_c   3.64479000
_cell_angle_alpha   90.00000000
_cell_angle_beta   90.00000000
_cell_angle_gamma   120.43754786
_symmetry_Int_Tables_number   1
_chemical_formula_structural   Zr2VSi7Ni11
_chemical_formula_sum   'Zr2 V1 Si7 Ni11'
_cell_volume   264.23738567
_cell_formula_units_Z   1
loop_
 _symmetry_equiv_pos_site_id
 _symmetry_equiv_pos_as_xyz
  1  'x, y, z'
loop_
 _atom_site_type_symbol
 _atom_site_label
 _atom_site_symmetry_multiplicity
 _atom_site_fract_x
 _atom_site_fract_y
 _atom_site_fract_z
 _atom_site_occupancy
  Zr  Zr0  1  0.997965  0.004918  0.000000  1
  Zr  Zr1  1  0.332670  0.668816  0.500000  1
  V  V2  1  0.882293  0.448885  0.500000  1
  Si  Si3  1  0.659308  0.332722  0.000000  1
  Si  Si4  1  0.079810  0.453520  0.000000  1
  Si  Si5  1  0.259369  0.216185  0.500000  1
  Si  Si6  1  0.777529  0.039855  0.500000  1
  Si  Si7  1  0.961053  0.751089  0.500000  1
  Si  Si8  1  0.546798  0.616930  0.000000  1
  Si  Si9  1  0.384952  0.927721  0.000000  1
  Ni  Ni10  1  0.287389  0.388658  0.000000  1
  Ni  Ni11  1  0.103147  0.713545  0.000000  1
  Ni  Ni12  1  0.546014  0.427413  0.500000  1
  Ni  Ni13  1  0.380480  0.171238  0.000000  1
  Ni  Ni14  1  0.793900  0.619018  0.000000  1
  Ni  Ni15  1  0.822768  0.210561  0.000000  1
  Ni  Ni16  1  0.236587  0.948056  0.500000  1
  Ni  Ni17  1  0.048187  0.279179  0.500000  1
  Ni  Ni18  1  0.714721  0.764939  0.500000  1
  Ni  Ni19  1  0.574482  0.125405  0.500000  1
  Ni  Ni20  1  0.610578  0.891348  0.000000  1
