# generated using pymatgen
data_Eu8BeCu2Si12Pd
_symmetry_space_group_name_H-M   'P 1'
_cell_length_a   8.19892200
_cell_length_b   8.19892186
_cell_length_c   8.94418100
_cell_angle_alpha   90.00000000
_cell_angle_beta   90.00000000
_cell_angle_gamma   120.00000862
_symmetry_Int_Tables_number   1
_chemical_formula_structural   Eu8BeCu2Si12Pd
_chemical_formula_sum   'Eu8 Be1 Cu2 Si12 Pd1'
_cell_volume   520.69652052
_cell_formula_units_Z   1
loop_
 _symmetry_equiv_pos_site_id
 _symmetry_equiv_pos_as_xyz
  1  'x, y, z'
loop_
 _atom_site_type_symbol
 _atom_site_label
 _atom_site_symmetry_multiplicity
 _atom_site_fract_x
 _atom_site_fract_y
 _atom_site_fract_z
 _atom_site_occupancy
  Eu  Eu0  1  0.499602  0.999201  0.251351  1
  Eu  Eu1  1  0.499306  0.998614  0.748549  1
  Eu  Eu2  1  0.000799  0.500398  0.251351  1
  Eu  Eu3  1  0.001386  0.500694  0.748549  1
  Eu  Eu4  1  0.499602  0.500398  0.251351  1
  Eu  Eu5  1  0.499306  0.500694  0.748549  1
  Eu  Eu6  1  0.000000  0.000000  0.249210  1
  Eu  Eu7  1  0.000000  0.000000  0.751110  1
  Be  Be8  1  0.333333  0.666667  0.999411  1
  Cu  Cu9  1  0.666667  0.333333  0.998418  1
  Cu  Cu10  1  0.666667  0.333333  0.500317  1
  Si  Si11  1  0.170443  0.340887  0.999804  1
  Si  Si12  1  0.832059  0.664118  0.000735  1
  Si  Si13  1  0.659113  0.829557  0.999804  1
  Si  Si14  1  0.834012  0.668025  0.500958  1
  Si  Si15  1  0.335882  0.167941  0.000735  1
  Si  Si16  1  0.164686  0.329374  0.498963  1
  Si  Si17  1  0.170443  0.829557  0.999804  1
  Si  Si18  1  0.331975  0.165988  0.500958  1
  Si  Si19  1  0.832059  0.167941  0.000735  1
  Si  Si20  1  0.670626  0.835314  0.498963  1
  Si  Si21  1  0.834012  0.165988  0.500958  1
  Si  Si22  1  0.164686  0.835314  0.498963  1
  Pd  Pd23  1  0.333333  0.666667  0.500459  1
