# generated using pymatgen
data_Ac2Ga(SiIr2)3
_symmetry_space_group_name_H-M   'P 1'
_cell_length_a   6.85848220
_cell_length_b   6.85251926
_cell_length_c   6.85848229
_cell_angle_alpha   130.26905509
_cell_angle_beta   114.89246954
_cell_angle_gamma   86.17032265
_symmetry_Int_Tables_number   1
_chemical_formula_structural   Ac2Ga(SiIr2)3
_chemical_formula_sum   'Ac2 Ga1 Si3 Ir6'
_cell_volume   213.05960826
_cell_formula_units_Z   1
loop_
 _symmetry_equiv_pos_site_id
 _symmetry_equiv_pos_as_xyz
  1  'x, y, z'
loop_
 _atom_site_type_symbol
 _atom_site_label
 _atom_site_symmetry_multiplicity
 _atom_site_fract_x
 _atom_site_fract_y
 _atom_site_fract_z
 _atom_site_occupancy
  Ac  Ac0  1  0.249420  0.972156  0.722736  1
  Ac  Ac1  1  0.751704  0.022063  0.270359  1
  Ga  Ga2  1  0.088308  0.302478  0.214170  1
  Si  Si3  1  0.930975  0.720273  0.789298  1
  Si  Si4  1  0.405467  0.624006  0.218539  1
  Si  Si5  1  0.575012  0.361837  0.786826  1
  Ir  Ir6  1  0.524219  0.503753  0.523649  1
  Ir  Ir7  1  0.980106  0.503753  0.979536  1
  Ir  Ir8  1  0.281133  0.995606  0.276930  1
  Ir  Ir9  1  0.718676  0.995606  0.714473  1
  Ir  Ir10  1  0.235258  0.499233  0.739511  1
  Ir  Ir11  1  0.759722  0.499233  0.263975  1
