# generated using pymatgen
data_Tb7Y3(SiBi)4
_symmetry_space_group_name_H-M   'P 1'
_cell_length_a   8.69130413
_cell_length_b   8.68868680
_cell_length_c   7.95986413
_cell_angle_alpha   89.99861659
_cell_angle_beta   90.01787964
_cell_angle_gamma   125.59156847
_symmetry_Int_Tables_number   1
_chemical_formula_structural   Tb7Y3(SiBi)4
_chemical_formula_sum   'Tb7 Y3 Si4 Bi4'
_cell_volume   488.80408986
_cell_formula_units_Z   1
loop_
 _symmetry_equiv_pos_site_id
 _symmetry_equiv_pos_as_xyz
  1  'x, y, z'
loop_
 _atom_site_type_symbol
 _atom_site_label
 _atom_site_symmetry_multiplicity
 _atom_site_fract_x
 _atom_site_fract_y
 _atom_site_fract_z
 _atom_site_occupancy
  Tb  Tb0  1  0.042718  0.287442  0.335305  1
  Tb  Tb1  1  0.957296  0.712529  0.664635  1
  Tb  Tb2  1  0.457306  0.212472  0.835340  1
  Tb  Tb3  1  0.787534  0.542705  0.164662  1
  Tb  Tb4  1  0.542705  0.787499  0.164670  1
  Tb  Tb5  1  0.212536  0.457289  0.835379  1
  Tb  Tb6  1  0.712605  0.957322  0.664666  1
  Y  Y7  1  0.287156  0.042657  0.335532  1
  Y  Y8  1  0.000022  0.000010  0.000023  1
  Y  Y9  1  0.499987  0.499946  0.499981  1
  Si  Si10  1  0.365547  0.365400  0.133388  1
  Si  Si11  1  0.634508  0.634500  0.866634  1
  Si  Si12  1  0.134480  0.134485  0.633261  1
  Si  Si13  1  0.865598  0.865574  0.366668  1
  Bi  Bi14  1  0.792659  0.207458  0.999954  1
  Bi  Bi15  1  0.207521  0.792700  0.000144  1
  Bi  Bi16  1  0.707253  0.292440  0.499846  1
  Bi  Bi17  1  0.292567  0.707573  0.499915  1
