# generated using pymatgen
data_Hf6Al5GaIr6
_symmetry_space_group_name_H-M   'P 1'
_cell_length_a   7.11852519
_cell_length_b   7.12415762
_cell_length_c   7.07083954
_cell_angle_alpha   89.99999903
_cell_angle_beta   89.97416918
_cell_angle_gamma   120.02617142
_symmetry_Int_Tables_number   1
_chemical_formula_structural   Hf6Al5GaIr6
_chemical_formula_sum   'Hf6 Al5 Ga1 Ir6'
_cell_volume   310.46347036
_cell_formula_units_Z   1
loop_
 _symmetry_equiv_pos_site_id
 _symmetry_equiv_pos_as_xyz
  1  'x, y, z'
loop_
 _atom_site_type_symbol
 _atom_site_label
 _atom_site_symmetry_multiplicity
 _atom_site_fract_x
 _atom_site_fract_y
 _atom_site_fract_z
 _atom_site_occupancy
  Hf  Hf0  1  0.601064  0.599158  0.251027  1
  Hf  Hf1  1  0.001756  0.402549  0.748808  1
  Hf  Hf2  1  0.401117  0.001695  0.251136  1
  Hf  Hf3  1  0.998244  0.400793  0.251192  1
  Hf  Hf4  1  0.398936  0.998093  0.748973  1
  Hf  Hf5  1  0.598883  0.600580  0.748864  1
  Al  Al6  1  0.245819  0.247393  0.499815  1
  Al  Al7  1  0.754181  0.001573  0.500185  1
  Al  Al8  1  0.000000  0.754866  0.500000  1
  Al  Al9  1  0.728292  0.999573  0.999953  1
  Al  Al10  1  0.271708  0.271281  0.000047  1
  Ga  Ga11  1  0.000000  0.724664  0.000000  1
  Ir  Ir12  1  0.333193  0.666800  0.497572  1
  Ir  Ir13  1  0.999991  0.002141  0.771388  1
  Ir  Ir14  1  0.000009  0.002150  0.228612  1
  Ir  Ir15  1  0.337170  0.665128  0.002717  1
  Ir  Ir16  1  0.666807  0.333605  0.502428  1
  Ir  Ir17  1  0.662830  0.327957  0.997283  1
