# generated using pymatgen
data_CeNpSbN2
_symmetry_space_group_name_H-M   'P 1'
_cell_length_a   7.04557458
_cell_length_b   7.04557398
_cell_length_c   7.04557370
_cell_angle_alpha   147.94237661
_cell_angle_beta   147.94237199
_cell_angle_gamma   45.97043832
_symmetry_Int_Tables_number   1
_chemical_formula_structural   CeNpSbN2
_chemical_formula_sum   'Ce1 Np1 Sb1 N2'
_cell_volume   98.19305317
_cell_formula_units_Z   1
loop_
 _symmetry_equiv_pos_site_id
 _symmetry_equiv_pos_as_xyz
  1  'x, y, z'
loop_
 _atom_site_type_symbol
 _atom_site_label
 _atom_site_symmetry_multiplicity
 _atom_site_fract_x
 _atom_site_fract_y
 _atom_site_fract_z
 _atom_site_occupancy
  Ce  Ce0  1  0.340966  0.340966  0.000000  1
  Np  Np1  1  0.665388  0.665388  0.000000  1
  Sb  Sb2  1  0.006098  0.006098  0.000000  1
  N  N3  1  0.743774  0.243774  0.500000  1
  N  N4  1  0.243774  0.743774  0.500000  1
