# generated using pymatgen
data_Er5Bi2Os
_symmetry_space_group_name_H-M   'P 1'
_cell_length_a   7.88491400
_cell_length_b   9.00280400
_cell_length_c   12.44703100
_cell_angle_alpha   90.00000000
_cell_angle_beta   90.00000000
_cell_angle_gamma   90.00000000
_symmetry_Int_Tables_number   1
_chemical_formula_structural   Er5Bi2Os
_chemical_formula_sum   'Er20 Bi8 Os4'
_cell_volume   883.56911604
_cell_formula_units_Z   4
loop_
 _symmetry_equiv_pos_site_id
 _symmetry_equiv_pos_as_xyz
  1  'x, y, z'
loop_
 _atom_site_type_symbol
 _atom_site_label
 _atom_site_symmetry_multiplicity
 _atom_site_fract_x
 _atom_site_fract_y
 _atom_site_fract_z
 _atom_site_occupancy
  Er  Er0  1  0.662598  0.750000  0.709184  1
  Er  Er1  1  0.337402  0.250000  0.290816  1
  Er  Er2  1  0.162598  0.250000  0.790816  1
  Er  Er3  1  0.837402  0.750000  0.209184  1
  Er  Er4  1  0.129516  0.750000  0.812385  1
  Er  Er5  1  0.870484  0.250000  0.187615  1
  Er  Er6  1  0.629516  0.250000  0.687615  1
  Er  Er7  1  0.370484  0.750000  0.312385  1
  Er  Er8  1  0.557299  0.750000  0.994820  1
  Er  Er9  1  0.442701  0.250000  0.005180  1
  Er  Er10  1  0.057299  0.250000  0.505180  1
  Er  Er11  1  0.942701  0.750000  0.494820  1
  Er  Er12  1  0.828411  0.458771  0.933280  1
  Er  Er13  1  0.171589  0.541229  0.066720  1
  Er  Er14  1  0.328411  0.541229  0.566720  1
  Er  Er15  1  0.171589  0.958771  0.066720  1
  Er  Er16  1  0.671589  0.458771  0.433280  1
  Er  Er17  1  0.828411  0.041229  0.933280  1
  Er  Er18  1  0.671589  0.041229  0.433280  1
  Er  Er19  1  0.328411  0.958771  0.566720  1
  Bi  Bi20  1  0.938196  0.004386  0.672634  1
  Bi  Bi21  1  0.061804  0.995614  0.327366  1
  Bi  Bi22  1  0.438196  0.995614  0.827366  1
  Bi  Bi23  1  0.061804  0.504386  0.327366  1
  Bi  Bi24  1  0.561804  0.004386  0.172634  1
  Bi  Bi25  1  0.938196  0.495614  0.672634  1
  Bi  Bi26  1  0.561804  0.495614  0.172634  1
  Bi  Bi27  1  0.438196  0.504386  0.827366  1
  Os  Os28  1  0.926206  0.750000  0.992079  1
  Os  Os29  1  0.073794  0.250000  0.007921  1
  Os  Os30  1  0.426206  0.250000  0.507921  1
  Os  Os31  1  0.573794  0.750000  0.492079  1
