# generated using pymatgen
data_NaCdCoH6
_symmetry_space_group_name_H-M   'P 1'
_cell_length_a   4.76927995
_cell_length_b   4.76928131
_cell_length_c   4.76928000
_cell_angle_alpha   59.99999522
_cell_angle_beta   59.99998577
_cell_angle_gamma   60.00000397
_symmetry_Int_Tables_number   1
_chemical_formula_structural   NaCdCoH6
_chemical_formula_sum   'Na1 Cd1 Co1 H6'
_cell_volume   76.70850665
_cell_formula_units_Z   1
loop_
 _symmetry_equiv_pos_site_id
 _symmetry_equiv_pos_as_xyz
  1  'x, y, z'
loop_
 _atom_site_type_symbol
 _atom_site_label
 _atom_site_symmetry_multiplicity
 _atom_site_fract_x
 _atom_site_fract_y
 _atom_site_fract_z
 _atom_site_occupancy
  Na  Na0  1  0.250000  0.250000  0.250000  1
  Cd  Cd1  1  0.750000  0.750000  0.750000  1
  Co  Co2  1  0.000000  0.000000  0.000000  1
  H  H3  1  0.772791  0.772791  0.227209  1
  H  H4  1  0.227209  0.772791  0.227209  1
  H  H5  1  0.772791  0.227209  0.227209  1
  H  H6  1  0.227209  0.227209  0.772791  1
  H  H7  1  0.772791  0.227209  0.772791  1
  H  H8  1  0.227209  0.772791  0.772791  1
