# generated using pymatgen
data_Dy4SiAsSe2
_symmetry_space_group_name_H-M   'P 1'
_cell_length_a   7.13753425
_cell_length_b   7.13753513
_cell_length_c   7.13753493
_cell_angle_alpha   132.20090140
_cell_angle_beta   132.20090344
_cell_angle_gamma   69.91190868
_symmetry_Int_Tables_number   1
_chemical_formula_structural   Dy4SiAsSe2
_chemical_formula_sum   'Dy4 Si1 As1 Se2'
_cell_volume   195.65953406
_cell_formula_units_Z   1
loop_
 _symmetry_equiv_pos_site_id
 _symmetry_equiv_pos_as_xyz
  1  'x, y, z'
loop_
 _atom_site_type_symbol
 _atom_site_label
 _atom_site_symmetry_multiplicity
 _atom_site_fract_x
 _atom_site_fract_y
 _atom_site_fract_z
 _atom_site_occupancy
  Dy  Dy0  1  0.757654  0.757654  0.000000  1
  Dy  Dy1  1  0.242347  0.242347  0.000000  1
  Dy  Dy2  1  0.004253  0.504253  0.500000  1
  Dy  Dy3  1  0.495747  0.995747  0.500000  1
  Si  Si4  1  0.000000  0.000000  0.000000  1
  As  As5  1  0.250000  0.750000  0.500000  1
  Se  Se6  1  0.500000  0.500000  0.000000  1
  Se  Se7  1  0.750000  0.250000  0.500000  1
