# generated using pymatgen
data_Tb10GaSn3Bi2
_symmetry_space_group_name_H-M   'P 1'
_cell_length_a   9.02210584
_cell_length_b   9.02363130
_cell_length_c   6.58168400
_cell_angle_alpha   90.00000000
_cell_angle_beta   90.00000000
_cell_angle_gamma   120.00559188
_symmetry_Int_Tables_number   1
_chemical_formula_structural   Tb10GaSn3Bi2
_chemical_formula_sum   'Tb10 Ga1 Sn3 Bi2'
_cell_volume   464.01545341
_cell_formula_units_Z   1
loop_
 _symmetry_equiv_pos_site_id
 _symmetry_equiv_pos_as_xyz
  1  'x, y, z'
loop_
 _atom_site_type_symbol
 _atom_site_label
 _atom_site_symmetry_multiplicity
 _atom_site_fract_x
 _atom_site_fract_y
 _atom_site_fract_z
 _atom_site_occupancy
  Tb  Tb0  1  0.678628  0.343693  0.001687  1
  Tb  Tb1  1  0.321372  0.665067  0.001687  1
  Tb  Tb2  1  0.321372  0.665067  0.498313  1
  Tb  Tb3  1  0.678628  0.343693  0.498313  1
  Tb  Tb4  1  0.771955  0.756359  0.750000  1
  Tb  Tb5  1  0.228045  0.984405  0.750000  1
  Tb  Tb6  1  0.000000  0.245215  0.750000  1
  Tb  Tb7  1  0.238920  0.238654  0.250000  1
  Tb  Tb8  1  0.761080  0.999734  0.250000  1
  Tb  Tb9  1  0.000000  0.759799  0.250000  1
  Ga  Ga10  1  0.000000  0.602719  0.750000  1
  Sn  Sn11  1  0.604332  0.608619  0.250000  1
  Sn  Sn12  1  0.395668  0.004287  0.250000  1
  Sn  Sn13  1  0.000000  0.393074  0.250000  1
  Bi  Bi14  1  0.392516  0.391066  0.750000  1
  Bi  Bi15  1  0.607484  0.998551  0.750000  1
