# generated using pymatgen
data_Cs4Na2HoInAs4
_symmetry_space_group_name_H-M   'P 1'
_cell_length_a   9.91416506
_cell_length_b   9.91416592
_cell_length_c   9.91416688
_cell_angle_alpha   137.53864310
_cell_angle_beta   60.54577600
_cell_angle_gamma   138.93764878
_symmetry_Int_Tables_number   1
_chemical_formula_structural   Cs4Na2HoInAs4
_chemical_formula_sum   'Cs4 Na2 Ho1 In1 As4'
_cell_volume   427.53547009
_cell_formula_units_Z   1
loop_
 _symmetry_equiv_pos_site_id
 _symmetry_equiv_pos_as_xyz
  1  'x, y, z'
loop_
 _atom_site_type_symbol
 _atom_site_label
 _atom_site_symmetry_multiplicity
 _atom_site_fract_x
 _atom_site_fract_y
 _atom_site_fract_z
 _atom_site_occupancy
  Cs  Cs0  1  0.329883  0.777003  0.094641  1
  Cs  Cs1  1  0.170117  0.264759  0.447119  1
  Cs  Cs2  1  0.817639  0.722998  0.552881  1
  Cs  Cs3  1  0.682362  0.235242  0.905360  1
  Na  Na4  1  0.750000  0.250000  0.500000  1
  Na  Na5  1  0.250000  0.750000  0.500000  1
  Ho  Ho6  1  0.250000  0.250000  0.000000  1
  In  In7  1  0.750000  0.750000  0.000000  1
  As  As8  1  0.905229  0.214994  0.128009  1
  As  As9  1  0.594772  0.722781  0.309765  1
  As  As10  1  0.413016  0.285007  0.690236  1
  As  As11  1  0.086984  0.777219  0.871990  1
