# generated using pymatgen
data_YPd2Au3
_symmetry_space_group_name_H-M   'P 1'
_cell_length_a   5.43902132
_cell_length_b   5.43902188
_cell_length_c   5.43902318
_cell_angle_alpha   120.07064678
_cell_angle_beta   119.47147099
_cell_angle_gamma   90.39777024
_symmetry_Int_Tables_number   1
_chemical_formula_structural   YPd2Au3
_chemical_formula_sum   'Y1 Pd2 Au3'
_cell_volume   114.16203570
_cell_formula_units_Z   1
loop_
 _symmetry_equiv_pos_site_id
 _symmetry_equiv_pos_as_xyz
  1  'x, y, z'
loop_
 _atom_site_type_symbol
 _atom_site_label
 _atom_site_symmetry_multiplicity
 _atom_site_fract_x
 _atom_site_fract_y
 _atom_site_fract_z
 _atom_site_occupancy
  Y  Y0  1  0.004083  0.004083  0.000000  1
  Pd  Pd1  1  0.623208  0.373959  0.249250  1
  Pd  Pd2  1  0.124709  0.373959  0.750750  1
  Au  Au3  1  0.623650  0.374278  0.750627  1
  Au  Au4  1  0.623650  0.873022  0.249373  1
  Au  Au5  1  0.250699  0.750699  0.500000  1
