# generated using pymatgen
data_La8Al8Ir7Rh
_symmetry_space_group_name_H-M   'P 1'
_cell_length_a   4.28652000
_cell_length_b   7.24593162
_cell_length_c   16.34454996
_cell_angle_alpha   89.91089421
_cell_angle_beta   90.00000000
_cell_angle_gamma   90.00000000
_symmetry_Int_Tables_number   1
_chemical_formula_structural   La8Al8Ir7Rh
_chemical_formula_sum   'La8 Al8 Ir7 Rh1'
_cell_volume   507.65834261
_cell_formula_units_Z   1
loop_
 _symmetry_equiv_pos_site_id
 _symmetry_equiv_pos_as_xyz
  1  'x, y, z'
loop_
 _atom_site_type_symbol
 _atom_site_label
 _atom_site_symmetry_multiplicity
 _atom_site_fract_x
 _atom_site_fract_y
 _atom_site_fract_z
 _atom_site_occupancy
  La  La0  1  0.750000  0.846811  0.939817  1
  La  La1  1  0.250000  0.154141  0.060663  1
  La  La2  1  0.250000  0.655670  0.439201  1
  La  La3  1  0.750000  0.346978  0.560311  1
  La  La4  1  0.750000  0.988220  0.720541  1
  La  La5  1  0.250000  0.012993  0.278823  1
  La  La6  1  0.250000  0.511209  0.221184  1
  La  La7  1  0.750000  0.487710  0.779808  1
  Al  Al8  1  0.750000  0.837527  0.148447  1
  Al  Al9  1  0.250000  0.155963  0.852878  1
  Al  Al10  1  0.250000  0.657012  0.648300  1
  Al  Al11  1  0.750000  0.344129  0.353395  1
  Al  Al12  1  0.750000  0.993189  0.438258  1
  Al  Al13  1  0.250000  0.006998  0.560927  1
  Al  Al14  1  0.250000  0.507113  0.939093  1
  Al  Al15  1  0.750000  0.493181  0.060522  1
  Ir  Ir16  1  0.750000  0.784593  0.571620  1
  Ir  Ir17  1  0.250000  0.214298  0.427745  1
  Ir  Ir18  1  0.250000  0.714789  0.072077  1
  Ir  Ir19  1  0.750000  0.282876  0.928903  1
  Ir  Ir20  1  0.750000  0.723724  0.318101  1
  Ir  Ir21  1  0.250000  0.277672  0.679777  1
  Ir  Ir22  1  0.250000  0.776959  0.819627  1
  Rh  Rh23  1  0.750000  0.226246  0.179981  1
