# generated using pymatgen
data_Sm6NpO12
_symmetry_space_group_name_H-M   'P 1'
_cell_length_a   6.71622107
_cell_length_b   6.71622309
_cell_length_c   6.71622231
_cell_angle_alpha   98.79161683
_cell_angle_beta   98.79162305
_cell_angle_gamma   98.79162618
_symmetry_Int_Tables_number   1
_chemical_formula_structural   Sm6NpO12
_chemical_formula_sum   'Sm6 Np1 O12'
_cell_volume   291.02057970
_cell_formula_units_Z   1
loop_
 _symmetry_equiv_pos_site_id
 _symmetry_equiv_pos_as_xyz
  1  'x, y, z'
loop_
 _atom_site_type_symbol
 _atom_site_label
 _atom_site_symmetry_multiplicity
 _atom_site_fract_x
 _atom_site_fract_y
 _atom_site_fract_z
 _atom_site_occupancy
  Sm  Sm0  1  0.854901  0.388965  0.682588  1
  Sm  Sm1  1  0.611035  0.317412  0.145099  1
  Sm  Sm2  1  0.317412  0.145099  0.611035  1
  Sm  Sm3  1  0.682588  0.854901  0.388965  1
  Sm  Sm4  1  0.388965  0.682588  0.854901  1
  Sm  Sm5  1  0.145099  0.611035  0.317412  1
  Np  Np6  1  0.000000  0.000000  0.000000  1
  O  O7  1  0.927853  0.042992  0.697593  1
  O  O8  1  0.957008  0.302407  0.072147  1
  O  O9  1  0.589988  0.177648  0.433074  1
  O  O10  1  0.822352  0.566926  0.410012  1
  O  O11  1  0.302407  0.072147  0.957008  1
  O  O12  1  0.566926  0.410012  0.822352  1
  O  O13  1  0.433074  0.589988  0.177648  1
  O  O14  1  0.697593  0.927853  0.042992  1
  O  O15  1  0.177648  0.433074  0.589988  1
  O  O16  1  0.410012  0.822352  0.566926  1
  O  O17  1  0.042992  0.697593  0.927853  1
  O  O18  1  0.072147  0.957008  0.302407  1
