# generated using pymatgen
data_Pr3Dy(SeO3)6
_symmetry_space_group_name_H-M   'P 1'
_cell_length_a   7.34026898
_cell_length_b   8.39419585
_cell_length_c   9.32980052
_cell_angle_alpha   70.75479603
_cell_angle_beta   70.07130045
_cell_angle_gamma   66.18964498
_symmetry_Int_Tables_number   1
_chemical_formula_structural   Pr3Dy(SeO3)6
_chemical_formula_sum   'Pr3 Dy1 Se6 O18'
_cell_volume   481.96159745
_cell_formula_units_Z   1
loop_
 _symmetry_equiv_pos_site_id
 _symmetry_equiv_pos_as_xyz
  1  'x, y, z'
loop_
 _atom_site_type_symbol
 _atom_site_label
 _atom_site_symmetry_multiplicity
 _atom_site_fract_x
 _atom_site_fract_y
 _atom_site_fract_z
 _atom_site_occupancy
  Pr  Pr0  1  0.332074  0.734230  0.588387  1
  Pr  Pr1  1  0.663748  0.272554  0.409984  1
  Pr  Pr2  1  0.740996  0.733039  0.802720  1
  Dy  Dy3  1  0.259597  0.262137  0.197970  1
  Se  Se4  1  0.424294  0.782889  0.197502  1
  Se  Se5  1  0.571370  0.227376  0.803731  1
  Se  Se6  1  0.152636  0.741464  0.969522  1
  Se  Se7  1  0.850044  0.243416  0.039469  1
  Se  Se8  1  0.888810  0.759849  0.415241  1
  Se  Se9  1  0.112979  0.244193  0.575729  1
  O  O10  1  0.642738  0.796078  0.058879  1
  O  O11  1  0.359177  0.210788  0.950560  1
  O  O12  1  0.357647  0.948771  0.298020  1
  O  O13  1  0.631780  0.064365  0.701955  1
  O  O14  1  0.508975  0.603300  0.346921  1
  O  O15  1  0.481832  0.405980  0.655117  1
  O  O16  1  0.175806  0.556984  0.118309  1
  O  O17  1  0.834454  0.420896  0.884171  1
  O  O18  1  0.402007  0.710862  0.854050  1
  O  O19  1  0.596436  0.285915  0.151062  1
  O  O20  1  0.339374  0.247871  0.431382  1
  O  O21  1  0.662196  0.750224  0.557046  1
  O  O22  1  0.976029  0.289741  0.437615  1
  O  O23  1  0.029869  0.709168  0.552163  1
  O  O24  1  0.151549  0.024425  0.655354  1
  O  O25  1  0.846283  0.980815  0.344657  1
  O  O26  1  0.940322  0.297808  0.162025  1
  O  O27  1  0.066976  0.694864  0.840458  1
