# generated using pymatgen
data_Ba3Mn2Zn4Si4TeO20
_symmetry_space_group_name_H-M   'P 1'
_cell_length_a   9.97815498
_cell_length_b   9.97815513
_cell_length_c   5.20855900
_cell_angle_alpha   76.01574230
_cell_angle_beta   76.01574209
_cell_angle_gamma   71.62922245
_symmetry_Int_Tables_number   1
_chemical_formula_structural   Ba3Mn2Zn4Si4TeO20
_chemical_formula_sum   'Ba3 Mn2 Zn4 Si4 Te1 O20'
_cell_volume   469.79305924
_cell_formula_units_Z   1
loop_
 _symmetry_equiv_pos_site_id
 _symmetry_equiv_pos_as_xyz
  1  'x, y, z'
loop_
 _atom_site_type_symbol
 _atom_site_label
 _atom_site_symmetry_multiplicity
 _atom_site_fract_x
 _atom_site_fract_y
 _atom_site_fract_z
 _atom_site_occupancy
  Ba  Ba0  1  0.786548  0.786548  0.747901  1
  Ba  Ba1  1  0.213452  0.213452  0.252099  1
  Ba  Ba2  1  0.500000  0.500000  0.000000  1
  Mn  Mn3  1  0.155274  0.844726  0.500000  1
  Mn  Mn4  1  0.844726  0.155274  0.500000  1
  Zn  Zn5  1  0.366700  0.923271  0.826641  1
  Zn  Zn6  1  0.076729  0.633300  0.173359  1
  Zn  Zn7  1  0.633300  0.076729  0.173359  1
  Zn  Zn8  1  0.923271  0.366700  0.826641  1
  Si  Si9  1  0.521414  0.780457  0.342180  1
  Si  Si10  1  0.219543  0.478586  0.657820  1
  Si  Si11  1  0.478586  0.219543  0.657820  1
  Si  Si12  1  0.780457  0.521414  0.342180  1
  Te  Te13  1  0.000000  0.000000  0.000000  1
  O  O14  1  0.619218  0.883423  0.340954  1
  O  O15  1  0.116577  0.380782  0.659046  1
  O  O16  1  0.380782  0.116577  0.659046  1
  O  O17  1  0.883423  0.619218  0.340954  1
  O  O18  1  0.369398  0.813796  0.553037  1
  O  O19  1  0.186204  0.630602  0.446963  1
  O  O20  1  0.630602  0.186204  0.446963  1
  O  O21  1  0.813796  0.369398  0.553037  1
  O  O22  1  0.506011  0.777145  0.037378  1
  O  O23  1  0.222855  0.493989  0.962622  1
  O  O24  1  0.493989  0.222855  0.962622  1
  O  O25  1  0.777145  0.506011  0.037378  1
  O  O26  1  0.931831  0.931831  0.370182  1
  O  O27  1  0.068169  0.068169  0.629818  1
  O  O28  1  0.190195  0.956654  0.095887  1
  O  O29  1  0.043346  0.809805  0.904113  1
  O  O30  1  0.809805  0.043346  0.904113  1
  O  O31  1  0.956654  0.190195  0.095887  1
  O  O32  1  0.610502  0.610502  0.464160  1
  O  O33  1  0.389498  0.389498  0.535840  1
