# generated using pymatgen
data_Y2Ho2FeRu7
_symmetry_space_group_name_H-M   'P 1'
_cell_length_a   5.32525695
_cell_length_b   5.20935218
_cell_length_c   8.92038446
_cell_angle_alpha   89.92133328
_cell_angle_beta   90.01213919
_cell_angle_gamma   120.66750912
_symmetry_Int_Tables_number   1
_chemical_formula_structural   Y2Ho2FeRu7
_chemical_formula_sum   'Y2 Ho2 Fe1 Ru7'
_cell_volume   212.85181472
_cell_formula_units_Z   1
loop_
 _symmetry_equiv_pos_site_id
 _symmetry_equiv_pos_as_xyz
  1  'x, y, z'
loop_
 _atom_site_type_symbol
 _atom_site_label
 _atom_site_symmetry_multiplicity
 _atom_site_fract_x
 _atom_site_fract_y
 _atom_site_fract_z
 _atom_site_occupancy
  Y  Y0  1  0.668483  0.336773  0.567507  1
  Y  Y1  1  0.331453  0.663481  0.434136  1
  Ho  Ho2  1  0.331449  0.663446  0.065478  1
  Ho  Ho3  1  0.668541  0.336872  0.933076  1
  Fe  Fe4  1  0.163043  0.326032  0.750638  1
  Ru  Ru5  1  0.002209  0.005093  0.501540  1
  Ru  Ru6  1  0.002417  0.005507  0.998419  1
  Ru  Ru7  1  0.174406  0.827559  0.751045  1
  Ru  Ru8  1  0.653709  0.828034  0.750999  1
  Ru  Ru9  1  0.832508  0.665397  0.249073  1
  Ru  Ru10  1  0.827360  0.170583  0.249046  1
  Ru  Ru11  1  0.344420  0.171222  0.249043  1
