# generated using pymatgen
data_Tm2Co3Si(P2Ru3)3
_symmetry_space_group_name_H-M   'P 1'
_cell_length_a   9.32258300
_cell_length_b   9.32258214
_cell_length_c   3.81860800
_cell_angle_alpha   90.00000000
_cell_angle_beta   90.00000000
_cell_angle_gamma   119.99999951
_symmetry_Int_Tables_number   1
_chemical_formula_structural   Tm2Co3Si(P2Ru3)3
_chemical_formula_sum   'Tm2 Co3 Si1 P6 Ru9'
_cell_volume   287.41417875
_cell_formula_units_Z   1
loop_
 _symmetry_equiv_pos_site_id
 _symmetry_equiv_pos_as_xyz
  1  'x, y, z'
loop_
 _atom_site_type_symbol
 _atom_site_label
 _atom_site_symmetry_multiplicity
 _atom_site_fract_x
 _atom_site_fract_y
 _atom_site_fract_z
 _atom_site_occupancy
  Tm  Tm0  1  0.666667  0.333333  0.000000  1
  Tm  Tm1  1  0.000000  0.000000  0.500000  1
  Co  Co2  1  0.495532  0.944496  0.000000  1
  Co  Co3  1  0.055504  0.551036  0.000000  1
  Co  Co4  1  0.448964  0.504468  0.000000  1
  Si  Si5  1  0.333333  0.666667  0.000000  1
  P  P6  1  0.449120  0.064965  0.500000  1
  P  P7  1  0.935035  0.384155  0.500000  1
  P  P8  1  0.615845  0.550880  0.500000  1
  P  P9  1  0.745462  0.969240  0.000000  1
  P  P10  1  0.030760  0.776220  0.000000  1
  P  P11  1  0.223780  0.254538  0.000000  1
  Ru  Ru12  1  0.758914  0.729837  0.000000  1
  Ru  Ru13  1  0.270163  0.029075  0.000000  1
  Ru  Ru14  1  0.970925  0.241086  0.000000  1
  Ru  Ru15  1  0.718958  0.106308  0.500000  1
  Ru  Ru16  1  0.893692  0.612649  0.500000  1
  Ru  Ru17  1  0.387351  0.281042  0.500000  1
  Ru  Ru18  1  0.539040  0.754098  0.500000  1
  Ru  Ru19  1  0.245902  0.784943  0.500000  1
  Ru  Ru20  1  0.215057  0.460960  0.500000  1
