# generated using pymatgen
data_Nb4Fe2NiSe12
_symmetry_space_group_name_H-M   'P 1'
_cell_length_a   7.26309985
_cell_length_b   7.26309992
_cell_length_c   19.23079226
_cell_angle_alpha   70.18682960
_cell_angle_beta   70.18682955
_cell_angle_gamma   26.92387114
_symmetry_Int_Tables_number   1
_chemical_formula_structural   Nb4Fe2NiSe12
_chemical_formula_sum   'Nb4 Fe2 Ni1 Se12'
_cell_volume   430.55743068
_cell_formula_units_Z   1
loop_
 _symmetry_equiv_pos_site_id
 _symmetry_equiv_pos_as_xyz
  1  'x, y, z'
loop_
 _atom_site_type_symbol
 _atom_site_label
 _atom_site_symmetry_multiplicity
 _atom_site_fract_x
 _atom_site_fract_y
 _atom_site_fract_z
 _atom_site_occupancy
  Nb  Nb0  1  0.742070  0.742070  0.593504  1
  Nb  Nb1  1  0.257930  0.257930  0.406496  1
  Nb  Nb2  1  0.615319  0.615319  0.854315  1
  Nb  Nb3  1  0.384681  0.384681  0.145685  1
  Fe  Fe4  1  0.776785  0.776785  0.280261  1
  Fe  Fe5  1  0.223215  0.223215  0.719739  1
  Ni  Ni6  1  0.000000  0.000000  0.000000  1
  Se  Se7  1  0.867570  0.867570  0.451686  1
  Se  Se8  1  0.035681  0.035681  0.109542  1
  Se  Se9  1  0.801572  0.801572  0.771439  1
  Se  Se10  1  0.401746  0.401746  0.277517  1
  Se  Se11  1  0.174229  0.174229  0.934783  1
  Se  Se12  1  0.598254  0.598254  0.722483  1
  Se  Se13  1  0.132430  0.132430  0.548314  1
  Se  Se14  1  0.825771  0.825771  0.065217  1
  Se  Se15  1  0.370352  0.370352  0.610181  1
  Se  Se16  1  0.964319  0.964319  0.890458  1
  Se  Se17  1  0.198428  0.198428  0.228561  1
  Se  Se18  1  0.629648  0.629648  0.389819  1
