# generated using pymatgen
data_Ca3Nd5(Si3Rh4)2
_symmetry_space_group_name_H-M   'P 1'
_cell_length_a   10.81367323
_cell_length_b   10.80408898
_cell_length_c   7.79426957
_cell_angle_alpha   71.91777077
_cell_angle_beta   71.90785085
_cell_angle_gamma   30.76468500
_symmetry_Int_Tables_number   1
_chemical_formula_structural   Ca3Nd5(Si3Rh4)2
_chemical_formula_sum   'Ca3 Nd5 Si6 Rh8'
_cell_volume   440.98571031
_cell_formula_units_Z   1
loop_
 _symmetry_equiv_pos_site_id
 _symmetry_equiv_pos_as_xyz
  1  'x, y, z'
loop_
 _atom_site_type_symbol
 _atom_site_label
 _atom_site_symmetry_multiplicity
 _atom_site_fract_x
 _atom_site_fract_y
 _atom_site_fract_z
 _atom_site_occupancy
  Ca  Ca0  1  0.934745  0.201392  0.334660  1
  Ca  Ca1  1  0.203826  0.932798  0.826376  1
  Ca  Ca2  1  0.063080  0.804144  0.667355  1
  Nd  Nd3  1  0.780195  0.556250  0.598899  1
  Nd  Nd4  1  0.441047  0.220482  0.899865  1
  Nd  Nd5  1  0.217027  0.442019  0.404309  1
  Nd  Nd6  1  0.556953  0.780024  0.099485  1
  Nd  Nd7  1  0.806501  0.063713  0.167452  1
  Si  Si8  1  0.946550  0.703880  0.060540  1
  Si  Si9  1  0.298463  0.051120  0.436378  1
  Si  Si10  1  0.053271  0.294608  0.937781  1
  Si  Si11  1  0.703864  0.948063  0.563291  1
  Si  Si12  1  0.596120  0.403243  0.748911  1
  Si  Si13  1  0.398982  0.601023  0.252515  1
  Rh  Rh14  1  0.578789  0.297820  0.526109  1
  Rh  Rh15  1  0.700399  0.420563  0.972784  1
  Rh  Rh16  1  0.422741  0.699346  0.471902  1
  Rh  Rh17  1  0.297229  0.579018  0.030970  1
  Rh  Rh18  1  0.633977  0.926358  0.314019  1
  Rh  Rh19  1  0.071931  0.369957  0.185381  1
  Rh  Rh20  1  0.370303  0.072186  0.685952  1
  Rh  Rh21  1  0.924007  0.631991  0.815066  1
