# generated using pymatgen
data_TbTaP7Ru12
_symmetry_space_group_name_H-M   'P 1'
_cell_length_a   9.38887600
_cell_length_b   9.38887539
_cell_length_c   3.89609900
_cell_angle_alpha   90.00000000
_cell_angle_beta   90.00000000
_cell_angle_gamma   119.99999511
_symmetry_Int_Tables_number   1
_chemical_formula_structural   TbTaP7Ru12
_chemical_formula_sum   'Tb1 Ta1 P7 Ru12'
_cell_volume   297.43208480
_cell_formula_units_Z   1
loop_
 _symmetry_equiv_pos_site_id
 _symmetry_equiv_pos_as_xyz
  1  'x, y, z'
loop_
 _atom_site_type_symbol
 _atom_site_label
 _atom_site_symmetry_multiplicity
 _atom_site_fract_x
 _atom_site_fract_y
 _atom_site_fract_z
 _atom_site_occupancy
  Tb  Tb0  1  0.333333  0.666667  0.000000  1
  Ta  Ta1  1  0.666667  0.333333  0.500000  1
  P  P2  1  0.598230  0.719155  0.500000  1
  P  P3  1  0.000000  0.000000  0.000000  1
  P  P4  1  0.280845  0.879076  0.500000  1
  P  P5  1  0.120924  0.401770  0.500000  1
  P  P6  1  0.886365  0.574555  0.000000  1
  P  P7  1  0.425445  0.311811  0.000000  1
  P  P8  1  0.688189  0.113635  0.000000  1
  Ru  Ru9  1  0.558548  0.957592  0.500000  1
  Ru  Ru10  1  0.399045  0.441452  0.500000  1
  Ru  Ru11  1  0.912593  0.124214  0.500000  1
  Ru  Ru12  1  0.211621  0.087407  0.500000  1
  Ru  Ru13  1  0.875786  0.788379  0.500000  1
  Ru  Ru14  1  0.725511  0.887597  0.000000  1
  Ru  Ru15  1  0.112403  0.837914  0.000000  1
  Ru  Ru16  1  0.162086  0.274489  0.000000  1
  Ru  Ru17  1  0.432779  0.079727  0.000000  1
  Ru  Ru18  1  0.920273  0.353053  0.000000  1
  Ru  Ru19  1  0.646947  0.567221  0.000000  1
  Ru  Ru20  1  0.042408  0.600955  0.500000  1
