# generated using pymatgen
data_BaSi7As5Pt4
_symmetry_space_group_name_H-M   'P 1'
_cell_length_a   7.43317974
_cell_length_b   7.42036300
_cell_length_c   7.41499113
_cell_angle_alpha   109.46770624
_cell_angle_beta   109.31321692
_cell_angle_gamma   109.40456181
_symmetry_Int_Tables_number   1
_chemical_formula_structural   BaSi7As5Pt4
_chemical_formula_sum   'Ba1 Si7 As5 Pt4'
_cell_volume   315.72204626
_cell_formula_units_Z   1
loop_
 _symmetry_equiv_pos_site_id
 _symmetry_equiv_pos_as_xyz
  1  'x, y, z'
loop_
 _atom_site_type_symbol
 _atom_site_label
 _atom_site_symmetry_multiplicity
 _atom_site_fract_x
 _atom_site_fract_y
 _atom_site_fract_z
 _atom_site_occupancy
  Ba  Ba0  1  0.000652  0.995367  0.997087  1
  Si  Si1  1  0.500789  0.859176  0.648566  1
  Si  Si2  1  0.146078  0.353414  0.500345  1
  Si  Si3  1  0.517624  0.157219  0.366904  1
  Si  Si4  1  0.847289  0.348868  0.201782  1
  Si  Si5  1  0.635609  0.480101  0.842844  1
  Si  Si6  1  0.360937  0.209124  0.847666  1
  Si  Si7  1  0.788974  0.150703  0.645146  1
  As  As8  1  0.848448  0.637046  0.489072  1
  As  As9  1  0.352016  0.495453  0.143271  1
  As  As10  1  0.222502  0.863225  0.364873  1
  As  As11  1  0.145736  0.637563  0.783167  1
  As  As12  1  0.646638  0.792309  0.145798  1
  Pt  Pt13  1  0.006544  0.015304  0.515378  1
  Pt  Pt14  1  0.495776  0.500573  0.509720  1
  Pt  Pt15  1  0.986885  0.494509  0.997067  1
  Pt  Pt16  1  0.497503  0.010044  0.001316  1
