# generated using pymatgen
data_DyY5(B7Os)2
_symmetry_space_group_name_H-M   'P 1'
_cell_length_a   8.07368305
_cell_length_b   8.07368419
_cell_length_c   9.34192401
_cell_angle_alpha   89.99559888
_cell_angle_beta   90.00440182
_cell_angle_gamma   154.80628769
_symmetry_Int_Tables_number   1
_chemical_formula_structural   DyY5(B7Os)2
_chemical_formula_sum   'Dy1 Y5 B14 Os2'
_cell_volume   259.21672613
_cell_formula_units_Z   1
loop_
 _symmetry_equiv_pos_site_id
 _symmetry_equiv_pos_as_xyz
  1  'x, y, z'
loop_
 _atom_site_type_symbol
 _atom_site_label
 _atom_site_symmetry_multiplicity
 _atom_site_fract_x
 _atom_site_fract_y
 _atom_site_fract_z
 _atom_site_occupancy
  Dy  Dy0  1  0.894083  0.105917  0.939765  1
  Y  Y1  1  0.755778  0.244222  0.250013  1
  Y  Y2  1  0.244243  0.755757  0.750065  1
  Y  Y3  1  0.893936  0.106064  0.560593  1
  Y  Y4  1  0.106067  0.893933  0.439497  1
  Y  Y5  1  0.106054  0.893946  0.060517  1
  B  B6  1  0.542383  0.457617  0.249975  1
  B  B7  1  0.457550  0.542450  0.750117  1
  B  B8  1  0.520920  0.479080  0.903614  1
  B  B9  1  0.478917  0.521083  0.096239  1
  B  B10  1  0.479006  0.520994  0.403628  1
  B  B11  1  0.521000  0.479000  0.596384  1
  B  B12  1  0.631968  0.368032  0.849321  1
  B  B13  1  0.368037  0.631963  0.150508  1
  B  B14  1  0.727308  0.272692  0.966000  1
  B  B15  1  0.272842  0.727158  0.033884  1
  B  B16  1  0.272769  0.727231  0.466024  1
  B  B17  1  0.727232  0.272768  0.533980  1
  B  B18  1  0.631964  0.368036  0.650686  1
  B  B19  1  0.368031  0.631969  0.349303  1
  Os  Os20  1  0.945815  0.054185  0.249844  1
  Os  Os21  1  0.054098  0.945902  0.750041  1
