# generated using pymatgen
data_La7Pr9Mg4IrOs3
_symmetry_space_group_name_H-M   'P 1'
_cell_length_a   10.08733318
_cell_length_b   10.13797482
_cell_length_c   10.15909809
_cell_angle_alpha   59.74768852
_cell_angle_beta   59.99683243
_cell_angle_gamma   60.20072574
_symmetry_Int_Tables_number   1
_chemical_formula_structural   La7Pr9Mg4IrOs3
_chemical_formula_sum   'La7 Pr9 Mg4 Ir1 Os3'
_cell_volume   734.30136961
_cell_formula_units_Z   1
loop_
 _symmetry_equiv_pos_site_id
 _symmetry_equiv_pos_as_xyz
  1  'x, y, z'
loop_
 _atom_site_type_symbol
 _atom_site_label
 _atom_site_symmetry_multiplicity
 _atom_site_fract_x
 _atom_site_fract_y
 _atom_site_fract_z
 _atom_site_occupancy
  La  La0  1  0.342861  0.343795  0.345592  1
  La  La1  1  0.343080  0.342792  0.967530  1
  La  La2  1  0.344146  0.965058  0.343947  1
  La  La3  1  0.969705  0.343906  0.343820  1
  La  La4  1  0.814091  0.188741  0.187082  1
  La  La5  1  0.187711  0.814104  0.812003  1
  La  La6  1  0.188482  0.811145  0.188010  1
  Pr  Pr7  1  0.811907  0.190877  0.809057  1
  Pr  Pr8  1  0.189317  0.191510  0.808144  1
  Pr  Pr9  1  0.809964  0.809789  0.190632  1
  Pr  Pr10  1  0.934819  0.563391  0.563572  1
  Pr  Pr11  1  0.560813  0.938077  0.936618  1
  Pr  Pr12  1  0.560317  0.937250  0.564540  1
  Pr  Pr13  1  0.938359  0.561348  0.940118  1
  Pr  Pr14  1  0.560123  0.563419  0.937474  1
  Pr  Pr15  1  0.939698  0.941877  0.560166  1
  Mg  Mg16  1  0.579388  0.578145  0.578376  1
  Mg  Mg17  1  0.579094  0.579185  0.263751  1
  Mg  Mg18  1  0.577828  0.263161  0.580185  1
  Mg  Mg19  1  0.262662  0.577429  0.579647  1
  Ir  Ir20  1  0.580542  0.143187  0.141337  1
  Os  Os21  1  0.136194  0.134981  0.143268  1
  Os  Os22  1  0.143175  0.131272  0.581670  1
  Os  Os23  1  0.145726  0.585561  0.133465  1
