# generated using pymatgen
data_Pr12AlIrI17
_symmetry_space_group_name_H-M   'P 1'
_cell_length_a   10.06422882
_cell_length_b   12.04908395
_cell_length_c   12.08452700
_cell_angle_alpha   93.40388483
_cell_angle_beta   104.83452296
_cell_angle_gamma   114.50246734
_symmetry_Int_Tables_number   1
_chemical_formula_structural   Pr12AlIrI17
_chemical_formula_sum   'Pr12 Al1 Ir1 I17'
_cell_volume   1265.97305285
_cell_formula_units_Z   1
loop_
 _symmetry_equiv_pos_site_id
 _symmetry_equiv_pos_as_xyz
  1  'x, y, z'
loop_
 _atom_site_type_symbol
 _atom_site_label
 _atom_site_symmetry_multiplicity
 _atom_site_fract_x
 _atom_site_fract_y
 _atom_site_fract_z
 _atom_site_occupancy
  Pr  Pr0  1  0.844941  0.711333  0.851912  1
  Pr  Pr1  1  0.064755  0.522853  0.329223  1
  Pr  Pr2  1  0.987087  0.810922  0.577035  1
  Pr  Pr3  1  0.630172  0.238375  0.285377  1
  Pr  Pr4  1  0.014989  0.186597  0.426604  1
  Pr  Pr5  1  0.225565  0.668347  0.995188  1
  Pr  Pr6  1  0.265122  0.990810  0.896484  1
  Pr  Pr7  1  0.359506  0.760006  0.713848  1
  Pr  Pr8  1  0.939423  0.483408  0.675005  1
  Pr  Pr9  1  0.728789  0.001517  0.100144  1
  Pr  Pr10  1  0.162814  0.288646  0.147169  1
  Pr  Pr11  1  0.775008  0.335324  0.999320  1
  Al  Al12  1  0.894815  0.262382  0.214077  1
  Ir  Ir13  1  0.103986  0.737750  0.785567  1
  I  I14  1  0.780966  0.526870  0.416060  1
  I  I15  1  0.632608  0.417892  0.751564  1
  I  I16  1  0.842224  0.894131  0.324304  1
  I  I17  1  0.325292  0.211700  0.371845  1
  I  I18  1  0.158205  0.106238  0.677006  1
  I  I19  1  0.589903  0.055125  0.842374  1
  I  I20  1  0.752352  0.179057  0.538868  1
  I  I21  1  0.546953  0.699374  0.952654  1
  I  I22  1  0.363839  0.581744  0.245659  1
  I  I23  1  0.218046  0.470235  0.581540  1
  I  I24  1  0.056790  0.365521  0.895942  1
  I  I25  1  0.455258  0.298679  0.045037  1
  I  I26  1  0.000086  0.000996  0.001033  1
  I  I27  1  0.250679  0.825158  0.461036  1
  I  I28  1  0.412567  0.947728  0.161097  1
  I  I29  1  0.673258  0.788142  0.630447  1
  I  I30  1  0.944004  0.633139  0.106585  1
