# generated using pymatgen
data_AcLaSi4
_symmetry_space_group_name_H-M   'P 1'
_cell_length_a   4.38687087
_cell_length_b   4.38687053
_cell_length_c   7.72934455
_cell_angle_alpha   106.48596226
_cell_angle_beta   106.48595578
_cell_angle_gamma   89.99999297
_symmetry_Int_Tables_number   1
_chemical_formula_structural   AcLaSi4
_chemical_formula_sum   'Ac1 La1 Si4'
_cell_volume   136.24391666
_cell_formula_units_Z   1
loop_
 _symmetry_equiv_pos_site_id
 _symmetry_equiv_pos_as_xyz
  1  'x, y, z'
loop_
 _atom_site_type_symbol
 _atom_site_label
 _atom_site_symmetry_multiplicity
 _atom_site_fract_x
 _atom_site_fract_y
 _atom_site_fract_z
 _atom_site_occupancy
  Ac  Ac0  1  0.000000  0.000000  0.000000  1
  La  La1  1  0.250000  0.750000  0.500000  1
  Si  Si2  1  0.585884  0.585884  0.171768  1
  Si  Si3  1  0.667141  0.167141  0.334281  1
  Si  Si4  1  0.832858  0.332858  0.665719  1
  Si  Si5  1  0.414116  0.414116  0.828231  1
