# generated using pymatgen
data_Hf11Th8Si16Pd
_symmetry_space_group_name_H-M   'P 1'
_cell_length_a   7.40634506
_cell_length_b   7.40634460
_cell_length_c   13.48817428
_cell_angle_alpha   89.56892428
_cell_angle_beta   90.43107453
_cell_angle_gamma   89.75998371
_symmetry_Int_Tables_number   1
_chemical_formula_structural   Hf11Th8Si16Pd
_chemical_formula_sum   'Hf11 Th8 Si16 Pd1'
_cell_volume   739.83100442
_cell_formula_units_Z   1
loop_
 _symmetry_equiv_pos_site_id
 _symmetry_equiv_pos_as_xyz
  1  'x, y, z'
loop_
 _atom_site_type_symbol
 _atom_site_label
 _atom_site_symmetry_multiplicity
 _atom_site_fract_x
 _atom_site_fract_y
 _atom_site_fract_z
 _atom_site_occupancy
  Hf  Hf0  1  0.825987  0.825987  0.500000  1
  Hf  Hf1  1  0.323123  0.676264  0.248960  1
  Hf  Hf2  1  0.676264  0.323123  0.751040  1
  Hf  Hf3  1  0.150916  0.998480  0.374091  1
  Hf  Hf4  1  0.853507  0.000404  0.879378  1
  Hf  Hf5  1  0.503237  0.652233  0.626913  1
  Hf  Hf6  1  0.350462  0.488687  0.879147  1
  Hf  Hf7  1  0.488687  0.350462  0.120853  1
  Hf  Hf8  1  0.652233  0.503237  0.373087  1
  Hf  Hf9  1  0.998480  0.150916  0.625909  1
  Hf  Hf10  1  0.000404  0.853507  0.120622  1
  Th  Th11  1  0.998234  0.344388  0.212882  1
  Th  Th12  1  0.005800  0.655971  0.717183  1
  Th  Th13  1  0.155398  0.496569  0.466176  1
  Th  Th14  1  0.497070  0.848854  0.033195  1
  Th  Th15  1  0.848854  0.497070  0.966805  1
  Th  Th16  1  0.496569  0.155398  0.533824  1
  Th  Th17  1  0.344388  0.998234  0.787118  1
  Th  Th18  1  0.655971  0.005800  0.282817  1
  Si  Si19  1  0.365510  0.298965  0.315219  1
  Si  Si20  1  0.634107  0.701274  0.818073  1
  Si  Si21  1  0.203926  0.865849  0.567071  1
  Si  Si22  1  0.132449  0.781458  0.930523  1
  Si  Si23  1  0.781458  0.132449  0.069477  1
  Si  Si24  1  0.865849  0.203926  0.432929  1
  Si  Si25  1  0.298965  0.365510  0.684781  1
  Si  Si26  1  0.701274  0.634107  0.181927  1
  Si  Si27  1  0.287973  0.050270  0.185456  1
  Si  Si28  1  0.710471  0.952702  0.686900  1
  Si  Si29  1  0.453096  0.790047  0.434664  1
  Si  Si30  1  0.210944  0.562486  0.064772  1
  Si  Si31  1  0.562486  0.210944  0.935228  1
  Si  Si32  1  0.790047  0.453096  0.565336  1
  Si  Si33  1  0.050270  0.287973  0.814544  1
  Si  Si34  1  0.952702  0.710471  0.313100  1
  Pd  Pd35  1  0.172889  0.172889  0.000000  1
