# generated using pymatgen
data_YbDy3Lu4(FeB6)4
_symmetry_space_group_name_H-M   'P 1'
_cell_length_a   3.49864200
_cell_length_b   9.02106167
_cell_length_c   11.40314311
_cell_angle_alpha   90.06972183
_cell_angle_beta   90.00000000
_cell_angle_gamma   90.00000000
_symmetry_Int_Tables_number   1
_chemical_formula_structural   YbDy3Lu4(FeB6)4
_chemical_formula_sum   'Yb1 Dy3 Lu4 Fe4 B24'
_cell_volume   359.89963848
_cell_formula_units_Z   1
loop_
 _symmetry_equiv_pos_site_id
 _symmetry_equiv_pos_as_xyz
  1  'x, y, z'
loop_
 _atom_site_type_symbol
 _atom_site_label
 _atom_site_symmetry_multiplicity
 _atom_site_fract_x
 _atom_site_fract_y
 _atom_site_fract_z
 _atom_site_occupancy
  Yb  Yb0  1  0.000000  0.824625  0.085855  1
  Dy  Dy1  1  0.000000  0.174758  0.915299  1
  Dy  Dy2  1  0.000000  0.324171  0.413970  1
  Dy  Dy3  1  0.000000  0.676337  0.585285  1
  Lu  Lu4  1  0.000000  0.443444  0.130672  1
  Lu  Lu5  1  0.000000  0.558297  0.870019  1
  Lu  Lu6  1  0.000000  0.942569  0.368555  1
  Lu  Lu7  1  0.000000  0.056609  0.630112  1
  Fe  Fe8  1  0.000000  0.140594  0.180842  1
  Fe  Fe9  1  0.000000  0.860349  0.818309  1
  Fe  Fe10  1  0.000000  0.638551  0.320353  1
  Fe  Fe11  1  0.000000  0.360632  0.680562  1
  B  B12  1  0.500000  0.054754  0.068902  1
  B  B13  1  0.500000  0.944370  0.931573  1
  B  B14  1  0.500000  0.554736  0.431595  1
  B  B15  1  0.500000  0.444887  0.568796  1
  B  B16  1  0.500000  0.247558  0.082745  1
  B  B17  1  0.500000  0.752833  0.917464  1
  B  B18  1  0.500000  0.747596  0.417212  1
  B  B19  1  0.500000  0.252002  0.582437  1
  B  B20  1  0.500000  0.290650  0.233999  1
  B  B21  1  0.500000  0.710114  0.766043  1
  B  B22  1  0.500000  0.789712  0.265780  1
  B  B23  1  0.500000  0.209717  0.734067  1
  B  B24  1  0.500000  0.131497  0.313865  1
  B  B25  1  0.500000  0.868700  0.685418  1
  B  B26  1  0.500000  0.631533  0.186100  1
  B  B27  1  0.500000  0.368717  0.814476  1
  B  B28  1  0.500000  0.485843  0.288008  1
  B  B29  1  0.500000  0.514388  0.712447  1
  B  B30  1  0.500000  0.985902  0.211861  1
  B  B31  1  0.500000  0.013897  0.787974  1
  B  B32  1  0.500000  0.103686  0.471445  1
  B  B33  1  0.500000  0.896328  0.528019  1
  B  B34  1  0.500000  0.602173  0.028028  1
  B  B35  1  0.500000  0.397472  0.971912  1
