# generated using pymatgen
data_Tm3Lu5(InNi)2
_symmetry_space_group_name_H-M   'P 1'
_cell_length_a   9.40023721
_cell_length_b   9.40023757
_cell_length_c   9.40023800
_cell_angle_alpha   59.99999848
_cell_angle_beta   59.99999723
_cell_angle_gamma   60.00000347
_symmetry_Int_Tables_number   1
_chemical_formula_structural   Tm3Lu5(InNi)2
_chemical_formula_sum   'Tm6 Lu10 In4 Ni4'
_cell_volume   587.35611063
_cell_formula_units_Z   2
loop_
 _symmetry_equiv_pos_site_id
 _symmetry_equiv_pos_as_xyz
  1  'x, y, z'
loop_
 _atom_site_type_symbol
 _atom_site_label
 _atom_site_symmetry_multiplicity
 _atom_site_fract_x
 _atom_site_fract_y
 _atom_site_fract_z
 _atom_site_occupancy
  Tm  Tm0  1  0.937894  0.562106  0.562106  1
  Tm  Tm1  1  0.562106  0.937894  0.937894  1
  Tm  Tm2  1  0.562106  0.937894  0.562106  1
  Tm  Tm3  1  0.937894  0.562106  0.937894  1
  Tm  Tm4  1  0.562106  0.562106  0.937894  1
  Tm  Tm5  1  0.937894  0.937894  0.562106  1
  Lu  Lu6  1  0.347490  0.347490  0.347490  1
  Lu  Lu7  1  0.347490  0.347490  0.957528  1
  Lu  Lu8  1  0.347490  0.957528  0.347490  1
  Lu  Lu9  1  0.957528  0.347490  0.347490  1
  Lu  Lu10  1  0.812710  0.187290  0.187290  1
  Lu  Lu11  1  0.187290  0.812710  0.812710  1
  Lu  Lu12  1  0.187290  0.812710  0.187290  1
  Lu  Lu13  1  0.812710  0.187290  0.812710  1
  Lu  Lu14  1  0.187290  0.187290  0.812710  1
  Lu  Lu15  1  0.812710  0.812710  0.187290  1
  In  In16  1  0.582971  0.582971  0.582971  1
  In  In17  1  0.582971  0.582971  0.251087  1
  In  In18  1  0.582971  0.251087  0.582971  1
  In  In19  1  0.251087  0.582971  0.582971  1
  Ni  Ni20  1  0.142342  0.142342  0.142342  1
  Ni  Ni21  1  0.142342  0.142342  0.572975  1
  Ni  Ni22  1  0.142342  0.572975  0.142342  1
  Ni  Ni23  1  0.572975  0.142342  0.142342  1
