# generated using pymatgen
data_Lu2Sc2Ti2Pb5
_symmetry_space_group_name_H-M   'P 1'
_cell_length_a   6.04597362
_cell_length_b   9.10742950
_cell_length_c   11.07142214
_cell_angle_alpha   114.28675242
_cell_angle_beta   105.84550162
_cell_angle_gamma   90.00000005
_symmetry_Int_Tables_number   1
_chemical_formula_structural   Lu2Sc2Ti2Pb5
_chemical_formula_sum   'Lu4 Sc4 Ti4 Pb10'
_cell_volume   530.15843459
_cell_formula_units_Z   2
loop_
 _symmetry_equiv_pos_site_id
 _symmetry_equiv_pos_as_xyz
  1  'x, y, z'
loop_
 _atom_site_type_symbol
 _atom_site_label
 _atom_site_symmetry_multiplicity
 _atom_site_fract_x
 _atom_site_fract_y
 _atom_site_fract_z
 _atom_site_occupancy
  Lu  Lu0  1  0.145350  0.256509  0.290699  1
  Lu  Lu1  1  0.854650  0.743491  0.709301  1
  Lu  Lu2  1  0.645350  0.034190  0.290699  1
  Lu  Lu3  1  0.354650  0.965810  0.709301  1
  Sc  Sc4  1  0.437479  0.673579  0.874958  1
  Sc  Sc5  1  0.562521  0.326421  0.125042  1
  Sc  Sc6  1  0.937479  0.201380  0.874958  1
  Sc  Sc7  1  0.062521  0.798620  0.125042  1
  Ti  Ti8  1  0.557595  0.307595  0.615188  1
  Ti  Ti9  1  0.442405  0.692405  0.384812  1
  Ti  Ti10  1  0.942405  0.692405  0.384812  1
  Ti  Ti11  1  0.057595  0.307595  0.615188  1
  Pb  Pb12  1  0.288908  0.589244  0.577817  1
  Pb  Pb13  1  0.711092  0.410756  0.422183  1
  Pb  Pb14  1  0.788908  0.988573  0.577817  1
  Pb  Pb15  1  0.211092  0.011427  0.422183  1
  Pb  Pb16  1  0.250000  0.000000  0.000000  1
  Pb  Pb17  1  0.750000  0.000000  0.000000  1
  Pb  Pb18  1  0.073949  0.476105  0.147898  1
  Pb  Pb19  1  0.926051  0.523895  0.852102  1
  Pb  Pb20  1  0.573949  0.671793  0.147898  1
  Pb  Pb21  1  0.426051  0.328207  0.852102  1
