# generated using pymatgen
data_LaZnPIr3
_symmetry_space_group_name_H-M   'P 1'
_cell_length_a   6.79113735
_cell_length_b   6.77523620
_cell_length_c   6.79113764
_cell_angle_alpha   130.68270859
_cell_angle_beta   113.35754803
_cell_angle_gamma   87.31064162
_symmetry_Int_Tables_number   1
_chemical_formula_structural   LaZnPIr3
_chemical_formula_sum   'La2 Zn2 P2 Ir6'
_cell_volume   207.25339339
_cell_formula_units_Z   2
loop_
 _symmetry_equiv_pos_site_id
 _symmetry_equiv_pos_as_xyz
  1  'x, y, z'
loop_
 _atom_site_type_symbol
 _atom_site_label
 _atom_site_symmetry_multiplicity
 _atom_site_fract_x
 _atom_site_fract_y
 _atom_site_fract_z
 _atom_site_occupancy
  La  La0  1  0.243551  0.981408  0.737857  1
  La  La1  1  0.756449  0.018592  0.262143  1
  Zn  Zn2  1  0.065492  0.297800  0.232307  1
  Zn  Zn3  1  0.934508  0.702200  0.767693  1
  P  P4  1  0.396863  0.638305  0.241441  1
  P  P5  1  0.603137  0.361695  0.758559  1
  Ir  Ir6  1  0.500000  0.500000  0.500000  1
  Ir  Ir7  1  0.000000  0.500000  0.000000  1
  Ir  Ir8  1  0.293373  0.000000  0.293373  1
  Ir  Ir9  1  0.706627  0.000000  0.706627  1
  Ir  Ir10  1  0.282081  0.500000  0.782081  1
  Ir  Ir11  1  0.717919  0.500000  0.217919  1
