# generated using pymatgen
data_BaHgF5
_symmetry_space_group_name_H-M   'P 1'
_cell_length_a   8.02026400
_cell_length_b   8.01327149
_cell_length_c   7.84712500
_cell_angle_alpha   91.81609042
_cell_angle_beta   89.99998556
_cell_angle_gamma   90.00000004
_symmetry_Int_Tables_number   1
_chemical_formula_structural   BaHgF5
_chemical_formula_sum   'Ba4 Hg4 F20'
_cell_volume   504.07004635
_cell_formula_units_Z   4
loop_
 _symmetry_equiv_pos_site_id
 _symmetry_equiv_pos_as_xyz
  1  'x, y, z'
loop_
 _atom_site_type_symbol
 _atom_site_label
 _atom_site_symmetry_multiplicity
 _atom_site_fract_x
 _atom_site_fract_y
 _atom_site_fract_z
 _atom_site_occupancy
  Ba  Ba0  1  0.750461  0.850676  0.020375  1
  Ba  Ba1  1  0.749683  0.296299  0.724140  1
  Ba  Ba2  1  0.250462  0.149324  0.979625  1
  Ba  Ba3  1  0.249683  0.703701  0.275860  1
  Hg  Hg4  1  0.250497  0.695159  0.798739  1
  Hg  Hg5  1  0.248481  0.256114  0.469460  1
  Hg  Hg6  1  0.748481  0.743886  0.530540  1
  Hg  Hg7  1  0.750497  0.304841  0.201261  1
  F  F8  1  0.250842  0.893321  0.636143  1
  F  F9  1  0.749961  0.501792  0.028907  1
  F  F10  1  0.749787  0.973570  0.711537  1
  F  F11  1  0.416133  0.834717  0.997548  1
  F  F12  1  0.416454  0.351885  0.280177  1
  F  F13  1  0.077378  0.351145  0.282658  1
  F  F14  1  0.084170  0.834984  0.997958  1
  F  F15  1  0.425775  0.225211  0.670676  1
  F  F16  1  0.073394  0.223577  0.672324  1
  F  F17  1  0.745249  0.458107  0.430992  1
  F  F18  1  0.584170  0.165016  0.002042  1
  F  F19  1  0.245249  0.541893  0.569008  1
  F  F20  1  0.573394  0.776423  0.327676  1
  F  F21  1  0.925775  0.774789  0.329324  1
  F  F22  1  0.916133  0.165283  0.002452  1
  F  F23  1  0.249787  0.026430  0.288463  1
  F  F24  1  0.577378  0.648855  0.717342  1
  F  F25  1  0.916454  0.648115  0.719823  1
  F  F26  1  0.750842  0.106679  0.363857  1
  F  F27  1  0.249961  0.498208  0.971093  1
