# generated using pymatgen
data_Dy5Ti3(ReB6)4
_symmetry_space_group_name_H-M   'P 1'
_cell_length_a   3.57600600
_cell_length_b   8.95462802
_cell_length_c   11.35084607
_cell_angle_alpha   89.98968962
_cell_angle_beta   90.00000000
_cell_angle_gamma   90.00000000
_symmetry_Int_Tables_number   1
_chemical_formula_structural   Dy5Ti3(ReB6)4
_chemical_formula_sum   'Dy5 Ti3 Re4 B24'
_cell_volume   363.47455687
_cell_formula_units_Z   1
loop_
 _symmetry_equiv_pos_site_id
 _symmetry_equiv_pos_as_xyz
  1  'x, y, z'
loop_
 _atom_site_type_symbol
 _atom_site_label
 _atom_site_symmetry_multiplicity
 _atom_site_fract_x
 _atom_site_fract_y
 _atom_site_fract_z
 _atom_site_occupancy
  Dy  Dy0  1  0.000000  0.321189  0.413969  1
  Dy  Dy1  1  0.000000  0.678263  0.587606  1
  Dy  Dy2  1  0.000000  0.818811  0.084694  1
  Dy  Dy3  1  0.000000  0.181091  0.913574  1
  Dy  Dy4  1  0.000000  0.945284  0.374154  1
  Ti  Ti5  1  0.000000  0.057100  0.632614  1
  Ti  Ti6  1  0.000000  0.445115  0.125236  1
  Ti  Ti7  1  0.000000  0.554987  0.873404  1
  Re  Re8  1  0.000000  0.633480  0.313932  1
  Re  Re9  1  0.000000  0.358972  0.685881  1
  Re  Re10  1  0.000000  0.147960  0.177922  1
  Re  Re11  1  0.000000  0.857506  0.817786  1
  B  B12  1  0.500000  0.550444  0.432497  1
  B  B13  1  0.500000  0.444763  0.568217  1
  B  B14  1  0.500000  0.055835  0.065255  1
  B  B15  1  0.500000  0.945702  0.932716  1
  B  B16  1  0.500000  0.747272  0.417452  1
  B  B17  1  0.500000  0.245663  0.584202  1
  B  B18  1  0.500000  0.258012  0.080017  1
  B  B19  1  0.500000  0.743721  0.918059  1
  B  B20  1  0.500000  0.791052  0.262615  1
  B  B21  1  0.500000  0.204520  0.736406  1
  B  B22  1  0.500000  0.297808  0.232709  1
  B  B23  1  0.500000  0.703819  0.765252  1
  B  B24  1  0.500000  0.625126  0.180163  1
  B  B25  1  0.500000  0.373454  0.819149  1
  B  B26  1  0.500000  0.133686  0.314403  1
  B  B27  1  0.500000  0.871904  0.683409  1
  B  B28  1  0.500000  0.983520  0.211050  1
  B  B29  1  0.500000  0.019232  0.786045  1
  B  B30  1  0.500000  0.478762  0.284138  1
  B  B31  1  0.500000  0.519825  0.715124  1
  B  B32  1  0.500000  0.595801  0.024794  1
  B  B33  1  0.500000  0.404859  0.973214  1
  B  B34  1  0.500000  0.101445  0.479871  1
  B  B35  1  0.500000  0.904015  0.532469  1
