# generated using pymatgen
data_Nb3Ge2RuC
_symmetry_space_group_name_H-M   'P 1'
_cell_length_a   8.32662717
_cell_length_b   8.32662742
_cell_length_c   8.32662600
_cell_angle_alpha   60.00000563
_cell_angle_beta   60.00000467
_cell_angle_gamma   59.99999949
_symmetry_Int_Tables_number   1
_chemical_formula_structural   Nb3Ge2RuC
_chemical_formula_sum   'Nb12 Ge8 Ru4 C4'
_cell_volume   408.21818200
_cell_formula_units_Z   4
loop_
 _symmetry_equiv_pos_site_id
 _symmetry_equiv_pos_as_xyz
  1  'x, y, z'
loop_
 _atom_site_type_symbol
 _atom_site_label
 _atom_site_symmetry_multiplicity
 _atom_site_fract_x
 _atom_site_fract_y
 _atom_site_fract_z
 _atom_site_occupancy
  Nb  Nb0  1  0.686458  0.313542  0.686458  1
  Nb  Nb1  1  0.936458  0.563542  0.563542  1
  Nb  Nb2  1  0.563542  0.936458  0.936458  1
  Nb  Nb3  1  0.936458  0.563542  0.936458  1
  Nb  Nb4  1  0.563542  0.563542  0.936458  1
  Nb  Nb5  1  0.936458  0.936458  0.563542  1
  Nb  Nb6  1  0.686458  0.686458  0.313542  1
  Nb  Nb7  1  0.313542  0.686458  0.686458  1
  Nb  Nb8  1  0.686458  0.313542  0.313542  1
  Nb  Nb9  1  0.313542  0.313542  0.686458  1
  Nb  Nb10  1  0.563542  0.936458  0.563542  1
  Nb  Nb11  1  0.313542  0.686458  0.313542  1
  Ge  Ge12  1  0.338069  0.338069  0.338069  1
  Ge  Ge13  1  0.264206  0.911931  0.911931  1
  Ge  Ge14  1  0.911931  0.264206  0.911931  1
  Ge  Ge15  1  0.911931  0.911931  0.264206  1
  Ge  Ge16  1  0.338069  0.985794  0.338069  1
  Ge  Ge17  1  0.338069  0.338069  0.985794  1
  Ge  Ge18  1  0.985794  0.338069  0.338069  1
  Ge  Ge19  1  0.911931  0.911931  0.911931  1
  Ru  Ru20  1  0.125000  0.125000  0.125000  1
  Ru  Ru21  1  0.625000  0.125000  0.125000  1
  Ru  Ru22  1  0.125000  0.625000  0.125000  1
  Ru  Ru23  1  0.125000  0.125000  0.625000  1
  C  C24  1  0.625000  0.625000  0.625000  1
  C  C25  1  0.125000  0.625000  0.625000  1
  C  C26  1  0.625000  0.125000  0.625000  1
  C  C27  1  0.625000  0.625000  0.125000  1
