# generated using pymatgen
data_Cs6Rb3GaSb4
_symmetry_space_group_name_H-M   'P 1'
_cell_length_a   11.30067100
_cell_length_b   11.30067707
_cell_length_c   11.90638500
_cell_angle_alpha   90.00000000
_cell_angle_beta   90.00000000
_cell_angle_gamma   120.00004992
_symmetry_Int_Tables_number   1
_chemical_formula_structural   Cs6Rb3GaSb4
_chemical_formula_sum   'Cs12 Rb6 Ga2 Sb8'
_cell_volume   1316.79761372
_cell_formula_units_Z   2
loop_
 _symmetry_equiv_pos_site_id
 _symmetry_equiv_pos_as_xyz
  1  'x, y, z'
loop_
 _atom_site_type_symbol
 _atom_site_label
 _atom_site_symmetry_multiplicity
 _atom_site_fract_x
 _atom_site_fract_y
 _atom_site_fract_z
 _atom_site_occupancy
  Cs  Cs0  1  0.209184  0.418368  0.541591  1
  Cs  Cs1  1  0.790816  0.209184  0.041592  1
  Cs  Cs2  1  0.418368  0.209184  0.041592  1
  Cs  Cs3  1  0.581632  0.790816  0.541592  1
  Cs  Cs4  1  0.209184  0.790816  0.541592  1
  Cs  Cs5  1  0.790816  0.581632  0.458409  1
  Cs  Cs6  1  0.790816  0.209184  0.458408  1
  Cs  Cs7  1  0.790816  0.581632  0.041591  1
  Cs  Cs8  1  0.418368  0.209184  0.458408  1
  Cs  Cs9  1  0.581632  0.790816  0.958408  1
  Cs  Cs10  1  0.209184  0.418368  0.958409  1
  Cs  Cs11  1  0.209184  0.790816  0.958408  1
  Rb  Rb12  1  0.118952  0.237901  0.250000  1
  Rb  Rb13  1  0.881049  0.118950  0.750000  1
  Rb  Rb14  1  0.237901  0.118951  0.750000  1
  Rb  Rb15  1  0.762099  0.881049  0.250000  1
  Rb  Rb16  1  0.118951  0.881050  0.250000  1
  Rb  Rb17  1  0.881048  0.762099  0.750000  1
  Ga  Ga18  1  0.333333  0.666667  0.250000  1
  Ga  Ga19  1  0.666667  0.333333  0.750000  1
  Sb  Sb20  1  0.472179  0.527821  0.250000  1
  Sb  Sb21  1  0.944358  0.472180  0.750000  1
  Sb  Sb22  1  0.527821  0.055642  0.750000  1
  Sb  Sb23  1  0.472179  0.944358  0.250000  1
  Sb  Sb24  1  0.055642  0.527820  0.250000  1
  Sb  Sb25  1  0.527821  0.472179  0.750000  1
  Sb  Sb26  1  0.000000  0.000000  0.000000  1
  Sb  Sb27  1  0.000000  0.000000  0.500000  1
