# generated using pymatgen
data_Nd12Rh3AuI12
_symmetry_space_group_name_H-M   'P 1'
_cell_length_a   10.93157520
_cell_length_b   10.93157689
_cell_length_c   10.93157700
_cell_angle_alpha   109.83961432
_cell_angle_beta   109.83961751
_cell_angle_gamma   109.83962190
_symmetry_Int_Tables_number   1
_chemical_formula_structural   Nd12Rh3AuI12
_chemical_formula_sum   'Nd12 Rh3 Au1 I12'
_cell_volume   991.64982567
_cell_formula_units_Z   1
loop_
 _symmetry_equiv_pos_site_id
 _symmetry_equiv_pos_as_xyz
  1  'x, y, z'
loop_
 _atom_site_type_symbol
 _atom_site_label
 _atom_site_symmetry_multiplicity
 _atom_site_fract_x
 _atom_site_fract_y
 _atom_site_fract_z
 _atom_site_occupancy
  Nd  Nd0  1  0.459768  0.487435  0.223805  1
  Nd  Nd1  1  0.750000  0.228207  0.271793  1
  Nd  Nd2  1  0.750000  0.020292  0.479708  1
  Nd  Nd3  1  0.223805  0.459768  0.487435  1
  Nd  Nd4  1  0.271793  0.750000  0.228207  1
  Nd  Nd5  1  0.040232  0.276195  0.012565  1
  Nd  Nd6  1  0.012565  0.040232  0.276195  1
  Nd  Nd7  1  0.479708  0.750000  0.020292  1
  Nd  Nd8  1  0.487435  0.223805  0.459768  1
  Nd  Nd9  1  0.020292  0.479708  0.750000  1
  Nd  Nd10  1  0.276195  0.012565  0.040232  1
  Nd  Nd11  1  0.228207  0.271793  0.750000  1
  Rh  Rh12  1  0.501946  0.998054  0.250000  1
  Rh  Rh13  1  0.998054  0.250000  0.501946  1
  Rh  Rh14  1  0.250000  0.501946  0.998054  1
  Au  Au15  1  0.250000  0.250000  0.250000  1
  I  I16  1  0.250000  0.760337  0.739663  1
  I  I17  1  0.515959  0.506753  0.756815  1
  I  I18  1  0.984041  0.743185  0.993247  1
  I  I19  1  0.739663  0.250000  0.760337  1
  I  I20  1  0.993247  0.984041  0.743185  1
  I  I21  1  0.250000  0.993021  0.506979  1
  I  I22  1  0.756815  0.515959  0.506753  1
  I  I23  1  0.506979  0.250000  0.993021  1
  I  I24  1  0.760337  0.739663  0.250000  1
  I  I25  1  0.743185  0.993247  0.984041  1
  I  I26  1  0.993021  0.506979  0.250000  1
  I  I27  1  0.506753  0.756815  0.515959  1
