# generated using pymatgen
data_Lu2CoSb2Au
_symmetry_space_group_name_H-M   'P 1'
_cell_length_a   7.89519779
_cell_length_b   7.89519882
_cell_length_c   7.89519800
_cell_angle_alpha   33.62841730
_cell_angle_beta   33.62841926
_cell_angle_gamma   33.62841628
_symmetry_Int_Tables_number   1
_chemical_formula_structural   Lu2CoSb2Au
_chemical_formula_sum   'Lu2 Co1 Sb2 Au1'
_cell_volume   134.46089110
_cell_formula_units_Z   1
loop_
 _symmetry_equiv_pos_site_id
 _symmetry_equiv_pos_as_xyz
  1  'x, y, z'
loop_
 _atom_site_type_symbol
 _atom_site_label
 _atom_site_symmetry_multiplicity
 _atom_site_fract_x
 _atom_site_fract_y
 _atom_site_fract_z
 _atom_site_occupancy
  Lu  Lu0  1  0.256963  0.256963  0.256963  1
  Lu  Lu1  1  0.744486  0.744486  0.744486  1
  Co  Co2  1  0.373702  0.373702  0.373702  1
  Sb  Sb3  1  0.007101  0.007101  0.007101  1
  Sb  Sb4  1  0.491747  0.491747  0.491747  1
  Au  Au5  1  0.876003  0.876003  0.876003  1
