# generated using pymatgen
data_CeDy(Ni4B)2
_symmetry_space_group_name_H-M   'P 1'
_cell_length_a   4.96947300
_cell_length_b   4.96991022
_cell_length_c   7.00191200
_cell_angle_alpha   90.00000000
_cell_angle_beta   90.00000000
_cell_angle_gamma   119.99708325
_symmetry_Int_Tables_number   1
_chemical_formula_structural   CeDy(Ni4B)2
_chemical_formula_sum   'Ce1 Dy1 Ni8 B2'
_cell_volume   149.76796275
_cell_formula_units_Z   1
loop_
 _symmetry_equiv_pos_site_id
 _symmetry_equiv_pos_as_xyz
  1  'x, y, z'
loop_
 _atom_site_type_symbol
 _atom_site_label
 _atom_site_symmetry_multiplicity
 _atom_site_fract_x
 _atom_site_fract_y
 _atom_site_fract_z
 _atom_site_occupancy
  Ce  Ce0  1  0.500000  0.000000  0.000000  1
  Dy  Dy1  1  0.500000  0.000000  0.500000  1
  Ni  Ni2  1  0.833219  0.666437  0.000000  1
  Ni  Ni3  1  0.166781  0.333563  0.000000  1
  Ni  Ni4  1  0.000000  0.000000  0.706955  1
  Ni  Ni5  1  0.500000  0.500000  0.706695  1
  Ni  Ni6  1  0.000000  0.500000  0.706695  1
  Ni  Ni7  1  0.000000  0.000000  0.293045  1
  Ni  Ni8  1  0.500000  0.500000  0.293305  1
  Ni  Ni9  1  0.000000  0.500000  0.293305  1
  B  B10  1  0.833464  0.666926  0.500000  1
  B  B11  1  0.166536  0.333074  0.500000  1
