# generated using pymatgen
data_PrLu(Si7Ir3)2
_symmetry_space_group_name_H-M   'P 1'
_cell_length_a   8.08004521
_cell_length_b   8.08004542
_cell_length_c   8.08004487
_cell_angle_alpha   56.47826484
_cell_angle_beta   56.47826312
_cell_angle_gamma   56.47825562
_symmetry_Int_Tables_number   1
_chemical_formula_structural   PrLu(Si7Ir3)2
_chemical_formula_sum   'Pr1 Lu1 Si14 Ir6'
_cell_volume   342.64853515
_cell_formula_units_Z   1
loop_
 _symmetry_equiv_pos_site_id
 _symmetry_equiv_pos_as_xyz
  1  'x, y, z'
loop_
 _atom_site_type_symbol
 _atom_site_label
 _atom_site_symmetry_multiplicity
 _atom_site_fract_x
 _atom_site_fract_y
 _atom_site_fract_z
 _atom_site_occupancy
  Pr  Pr0  1  0.000000  0.000000  0.000000  1
  Lu  Lu1  1  0.500000  0.500000  0.500000  1
  Si  Si2  1  0.065390  0.848926  0.671726  1
  Si  Si3  1  0.671726  0.065390  0.848926  1
  Si  Si4  1  0.848926  0.671726  0.065390  1
  Si  Si5  1  0.174113  0.351931  0.561922  1
  Si  Si6  1  0.561922  0.174113  0.351931  1
  Si  Si7  1  0.351931  0.561922  0.174113  1
  Si  Si8  1  0.934610  0.151074  0.328274  1
  Si  Si9  1  0.328274  0.934610  0.151074  1
  Si  Si10  1  0.151074  0.328274  0.934610  1
  Si  Si11  1  0.825887  0.648069  0.438078  1
  Si  Si12  1  0.438078  0.825887  0.648069  1
  Si  Si13  1  0.648069  0.438078  0.825887  1
  Si  Si14  1  0.750351  0.750351  0.750351  1
  Si  Si15  1  0.249649  0.249649  0.249649  1
  Ir  Ir16  1  0.072381  0.746920  0.432555  1
  Ir  Ir17  1  0.432555  0.072381  0.746920  1
  Ir  Ir18  1  0.746920  0.432555  0.072381  1
  Ir  Ir19  1  0.927619  0.253080  0.567445  1
  Ir  Ir20  1  0.567445  0.927619  0.253080  1
  Ir  Ir21  1  0.253080  0.567445  0.927619  1
