# generated using pymatgen
data_IrSF
_symmetry_space_group_name_H-M   'P 1'
_cell_length_a   3.36596500
_cell_length_b   3.36596458
_cell_length_c   5.27984800
_cell_angle_alpha   90.00000000
_cell_angle_beta   90.00000000
_cell_angle_gamma   119.99999432
_symmetry_Int_Tables_number   1
_chemical_formula_structural   IrSF
_chemical_formula_sum   'Ir1 S1 F1'
_cell_volume   51.80494461
_cell_formula_units_Z   1
loop_
 _symmetry_equiv_pos_site_id
 _symmetry_equiv_pos_as_xyz
  1  'x, y, z'
loop_
 _atom_site_type_symbol
 _atom_site_label
 _atom_site_symmetry_multiplicity
 _atom_site_fract_x
 _atom_site_fract_y
 _atom_site_fract_z
 _atom_site_occupancy
  Ir  Ir0  1  0.000000  0.000000  0.993696  1
  S  S1  1  0.666668  0.333333  0.776807  1
  F  F2  1  0.333333  0.666667  0.229496  1
