# generated using pymatgen
data_Yb14(SnAs4)3
_symmetry_space_group_name_H-M   'P 1'
_cell_length_a   9.05410466
_cell_length_b   9.05410361
_cell_length_c   9.05410425
_cell_angle_alpha   87.21633929
_cell_angle_beta   87.21633730
_cell_angle_gamma   87.21632934
_symmetry_Int_Tables_number   1
_chemical_formula_structural   Yb14(SnAs4)3
_chemical_formula_sum   'Yb14 Sn3 As12'
_cell_volume   739.68128381
_cell_formula_units_Z   1
loop_
 _symmetry_equiv_pos_site_id
 _symmetry_equiv_pos_as_xyz
  1  'x, y, z'
loop_
 _atom_site_type_symbol
 _atom_site_label
 _atom_site_symmetry_multiplicity
 _atom_site_fract_x
 _atom_site_fract_y
 _atom_site_fract_z
 _atom_site_occupancy
  Yb  Yb0  1  0.415202  0.271879  0.772493  1
  Yb  Yb1  1  0.772493  0.415202  0.271879  1
  Yb  Yb2  1  0.271879  0.772493  0.415202  1
  Yb  Yb3  1  0.990457  0.534990  0.652943  1
  Yb  Yb4  1  0.652943  0.990457  0.534990  1
  Yb  Yb5  1  0.534990  0.652943  0.990457  1
  Yb  Yb6  1  0.177549  0.533207  0.022727  1
  Yb  Yb7  1  0.022727  0.177549  0.533207  1
  Yb  Yb8  1  0.533207  0.022727  0.177549  1
  Yb  Yb9  1  0.762542  0.265030  0.910858  1
  Yb  Yb10  1  0.910858  0.762542  0.265030  1
  Yb  Yb11  1  0.265030  0.910858  0.762542  1
  Yb  Yb12  1  0.189240  0.189240  0.189240  1
  Yb  Yb13  1  0.400976  0.400976  0.400976  1
  Sn  Sn14  1  0.000964  0.000964  0.000964  1
  Sn  Sn15  1  0.830529  0.830529  0.830529  1
  Sn  Sn16  1  0.614109  0.614109  0.614109  1
  As  As17  1  0.705906  0.321471  0.587224  1
  As  As18  1  0.587224  0.705906  0.321471  1
  As  As19  1  0.321471  0.587224  0.705906  1
  As  As20  1  0.573298  0.973592  0.860152  1
  As  As21  1  0.860152  0.573298  0.973592  1
  As  As22  1  0.973592  0.860152  0.573298  1
  As  As23  1  0.471700  0.343176  0.085319  1
  As  As24  1  0.085319  0.471700  0.343176  1
  As  As25  1  0.343176  0.085319  0.471700  1
  As  As26  1  0.100691  0.236592  0.849912  1
  As  As27  1  0.849912  0.100691  0.236592  1
  As  As28  1  0.236592  0.849912  0.100691  1
