# generated using pymatgen
data_Ho2Sn4Rh3
_symmetry_space_group_name_H-M   'P 1'
_cell_length_a   7.03708913
_cell_length_b   7.68071928
_cell_length_c   4.14512400
_cell_angle_alpha   90.00000000
_cell_angle_beta   90.00000000
_cell_angle_gamma   123.07465734
_symmetry_Int_Tables_number   1
_chemical_formula_structural   Ho2Sn4Rh3
_chemical_formula_sum   'Ho2 Sn4 Rh3'
_cell_volume   187.73958517
_cell_formula_units_Z   1
loop_
 _symmetry_equiv_pos_site_id
 _symmetry_equiv_pos_as_xyz
  1  'x, y, z'
loop_
 _atom_site_type_symbol
 _atom_site_label
 _atom_site_symmetry_multiplicity
 _atom_site_fract_x
 _atom_site_fract_y
 _atom_site_fract_z
 _atom_site_occupancy
  Ho  Ho0  1  0.583807  0.594577  0.000000  1
  Ho  Ho1  1  0.416193  0.010771  0.000000  1
  Sn  Sn2  1  0.000000  0.390300  0.000000  1
  Sn  Sn3  1  0.279811  0.260565  0.500000  1
  Sn  Sn4  1  0.000000  0.766958  0.500000  1
  Sn  Sn5  1  0.720189  0.980754  0.500000  1
  Rh  Rh6  1  0.718953  0.349273  0.500000  1
  Rh  Rh7  1  0.281047  0.630321  0.500000  1
  Rh  Rh8  1  0.000000  0.016481  0.000000  1
