# generated using pymatgen
data_Ti24Si5Se3
_symmetry_space_group_name_H-M   'P 1'
_cell_length_a   10.12260307
_cell_length_b   10.13734942
_cell_length_c   5.09297468
_cell_angle_alpha   89.92195881
_cell_angle_beta   90.08821418
_cell_angle_gamma   90.01256960
_symmetry_Int_Tables_number   1
_chemical_formula_structural   Ti24Si5Se3
_chemical_formula_sum   'Ti24 Si5 Se3'
_cell_volume   522.62142892
_cell_formula_units_Z   1
loop_
 _symmetry_equiv_pos_site_id
 _symmetry_equiv_pos_as_xyz
  1  'x, y, z'
loop_
 _atom_site_type_symbol
 _atom_site_label
 _atom_site_symmetry_multiplicity
 _atom_site_fract_x
 _atom_site_fract_y
 _atom_site_fract_z
 _atom_site_occupancy
  Ti  Ti0  1  0.217083  0.683743  0.995691  1
  Ti  Ti1  1  0.784855  0.316760  0.992223  1
  Ti  Ti2  1  0.183273  0.282030  0.500566  1
  Ti  Ti3  1  0.815507  0.717467  0.496325  1
  Ti  Ti4  1  0.286097  0.817934  0.502486  1
  Ti  Ti5  1  0.715707  0.181793  0.505348  1
  Ti  Ti6  1  0.317152  0.214145  0.001485  1
  Ti  Ti7  1  0.682100  0.786400  0.003772  1
  Ti  Ti8  1  0.639918  0.527610  0.715879  1
  Ti  Ti9  1  0.360405  0.473449  0.715915  1
  Ti  Ti10  1  0.027222  0.859679  0.215590  1
  Ti  Ti11  1  0.972072  0.142485  0.215852  1
  Ti  Ti12  1  0.855954  0.973371  0.785551  1
  Ti  Ti13  1  0.142899  0.028829  0.784168  1
  Ti  Ti14  1  0.472276  0.643442  0.284578  1
  Ti  Ti15  1  0.527873  0.356403  0.283858  1
  Ti  Ti16  1  0.104652  0.581100  0.467133  1
  Ti  Ti17  1  0.895815  0.416830  0.472970  1
  Ti  Ti18  1  0.079088  0.393657  0.959569  1
  Ti  Ti19  1  0.918753  0.605205  0.964754  1
  Ti  Ti20  1  0.393585  0.918253  0.034117  1
  Ti  Ti21  1  0.607293  0.082003  0.032692  1
  Ti  Ti22  1  0.418611  0.105722  0.535539  1
  Ti  Ti23  1  0.582132  0.893392  0.534081  1
  Si  Si24  1  0.958398  0.204153  0.710921  1
  Si  Si25  1  0.794414  0.958902  0.288736  1
  Si  Si26  1  0.205654  0.041925  0.288432  1
  Si  Si27  1  0.458786  0.706207  0.787856  1
  Si  Si28  1  0.541335  0.294152  0.787251  1
  Se  Se29  1  0.707291  0.541025  0.213081  1
  Se  Se30  1  0.292359  0.457803  0.211791  1
  Se  Se31  1  0.041444  0.794131  0.711792  1
