# generated using pymatgen
data_PrEr6Sn23Ir6
_symmetry_space_group_name_H-M   'P 1'
_cell_length_a   9.85941500
_cell_length_b   9.85941537
_cell_length_c   10.11891700
_cell_angle_alpha   90.00000000
_cell_angle_beta   90.00000000
_cell_angle_gamma   120.00000210
_symmetry_Int_Tables_number   1
_chemical_formula_structural   PrEr6Sn23Ir6
_chemical_formula_sum   'Pr1 Er6 Sn23 Ir6'
_cell_volume   851.85753070
_cell_formula_units_Z   1
loop_
 _symmetry_equiv_pos_site_id
 _symmetry_equiv_pos_as_xyz
  1  'x, y, z'
loop_
 _atom_site_type_symbol
 _atom_site_label
 _atom_site_symmetry_multiplicity
 _atom_site_fract_x
 _atom_site_fract_y
 _atom_site_fract_z
 _atom_site_occupancy
  Pr  Pr0  1  0.000000  0.000000  0.000000  1
  Er  Er1  1  0.480884  0.519116  0.306851  1
  Er  Er2  1  0.519116  0.480884  0.693149  1
  Er  Er3  1  0.480884  0.961769  0.306851  1
  Er  Er4  1  0.519116  0.038231  0.693149  1
  Er  Er5  1  0.038231  0.519116  0.306851  1
  Er  Er6  1  0.961769  0.480884  0.693149  1
  Sn  Sn7  1  0.119784  0.880216  0.284581  1
  Sn  Sn8  1  0.880216  0.119784  0.715419  1
  Sn  Sn9  1  0.119784  0.239568  0.284581  1
  Sn  Sn10  1  0.880216  0.760432  0.715419  1
  Sn  Sn11  1  0.760432  0.880216  0.284581  1
  Sn  Sn12  1  0.239568  0.119784  0.715419  1
  Sn  Sn13  1  0.777177  0.222823  0.456766  1
  Sn  Sn14  1  0.222823  0.777177  0.543234  1
  Sn  Sn15  1  0.777177  0.554354  0.456766  1
  Sn  Sn16  1  0.222823  0.445646  0.543234  1
  Sn  Sn17  1  0.445646  0.222823  0.456766  1
  Sn  Sn18  1  0.554354  0.777177  0.543234  1
  Sn  Sn19  1  0.353113  0.000000  0.000000  1
  Sn  Sn20  1  0.646887  0.000000  0.000000  1
  Sn  Sn21  1  0.000000  0.353113  0.000000  1
  Sn  Sn22  1  0.000000  0.646887  0.000000  1
  Sn  Sn23  1  0.646887  0.646887  0.000000  1
  Sn  Sn24  1  0.353113  0.353113  0.000000  1
  Sn  Sn25  1  0.333333  0.666667  0.124821  1
  Sn  Sn26  1  0.666667  0.333333  0.875179  1
  Sn  Sn27  1  0.333333  0.666667  0.826845  1
  Sn  Sn28  1  0.666667  0.333333  0.173155  1
  Sn  Sn29  1  0.000000  0.000000  0.500000  1
  Ir  Ir30  1  0.830478  0.169522  0.199265  1
  Ir  Ir31  1  0.169522  0.830478  0.800735  1
  Ir  Ir32  1  0.830478  0.660957  0.199265  1
  Ir  Ir33  1  0.169522  0.339043  0.800735  1
  Ir  Ir34  1  0.339043  0.169522  0.199265  1
  Ir  Ir35  1  0.660957  0.830478  0.800735  1
