# generated using pymatgen
data_Rb8Nb2SbRhBr24
_symmetry_space_group_name_H-M   'P 1'
_cell_length_a   13.40107069
_cell_length_b   13.40117897
_cell_length_c   13.40125654
_cell_angle_alpha   131.86210863
_cell_angle_beta   131.86145736
_cell_angle_gamma   70.44824833
_symmetry_Int_Tables_number   1
_chemical_formula_structural   Rb8Nb2SbRhBr24
_chemical_formula_sum   'Rb8 Nb2 Sb1 Rh1 Br24'
_cell_volume   1308.07885967
_cell_formula_units_Z   1
loop_
 _symmetry_equiv_pos_site_id
 _symmetry_equiv_pos_as_xyz
  1  'x, y, z'
loop_
 _atom_site_type_symbol
 _atom_site_label
 _atom_site_symmetry_multiplicity
 _atom_site_fract_x
 _atom_site_fract_y
 _atom_site_fract_z
 _atom_site_occupancy
  Rb  Rb0  1  0.379001  0.344836  0.469027  1
  Rb  Rb1  1  0.090028  0.621007  0.965833  1
  Rb  Rb2  1  0.875808  0.909966  0.530967  1
  Rb  Rb3  1  0.091889  0.128514  0.471017  1
  Rb  Rb4  1  0.379144  0.908119  0.036618  1
  Rb  Rb5  1  0.657476  0.620870  0.528966  1
  Rb  Rb6  1  0.655178  0.124197  0.034176  1
  Rb  Rb7  1  0.871502  0.342535  0.963390  1
  Nb  Nb8  1  0.249997  0.750008  0.499994  1
  Nb  Nb9  1  0.500009  0.500015  0.000000  1
  Sb  Sb10  1  0.000001  0.000007  0.999999  1
  Rh  Rh11  1  0.749986  0.249960  0.500012  1
  Br  Br12  1  0.014327  0.769846  0.289011  1
  Br  Br13  1  0.020669  0.261693  0.273981  1
  Br  Br14  1  0.274681  0.985690  0.755513  1
  Br  Br15  1  0.982655  0.239126  0.717335  1
  Br  Br16  1  0.133830  0.633834  0.499998  1
  Br  Br17  1  0.269207  0.524510  0.790048  1
  Br  Br18  1  0.480828  0.725327  0.710991  1
  Br  Br19  1  0.521816  0.265297  0.282680  1
  Br  Br20  1  0.475490  0.265558  0.744692  1
  Br  Br21  1  0.616784  0.616790  0.000002  1
  Br  Br22  1  0.520847  0.730807  0.255294  1
  Br  Br23  1  0.128973  0.128977  0.000004  1
  Br  Br24  1  0.871029  0.871035  0.999999  1
  Br  Br25  1  0.987708  0.746696  0.726020  1
  Br  Br26  1  0.738323  0.012306  0.758998  1
  Br  Br27  1  0.253301  0.979339  0.241008  1
  Br  Br28  1  0.734454  0.479164  0.209948  1
  Br  Br29  1  0.230172  0.519174  0.244485  1
  Br  Br30  1  0.366172  0.866179  0.500001  1
  Br  Br31  1  0.865162  0.365142  0.500042  1
  Br  Br32  1  0.383217  0.383227  0.999991  1
  Br  Br33  1  0.634815  0.134794  0.499994  1
  Br  Br34  1  0.760844  0.478139  0.743482  1
  Br  Br35  1  0.734674  0.017316  0.256484  1
