# generated using pymatgen
data_Tb7TmSc11Si16Os
_symmetry_space_group_name_H-M   'P 1'
_cell_length_a   7.01992537
_cell_length_b   7.35817239
_cell_length_c   13.88616331
_cell_angle_alpha   89.95089712
_cell_angle_beta   90.00805872
_cell_angle_gamma   90.10624155
_symmetry_Int_Tables_number   1
_chemical_formula_structural   Tb7TmSc11Si16Os
_chemical_formula_sum   'Tb7 Tm1 Sc11 Si16 Os1'
_cell_volume   717.27189017
_cell_formula_units_Z   1
loop_
 _symmetry_equiv_pos_site_id
 _symmetry_equiv_pos_as_xyz
  1  'x, y, z'
loop_
 _atom_site_type_symbol
 _atom_site_label
 _atom_site_symmetry_multiplicity
 _atom_site_fract_x
 _atom_site_fract_y
 _atom_site_fract_z
 _atom_site_occupancy
  Tb  Tb0  1  0.012181  0.177414  0.092734  1
  Tb  Tb1  1  0.993408  0.819936  0.899821  1
  Tb  Tb2  1  0.489719  0.672115  0.902515  1
  Tb  Tb3  1  0.993504  0.819797  0.599464  1
  Tb  Tb4  1  0.511916  0.324449  0.094652  1
  Tb  Tb5  1  0.012418  0.177296  0.407777  1
  Tb  Tb6  1  0.511755  0.324131  0.406122  1
  Tm  Tm7  1  0.489599  0.672772  0.598360  1
  Sc  Sc8  1  0.842943  0.497054  0.250160  1
  Sc  Sc9  1  0.342444  0.002922  0.250184  1
  Sc  Sc10  1  0.656638  0.995391  0.749657  1
  Sc  Sc11  1  0.325297  0.175643  0.627506  1
  Sc  Sc12  1  0.672636  0.824190  0.374635  1
  Sc  Sc13  1  0.172721  0.673292  0.377311  1
  Sc  Sc14  1  0.672584  0.824808  0.125765  1
  Sc  Sc15  1  0.823787  0.332967  0.628166  1
  Sc  Sc16  1  0.324855  0.175571  0.871917  1
  Sc  Sc17  1  0.824440  0.332549  0.870902  1
  Sc  Sc18  1  0.172865  0.673494  0.122937  1
  Si  Si19  1  0.027038  0.121693  0.749456  1
  Si  Si20  1  0.973314  0.884557  0.250141  1
  Si  Si21  1  0.469361  0.616537  0.250240  1
  Si  Si22  1  0.512354  0.395239  0.749327  1
  Si  Si23  1  0.287920  0.859576  0.749306  1
  Si  Si24  1  0.717016  0.128364  0.250211  1
  Si  Si25  1  0.215609  0.372114  0.250239  1
  Si  Si26  1  0.793746  0.630128  0.749279  1
  Si  Si27  1  0.157918  0.466590  0.550408  1
  Si  Si28  1  0.843605  0.536612  0.463908  1
  Si  Si29  1  0.346911  0.962484  0.463552  1
  Si  Si30  1  0.843907  0.536709  0.036185  1
  Si  Si31  1  0.657124  0.033017  0.540506  1
  Si  Si32  1  0.155263  0.465129  0.950134  1
  Si  Si33  1  0.657786  0.035143  0.959931  1
  Si  Si34  1  0.346776  0.964465  0.037104  1
  Os  Os35  1  0.148645  0.495856  0.749487  1
