# generated using pymatgen
data_La3Sn7Rh2
_symmetry_space_group_name_H-M   'P 1'
_cell_length_a   14.33279507
_cell_length_b   14.33279602
_cell_length_c   4.63219300
_cell_angle_alpha   90.00000000
_cell_angle_beta   90.00000000
_cell_angle_gamma   160.76451539
_symmetry_Int_Tables_number   1
_chemical_formula_structural   La3Sn7Rh2
_chemical_formula_sum   'La3 Sn7 Rh2'
_cell_volume   313.50169348
_cell_formula_units_Z   1
loop_
 _symmetry_equiv_pos_site_id
 _symmetry_equiv_pos_as_xyz
  1  'x, y, z'
loop_
 _atom_site_type_symbol
 _atom_site_label
 _atom_site_symmetry_multiplicity
 _atom_site_fract_x
 _atom_site_fract_y
 _atom_site_fract_z
 _atom_site_occupancy
  La  La0  1  0.184303  0.815697  0.000000  1
  La  La1  1  0.815697  0.184303  0.000000  1
  La  La2  1  0.500000  0.500000  0.500000  1
  Sn  Sn3  1  0.087068  0.912932  0.500000  1
  Sn  Sn4  1  0.912932  0.087068  0.500000  1
  Sn  Sn5  1  0.278842  0.721158  0.500000  1
  Sn  Sn6  1  0.721158  0.278842  0.500000  1
  Sn  Sn7  1  0.000000  0.000000  0.000000  1
  Sn  Sn8  1  0.585207  0.414793  0.000000  1
  Sn  Sn9  1  0.414793  0.585207  0.000000  1
  Rh  Rh10  1  0.370590  0.629410  0.500000  1
  Rh  Rh11  1  0.629410  0.370590  0.500000  1
