# generated using pymatgen
data_Hf2Be16Ni
_symmetry_space_group_name_H-M   'P 1'
_cell_length_a   5.68580327
_cell_length_b   5.68580353
_cell_length_c   5.68580400
_cell_angle_alpha   82.90292167
_cell_angle_beta   82.90292134
_cell_angle_gamma   82.90293127
_symmetry_Int_Tables_number   1
_chemical_formula_structural   Hf2Be16Ni
_chemical_formula_sum   'Hf2 Be16 Ni1'
_cell_volume   179.90913948
_cell_formula_units_Z   1
loop_
 _symmetry_equiv_pos_site_id
 _symmetry_equiv_pos_as_xyz
  1  'x, y, z'
loop_
 _atom_site_type_symbol
 _atom_site_label
 _atom_site_symmetry_multiplicity
 _atom_site_fract_x
 _atom_site_fract_y
 _atom_site_fract_z
 _atom_site_occupancy
  Hf  Hf0  1  0.838801  0.838801  0.838801  1
  Hf  Hf1  1  0.160653  0.160653  0.160653  1
  Be  Be2  1  0.399027  0.399027  0.399027  1
  Be  Be3  1  0.500478  0.500478  0.998618  1
  Be  Be4  1  0.998618  0.500478  0.500478  1
  Be  Be5  1  0.500478  0.998618  0.500478  1
  Be  Be6  1  0.216018  0.501670  0.786251  1
  Be  Be7  1  0.786251  0.216018  0.501670  1
  Be  Be8  1  0.501670  0.786251  0.216018  1
  Be  Be9  1  0.786251  0.501670  0.216018  1
  Be  Be10  1  0.216018  0.786251  0.501670  1
  Be  Be11  1  0.501670  0.216018  0.786251  1
  Be  Be12  1  0.841832  0.342510  0.841832  1
  Be  Be13  1  0.841832  0.841832  0.342510  1
  Be  Be14  1  0.342510  0.841832  0.841832  1
  Be  Be15  1  0.156368  0.659022  0.156368  1
  Be  Be16  1  0.156368  0.156368  0.659022  1
  Be  Be17  1  0.659022  0.156368  0.156368  1
  Ni  Ni18  1  0.596136  0.596136  0.596136  1
