# generated using pymatgen
data_Dy4ErBiPb3
_symmetry_space_group_name_H-M   'P 1'
_cell_length_a   8.28370300
_cell_length_b   8.28682100
_cell_length_c   15.61518400
_cell_angle_alpha   90.00000000
_cell_angle_beta   90.00000000
_cell_angle_gamma   90.00000000
_symmetry_Int_Tables_number   1
_chemical_formula_structural   Dy4ErBiPb3
_chemical_formula_sum   'Dy16 Er4 Bi4 Pb12'
_cell_volume   1071.91311230
_cell_formula_units_Z   4
loop_
 _symmetry_equiv_pos_site_id
 _symmetry_equiv_pos_as_xyz
  1  'x, y, z'
loop_
 _atom_site_type_symbol
 _atom_site_label
 _atom_site_symmetry_multiplicity
 _atom_site_fract_x
 _atom_site_fract_y
 _atom_site_fract_z
 _atom_site_occupancy
  Dy  Dy0  1  0.385059  0.842162  0.877997  1
  Dy  Dy1  1  0.885059  0.657838  0.622003  1
  Dy  Dy2  1  0.614941  0.157838  0.377997  1
  Dy  Dy3  1  0.114941  0.342162  0.122003  1
  Dy  Dy4  1  0.619985  0.159428  0.121082  1
  Dy  Dy5  1  0.119985  0.340572  0.378918  1
  Dy  Dy6  1  0.380015  0.840572  0.621082  1
  Dy  Dy7  1  0.880015  0.659428  0.878918  1
  Dy  Dy8  1  0.558939  0.332171  0.892821  1
  Dy  Dy9  1  0.058939  0.167829  0.607179  1
  Dy  Dy10  1  0.441061  0.667829  0.392821  1
  Dy  Dy11  1  0.941061  0.832171  0.107179  1
  Dy  Dy12  1  0.457255  0.668812  0.104662  1
  Dy  Dy13  1  0.957255  0.831188  0.395338  1
  Dy  Dy14  1  0.542745  0.331188  0.604662  1
  Dy  Dy15  1  0.042745  0.168812  0.895338  1
  Er  Er16  1  0.215942  0.501226  0.747620  1
  Er  Er17  1  0.715942  0.998774  0.752380  1
  Er  Er18  1  0.784058  0.498774  0.247620  1
  Er  Er19  1  0.284058  0.001226  0.252380  1
  Bi  Bi20  1  0.271025  0.021690  0.046029  1
  Bi  Bi21  1  0.771025  0.478310  0.453971  1
  Bi  Bi22  1  0.728975  0.978310  0.546029  1
  Bi  Bi23  1  0.228975  0.521690  0.953971  1
  Pb  Pb24  1  0.722302  0.972541  0.955773  1
  Pb  Pb25  1  0.222302  0.527459  0.544227  1
  Pb  Pb26  1  0.277698  0.027459  0.455773  1
  Pb  Pb27  1  0.777698  0.472541  0.044227  1
  Pb  Pb28  1  0.577408  0.629649  0.748674  1
  Pb  Pb29  1  0.077408  0.870351  0.751326  1
  Pb  Pb30  1  0.422592  0.370351  0.248674  1
  Pb  Pb31  1  0.922592  0.129649  0.251326  1
  Pb  Pb32  1  0.358838  0.151617  0.751421  1
  Pb  Pb33  1  0.858838  0.348383  0.748579  1
  Pb  Pb34  1  0.641162  0.848383  0.251421  1
  Pb  Pb35  1  0.141162  0.651617  0.248579  1
