# generated using pymatgen
data_Cs3KNb11Al2O20F
_symmetry_space_group_name_H-M   'P 1'
_cell_length_a   8.99270417
_cell_length_b   8.99270433
_cell_length_c   8.99270400
_cell_angle_alpha   120.62409008
_cell_angle_beta   120.62409069
_cell_angle_gamma   88.92239915
_symmetry_Int_Tables_number   1
_chemical_formula_structural   Cs3KNb11Al2O20F
_chemical_formula_sum   'Cs3 K1 Nb11 Al2 O20 F1'
_cell_volume   509.27977761
_cell_formula_units_Z   1
loop_
 _symmetry_equiv_pos_site_id
 _symmetry_equiv_pos_as_xyz
  1  'x, y, z'
loop_
 _atom_site_type_symbol
 _atom_site_label
 _atom_site_symmetry_multiplicity
 _atom_site_fract_x
 _atom_site_fract_y
 _atom_site_fract_z
 _atom_site_occupancy
  Cs  Cs0  1  0.816691  0.500000  0.316691  1
  Cs  Cs1  1  0.499884  0.188926  0.688810  1
  Cs  Cs2  1  0.499884  0.811074  0.310957  1
  K  K3  1  0.194472  0.500000  0.694472  1
  Nb  Nb4  1  0.998327  0.676096  0.999486  1
  Nb  Nb5  1  0.676368  0.997868  0.000108  1
  Nb  Nb6  1  0.676368  0.676260  0.678500  1
  Nb  Nb7  1  0.002240  0.002132  0.678500  1
  Nb  Nb8  1  0.998327  0.998841  0.322231  1
  Nb  Nb9  1  0.323390  0.323904  0.322231  1
  Nb  Nb10  1  0.323390  0.001159  0.999486  1
  Nb  Nb11  1  0.000607  0.000000  0.000607  1
  Nb  Nb12  1  0.684941  0.685471  0.999470  1
  Nb  Nb13  1  0.313999  0.314529  0.999470  1
  Nb  Nb14  1  0.002240  0.323740  0.000108  1
  Al  Al15  1  0.751074  0.250417  0.500657  1
  Al  Al16  1  0.250240  0.749583  0.500657  1
  O  O17  1  0.156992  0.488027  0.996667  1
  O  O18  1  0.842260  0.511243  0.999812  1
  O  O19  1  0.168537  0.829822  0.662759  1
  O  O20  1  0.168537  0.505778  0.338715  1
  O  O21  1  0.156992  0.160325  0.668965  1
  O  O22  1  0.508641  0.511973  0.668965  1
  O  O23  1  0.832581  0.832887  0.665467  1
  O  O24  1  0.167127  0.828716  0.995843  1
  O  O25  1  0.508641  0.839675  0.996667  1
  O  O26  1  0.832581  0.167113  0.999693  1
  O  O27  1  0.488569  0.157552  0.999812  1
  O  O28  1  0.167127  0.171284  0.338412  1
  O  O29  1  0.832937  0.494222  0.662759  1
  O  O30  1  0.488569  0.488757  0.331017  1
  O  O31  1  0.842260  0.842448  0.331017  1
  O  O32  1  0.506638  0.169375  0.337263  1
  O  O33  1  0.832937  0.170178  0.338715  1
  O  O34  1  0.832332  0.169008  0.663324  1
  O  O35  1  0.494316  0.830992  0.663324  1
  O  O36  1  0.167888  0.830625  0.337263  1
  F  F37  1  0.491098  0.500000  0.991098  1
