# generated using pymatgen
data_TbGd2YB16
_symmetry_space_group_name_H-M   'P 1'
_cell_length_a   7.13185871
_cell_length_b   7.13185799
_cell_length_c   4.04168100
_cell_angle_alpha   90.00000000
_cell_angle_beta   90.00000000
_cell_angle_gamma   89.84319663
_symmetry_Int_Tables_number   1
_chemical_formula_structural   TbGd2YB16
_chemical_formula_sum   'Tb1 Gd2 Y1 B16'
_cell_volume   205.57288167
_cell_formula_units_Z   1
loop_
 _symmetry_equiv_pos_site_id
 _symmetry_equiv_pos_as_xyz
  1  'x, y, z'
loop_
 _atom_site_type_symbol
 _atom_site_label
 _atom_site_symmetry_multiplicity
 _atom_site_fract_x
 _atom_site_fract_y
 _atom_site_fract_z
 _atom_site_occupancy
  Tb  Tb0  1  0.182281  0.682281  0.000000  1
  Gd  Gd1  1  0.682660  0.817230  0.000000  1
  Gd  Gd2  1  0.317230  0.182660  0.000000  1
  Y  Y3  1  0.818314  0.318314  0.000000  1
  B  B4  1  0.324187  0.461596  0.500000  1
  B  B5  1  0.676017  0.538212  0.500000  1
  B  B6  1  0.539079  0.323859  0.500000  1
  B  B7  1  0.461109  0.675762  0.500000  1
  B  B8  1  0.999798  0.000159  0.203294  1
  B  B9  1  0.500159  0.499798  0.796706  1
  B  B10  1  0.999798  0.000159  0.796706  1
  B  B11  1  0.500159  0.499798  0.203294  1
  B  B12  1  0.586484  0.086484  0.500000  1
  B  B13  1  0.087257  0.412872  0.500000  1
  B  B14  1  0.912872  0.587257  0.500000  1
  B  B15  1  0.413163  0.913163  0.500000  1
  B  B16  1  0.038212  0.176017  0.500000  1
  B  B17  1  0.175762  0.961109  0.500000  1
  B  B18  1  0.823859  0.039079  0.500000  1
  B  B19  1  0.961596  0.824187  0.500000  1
