# generated using pymatgen
data_ReAg2AsF12
_symmetry_space_group_name_H-M   'P 1'
_cell_length_a   5.34487965
_cell_length_b   6.12524105
_cell_length_c   8.14462240
_cell_angle_alpha   97.74566964
_cell_angle_beta   91.57344521
_cell_angle_gamma   90.23827942
_symmetry_Int_Tables_number   1
_chemical_formula_structural   ReAg2AsF12
_chemical_formula_sum   'Re1 Ag2 As1 F12'
_cell_volume   264.10338144
_cell_formula_units_Z   1
loop_
 _symmetry_equiv_pos_site_id
 _symmetry_equiv_pos_as_xyz
  1  'x, y, z'
loop_
 _atom_site_type_symbol
 _atom_site_label
 _atom_site_symmetry_multiplicity
 _atom_site_fract_x
 _atom_site_fract_y
 _atom_site_fract_z
 _atom_site_occupancy
  Re  Re0  1  0.000000  0.000000  0.500000  1
  Ag  Ag1  1  0.000000  0.000000  0.000000  1
  Ag  Ag2  1  0.500000  0.500000  0.500000  1
  As  As3  1  0.500000  0.500000  0.000000  1
  F  F4  1  0.863480  0.991724  0.715413  1
  F  F5  1  0.134492  0.290941  0.569560  1
  F  F6  1  0.232719  0.635782  0.928292  1
  F  F7  1  0.360855  0.497618  0.196138  1
  F  F8  1  0.358233  0.239809  0.927736  1
  F  F9  1  0.298744  0.862987  0.572972  1
  F  F10  1  0.701256  0.137013  0.427028  1
  F  F11  1  0.641767  0.760191  0.072264  1
  F  F12  1  0.639145  0.502382  0.803862  1
  F  F13  1  0.767281  0.364218  0.071708  1
  F  F14  1  0.865508  0.709059  0.430440  1
  F  F15  1  0.136520  0.008276  0.284587  1
