# generated using pymatgen
data_Ho19Er(Ga2Bi)4
_symmetry_space_group_name_H-M   'P 1'
_cell_length_a   8.20377700
_cell_length_b   8.20377700
_cell_length_c   12.63087500
_cell_angle_alpha   90.00000000
_cell_angle_beta   90.00000000
_cell_angle_gamma   90.00000000
_symmetry_Int_Tables_number   1
_chemical_formula_structural   Ho19Er(Ga2Bi)4
_chemical_formula_sum   'Ho19 Er1 Ga8 Bi4'
_cell_volume   850.08260695
_cell_formula_units_Z   1
loop_
 _symmetry_equiv_pos_site_id
 _symmetry_equiv_pos_as_xyz
  1  'x, y, z'
loop_
 _atom_site_type_symbol
 _atom_site_label
 _atom_site_symmetry_multiplicity
 _atom_site_fract_x
 _atom_site_fract_y
 _atom_site_fract_z
 _atom_site_occupancy
  Ho  Ho0  1  0.000000  0.500000  0.249848  1
  Ho  Ho1  1  0.500000  0.000000  0.250229  1
  Ho  Ho2  1  0.500000  0.000000  0.750115  1
  Ho  Ho3  1  0.652296  0.651297  0.608313  1
  Ho  Ho4  1  0.652118  0.348312  0.108284  1
  Ho  Ho5  1  0.847875  0.848294  0.391694  1
  Ho  Ho6  1  0.151816  0.848246  0.891667  1
  Ho  Ho7  1  0.347704  0.348703  0.608313  1
  Ho  Ho8  1  0.347882  0.651688  0.108284  1
  Ho  Ho9  1  0.152125  0.151706  0.391694  1
  Ho  Ho10  1  0.848184  0.151754  0.891667  1
  Ho  Ho11  1  0.651706  0.347875  0.391694  1
  Ho  Ho12  1  0.348246  0.348184  0.891667  1
  Ho  Ho13  1  0.151297  0.847704  0.608313  1
  Ho  Ho14  1  0.848312  0.847882  0.108284  1
  Ho  Ho15  1  0.348294  0.652125  0.391694  1
  Ho  Ho16  1  0.651754  0.651816  0.891667  1
  Ho  Ho17  1  0.848703  0.152296  0.608313  1
  Ho  Ho18  1  0.151688  0.152118  0.108284  1
  Er  Er19  1  0.000000  0.500000  0.750047  1
  Ga  Ga20  1  0.851457  0.851157  0.749951  1
  Ga  Ga21  1  0.851803  0.148444  0.250008  1
  Ga  Ga22  1  0.648444  0.648197  0.250008  1
  Ga  Ga23  1  0.351157  0.648543  0.749951  1
  Ga  Ga24  1  0.148543  0.148843  0.749951  1
  Ga  Ga25  1  0.148197  0.851556  0.250008  1
  Ga  Ga26  1  0.351556  0.351803  0.250008  1
  Ga  Ga27  1  0.648843  0.351457  0.749951  1
  Bi  Bi28  1  0.000000  0.500000  0.500150  1
  Bi  Bi29  1  0.000000  0.500000  0.999115  1
  Bi  Bi30  1  0.500000  0.000000  0.500380  1
  Bi  Bi31  1  0.500000  0.000000  0.000451  1
