# generated using pymatgen
data_Zr5Nb5Sn6P
_symmetry_space_group_name_H-M   'P 1'
_cell_length_a   5.69345937
_cell_length_b   8.44446004
_cell_length_c   8.42712879
_cell_angle_alpha   120.06806086
_cell_angle_beta   89.77671148
_cell_angle_gamma   90.44566777
_symmetry_Int_Tables_number   1
_chemical_formula_structural   Zr5Nb5Sn6P
_chemical_formula_sum   'Zr5 Nb5 Sn6 P1'
_cell_volume   350.62830834
_cell_formula_units_Z   1
loop_
 _symmetry_equiv_pos_site_id
 _symmetry_equiv_pos_as_xyz
  1  'x, y, z'
loop_
 _atom_site_type_symbol
 _atom_site_label
 _atom_site_symmetry_multiplicity
 _atom_site_fract_x
 _atom_site_fract_y
 _atom_site_fract_z
 _atom_site_occupancy
  Zr  Zr0  1  0.759977  0.749534  0.750864  1
  Zr  Zr1  1  0.759977  0.998669  0.249136  1
  Zr  Zr2  1  0.246257  0.750772  0.000000  1
  Zr  Zr3  1  0.237744  0.247394  0.246842  1
  Zr  Zr4  1  0.237744  0.000552  0.753158  1
  Nb  Nb5  1  0.498616  0.333487  0.666859  1
  Nb  Nb6  1  0.498616  0.666628  0.333141  1
  Nb  Nb7  1  0.000541  0.667602  0.334338  1
  Nb  Nb8  1  0.000541  0.333265  0.665662  1
  Nb  Nb9  1  0.756470  0.250658  0.000000  1
  Sn  Sn10  1  0.751475  0.598405  0.000000  1
  Sn  Sn11  1  0.748633  0.395729  0.393733  1
  Sn  Sn12  1  0.748633  0.001996  0.606267  1
  Sn  Sn13  1  0.246937  0.397410  0.000000  1
  Sn  Sn14  1  0.250373  0.602096  0.602316  1
  Sn  Sn15  1  0.250373  0.999781  0.397684  1
  P  P16  1  0.507092  0.006026  0.000000  1
