# generated using pymatgen
data_Ho16Zn4NiRh3
_symmetry_space_group_name_H-M   'P 1'
_cell_length_a   9.41740305
_cell_length_b   9.41740376
_cell_length_c   9.38357255
_cell_angle_alpha   59.88066300
_cell_angle_beta   59.88066086
_cell_angle_gamma   60.00000027
_symmetry_Int_Tables_number   1
_chemical_formula_structural   Ho16Zn4NiRh3
_chemical_formula_sum   'Ho16 Zn4 Ni1 Rh3'
_cell_volume   587.39443795
_cell_formula_units_Z   1
loop_
 _symmetry_equiv_pos_site_id
 _symmetry_equiv_pos_as_xyz
  1  'x, y, z'
loop_
 _atom_site_type_symbol
 _atom_site_label
 _atom_site_symmetry_multiplicity
 _atom_site_fract_x
 _atom_site_fract_y
 _atom_site_fract_z
 _atom_site_occupancy
  Ho  Ho0  1  0.312010  0.897819  0.892353  1
  Ho  Ho1  1  0.683829  0.315129  0.685913  1
  Ho  Ho2  1  0.314661  0.685426  0.314487  1
  Ho  Ho3  1  0.059880  0.438300  0.441941  1
  Ho  Ho4  1  0.685426  0.314661  0.314487  1
  Ho  Ho5  1  0.438300  0.059880  0.441941  1
  Ho  Ho6  1  0.440146  0.059641  0.060066  1
  Ho  Ho7  1  0.897819  0.897819  0.892353  1
  Ho  Ho8  1  0.059641  0.440146  0.060066  1
  Ho  Ho9  1  0.897819  0.312010  0.892353  1
  Ho  Ho10  1  0.315129  0.683829  0.685913  1
  Ho  Ho11  1  0.895445  0.895445  0.313665  1
  Ho  Ho12  1  0.440146  0.440146  0.060066  1
  Ho  Ho13  1  0.315129  0.315129  0.685913  1
  Ho  Ho14  1  0.685426  0.685426  0.314487  1
  Ho  Ho15  1  0.059880  0.059880  0.441941  1
  Zn  Zn16  1  0.986245  0.670909  0.671937  1
  Zn  Zn17  1  0.670909  0.986245  0.671937  1
  Zn  Zn18  1  0.671336  0.671336  0.985992  1
  Zn  Zn19  1  0.670909  0.670909  0.671937  1
  Ni  Ni20  1  0.106402  0.106402  0.680795  1
  Rh  Rh21  1  0.105868  0.681779  0.106486  1
  Rh  Rh22  1  0.105868  0.105868  0.106486  1
  Rh  Rh23  1  0.681779  0.105868  0.106486  1
