# generated using pymatgen
data_Yb5Ho2Lu(Si4Mo3)4
_symmetry_space_group_name_H-M   'P 1'
_cell_length_a   6.71583754
_cell_length_b   6.93713391
_cell_length_c   12.98038111
_cell_angle_alpha   89.89069051
_cell_angle_beta   89.97035588
_cell_angle_gamma   89.92237595
_symmetry_Int_Tables_number   1
_chemical_formula_structural   Yb5Ho2Lu(Si4Mo3)4
_chemical_formula_sum   'Yb5 Ho2 Lu1 Si16 Mo12'
_cell_volume   604.73688263
_cell_formula_units_Z   1
loop_
 _symmetry_equiv_pos_site_id
 _symmetry_equiv_pos_as_xyz
  1  'x, y, z'
loop_
 _atom_site_type_symbol
 _atom_site_label
 _atom_site_symmetry_multiplicity
 _atom_site_fract_x
 _atom_site_fract_y
 _atom_site_fract_z
 _atom_site_occupancy
  Yb  Yb0  1  0.497919  0.334776  0.090420  1
  Yb  Yb1  1  0.997814  0.167223  0.408184  1
  Yb  Yb2  1  0.501605  0.667600  0.591915  1
  Yb  Yb3  1  0.001586  0.831614  0.908119  1
  Yb  Yb4  1  0.501255  0.667056  0.909880  1
  Ho  Ho5  1  0.000173  0.829832  0.593887  1
  Ho  Ho6  1  0.499635  0.330783  0.406182  1
  Lu  Lu7  1  0.998465  0.170109  0.093691  1
  Si  Si8  1  0.659715  0.042127  0.544956  1
  Si  Si9  1  0.158751  0.456656  0.955201  1
  Si  Si10  1  0.338549  0.959118  0.046069  1
  Si  Si11  1  0.840372  0.542266  0.454411  1
  Si  Si12  1  0.339726  0.957026  0.454382  1
  Si  Si13  1  0.841643  0.541875  0.045897  1
  Si  Si14  1  0.660326  0.041872  0.955043  1
  Si  Si15  1  0.160378  0.456937  0.544867  1
  Si  Si16  1  0.534071  0.371981  0.750244  1
  Si  Si17  1  0.034633  0.127519  0.749620  1
  Si  Si18  1  0.465494  0.631664  0.249240  1
  Si  Si19  1  0.966162  0.871414  0.249695  1
  Si  Si20  1  0.799812  0.628911  0.751230  1
  Si  Si21  1  0.303599  0.869254  0.751244  1
  Si  Si22  1  0.197196  0.369244  0.249144  1
  Si  Si23  1  0.698415  0.130672  0.249008  1
  Mo  Mo24  1  0.832609  0.332876  0.625883  1
  Mo  Mo25  1  0.332529  0.168026  0.873391  1
  Mo  Mo26  1  0.167301  0.666831  0.126196  1
  Mo  Mo27  1  0.668496  0.833560  0.374190  1
  Mo  Mo28  1  0.167548  0.667148  0.373392  1
  Mo  Mo29  1  0.668837  0.834599  0.126682  1
  Mo  Mo30  1  0.834982  0.330125  0.873329  1
  Mo  Mo31  1  0.333224  0.167531  0.625882  1
  Mo  Mo32  1  0.662708  0.006917  0.749585  1
  Mo  Mo33  1  0.162043  0.492741  0.749082  1
  Mo  Mo34  1  0.335741  0.997227  0.250165  1
  Mo  Mo35  1  0.836689  0.504897  0.249694  1
