# generated using pymatgen
data_Ho12In2Si3Tc
_symmetry_space_group_name_H-M   'P 1'
_cell_length_a   8.52110394
_cell_length_b   8.52110364
_cell_length_c   8.52110400
_cell_angle_alpha   111.50933060
_cell_angle_beta   111.56097091
_cell_angle_gamma   105.41783008
_symmetry_Int_Tables_number   1
_chemical_formula_structural   Ho12In2Si3Tc
_chemical_formula_sum   'Ho12 In2 Si3 Tc1'
_cell_volume   474.51224807
_cell_formula_units_Z   1
loop_
 _symmetry_equiv_pos_site_id
 _symmetry_equiv_pos_as_xyz
  1  'x, y, z'
loop_
 _atom_site_type_symbol
 _atom_site_label
 _atom_site_symmetry_multiplicity
 _atom_site_fract_x
 _atom_site_fract_y
 _atom_site_fract_z
 _atom_site_occupancy
  Ho  Ho0  1  0.449780  0.240646  0.209135  1
  Ho  Ho1  1  0.559120  0.760964  0.798156  1
  Ho  Ho2  1  0.037191  0.239036  0.798156  1
  Ho  Ho3  1  0.968490  0.759354  0.209135  1
  Ho  Ho4  1  0.186098  0.274062  0.460161  1
  Ho  Ho5  1  0.817293  0.724687  0.541981  1
  Ho  Ho6  1  0.186098  0.725938  0.912036  1
  Ho  Ho7  1  0.817293  0.275313  0.092606  1
  Ho  Ho8  1  0.323997  0.625338  0.297605  1
  Ho  Ho9  1  0.672267  0.374662  0.698660  1
  Ho  Ho10  1  0.323997  0.026393  0.698660  1
  Ho  Ho11  1  0.672267  0.973607  0.297605  1
  In  In12  1  0.500406  0.500000  0.000406  1
  In  In13  1  0.011940  0.000000  0.011940  1
  Si  Si14  1  0.629241  0.000000  0.629241  1
  Si  Si15  1  0.116337  0.614840  0.501498  1
  Si  Si16  1  0.886658  0.385160  0.501498  1
  Tc  Tc17  1  0.341524  0.000000  0.341524  1
