# generated using pymatgen
data_Ba6Y(RuO6)3
_symmetry_space_group_name_H-M   'P 1'
_cell_length_a   10.21511850
_cell_length_b   10.21511825
_cell_length_c   10.08707500
_cell_angle_alpha   80.28440793
_cell_angle_beta   80.28440817
_cell_angle_gamma   119.99499085
_symmetry_Int_Tables_number   1
_chemical_formula_structural   Ba6Y(RuO6)3
_chemical_formula_sum   'Ba12 Y2 Ru6 O36'
_cell_volume   858.11630255
_cell_formula_units_Z   2
loop_
 _symmetry_equiv_pos_site_id
 _symmetry_equiv_pos_as_xyz
  1  'x, y, z'
loop_
 _atom_site_type_symbol
 _atom_site_label
 _atom_site_symmetry_multiplicity
 _atom_site_fract_x
 _atom_site_fract_y
 _atom_site_fract_z
 _atom_site_occupancy
  Ba  Ba0  1  0.634579  0.958628  0.124108  1
  Ba  Ba1  1  0.282706  0.282706  0.124359  1
  Ba  Ba2  1  0.958628  0.634579  0.124108  1
  Ba  Ba3  1  0.365421  0.041372  0.875892  1
  Ba  Ba4  1  0.041372  0.365421  0.875892  1
  Ba  Ba5  1  0.717294  0.717294  0.875641  1
  Ba  Ba6  1  0.463357  0.797266  0.607961  1
  Ba  Ba7  1  0.128960  0.128960  0.614911  1
  Ba  Ba8  1  0.797266  0.463357  0.607961  1
  Ba  Ba9  1  0.536643  0.202734  0.392039  1
  Ba  Ba10  1  0.202734  0.536643  0.392039  1
  Ba  Ba11  1  0.871040  0.871040  0.385089  1
  Y  Y12  1  0.666702  0.333298  0.000000  1
  Y  Y13  1  0.333298  0.666702  0.000000  1
  Ru  Ru14  1  0.419693  0.419693  0.733797  1
  Ru  Ru15  1  0.088444  0.758013  0.733527  1
  Ru  Ru16  1  0.758013  0.088444  0.733527  1
  Ru  Ru17  1  0.580307  0.580307  0.266203  1
  Ru  Ru18  1  0.241987  0.911556  0.266473  1
  Ru  Ru19  1  0.911556  0.241987  0.266473  1
  O  O20  1  0.457268  0.299711  0.630090  1
  O  O21  1  0.121133  0.631783  0.637102  1
  O  O22  1  0.789406  0.966217  0.629405  1
  O  O23  1  0.610169  0.610169  0.636435  1
  O  O24  1  0.280933  0.946521  0.630194  1
  O  O25  1  0.946521  0.280933  0.630194  1
  O  O26  1  0.299711  0.457268  0.630090  1
  O  O27  1  0.966217  0.789406  0.629405  1
  O  O28  1  0.631783  0.121133  0.637102  1
  O  O29  1  0.542732  0.700289  0.369910  1
  O  O30  1  0.210594  0.033783  0.370595  1
  O  O31  1  0.878867  0.368217  0.362898  1
  O  O32  1  0.389831  0.389831  0.363565  1
  O  O33  1  0.053479  0.719067  0.369806  1
  O  O34  1  0.719067  0.053479  0.369806  1
  O  O35  1  0.700289  0.542732  0.369910  1
  O  O36  1  0.368217  0.878867  0.362898  1
  O  O37  1  0.033783  0.210594  0.370595  1
  O  O38  1  0.620305  0.464852  0.137533  1
  O  O39  1  0.287883  0.798743  0.137474  1
  O  O40  1  0.953273  0.141656  0.140599  1
  O  O41  1  0.764546  0.764546  0.140565  1
  O  O42  1  0.443238  0.109669  0.137567  1
  O  O43  1  0.109669  0.443238  0.137567  1
  O  O44  1  0.464852  0.620305  0.137533  1
  O  O45  1  0.141656  0.953273  0.140599  1
  O  O46  1  0.798743  0.287883  0.137474  1
  O  O47  1  0.379695  0.535148  0.862467  1
  O  O48  1  0.046727  0.858344  0.859401  1
  O  O49  1  0.712117  0.201257  0.862526  1
  O  O50  1  0.235454  0.235454  0.859435  1
  O  O51  1  0.890331  0.556762  0.862433  1
  O  O52  1  0.556762  0.890331  0.862433  1
  O  O53  1  0.535148  0.379695  0.862467  1
  O  O54  1  0.201257  0.712117  0.862526  1
  O  O55  1  0.858344  0.046727  0.859401  1
