# generated using pymatgen
data_HoErCo9Mo3P7
_symmetry_space_group_name_H-M   'P 1'
_cell_length_a   9.05378400
_cell_length_b   9.05378405
_cell_length_c   3.70755900
_cell_angle_alpha   90.00000000
_cell_angle_beta   90.00000000
_cell_angle_gamma   120.00000615
_symmetry_Int_Tables_number   1
_chemical_formula_structural   HoErCo9Mo3P7
_chemical_formula_sum   'Ho1 Er1 Co9 Mo3 P7'
_cell_volume   263.19578883
_cell_formula_units_Z   1
loop_
 _symmetry_equiv_pos_site_id
 _symmetry_equiv_pos_as_xyz
  1  'x, y, z'
loop_
 _atom_site_type_symbol
 _atom_site_label
 _atom_site_symmetry_multiplicity
 _atom_site_fract_x
 _atom_site_fract_y
 _atom_site_fract_z
 _atom_site_occupancy
  Ho  Ho0  1  0.000000  0.000000  0.000000  1
  Er  Er1  1  0.333333  0.666667  0.500000  1
  Co  Co2  1  0.296501  0.900602  0.000000  1
  Co  Co3  1  0.604102  0.703499  0.000000  1
  Co  Co4  1  0.099398  0.395898  0.000000  1
  Co  Co5  1  0.788207  0.172858  0.000000  1
  Co  Co6  1  0.384652  0.211793  0.000000  1
  Co  Co7  1  0.827142  0.615348  0.000000  1
  Co  Co8  1  0.718068  0.946152  0.500000  1
  Co  Co9  1  0.228085  0.281932  0.500000  1
  Co  Co10  1  0.053848  0.771915  0.500000  1
  Mo  Mo11  1  0.543067  0.112301  0.500000  1
  Mo  Mo12  1  0.569234  0.456933  0.500000  1
  Mo  Mo13  1  0.887699  0.430766  0.500000  1
  P  P14  1  0.554631  0.918664  0.000000  1
  P  P15  1  0.364033  0.445369  0.000000  1
  P  P16  1  0.081336  0.635967  0.000000  1
  P  P17  1  0.956500  0.212974  0.500000  1
  P  P18  1  0.256473  0.043500  0.500000  1
  P  P19  1  0.787026  0.743527  0.500000  1
  P  P20  1  0.666667  0.333333  0.000000  1
