# generated using pymatgen
data_Eu2Sn2HgAu
_symmetry_space_group_name_H-M   'P 1'
_cell_length_a   4.87764200
_cell_length_b   4.87764174
_cell_length_c   7.86163700
_cell_angle_alpha   90.00000000
_cell_angle_beta   90.00000000
_cell_angle_gamma   120.00001536
_symmetry_Int_Tables_number   1
_chemical_formula_structural   Eu2Sn2HgAu
_chemical_formula_sum   'Eu2 Sn2 Hg1 Au1'
_cell_volume   161.98073721
_cell_formula_units_Z   1
loop_
 _symmetry_equiv_pos_site_id
 _symmetry_equiv_pos_as_xyz
  1  'x, y, z'
loop_
 _atom_site_type_symbol
 _atom_site_label
 _atom_site_symmetry_multiplicity
 _atom_site_fract_x
 _atom_site_fract_y
 _atom_site_fract_z
 _atom_site_occupancy
  Eu  Eu0  1  0.000000  0.000000  0.739297  1
  Eu  Eu1  1  0.000000  0.000000  0.260169  1
  Sn  Sn2  1  0.666667  0.333333  0.956296  1
  Sn  Sn3  1  0.333333  0.666667  0.477152  1
  Hg  Hg4  1  0.333333  0.666667  0.058862  1
  Au  Au5  1  0.666667  0.333333  0.548223  1
