# generated using pymatgen
data_Pr2HoEr3Ta2O14
_symmetry_space_group_name_H-M   'P 1'
_cell_length_a   6.48712934
_cell_length_b   6.48639649
_cell_length_c   7.59365412
_cell_angle_alpha   89.98377078
_cell_angle_beta   90.01749346
_cell_angle_gamma   109.18348345
_symmetry_Int_Tables_number   1
_chemical_formula_structural   Pr2HoEr3Ta2O14
_chemical_formula_sum   'Pr2 Ho1 Er3 Ta2 O14'
_cell_volume   301.78352041
_cell_formula_units_Z   1
loop_
 _symmetry_equiv_pos_site_id
 _symmetry_equiv_pos_as_xyz
  1  'x, y, z'
loop_
 _atom_site_type_symbol
 _atom_site_label
 _atom_site_symmetry_multiplicity
 _atom_site_fract_x
 _atom_site_fract_y
 _atom_site_fract_z
 _atom_site_occupancy
  Pr  Pr0  1  0.506018  0.505954  0.500249  1
  Pr  Pr1  1  0.495687  0.495900  0.999776  1
  Ho  Ho2  1  0.466820  0.998891  0.251696  1
  Er  Er3  1  0.001381  0.532593  0.248140  1
  Er  Er4  1  0.998715  0.467198  0.748258  1
  Er  Er5  1  0.532965  0.001318  0.751775  1
  Ta  Ta6  1  0.000600  0.000657  0.500279  1
  Ta  Ta7  1  0.999328  0.999202  0.999842  1
  O  O8  1  0.934990  0.065592  0.750049  1
  O  O9  1  0.064490  0.934677  0.250009  1
  O  O10  1  0.354672  0.644196  0.250176  1
  O  O11  1  0.645649  0.354775  0.749949  1
  O  O12  1  0.360881  0.639014  0.750019  1
  O  O13  1  0.639886  0.362479  0.249826  1
  O  O14  1  0.321746  0.069837  0.968071  1
  O  O15  1  0.677700  0.929325  0.469687  1
  O  O16  1  0.318773  0.066030  0.535882  1
  O  O17  1  0.680480  0.932861  0.034007  1
  O  O18  1  0.064953  0.318722  0.464453  1
  O  O19  1  0.934573  0.680925  0.964747  1
  O  O20  1  0.930556  0.678079  0.531528  1
  O  O21  1  0.069139  0.321774  0.031584  1
