# generated using pymatgen
data_DyU3F15
_symmetry_space_group_name_H-M   'P 1'
_cell_length_a   8.63267769
_cell_length_b   8.63267733
_cell_length_c   8.65742182
_cell_angle_alpha   79.62326265
_cell_angle_beta   79.62325897
_cell_angle_gamma   100.02903718
_symmetry_Int_Tables_number   1
_chemical_formula_structural   DyU3F15
_chemical_formula_sum   'Dy2 U6 F30'
_cell_volume   609.85087414
_cell_formula_units_Z   2
loop_
 _symmetry_equiv_pos_site_id
 _symmetry_equiv_pos_as_xyz
  1  'x, y, z'
loop_
 _atom_site_type_symbol
 _atom_site_label
 _atom_site_symmetry_multiplicity
 _atom_site_fract_x
 _atom_site_fract_y
 _atom_site_fract_z
 _atom_site_occupancy
  Dy  Dy0  1  0.177174  0.822826  0.250000  1
  Dy  Dy1  1  0.822826  0.177174  0.750000  1
  U  U2  1  0.749366  0.250634  0.250000  1
  U  U3  1  0.250634  0.749366  0.750000  1
  U  U4  1  0.754921  0.678605  0.674236  1
  U  U5  1  0.321395  0.245079  0.825764  1
  U  U6  1  0.245079  0.321395  0.325764  1
  U  U7  1  0.678605  0.754921  0.174236  1
  F  F8  1  0.466352  0.533648  0.250000  1
  F  F9  1  0.750427  0.964406  0.962141  1
  F  F10  1  0.035594  0.249573  0.537859  1
  F  F11  1  0.249573  0.035594  0.037859  1
  F  F12  1  0.964406  0.750427  0.462141  1
  F  F13  1  0.533648  0.466352  0.750000  1
  F  F14  1  0.219674  0.488995  0.776991  1
  F  F15  1  0.224776  0.724177  0.006007  1
  F  F16  1  0.989027  0.724509  0.783307  1
  F  F17  1  0.724509  0.989027  0.283307  1
  F  F18  1  0.724177  0.224776  0.506007  1
  F  F19  1  0.488995  0.219674  0.276991  1
  F  F20  1  0.780327  0.511005  0.223009  1
  F  F21  1  0.775224  0.275823  0.993993  1
  F  F22  1  0.010973  0.275491  0.216693  1
  F  F23  1  0.275491  0.010973  0.716693  1
  F  F24  1  0.275823  0.775224  0.493993  1
  F  F25  1  0.511005  0.780326  0.723009  1
  F  F26  1  0.552302  0.156531  0.812793  1
  F  F27  1  0.186997  0.053754  0.345970  1
  F  F28  1  0.650283  0.682475  0.445163  1
  F  F29  1  0.682475  0.650283  0.945163  1
  F  F30  1  0.053754  0.186997  0.845970  1
  F  F31  1  0.156531  0.552302  0.312793  1
  F  F32  1  0.447698  0.843469  0.187207  1
  F  F33  1  0.813003  0.946246  0.654030  1
  F  F34  1  0.349717  0.317525  0.554837  1
  F  F35  1  0.317525  0.349717  0.054837  1
  F  F36  1  0.946246  0.813003  0.154030  1
  F  F37  1  0.843469  0.447698  0.687207  1
