# generated using pymatgen
data_DyY2B7Os
_symmetry_space_group_name_H-M   'P 1'
_cell_length_a   8.07279803
_cell_length_b   8.07279866
_cell_length_c   9.34025802
_cell_angle_alpha   89.99224161
_cell_angle_beta   90.00775919
_cell_angle_gamma   154.80079595
_symmetry_Int_Tables_number   1
_chemical_formula_structural   DyY2B7Os
_chemical_formula_sum   'Dy2 Y4 B14 Os2'
_cell_volume   259.16645687
_cell_formula_units_Z   2
loop_
 _symmetry_equiv_pos_site_id
 _symmetry_equiv_pos_as_xyz
  1  'x, y, z'
loop_
 _atom_site_type_symbol
 _atom_site_label
 _atom_site_symmetry_multiplicity
 _atom_site_fract_x
 _atom_site_fract_y
 _atom_site_fract_z
 _atom_site_occupancy
  Dy  Dy0  1  0.105911  0.894089  0.060213  1
  Dy  Dy1  1  0.894089  0.105911  0.939787  1
  Y  Y2  1  0.755734  0.244266  0.249940  1
  Y  Y3  1  0.244266  0.755734  0.750060  1
  Y  Y4  1  0.893926  0.106074  0.560563  1
  Y  Y5  1  0.106074  0.893926  0.439437  1
  B  B6  1  0.542443  0.457557  0.249856  1
  B  B7  1  0.457557  0.542443  0.750144  1
  B  B8  1  0.521016  0.478984  0.903740  1
  B  B9  1  0.478984  0.521016  0.096260  1
  B  B10  1  0.478989  0.521011  0.403603  1
  B  B11  1  0.521011  0.478989  0.596397  1
  B  B12  1  0.631958  0.368042  0.849505  1
  B  B13  1  0.368042  0.631958  0.150495  1
  B  B14  1  0.727246  0.272754  0.966085  1
  B  B15  1  0.272754  0.727246  0.033915  1
  B  B16  1  0.272757  0.727243  0.466011  1
  B  B17  1  0.727243  0.272757  0.533989  1
  B  B18  1  0.631958  0.368042  0.650696  1
  B  B19  1  0.368042  0.631958  0.349304  1
  Os  Os20  1  0.945849  0.054151  0.249803  1
  Os  Os21  1  0.054151  0.945849  0.750197  1
