# generated using pymatgen
data_Ho7Tm(Si4Mo3)4
_symmetry_space_group_name_H-M   'P 1'
_cell_length_a   6.75758202
_cell_length_b   6.94327185
_cell_length_c   12.91957313
_cell_angle_alpha   89.98489791
_cell_angle_beta   89.99749487
_cell_angle_gamma   89.98426309
_symmetry_Int_Tables_number   1
_chemical_formula_structural   Ho7Tm(Si4Mo3)4
_chemical_formula_sum   'Ho7 Tm1 Si16 Mo12'
_cell_volume   606.18282587
_cell_formula_units_Z   1
loop_
 _symmetry_equiv_pos_site_id
 _symmetry_equiv_pos_as_xyz
  1  'x, y, z'
loop_
 _atom_site_type_symbol
 _atom_site_label
 _atom_site_symmetry_multiplicity
 _atom_site_fract_x
 _atom_site_fract_y
 _atom_site_fract_z
 _atom_site_occupancy
  Ho  Ho0  1  0.497159  0.332710  0.093971  1
  Ho  Ho1  1  0.997132  0.167208  0.406097  1
  Ho  Ho2  1  0.502900  0.667135  0.593913  1
  Ho  Ho3  1  0.002658  0.832703  0.906450  1
  Ho  Ho4  1  0.502717  0.667482  0.906376  1
  Ho  Ho5  1  0.002824  0.832784  0.593917  1
  Ho  Ho6  1  0.497059  0.332748  0.405660  1
  Tm  Tm7  1  0.996577  0.167592  0.094104  1
  Si  Si8  1  0.659077  0.041617  0.547283  1
  Si  Si9  1  0.159175  0.457979  0.953045  1
  Si  Si10  1  0.339650  0.959250  0.047501  1
  Si  Si11  1  0.840859  0.541640  0.452526  1
  Si  Si12  1  0.340935  0.958351  0.452435  1
  Si  Si13  1  0.841238  0.540583  0.047546  1
  Si  Si14  1  0.659415  0.041592  0.953113  1
  Si  Si15  1  0.159153  0.458477  0.547275  1
  Si  Si16  1  0.534829  0.366352  0.750258  1
  Si  Si17  1  0.034740  0.133450  0.750078  1
  Si  Si18  1  0.465444  0.633785  0.249740  1
  Si  Si19  1  0.965568  0.867200  0.249637  1
  Si  Si20  1  0.802507  0.629565  0.750244  1
  Si  Si21  1  0.302340  0.870157  0.750118  1
  Si  Si22  1  0.197007  0.369581  0.249517  1
  Si  Si23  1  0.698240  0.129925  0.249610  1
  Mo  Mo24  1  0.830382  0.334606  0.625163  1
  Mo  Mo25  1  0.330163  0.165161  0.875166  1
  Mo  Mo26  1  0.169616  0.665442  0.125085  1
  Mo  Mo27  1  0.669784  0.834882  0.374567  1
  Mo  Mo28  1  0.169569  0.665270  0.374560  1
  Mo  Mo29  1  0.670090  0.835046  0.124823  1
  Mo  Mo30  1  0.830714  0.334189  0.875280  1
  Mo  Mo31  1  0.330454  0.165284  0.625100  1
  Mo  Mo32  1  0.666058  0.998626  0.750194  1
  Mo  Mo33  1  0.166122  0.501248  0.750162  1
  Mo  Mo34  1  0.333817  0.001921  0.249698  1
  Mo  Mo35  1  0.834029  0.498462  0.249791  1
