# generated using pymatgen
data_U4Mn4Re3Si5Ge
_symmetry_space_group_name_H-M   'P 1'
_cell_length_a   7.00939072
_cell_length_b   7.00722524
_cell_length_c   7.00722636
_cell_angle_alpha   109.92934098
_cell_angle_beta   109.36537241
_cell_angle_gamma   109.10767015
_symmetry_Int_Tables_number   1
_chemical_formula_structural   U4Mn4Re3Si5Ge
_chemical_formula_sum   'U4 Mn4 Re3 Si5 Ge1'
_cell_volume   264.96804032
_cell_formula_units_Z   1
loop_
 _symmetry_equiv_pos_site_id
 _symmetry_equiv_pos_as_xyz
  1  'x, y, z'
loop_
 _atom_site_type_symbol
 _atom_site_label
 _atom_site_symmetry_multiplicity
 _atom_site_fract_x
 _atom_site_fract_y
 _atom_site_fract_z
 _atom_site_occupancy
  U  U0  1  0.503840  0.501329  0.507214  1
  U  U1  1  0.996057  0.999004  0.493279  1
  U  U2  1  0.503840  0.996627  0.002511  1
  U  U3  1  0.996057  0.502779  0.997054  1
  Mn  Mn4  1  0.753863  0.251795  0.502068  1
  Mn  Mn5  1  0.502987  0.253508  0.746669  1
  Mn  Mn6  1  0.502987  0.756318  0.249479  1
  Mn  Mn7  1  0.250171  0.501534  0.748637  1
  Re  Re8  1  0.749470  0.498704  0.250766  1
  Re  Re9  1  0.254405  0.752379  0.502025  1
  Re  Re10  1  0.990429  0.989860  0.000568  1
  Si  Si11  1  0.002495  0.312701  0.321249  1
  Si  Si12  1  0.002495  0.681246  0.689794  1
  Si  Si13  1  0.687335  0.006628  0.680706  1
  Si  Si14  1  0.326355  0.006226  0.320128  1
  Si  Si15  1  0.671395  0.676627  0.994768  1
  Ge  Ge16  1  0.305819  0.312737  0.993082  1
