# generated using pymatgen
data_CaLu(Si7Ir3)2
_symmetry_space_group_name_H-M   'P 1'
_cell_length_a   8.02160139
_cell_length_b   8.02160189
_cell_length_c   8.02160122
_cell_angle_alpha   56.74727365
_cell_angle_beta   56.74727302
_cell_angle_gamma   56.74727059
_symmetry_Int_Tables_number   1
_chemical_formula_structural   CaLu(Si7Ir3)2
_chemical_formula_sum   'Ca1 Lu1 Si14 Ir6'
_cell_volume   337.57183654
_cell_formula_units_Z   1
loop_
 _symmetry_equiv_pos_site_id
 _symmetry_equiv_pos_as_xyz
  1  'x, y, z'
loop_
 _atom_site_type_symbol
 _atom_site_label
 _atom_site_symmetry_multiplicity
 _atom_site_fract_x
 _atom_site_fract_y
 _atom_site_fract_z
 _atom_site_occupancy
  Ca  Ca0  1  0.000000  0.000000  0.000000  1
  Lu  Lu1  1  0.500000  0.500000  0.500000  1
  Si  Si2  1  0.065442  0.850883  0.673096  1
  Si  Si3  1  0.673096  0.065442  0.850883  1
  Si  Si4  1  0.850883  0.673096  0.065442  1
  Si  Si5  1  0.172627  0.349845  0.565534  1
  Si  Si6  1  0.565534  0.172627  0.349845  1
  Si  Si7  1  0.349845  0.565534  0.172627  1
  Si  Si8  1  0.934558  0.149117  0.326904  1
  Si  Si9  1  0.326904  0.934558  0.149117  1
  Si  Si10  1  0.149117  0.326904  0.934558  1
  Si  Si11  1  0.827373  0.650155  0.434466  1
  Si  Si12  1  0.434466  0.827373  0.650155  1
  Si  Si13  1  0.650155  0.434466  0.827373  1
  Si  Si14  1  0.749909  0.749909  0.749909  1
  Si  Si15  1  0.250091  0.250091  0.250091  1
  Ir  Ir16  1  0.073617  0.747341  0.431281  1
  Ir  Ir17  1  0.431281  0.073617  0.747341  1
  Ir  Ir18  1  0.747341  0.431281  0.073617  1
  Ir  Ir19  1  0.926383  0.252659  0.568719  1
  Ir  Ir20  1  0.568719  0.926383  0.252659  1
  Ir  Ir21  1  0.252659  0.568719  0.926383  1
