# generated using pymatgen
data_Tb8Ta9Ti2Si16W
_symmetry_space_group_name_H-M   'P 1'
_cell_length_a   7.03768469
_cell_length_b   7.02936690
_cell_length_c   13.02397150
_cell_angle_alpha   89.88177143
_cell_angle_beta   90.04894926
_cell_angle_gamma   89.98439530
_symmetry_Int_Tables_number   1
_chemical_formula_structural   Tb8Ta9Ti2Si16W
_chemical_formula_sum   'Tb8 Ta9 Ti2 Si16 W1'
_cell_volume   644.30033209
_cell_formula_units_Z   1
loop_
 _symmetry_equiv_pos_site_id
 _symmetry_equiv_pos_as_xyz
  1  'x, y, z'
loop_
 _atom_site_type_symbol
 _atom_site_label
 _atom_site_symmetry_multiplicity
 _atom_site_fract_x
 _atom_site_fract_y
 _atom_site_fract_z
 _atom_site_occupancy
  Tb  Tb0  1  0.341681  0.002342  0.467764  1
  Tb  Tb1  1  0.498207  0.841216  0.718905  1
  Tb  Tb2  1  0.500896  0.158542  0.216911  1
  Tb  Tb3  1  0.840796  0.497157  0.282571  1
  Tb  Tb4  1  0.159198  0.501758  0.782654  1
  Tb  Tb5  1  0.659418  0.997397  0.967431  1
  Tb  Tb6  1  0.003208  0.339385  0.532969  1
  Tb  Tb7  1  0.996755  0.660458  0.030799  1
  Ta  Ta8  1  0.328169  0.329220  0.998699  1
  Ta  Ta9  1  0.172533  0.826805  0.249459  1
  Ta  Ta10  1  0.828577  0.171748  0.750792  1
  Ta  Ta11  1  0.671360  0.670637  0.499374  1
  Ta  Ta12  1  0.491474  0.655407  0.123478  1
  Ta  Ta13  1  0.505974  0.345067  0.625197  1
  Ta  Ta14  1  0.653474  0.492097  0.875782  1
  Ta  Ta15  1  0.346016  0.507848  0.376252  1
  Ta  Ta16  1  0.844874  0.992251  0.374250  1
  Ti  Ti17  1  0.006554  0.154782  0.126726  1
  Ti  Ti18  1  0.991988  0.844613  0.625882  1
  Si  Si19  1  0.201072  0.129597  0.684637  1
  Si  Si20  1  0.366521  0.707307  0.931756  1
  Si  Si21  1  0.633285  0.295469  0.433438  1
  Si  Si22  1  0.703558  0.366239  0.067002  1
  Si  Si23  1  0.297585  0.634760  0.567739  1
  Si  Si24  1  0.798142  0.868515  0.182705  1
  Si  Si25  1  0.133345  0.201700  0.316312  1
  Si  Si26  1  0.871217  0.800719  0.817000  1
  Si  Si27  1  0.290187  0.957113  0.062648  1
  Si  Si28  1  0.544940  0.794037  0.313205  1
  Si  Si29  1  0.452874  0.205554  0.813962  1
  Si  Si30  1  0.794900  0.547208  0.685530  1
  Si  Si31  1  0.204317  0.453412  0.185073  1
  Si  Si32  1  0.708857  0.043740  0.564663  1
  Si  Si33  1  0.957037  0.290449  0.936939  1
  Si  Si34  1  0.044873  0.706128  0.436756  1
  W  W35  1  0.156140  0.009328  0.874738  1
