# generated using pymatgen
data_La8Nd2Co3Ru
_symmetry_space_group_name_H-M   'P 1'
_cell_length_a   9.08652350
_cell_length_b   9.10507035
_cell_length_c   7.16763835
_cell_angle_alpha   86.61041452
_cell_angle_beta   86.76744518
_cell_angle_gamma   43.06452149
_symmetry_Int_Tables_number   1
_chemical_formula_structural   La8Nd2Co3Ru
_chemical_formula_sum   'La8 Nd2 Co3 Ru1'
_cell_volume   404.13136039
_cell_formula_units_Z   1
loop_
 _symmetry_equiv_pos_site_id
 _symmetry_equiv_pos_as_xyz
  1  'x, y, z'
loop_
 _atom_site_type_symbol
 _atom_site_label
 _atom_site_symmetry_multiplicity
 _atom_site_fract_x
 _atom_site_fract_y
 _atom_site_fract_z
 _atom_site_occupancy
  La  La0  1  0.014538  0.801057  0.906486  1
  La  La1  1  0.203130  0.977772  0.607974  1
  La  La2  1  0.982160  0.204618  0.107420  1
  La  La3  1  0.793270  0.021591  0.396179  1
  La  La4  1  0.359970  0.216877  0.831404  1
  La  La5  1  0.785727  0.638078  0.663698  1
  La  La6  1  0.638505  0.783119  0.161964  1
  La  La7  1  0.217781  0.355376  0.325909  1
  Nd  Nd8  1  0.577802  0.423622  0.753418  1
  Nd  Nd9  1  0.427866  0.574361  0.248807  1
  Co  Co10  1  0.400431  0.823276  0.915831  1
  Co  Co11  1  0.828688  0.394975  0.415258  1
  Co  Co12  1  0.600084  0.176389  0.085692  1
  Ru  Ru13  1  0.170049  0.608888  0.579958  1
