# generated using pymatgen
data_Ho2Er10OsRh3
_symmetry_space_group_name_H-M   'P 1'
_cell_length_a   6.32033631
_cell_length_b   7.21889120
_cell_length_c   9.13660700
_cell_angle_alpha   90.00000000
_cell_angle_beta   90.00000000
_cell_angle_gamma   90.13943866
_symmetry_Int_Tables_number   1
_chemical_formula_structural   Ho2Er10OsRh3
_chemical_formula_sum   'Ho2 Er10 Os1 Rh3'
_cell_volume   416.86395355
_cell_formula_units_Z   1
loop_
 _symmetry_equiv_pos_site_id
 _symmetry_equiv_pos_as_xyz
  1  'x, y, z'
loop_
 _atom_site_type_symbol
 _atom_site_label
 _atom_site_symmetry_multiplicity
 _atom_site_fract_x
 _atom_site_fract_y
 _atom_site_fract_z
 _atom_site_occupancy
  Ho  Ho0  1  0.872328  0.535710  0.250000  1
  Ho  Ho1  1  0.629885  0.034867  0.250000  1
  Er  Er2  1  0.332933  0.677285  0.058652  1
  Er  Er3  1  0.170644  0.178149  0.437394  1
  Er  Er4  1  0.671383  0.323702  0.564016  1
  Er  Er5  1  0.825812  0.819933  0.935463  1
  Er  Er6  1  0.671383  0.323702  0.935984  1
  Er  Er7  1  0.825812  0.819933  0.564537  1
  Er  Er8  1  0.332933  0.677285  0.441348  1
  Er  Er9  1  0.170644  0.178149  0.062606  1
  Er  Er10  1  0.128233  0.465996  0.750000  1
  Er  Er11  1  0.371785  0.965290  0.750000  1
  Os  Os12  1  0.539312  0.615461  0.750000  1
  Rh  Rh13  1  0.046256  0.884955  0.250000  1
  Rh  Rh14  1  0.454364  0.384116  0.250000  1
  Rh  Rh15  1  0.956293  0.115465  0.750000  1
