# generated using pymatgen
data_Hf4Al5V2Au
_symmetry_space_group_name_H-M   'P 1'
_cell_length_a   5.27473300
_cell_length_b   5.29677904
_cell_length_c   8.63240200
_cell_angle_alpha   90.00000000
_cell_angle_beta   90.00000000
_cell_angle_gamma   119.86240589
_symmetry_Int_Tables_number   1
_chemical_formula_structural   Hf4Al5V2Au
_chemical_formula_sum   'Hf4 Al5 V2 Au1'
_cell_volume   209.15829944
_cell_formula_units_Z   1
loop_
 _symmetry_equiv_pos_site_id
 _symmetry_equiv_pos_as_xyz
  1  'x, y, z'
loop_
 _atom_site_type_symbol
 _atom_site_label
 _atom_site_symmetry_multiplicity
 _atom_site_fract_x
 _atom_site_fract_y
 _atom_site_fract_z
 _atom_site_occupancy
  Hf  Hf0  1  0.334892  0.669786  0.425325  1
  Hf  Hf1  1  0.662138  0.324276  0.949324  1
  Hf  Hf2  1  0.662138  0.324276  0.550676  1
  Hf  Hf3  1  0.334892  0.669786  0.074675  1
  Al  Al4  1  0.656190  0.822549  0.750000  1
  Al  Al5  1  0.006784  0.013569  0.003916  1
  Al  Al6  1  0.006784  0.013569  0.496084  1
  Al  Al7  1  0.831289  0.662577  0.250000  1
  Al  Al8  1  0.166356  0.822549  0.750000  1
  V  V9  1  0.814036  0.169440  0.250000  1
  V  V10  1  0.355405  0.169440  0.250000  1
  Au  Au11  1  0.169092  0.338186  0.750000  1
