# generated using pymatgen
data_Er2AlGaPdRh
_symmetry_space_group_name_H-M   'P 1'
_cell_length_a   4.31741600
_cell_length_b   6.82243797
_cell_length_c   7.82863609
_cell_angle_alpha   90.06080080
_cell_angle_beta   90.00000000
_cell_angle_gamma   90.00000000
_symmetry_Int_Tables_number   1
_chemical_formula_structural   Er2AlGaPdRh
_chemical_formula_sum   'Er4 Al2 Ga2 Pd2 Rh2'
_cell_volume   230.59471713
_cell_formula_units_Z   2
loop_
 _symmetry_equiv_pos_site_id
 _symmetry_equiv_pos_as_xyz
  1  'x, y, z'
loop_
 _atom_site_type_symbol
 _atom_site_label
 _atom_site_symmetry_multiplicity
 _atom_site_fract_x
 _atom_site_fract_y
 _atom_site_fract_z
 _atom_site_occupancy
  Er  Er0  1  0.250000  0.036146  0.317085  1
  Er  Er1  1  0.250000  0.535401  0.176172  1
  Er  Er2  1  0.750000  0.970269  0.688878  1
  Er  Er3  1  0.750000  0.472367  0.818265  1
  Al  Al4  1  0.250000  0.637510  0.564123  1
  Al  Al5  1  0.750000  0.357354  0.440690  1
  Ga  Ga6  1  0.250000  0.147950  0.934042  1
  Ga  Ga7  1  0.750000  0.848513  0.061786  1
  Pd  Pd8  1  0.750000  0.732487  0.383200  1
  Pd  Pd9  1  0.750000  0.233581  0.124145  1
  Rh  Rh10  1  0.250000  0.264281  0.613936  1
  Rh  Rh11  1  0.250000  0.764141  0.877677  1
