# generated using pymatgen
data_ReI35
_symmetry_space_group_name_H-M   'P 1'
_cell_length_a   17.58017498
_cell_length_b   12.54030950
_cell_length_c   11.87107100
_cell_angle_alpha   88.81408644
_cell_angle_beta   66.02770740
_cell_angle_gamma   92.31545562
_symmetry_Int_Tables_number   1
_chemical_formula_structural   ReI35
_chemical_formula_sum   'Re1 I35'
_cell_volume   2387.43274716
_cell_formula_units_Z   1
loop_
 _symmetry_equiv_pos_site_id
 _symmetry_equiv_pos_as_xyz
  1  'x, y, z'
loop_
 _atom_site_type_symbol
 _atom_site_label
 _atom_site_symmetry_multiplicity
 _atom_site_fract_x
 _atom_site_fract_y
 _atom_site_fract_z
 _atom_site_occupancy
  Re  Re0  1  0.226433  0.442904  0.468769  1
  I  I1  1  0.517743  0.257849  0.526262  1
  I  I2  1  0.762731  0.584349  0.568758  1
  I  I3  1  0.475596  0.677628  0.740637  1
  I  I4  1  0.064787  0.884440  0.854020  1
  I  I5  1  0.896152  0.153923  0.006873  1
  I  I6  1  0.659848  0.305178  0.280130  1
  I  I7  1  0.604253  0.348465  0.845300  1
  I  I8  1  0.336401  0.745697  0.686039  1
  I  I9  1  0.330529  0.577303  0.245370  1
  I  I10  1  0.640627  0.135617  0.803561  1
  I  I11  1  0.917132  0.549502  0.365388  1
  I  I12  1  0.069841  0.956525  0.617237  1
  I  I13  1  0.901858  0.100374  0.249734  1
  I  I14  1  0.883940  0.212064  0.780113  1
  I  I15  1  0.651885  0.044798  0.239102  1
  I  I16  1  0.033532  0.808620  0.106982  1
  I  I17  1  0.355219  0.971596  0.724343  1
  I  I18  1  0.907255  0.320924  0.313760  1
  I  I19  1  0.880038  0.932049  0.710786  1
  I  I20  1  0.887284  0.675588  0.796590  1
  I  I21  1  0.309639  0.044466  0.280387  1
  I  I22  1  0.336135  0.320601  0.299053  1
  I  I23  1  0.613448  0.615781  0.802047  1
  I  I24  1  0.122140  0.403924  0.359564  1
  I  I25  1  0.704506  0.899217  0.802464  1
  I  I26  1  0.914568  0.457139  0.768829  1
  I  I27  1  0.481539  0.043339  0.260827  1
  I  I28  1  0.144883  0.305975  0.649121  1
  I  I29  1  0.670678  0.778419  0.266120  1
  I  I30  1  0.852980  0.798003  0.188094  1
  I  I31  1  0.379550  0.204830  0.755729  1
  I  I32  1  0.345443  0.482255  0.552758  1
  I  I33  1  0.657938  0.538829  0.255767  1
  I  I34  1  0.156043  0.620627  0.557467  1
  I  I35  1  0.307426  0.801203  0.272021  1
