# generated using pymatgen
data_NdDy10In9Ru4
_symmetry_space_group_name_H-M   'P 1'
_cell_length_a   3.83326200
_cell_length_b   12.89142856
_cell_length_c   12.89142736
_cell_angle_alpha   112.52488545
_cell_angle_beta   90.00000000
_cell_angle_gamma   90.00000000
_symmetry_Int_Tables_number   1
_chemical_formula_structural   NdDy10In9Ru4
_chemical_formula_sum   'Nd1 Dy10 In9 Ru4'
_cell_volume   588.44749923
_cell_formula_units_Z   1
loop_
 _symmetry_equiv_pos_site_id
 _symmetry_equiv_pos_as_xyz
  1  'x, y, z'
loop_
 _atom_site_type_symbol
 _atom_site_label
 _atom_site_symmetry_multiplicity
 _atom_site_fract_x
 _atom_site_fract_y
 _atom_site_fract_z
 _atom_site_occupancy
  Nd  Nd0  1  0.000000  0.000000  0.000000  1
  Dy  Dy1  1  0.000000  0.913656  0.580132  1
  Dy  Dy2  1  0.000000  0.086344  0.419868  1
  Dy  Dy3  1  0.000000  0.580132  0.913656  1
  Dy  Dy4  1  0.000000  0.419868  0.086344  1
  Dy  Dy5  1  0.000000  0.163444  0.836556  1
  Dy  Dy6  1  0.000000  0.836556  0.163444  1
  Dy  Dy7  1  0.000000  0.369486  0.630514  1
  Dy  Dy8  1  0.000000  0.630514  0.369486  1
  Dy  Dy9  1  0.000000  0.692319  0.692319  1
  Dy  Dy10  1  0.000000  0.307681  0.307681  1
  In  In11  1  0.500000  0.153208  0.631033  1
  In  In12  1  0.500000  0.846792  0.368967  1
  In  In13  1  0.500000  0.631033  0.153208  1
  In  In14  1  0.500000  0.368967  0.846792  1
  In  In15  1  0.500000  0.925710  0.777549  1
  In  In16  1  0.500000  0.074290  0.222451  1
  In  In17  1  0.500000  0.777549  0.925710  1
  In  In18  1  0.500000  0.222451  0.074290  1
  In  In19  1  0.500000  0.500000  0.500000  1
  Ru  Ru20  1  0.500000  0.740917  0.546574  1
  Ru  Ru21  1  0.500000  0.259083  0.453426  1
  Ru  Ru22  1  0.500000  0.546574  0.740917  1
  Ru  Ru23  1  0.500000  0.453426  0.259083  1
