# generated using pymatgen
data_Sc4Co7Si12Ir13
_symmetry_space_group_name_H-M   'P 1'
_cell_length_a   3.77300000
_cell_length_b   10.76248170
_cell_length_c   12.32725021
_cell_angle_alpha   90.22102775
_cell_angle_beta   90.00000000
_cell_angle_gamma   90.00000000
_symmetry_Int_Tables_number   1
_chemical_formula_structural   Sc4Co7Si12Ir13
_chemical_formula_sum   'Sc4 Co7 Si12 Ir13'
_cell_volume   500.56699498
_cell_formula_units_Z   1
loop_
 _symmetry_equiv_pos_site_id
 _symmetry_equiv_pos_as_xyz
  1  'x, y, z'
loop_
 _atom_site_type_symbol
 _atom_site_label
 _atom_site_symmetry_multiplicity
 _atom_site_fract_x
 _atom_site_fract_y
 _atom_site_fract_z
 _atom_site_occupancy
  Sc  Sc0  1  0.250000  0.582201  0.709505  1
  Sc  Sc1  1  0.250000  0.916886  0.207565  1
  Sc  Sc2  1  0.750000  0.417365  0.292468  1
  Sc  Sc3  1  0.750000  0.083337  0.793775  1
  Co  Co4  1  0.250000  0.613029  0.196839  1
  Co  Co5  1  0.750000  0.114651  0.302561  1
  Co  Co6  1  0.750000  0.384594  0.803885  1
  Co  Co7  1  0.250000  0.464776  0.933974  1
  Co  Co8  1  0.250000  0.034161  0.429025  1
  Co  Co9  1  0.750000  0.532257  0.068173  1
  Co  Co10  1  0.750000  0.967304  0.561760  1
  Si  Si11  1  0.250000  0.425752  0.114034  1
  Si  Si12  1  0.250000  0.081914  0.606681  1
  Si  Si13  1  0.750000  0.569982  0.888302  1
  Si  Si14  1  0.750000  0.925689  0.383500  1
  Si  Si15  1  0.250000  0.271145  0.871733  1
  Si  Si16  1  0.250000  0.229255  0.370639  1
  Si  Si17  1  0.750000  0.726536  0.129246  1
  Si  Si18  1  0.750000  0.770814  0.628348  1
  Si  Si19  1  0.250000  0.597850  0.382824  1
  Si  Si20  1  0.250000  0.900608  0.890371  1
  Si  Si21  1  0.750000  0.402643  0.616467  1
  Si  Si22  1  0.750000  0.098958  0.117151  1
  Ir  Ir23  1  0.250000  0.702377  0.991664  1
  Ir  Ir24  1  0.250000  0.795732  0.484235  1
  Ir  Ir25  1  0.750000  0.295231  0.010381  1
  Ir  Ir26  1  0.750000  0.205987  0.508880  1
  Ir  Ir27  1  0.250000  0.406969  0.483035  1
  Ir  Ir28  1  0.250000  0.094163  0.985238  1
  Ir  Ir29  1  0.750000  0.594260  0.516638  1
  Ir  Ir30  1  0.750000  0.905770  0.018512  1
  Ir  Ir31  1  0.250000  0.224303  0.181373  1
  Ir  Ir32  1  0.250000  0.279392  0.681571  1
  Ir  Ir33  1  0.750000  0.770506  0.822860  1
  Ir  Ir34  1  0.750000  0.722079  0.318185  1
  Ir  Ir35  1  0.250000  0.891526  0.698600  1
