# generated using pymatgen
data_Y2Ho13Lu(In3Co)2
_symmetry_space_group_name_H-M   'P 1'
_cell_length_a   10.31732300
_cell_length_b   10.31732477
_cell_length_c   7.00820800
_cell_angle_alpha   90.00000000
_cell_angle_beta   90.00000000
_cell_angle_gamma   120.00000393
_symmetry_Int_Tables_number   1
_chemical_formula_structural   Y2Ho13Lu(In3Co)2
_chemical_formula_sum   'Y2 Ho13 Lu1 In6 Co2'
_cell_volume   646.05832371
_cell_formula_units_Z   1
loop_
 _symmetry_equiv_pos_site_id
 _symmetry_equiv_pos_as_xyz
  1  'x, y, z'
loop_
 _atom_site_type_symbol
 _atom_site_label
 _atom_site_symmetry_multiplicity
 _atom_site_fract_x
 _atom_site_fract_y
 _atom_site_fract_z
 _atom_site_occupancy
  Y  Y0  1  0.000000  0.000000  0.494266  1
  Y  Y1  1  0.000000  0.000000  0.995693  1
  Ho  Ho2  1  0.464974  0.535026  0.483367  1
  Ho  Ho3  1  0.070053  0.535026  0.483367  1
  Ho  Ho4  1  0.464974  0.929947  0.483367  1
  Ho  Ho5  1  0.535832  0.464168  0.981893  1
  Ho  Ho6  1  0.928336  0.464168  0.981893  1
  Ho  Ho7  1  0.535832  0.071664  0.981893  1
  Ho  Ho8  1  0.820894  0.179106  0.277188  1
  Ho  Ho9  1  0.358211  0.179106  0.277188  1
  Ho  Ho10  1  0.820894  0.641789  0.277188  1
  Ho  Ho11  1  0.178524  0.821476  0.776014  1
  Ho  Ho12  1  0.642952  0.821476  0.776014  1
  Ho  Ho13  1  0.178524  0.357048  0.776014  1
  Ho  Ho14  1  0.333333  0.666667  0.092490  1
  Lu  Lu15  1  0.666667  0.333333  0.588848  1
  In  In16  1  0.162976  0.837024  0.234404  1
  In  In17  1  0.674046  0.837024  0.234404  1
  In  In18  1  0.162976  0.325954  0.234404  1
  In  In19  1  0.836266  0.163734  0.733346  1
  In  In20  1  0.327468  0.163734  0.733346  1
  In  In21  1  0.836266  0.672532  0.733346  1
  Co  Co22  1  0.333333  0.666667  0.707848  1
  Co  Co23  1  0.666667  0.333333  0.206772  1
