# generated using pymatgen
data_Ho5Lu(Ni7B2)2
_symmetry_space_group_name_H-M   'P 1'
_cell_length_a   5.04356520
_cell_length_b   5.04356511
_cell_length_c   14.32701459
_cell_angle_alpha   90.02906881
_cell_angle_beta   89.97093018
_cell_angle_gamma   119.95451983
_symmetry_Int_Tables_number   1
_chemical_formula_structural   Ho5Lu(Ni7B2)2
_chemical_formula_sum   'Ho5 Lu1 Ni14 B4'
_cell_volume   315.76237554
_cell_formula_units_Z   1
loop_
 _symmetry_equiv_pos_site_id
 _symmetry_equiv_pos_as_xyz
  1  'x, y, z'
loop_
 _atom_site_type_symbol
 _atom_site_label
 _atom_site_symmetry_multiplicity
 _atom_site_fract_x
 _atom_site_fract_y
 _atom_site_fract_z
 _atom_site_occupancy
  Ho  Ho0  1  0.333522  0.666478  0.967677  1
  Ho  Ho1  1  0.332878  0.667122  0.533066  1
  Ho  Ho2  1  0.666635  0.333365  0.466855  1
  Ho  Ho3  1  0.666371  0.333629  0.248940  1
  Ho  Ho4  1  0.333620  0.666380  0.750528  1
  Lu  Lu5  1  0.666932  0.333068  0.032392  1
  Ni  Ni6  1  0.834380  0.668755  0.649242  1
  Ni  Ni7  1  0.834499  0.165501  0.649255  1
  Ni  Ni8  1  0.331245  0.165620  0.649242  1
  Ni  Ni9  1  0.165310  0.331567  0.350803  1
  Ni  Ni10  1  0.165272  0.834728  0.350806  1
  Ni  Ni11  1  0.668433  0.834690  0.350803  1
  Ni  Ni12  1  0.165580  0.331500  0.147909  1
  Ni  Ni13  1  0.165488  0.834512  0.147995  1
  Ni  Ni14  1  0.668500  0.834420  0.147909  1
  Ni  Ni15  1  0.834610  0.667742  0.851890  1
  Ni  Ni16  1  0.834506  0.165494  0.852044  1
  Ni  Ni17  1  0.332258  0.165390  0.851890  1
  Ni  Ni18  1  0.999587  0.000413  0.500189  1
  Ni  Ni19  1  0.000413  0.999587  0.000193  1
  B  B20  1  0.666878  0.333122  0.750164  1
  B  B21  1  0.333182  0.666818  0.249833  1
  B  B22  1  0.000305  0.999695  0.750910  1
  B  B23  1  0.999595  0.000405  0.249465  1
