# generated using pymatgen
data_La4SmGdIn6O18
_symmetry_space_group_name_H-M   'P 1'
_cell_length_a   6.57937500
_cell_length_b   6.57937708
_cell_length_c   12.52504900
_cell_angle_alpha   90.00000000
_cell_angle_beta   90.00000000
_cell_angle_gamma   119.99999459
_symmetry_Int_Tables_number   1
_chemical_formula_structural   La4SmGdIn6O18
_chemical_formula_sum   'La4 Sm1 Gd1 In6 O18'
_cell_volume   469.54747187
_cell_formula_units_Z   1
loop_
 _symmetry_equiv_pos_site_id
 _symmetry_equiv_pos_as_xyz
  1  'x, y, z'
loop_
 _atom_site_type_symbol
 _atom_site_label
 _atom_site_symmetry_multiplicity
 _atom_site_fract_x
 _atom_site_fract_y
 _atom_site_fract_z
 _atom_site_occupancy
  La  La0  1  0.666667  0.333333  0.963967  1
  La  La1  1  0.333333  0.666667  0.464183  1
  La  La2  1  0.666667  0.333333  0.464183  1
  La  La3  1  0.333333  0.666667  0.963967  1
  Sm  Sm4  1  0.000000  0.000000  0.997988  1
  Gd  Gd5  1  0.000000  0.000000  0.497324  1
  In  In6  1  0.669522  0.669522  0.727300  1
  In  In7  1  0.000000  0.330478  0.727300  1
  In  In8  1  0.330569  0.330569  0.227623  1
  In  In9  1  0.000000  0.669431  0.227623  1
  In  In10  1  0.330478  0.000000  0.727300  1
  In  In11  1  0.669431  0.000000  0.227623  1
  O  O12  1  0.698970  0.698970  0.895522  1
  O  O13  1  0.000000  0.301030  0.895522  1
  O  O14  1  0.299406  0.299406  0.395871  1
  O  O15  1  0.000000  0.700594  0.395871  1
  O  O16  1  0.301030  0.000000  0.895522  1
  O  O17  1  0.700594  0.000000  0.395871  1
  O  O18  1  0.651411  0.651411  0.559169  1
  O  O19  1  0.000000  0.348589  0.559169  1
  O  O20  1  0.350080  0.350080  0.059487  1
  O  O21  1  0.000000  0.649920  0.059487  1
  O  O22  1  0.348589  0.000000  0.559169  1
  O  O23  1  0.649920  0.000000  0.059487  1
  O  O24  1  0.000000  0.000000  0.697064  1
  O  O25  1  0.000000  0.000000  0.197322  1
  O  O26  1  0.666667  0.333333  0.747661  1
  O  O27  1  0.333333  0.666667  0.247771  1
  O  O28  1  0.666667  0.333333  0.247771  1
  O  O29  1  0.333333  0.666667  0.747661  1
