# generated using pymatgen
data_YMn4TcP3
_symmetry_space_group_name_H-M   'P 1'
_cell_length_a   3.71539300
_cell_length_b   10.64035600
_cell_length_c   12.10972800
_cell_angle_alpha   90.00000000
_cell_angle_beta   90.00000000
_cell_angle_gamma   90.00000000
_symmetry_Int_Tables_number   1
_chemical_formula_structural   YMn4TcP3
_chemical_formula_sum   'Y4 Mn16 Tc4 P12'
_cell_volume   478.73513886
_cell_formula_units_Z   4
loop_
 _symmetry_equiv_pos_site_id
 _symmetry_equiv_pos_as_xyz
  1  'x, y, z'
loop_
 _atom_site_type_symbol
 _atom_site_label
 _atom_site_symmetry_multiplicity
 _atom_site_fract_x
 _atom_site_fract_y
 _atom_site_fract_z
 _atom_site_occupancy
  Y  Y0  1  0.250000  0.587771  0.706136  1
  Y  Y1  1  0.250000  0.912229  0.206136  1
  Y  Y2  1  0.750000  0.412229  0.293864  1
  Y  Y3  1  0.750000  0.087771  0.793864  1
  Mn  Mn4  1  0.250000  0.411810  0.495242  1
  Mn  Mn5  1  0.250000  0.088190  0.995242  1
  Mn  Mn6  1  0.750000  0.588190  0.504758  1
  Mn  Mn7  1  0.750000  0.911810  0.004758  1
  Mn  Mn8  1  0.250000  0.209692  0.183433  1
  Mn  Mn9  1  0.250000  0.290308  0.683433  1
  Mn  Mn10  1  0.750000  0.790308  0.816567  1
  Mn  Mn11  1  0.750000  0.709692  0.316567  1
  Mn  Mn12  1  0.250000  0.884601  0.692303  1
  Mn  Mn13  1  0.250000  0.615399  0.192303  1
  Mn  Mn14  1  0.750000  0.115399  0.307697  1
  Mn  Mn15  1  0.750000  0.384601  0.807697  1
  Mn  Mn16  1  0.250000  0.466087  0.934960  1
  Mn  Mn17  1  0.250000  0.033913  0.434960  1
  Mn  Mn18  1  0.750000  0.533913  0.065040  1
  Mn  Mn19  1  0.750000  0.966087  0.565040  1
  Tc  Tc20  1  0.250000  0.710956  0.983431  1
  Tc  Tc21  1  0.250000  0.789044  0.483431  1
  Tc  Tc22  1  0.750000  0.289044  0.016569  1
  Tc  Tc23  1  0.750000  0.210956  0.516569  1
  P  P24  1  0.250000  0.411093  0.115891  1
  P  P25  1  0.250000  0.088907  0.615891  1
  P  P26  1  0.750000  0.588907  0.884109  1
  P  P27  1  0.750000  0.911093  0.384109  1
  P  P28  1  0.250000  0.264141  0.875788  1
  P  P29  1  0.250000  0.235859  0.375788  1
  P  P30  1  0.750000  0.735859  0.124212  1
  P  P31  1  0.750000  0.764141  0.624212  1
  P  P32  1  0.250000  0.593015  0.384530  1
  P  P33  1  0.250000  0.906985  0.884530  1
  P  P34  1  0.750000  0.406985  0.615470  1
  P  P35  1  0.750000  0.093015  0.115470  1
