# generated using pymatgen
data_Pr11In9Pd3Rh
_symmetry_space_group_name_H-M   'P 1'
_cell_length_a   13.54545017
_cell_length_b   13.56625780
_cell_length_c   3.85988200
_cell_angle_alpha   90.00000000
_cell_angle_beta   90.00000000
_cell_angle_gamma   111.50133577
_symmetry_Int_Tables_number   1
_chemical_formula_structural   Pr11In9Pd3Rh
_chemical_formula_sum   'Pr11 In9 Pd3 Rh1'
_cell_volume   659.93543816
_cell_formula_units_Z   1
loop_
 _symmetry_equiv_pos_site_id
 _symmetry_equiv_pos_as_xyz
  1  'x, y, z'
loop_
 _atom_site_type_symbol
 _atom_site_label
 _atom_site_symmetry_multiplicity
 _atom_site_fract_x
 _atom_site_fract_y
 _atom_site_fract_z
 _atom_site_occupancy
  Pr  Pr0  1  0.500332  0.500351  0.500000  1
  Pr  Pr1  1  0.806944  0.807528  0.500000  1
  Pr  Pr2  1  0.186727  0.193539  0.500000  1
  Pr  Pr3  1  0.571836  0.918644  0.500000  1
  Pr  Pr4  1  0.428739  0.082211  0.500000  1
  Pr  Pr5  1  0.917722  0.570444  0.500000  1
  Pr  Pr6  1  0.080398  0.423786  0.500000  1
  Pr  Pr7  1  0.130068  0.871020  0.500000  1
  Pr  Pr8  1  0.876877  0.134022  0.500000  1
  Pr  Pr9  1  0.341209  0.658717  0.500000  1
  Pr  Pr10  1  0.658983  0.341515  0.500000  1
  In  In11  1  0.339621  0.866158  0.000000  1
  In  In12  1  0.661352  0.133681  0.000000  1
  In  In13  1  0.865587  0.337788  0.000000  1
  In  In14  1  0.133141  0.659637  0.000000  1
  In  In15  1  0.576290  0.719602  0.000000  1
  In  In16  1  0.422375  0.280259  0.000000  1
  In  In17  1  0.720069  0.576857  0.000000  1
  In  In18  1  0.279719  0.422053  0.000000  1
  In  In19  1  0.999148  0.999446  0.000000  1
  Pd  Pd20  1  0.748117  0.949731  0.000000  1
  Pd  Pd21  1  0.251709  0.049187  0.000000  1
  Pd  Pd22  1  0.951008  0.748015  0.000000  1
  Rh  Rh23  1  0.052031  0.255807  0.000000  1
