# generated using pymatgen
data_Dy3In4NiRu
_symmetry_space_group_name_H-M   'P 1'
_cell_length_a   7.93192500
_cell_length_b   7.93192441
_cell_length_c   3.70487900
_cell_angle_alpha   90.00000000
_cell_angle_beta   90.00000000
_cell_angle_gamma   120.00001498
_symmetry_Int_Tables_number   1
_chemical_formula_structural   Dy3In4NiRu
_chemical_formula_sum   'Dy3 In4 Ni1 Ru1'
_cell_volume   201.86534135
_cell_formula_units_Z   1
loop_
 _symmetry_equiv_pos_site_id
 _symmetry_equiv_pos_as_xyz
  1  'x, y, z'
loop_
 _atom_site_type_symbol
 _atom_site_label
 _atom_site_symmetry_multiplicity
 _atom_site_fract_x
 _atom_site_fract_y
 _atom_site_fract_z
 _atom_site_occupancy
  Dy  Dy0  1  0.048611  0.295878  0.500000  1
  Dy  Dy1  1  0.704122  0.752732  0.500000  1
  Dy  Dy2  1  0.247268  0.951389  0.500000  1
  In  In3  1  0.667286  0.083071  0.000000  1
  In  In4  1  0.916929  0.584216  0.000000  1
  In  In5  1  0.415784  0.332714  0.000000  1
  In  In6  1  0.333333  0.666667  0.000000  1
  Ni  Ni7  1  0.666667  0.333333  0.500000  1
  Ru  Ru8  1  0.000000  0.000000  0.000000  1
