# generated using pymatgen
data_Tb3GaSiIr2
_symmetry_space_group_name_H-M   'P 1'
_cell_length_a   5.55538800
_cell_length_b   8.05151900
_cell_length_c   13.18891500
_cell_angle_alpha   90.00000000
_cell_angle_beta   90.00000000
_cell_angle_gamma   90.00000000
_symmetry_Int_Tables_number   1
_chemical_formula_structural   Tb3GaSiIr2
_chemical_formula_sum   'Tb12 Ga4 Si4 Ir8'
_cell_volume   589.93109443
_cell_formula_units_Z   4
loop_
 _symmetry_equiv_pos_site_id
 _symmetry_equiv_pos_as_xyz
  1  'x, y, z'
loop_
 _atom_site_type_symbol
 _atom_site_label
 _atom_site_symmetry_multiplicity
 _atom_site_fract_x
 _atom_site_fract_y
 _atom_site_fract_z
 _atom_site_occupancy
  Tb  Tb0  1  0.633930  0.258880  0.250000  1
  Tb  Tb1  1  0.366070  0.741120  0.750000  1
  Tb  Tb2  1  0.366070  0.758880  0.250000  1
  Tb  Tb3  1  0.633930  0.241120  0.750000  1
  Tb  Tb4  1  0.150078  0.397625  0.101872  1
  Tb  Tb5  1  0.849922  0.602375  0.898128  1
  Tb  Tb6  1  0.849922  0.602375  0.601872  1
  Tb  Tb7  1  0.849922  0.897625  0.398128  1
  Tb  Tb8  1  0.150078  0.397625  0.398128  1
  Tb  Tb9  1  0.150078  0.102375  0.601872  1
  Tb  Tb10  1  0.150078  0.102375  0.898128  1
  Tb  Tb11  1  0.849922  0.897625  0.101872  1
  Ga  Ga12  1  0.627532  0.250000  0.000000  1
  Ga  Ga13  1  0.372468  0.750000  0.000000  1
  Ga  Ga14  1  0.372468  0.750000  0.500000  1
  Ga  Ga15  1  0.627532  0.250000  0.500000  1
  Si  Si16  1  0.135314  0.110856  0.250000  1
  Si  Si17  1  0.864686  0.889144  0.750000  1
  Si  Si18  1  0.864686  0.610856  0.250000  1
  Si  Si19  1  0.135314  0.389144  0.750000  1
  Ir  Ir20  1  0.348054  0.030686  0.095092  1
  Ir  Ir21  1  0.651946  0.969314  0.904908  1
  Ir  Ir22  1  0.651946  0.969314  0.595092  1
  Ir  Ir23  1  0.651946  0.530686  0.404908  1
  Ir  Ir24  1  0.348054  0.030686  0.404908  1
  Ir  Ir25  1  0.348054  0.469314  0.595092  1
  Ir  Ir26  1  0.348054  0.469314  0.904908  1
  Ir  Ir27  1  0.651946  0.530686  0.095092  1
