# generated using pymatgen
data_TbYb3CdRu
_symmetry_space_group_name_H-M   'P 1'
_cell_length_a   9.82594699
_cell_length_b   9.82594677
_cell_length_c   9.82594600
_cell_angle_alpha   60.00000258
_cell_angle_beta   60.00000335
_cell_angle_gamma   59.99999952
_symmetry_Int_Tables_number   1
_chemical_formula_structural   TbYb3CdRu
_chemical_formula_sum   'Tb4 Yb12 Cd4 Ru4'
_cell_volume   670.82342110
_cell_formula_units_Z   4
loop_
 _symmetry_equiv_pos_site_id
 _symmetry_equiv_pos_as_xyz
  1  'x, y, z'
loop_
 _atom_site_type_symbol
 _atom_site_label
 _atom_site_symmetry_multiplicity
 _atom_site_fract_x
 _atom_site_fract_y
 _atom_site_fract_z
 _atom_site_occupancy
  Tb  Tb0  1  0.589994  0.589994  0.589994  1
  Tb  Tb1  1  0.589994  0.589994  0.230017  1
  Tb  Tb2  1  0.589994  0.230017  0.589994  1
  Tb  Tb3  1  0.230017  0.589994  0.589994  1
  Yb  Yb4  1  0.055853  0.444147  0.444147  1
  Yb  Yb5  1  0.444147  0.055853  0.055853  1
  Yb  Yb6  1  0.444147  0.055853  0.444147  1
  Yb  Yb7  1  0.055853  0.444147  0.055853  1
  Yb  Yb8  1  0.444147  0.444147  0.055853  1
  Yb  Yb9  1  0.055853  0.055853  0.444147  1
  Yb  Yb10  1  0.201198  0.798802  0.798802  1
  Yb  Yb11  1  0.798802  0.201198  0.201198  1
  Yb  Yb12  1  0.798802  0.201198  0.798802  1
  Yb  Yb13  1  0.201198  0.798802  0.201198  1
  Yb  Yb14  1  0.798802  0.798802  0.201198  1
  Yb  Yb15  1  0.201198  0.201198  0.798802  1
  Cd  Cd16  1  0.829967  0.829967  0.829967  1
  Cd  Cd17  1  0.829967  0.829967  0.510096  1
  Cd  Cd18  1  0.829967  0.510096  0.829967  1
  Cd  Cd19  1  0.510096  0.829967  0.829967  1
  Ru  Ru20  1  0.388161  0.388161  0.388161  1
  Ru  Ru21  1  0.388161  0.388161  0.835519  1
  Ru  Ru22  1  0.388161  0.835519  0.388161  1
  Ru  Ru23  1  0.835519  0.388161  0.388161  1
