# generated using pymatgen
data_CsMnV(PO3)6
_symmetry_space_group_name_H-M   'P 1'
_cell_length_a   6.43974117
_cell_length_b   15.98059344
_cell_length_c   8.57664500
_cell_angle_alpha   80.03133690
_cell_angle_beta   103.81831740
_cell_angle_gamma   88.95732819
_symmetry_Int_Tables_number   1
_chemical_formula_structural   CsMnV(PO3)6
_chemical_formula_sum   'Cs2 Mn2 V2 P12 O36'
_cell_volume   842.50769616
_cell_formula_units_Z   2
loop_
 _symmetry_equiv_pos_site_id
 _symmetry_equiv_pos_as_xyz
  1  'x, y, z'
loop_
 _atom_site_type_symbol
 _atom_site_label
 _atom_site_symmetry_multiplicity
 _atom_site_fract_x
 _atom_site_fract_y
 _atom_site_fract_z
 _atom_site_occupancy
  Cs  Cs0  1  0.070558  0.474700  0.487119  1
  Cs  Cs1  1  0.570791  0.974826  0.987689  1
  Mn  Mn2  1  0.617178  0.389299  0.835226  1
  Mn  Mn3  1  0.117284  0.889361  0.335299  1
  V  V4  1  0.391559  0.611168  0.169590  1
  V  V5  1  0.891427  0.111139  0.669580  1
  P  P6  1  0.897335  0.203550  0.982347  1
  P  P7  1  0.396660  0.703436  0.482143  1
  P  P8  1  0.006591  0.094486  0.315679  1
  P  P9  1  0.506351  0.594517  0.815564  1
  P  P10  1  0.600255  0.295226  0.514192  1
  P  P11  1  0.100680  0.795336  0.014414  1
  P  P12  1  0.490011  0.407879  0.184162  1
  P  P13  1  0.989979  0.907770  0.684174  1
  P  P14  1  0.144438  0.357107  0.923604  1
  P  P15  1  0.644577  0.856745  0.423838  1
  P  P16  1  0.356854  0.142061  0.571442  1
  P  P17  1  0.856976  0.642142  0.071036  1
  O  O18  1  0.926384  0.177359  0.177356  1
  O  O19  1  0.425227  0.677262  0.677088  1
  O  O20  1  0.575940  0.323919  0.321834  1
  O  O21  1  0.077098  0.824047  0.822133  1
  O  O22  1  0.690488  0.255142  0.916923  1
  O  O23  1  0.190075  0.755167  0.416577  1
  O  O24  1  0.870618  0.092502  0.437225  1
  O  O25  1  0.370762  0.592516  0.937384  1
  O  O26  1  0.800633  0.236645  0.577573  1
  O  O27  1  0.301110  0.736819  0.078153  1
  O  O28  1  0.642534  0.417424  0.077283  1
  O  O29  1  0.142263  0.917520  0.577111  1
  O  O30  1  0.294026  0.360261  0.814475  1
  O  O31  1  0.794110  0.859988  0.314650  1
  O  O32  1  0.570253  0.093103  0.641349  1
  O  O33  1  0.070312  0.593068  0.140537  1
  O  O34  1  0.205310  0.132872  0.681849  1
  O  O35  1  0.705621  0.632836  0.181596  1
  O  O36  1  0.941573  0.411791  0.858780  1
  O  O37  1  0.441870  0.911540  0.359305  1
  O  O38  1  0.925050  0.126159  0.907009  1
  O  O39  1  0.424086  0.625972  0.406882  1
  O  O40  1  0.014537  0.020080  0.234101  1
  O  O41  1  0.514454  0.520056  0.734187  1
  O  O42  1  0.580084  0.372604  0.585140  1
  O  O43  1  0.079940  0.872758  0.085127  1
  O  O44  1  0.449998  0.482979  0.262256  1
  O  O45  1  0.949151  0.982948  0.761827  1
  O  O46  1  0.103666  0.257939  0.978618  1
  O  O47  1  0.603400  0.757571  0.478440  1
  O  O48  1  0.249285  0.116178  0.399211  1
  O  O49  1  0.748933  0.616528  0.898626  1
  O  O50  1  0.389219  0.241375  0.518536  1
  O  O51  1  0.889619  0.741453  0.018432  1
  O  O52  1  0.258508  0.379496  0.100121  1
  O  O53  1  0.758964  0.878781  0.600607  1
