# generated using pymatgen
data_Sm2Cd3Ga5CoNi
_symmetry_space_group_name_H-M   'P 1'
_cell_length_a   4.17640568
_cell_length_b   6.66115500
_cell_length_c   8.41408991
_cell_angle_alpha   90.00000000
_cell_angle_beta   104.36980524
_cell_angle_gamma   90.00000000
_symmetry_Int_Tables_number   1
_chemical_formula_structural   Sm2Cd3Ga5CoNi
_chemical_formula_sum   'Sm2 Cd3 Ga5 Co1 Ni1'
_cell_volume   226.75401251
_cell_formula_units_Z   1
loop_
 _symmetry_equiv_pos_site_id
 _symmetry_equiv_pos_as_xyz
  1  'x, y, z'
loop_
 _atom_site_type_symbol
 _atom_site_label
 _atom_site_symmetry_multiplicity
 _atom_site_fract_x
 _atom_site_fract_y
 _atom_site_fract_z
 _atom_site_occupancy
  Sm  Sm0  1  0.870541  0.750000  0.741082  1
  Sm  Sm1  1  0.125756  0.250000  0.251512  1
  Cd  Cd2  1  0.497853  0.492538  0.995706  1
  Cd  Cd3  1  0.497853  0.007462  0.995706  1
  Cd  Cd4  1  0.071998  0.750000  0.143999  1
  Ga  Ga5  1  0.923520  0.250000  0.847038  1
  Ga  Ga6  1  0.692100  0.549350  0.384199  1
  Ga  Ga7  1  0.309945  0.444840  0.619890  1
  Ga  Ga8  1  0.692100  0.950650  0.384199  1
  Ga  Ga9  1  0.309945  0.055160  0.619890  1
  Co  Co10  1  0.778525  0.250000  0.557051  1
  Ni  Ni11  1  0.229864  0.750000  0.459728  1
