# generated using pymatgen
data_IrPbCl6
_symmetry_space_group_name_H-M   'P 1'
_cell_length_a   7.22284054
_cell_length_b   7.22283988
_cell_length_c   7.22284210
_cell_angle_alpha   57.04582308
_cell_angle_beta   57.04581134
_cell_angle_gamma   57.04581157
_symmetry_Int_Tables_number   1
_chemical_formula_structural   IrPbCl6
_chemical_formula_sum   'Ir1 Pb1 Cl6'
_cell_volume   248.30065727
_cell_formula_units_Z   1
loop_
 _symmetry_equiv_pos_site_id
 _symmetry_equiv_pos_as_xyz
  1  'x, y, z'
loop_
 _atom_site_type_symbol
 _atom_site_label
 _atom_site_symmetry_multiplicity
 _atom_site_fract_x
 _atom_site_fract_y
 _atom_site_fract_z
 _atom_site_occupancy
  Ir  Ir0  1  0.666489  0.666489  0.666489  1
  Pb  Pb1  1  0.334645  0.334645  0.334645  1
  Cl  Cl2  1  0.017098  0.462175  0.746027  1
  Cl  Cl3  1  0.314682  0.870297  0.588586  1
  Cl  Cl4  1  0.462175  0.746027  0.017098  1
  Cl  Cl5  1  0.588586  0.314682  0.870297  1
  Cl  Cl6  1  0.746027  0.017098  0.462175  1
  Cl  Cl7  1  0.870297  0.588586  0.314682  1
