# generated using pymatgen
data_Ce2SnH4
_symmetry_space_group_name_H-M   'P 1'
_cell_length_a   6.30934194
_cell_length_b   6.30934286
_cell_length_c   6.30934084
_cell_angle_alpha   105.70881885
_cell_angle_beta   105.70883566
_cell_angle_gamma   117.29051243
_symmetry_Int_Tables_number   1
_chemical_formula_structural   Ce2SnH4
_chemical_formula_sum   'Ce4 Sn2 H8'
_cell_volume   190.60865793
_cell_formula_units_Z   2
loop_
 _symmetry_equiv_pos_site_id
 _symmetry_equiv_pos_as_xyz
  1  'x, y, z'
loop_
 _atom_site_type_symbol
 _atom_site_label
 _atom_site_symmetry_multiplicity
 _atom_site_fract_x
 _atom_site_fract_y
 _atom_site_fract_z
 _atom_site_occupancy
  Ce  Ce0  1  0.842864  0.657136  0.500000  1
  Ce  Ce1  1  0.657136  0.157136  0.814274  1
  Ce  Ce2  1  0.157136  0.342864  0.500000  1
  Ce  Ce3  1  0.342864  0.842864  0.185726  1
  Sn  Sn4  1  0.750000  0.750000  0.000000  1
  Sn  Sn5  1  0.250000  0.250000  0.000000  1
  H  H6  1  0.217745  0.981220  0.500000  1
  H  H7  1  0.481220  0.717745  0.500000  1
  H  H8  1  0.717745  0.217745  0.236527  1
  H  H9  1  0.981220  0.481220  0.763473  1
  H  H10  1  0.282255  0.782255  0.763473  1
  H  H11  1  0.518780  0.282255  0.500000  1
  H  H12  1  0.018780  0.518780  0.236527  1
  H  H13  1  0.782255  0.018780  0.500000  1
