# generated using pymatgen
data_Sc16CdAg3Rh4
_symmetry_space_group_name_H-M   'P 1'
_cell_length_a   8.94139498
_cell_length_b   8.95240139
_cell_length_c   8.95240200
_cell_angle_alpha   59.99999776
_cell_angle_beta   59.95926987
_cell_angle_gamma   59.95927424
_symmetry_Int_Tables_number   1
_chemical_formula_structural   Sc16CdAg3Rh4
_chemical_formula_sum   'Sc16 Cd1 Ag3 Rh4'
_cell_volume   506.40941222
_cell_formula_units_Z   1
loop_
 _symmetry_equiv_pos_site_id
 _symmetry_equiv_pos_as_xyz
  1  'x, y, z'
loop_
 _atom_site_type_symbol
 _atom_site_label
 _atom_site_symmetry_multiplicity
 _atom_site_fract_x
 _atom_site_fract_y
 _atom_site_fract_z
 _atom_site_occupancy
  Sc  Sc0  1  0.355503  0.353123  0.353123  1
  Sc  Sc1  1  0.355503  0.353123  0.938253  1
  Sc  Sc2  1  0.355503  0.938253  0.353123  1
  Sc  Sc3  1  0.929346  0.356885  0.356885  1
  Sc  Sc4  1  0.811590  0.188514  0.188514  1
  Sc  Sc5  1  0.187732  0.812356  0.812356  1
  Sc  Sc6  1  0.187732  0.812356  0.187557  1
  Sc  Sc7  1  0.811590  0.188514  0.811380  1
  Sc  Sc8  1  0.187732  0.187557  0.812356  1
  Sc  Sc9  1  0.811590  0.811380  0.188514  1
  Sc  Sc10  1  0.933907  0.564643  0.564643  1
  Sc  Sc11  1  0.565262  0.934748  0.934748  1
  Sc  Sc12  1  0.565262  0.934748  0.565242  1
  Sc  Sc13  1  0.933907  0.564643  0.936807  1
  Sc  Sc14  1  0.565262  0.565242  0.934748  1
  Sc  Sc15  1  0.933907  0.936807  0.564643  1
  Cd  Cd16  1  0.258902  0.580366  0.580366  1
  Ag  Ag17  1  0.584829  0.584554  0.584554  1
  Ag  Ag18  1  0.584829  0.584554  0.246061  1
  Ag  Ag19  1  0.584829  0.246061  0.584554  1
  Rh  Rh20  1  0.142066  0.145876  0.145876  1
  Rh  Rh21  1  0.142066  0.145876  0.566180  1
  Rh  Rh22  1  0.142066  0.566180  0.145876  1
  Rh  Rh23  1  0.569085  0.143638  0.143638  1
