# generated using pymatgen
data_Dy8Ho7Lu(Ga3Co)2
_symmetry_space_group_name_H-M   'P 1'
_cell_length_a   9.96485400
_cell_length_b   9.96485375
_cell_length_c   6.93617900
_cell_angle_alpha   90.00000000
_cell_angle_beta   90.00000000
_cell_angle_gamma   119.99999418
_symmetry_Int_Tables_number   1
_chemical_formula_structural   Dy8Ho7Lu(Ga3Co)2
_chemical_formula_sum   'Dy8 Ho7 Lu1 Ga6 Co2'
_cell_volume   596.47578679
_cell_formula_units_Z   1
loop_
 _symmetry_equiv_pos_site_id
 _symmetry_equiv_pos_as_xyz
  1  'x, y, z'
loop_
 _atom_site_type_symbol
 _atom_site_label
 _atom_site_symmetry_multiplicity
 _atom_site_fract_x
 _atom_site_fract_y
 _atom_site_fract_z
 _atom_site_occupancy
  Dy  Dy0  1  0.463688  0.536312  0.208624  1
  Dy  Dy1  1  0.072624  0.536312  0.208624  1
  Dy  Dy2  1  0.463688  0.927376  0.208624  1
  Dy  Dy3  1  0.536927  0.463073  0.707533  1
  Dy  Dy4  1  0.926146  0.463073  0.707533  1
  Dy  Dy5  1  0.536927  0.073854  0.707533  1
  Dy  Dy6  1  0.000000  0.000000  0.230826  1
  Dy  Dy7  1  0.000000  0.000000  0.732342  1
  Ho  Ho8  1  0.172587  0.827413  0.511553  1
  Ho  Ho9  1  0.654827  0.827413  0.511553  1
  Ho  Ho10  1  0.172587  0.345173  0.511553  1
  Ho  Ho11  1  0.826570  0.173430  0.012833  1
  Ho  Ho12  1  0.346860  0.173430  0.012833  1
  Ho  Ho13  1  0.826570  0.653140  0.012833  1
  Ho  Ho14  1  0.333333  0.666667  0.828295  1
  Lu  Lu15  1  0.666667  0.333333  0.325201  1
  Ga  Ga16  1  0.163443  0.836557  0.958332  1
  Ga  Ga17  1  0.673113  0.836557  0.958332  1
  Ga  Ga18  1  0.163443  0.326887  0.958332  1
  Ga  Ga19  1  0.835148  0.164852  0.456463  1
  Ga  Ga20  1  0.329705  0.164852  0.456463  1
  Ga  Ga21  1  0.835148  0.670295  0.456463  1
  Co  Co22  1  0.333333  0.666667  0.446780  1
  Co  Co23  1  0.666667  0.333333  0.945375  1
