# generated using pymatgen
data_EuBiO4
_symmetry_space_group_name_H-M   'P 1'
_cell_length_a   5.60135200
_cell_length_b   7.96778199
_cell_length_c   7.91360130
_cell_angle_alpha   83.12570769
_cell_angle_beta   90.00000000
_cell_angle_gamma   90.00000000
_symmetry_Int_Tables_number   1
_chemical_formula_structural   EuBiO4
_chemical_formula_sum   'Eu4 Bi4 O16'
_cell_volume   350.64779955
_cell_formula_units_Z   4
loop_
 _symmetry_equiv_pos_site_id
 _symmetry_equiv_pos_as_xyz
  1  'x, y, z'
loop_
 _atom_site_type_symbol
 _atom_site_label
 _atom_site_symmetry_multiplicity
 _atom_site_fract_x
 _atom_site_fract_y
 _atom_site_fract_z
 _atom_site_occupancy
  Eu  Eu0  1  0.267973  0.866470  0.888576  1
  Eu  Eu1  1  0.232027  0.866470  0.388576  1
  Eu  Eu2  1  0.767973  0.133530  0.611424  1
  Eu  Eu3  1  0.732027  0.133530  0.111424  1
  Bi  Bi4  1  0.771620  0.659762  0.682079  1
  Bi  Bi5  1  0.728380  0.659762  0.182079  1
  Bi  Bi6  1  0.271620  0.340238  0.817921  1
  Bi  Bi7  1  0.228380  0.340238  0.317921  1
  O  O8  1  0.097824  0.579758  0.819905  1
  O  O9  1  0.601631  0.671566  0.926209  1
  O  O10  1  0.402176  0.579758  0.319905  1
  O  O11  1  0.502383  0.845019  0.618932  1
  O  O12  1  0.898369  0.671566  0.426209  1
  O  O13  1  0.997617  0.845019  0.118932  1
  O  O14  1  0.996674  0.886777  0.662176  1
  O  O15  1  0.496674  0.113223  0.837824  1
  O  O16  1  0.503326  0.886777  0.162176  1
  O  O17  1  0.003326  0.113223  0.337824  1
  O  O18  1  0.002383  0.154981  0.881068  1
  O  O19  1  0.101631  0.328434  0.573791  1
  O  O20  1  0.497617  0.154981  0.381068  1
  O  O21  1  0.597824  0.420242  0.680095  1
  O  O22  1  0.398369  0.328434  0.073791  1
  O  O23  1  0.902176  0.420242  0.180095  1
