# generated using pymatgen
data_BaTaW5O18
_symmetry_space_group_name_H-M   'P 1'
_cell_length_a   7.53393844
_cell_length_b   7.54945855
_cell_length_c   7.80484400
_cell_angle_alpha   90.00231180
_cell_angle_beta   89.99712229
_cell_angle_gamma   120.22263944
_symmetry_Int_Tables_number   1
_chemical_formula_structural   BaTaW5O18
_chemical_formula_sum   'Ba1 Ta1 W5 O18'
_cell_volume   383.57829903
_cell_formula_units_Z   1
loop_
 _symmetry_equiv_pos_site_id
 _symmetry_equiv_pos_as_xyz
  1  'x, y, z'
loop_
 _atom_site_type_symbol
 _atom_site_label
 _atom_site_symmetry_multiplicity
 _atom_site_fract_x
 _atom_site_fract_y
 _atom_site_fract_z
 _atom_site_occupancy
  Ba  Ba0  1  0.000178  0.000371  0.622858  1
  Ta  Ta1  1  0.999949  0.500672  0.761871  1
  W  W2  1  0.000167  0.497337  0.257906  1
  W  W3  1  0.499854  0.500350  0.760357  1
  W  W4  1  0.502188  0.500954  0.259005  1
  W  W5  1  0.497898  0.998970  0.244431  1
  W  W6  1  0.500167  0.000418  0.745569  1
  O  O7  1  0.999959  0.500207  0.001879  1
  O  O8  1  0.999954  0.499762  0.495232  1
  O  O9  1  0.210672  0.786331  0.247928  1
  O  O10  1  0.209634  0.797563  0.739695  1
  O  O11  1  0.211744  0.417908  0.739794  1
  O  O12  1  0.212929  0.424242  0.248817  1
  O  O13  1  0.574936  0.785136  0.247848  1
  O  O14  1  0.585105  0.786522  0.741999  1
  O  O15  1  0.500108  0.500198  0.998328  1
  O  O16  1  0.500240  0.500239  0.497386  1
  O  O17  1  0.424752  0.214719  0.247912  1
  O  O18  1  0.414906  0.214339  0.741969  1
  O  O19  1  0.499854  0.000092  0.488551  1
  O  O20  1  0.788449  0.583291  0.739697  1
  O  O21  1  0.787561  0.574764  0.248844  1
  O  O22  1  0.499780  0.000033  0.001454  1
  O  O23  1  0.788695  0.212240  0.247878  1
  O  O24  1  0.790318  0.203342  0.739795  1
