# generated using pymatgen
data_Nd16Lu4Si11Ir
_symmetry_space_group_name_H-M   'P 1'
_cell_length_a   11.40434501
_cell_length_b   11.40434495
_cell_length_c   6.53466300
_cell_angle_alpha   89.58164022
_cell_angle_beta   89.58164022
_cell_angle_gamma   89.83609999
_symmetry_Int_Tables_number   1
_chemical_formula_structural   Nd16Lu4Si11Ir
_chemical_formula_sum   'Nd16 Lu4 Si11 Ir1'
_cell_volume   849.84362659
_cell_formula_units_Z   1
loop_
 _symmetry_equiv_pos_site_id
 _symmetry_equiv_pos_as_xyz
  1  'x, y, z'
loop_
 _atom_site_type_symbol
 _atom_site_label
 _atom_site_symmetry_multiplicity
 _atom_site_fract_x
 _atom_site_fract_y
 _atom_site_fract_z
 _atom_site_occupancy
  Nd  Nd0  1  0.284134  0.089311  0.354972  1
  Nd  Nd1  1  0.296041  0.908886  0.857567  1
  Nd  Nd2  1  0.710117  0.086592  0.853139  1
  Nd  Nd3  1  0.717794  0.910092  0.353932  1
  Nd  Nd4  1  0.583159  0.793389  0.856740  1
  Nd  Nd5  1  0.590963  0.217642  0.353262  1
  Nd  Nd6  1  0.408811  0.781343  0.361388  1
  Nd  Nd7  1  0.413444  0.211453  0.853332  1
  Nd  Nd8  1  0.206611  0.416841  0.643260  1
  Nd  Nd9  1  0.218657  0.591189  0.138612  1
  Nd  Nd10  1  0.782358  0.409037  0.146738  1
  Nd  Nd11  1  0.788547  0.586556  0.646668  1
  Nd  Nd12  1  0.910689  0.715866  0.145028  1
  Nd  Nd13  1  0.913408  0.289883  0.646861  1
  Nd  Nd14  1  0.091114  0.703959  0.642433  1
  Nd  Nd15  1  0.089908  0.282206  0.146068  1
  Lu  Lu16  1  0.999366  0.998956  0.500948  1
  Lu  Lu17  1  0.001044  0.000634  0.999052  1
  Lu  Lu18  1  0.497032  0.508849  0.997408  1
  Lu  Lu19  1  0.491151  0.502968  0.502592  1
  Si  Si20  1  0.849075  0.150925  0.250000  1
  Si  Si21  1  0.849920  0.847290  0.751488  1
  Si  Si22  1  0.152710  0.150080  0.748512  1
  Si  Si23  1  0.149288  0.850712  0.250000  1
  Si  Si24  1  0.650164  0.349836  0.750000  1
  Si  Si25  1  0.652906  0.650686  0.249550  1
  Si  Si26  1  0.349314  0.347094  0.250450  1
  Si  Si27  1  0.501672  0.002264  0.124259  1
  Si  Si28  1  0.501967  0.002353  0.572012  1
  Si  Si29  1  0.997647  0.498033  0.927988  1
  Si  Si30  1  0.997736  0.498328  0.375741  1
  Ir  Ir31  1  0.353248  0.646752  0.750000  1
