# generated using pymatgen
data_YbY3Ir4F28
_symmetry_space_group_name_H-M   'P 1'
_cell_length_a   5.58927097
_cell_length_b   8.93580626
_cell_length_c   11.99507309
_cell_angle_alpha   62.61263671
_cell_angle_beta   90.02701299
_cell_angle_gamma   89.91021222
_symmetry_Int_Tables_number   1
_chemical_formula_structural   YbY3Ir4F28
_chemical_formula_sum   'Yb1 Y3 Ir4 F28'
_cell_volume   531.94065851
_cell_formula_units_Z   1
loop_
 _symmetry_equiv_pos_site_id
 _symmetry_equiv_pos_as_xyz
  1  'x, y, z'
loop_
 _atom_site_type_symbol
 _atom_site_label
 _atom_site_symmetry_multiplicity
 _atom_site_fract_x
 _atom_site_fract_y
 _atom_site_fract_z
 _atom_site_occupancy
  Yb  Yb0  1  0.761097  0.817536  0.765063  1
  Y  Y1  1  0.263467  0.178894  0.734692  1
  Y  Y2  1  0.239011  0.186440  0.234204  1
  Y  Y3  1  0.739265  0.813599  0.266363  1
  Ir  Ir4  1  0.756873  0.275485  0.954620  1
  Ir  Ir5  1  0.257069  0.724849  0.546009  1
  Ir  Ir6  1  0.241625  0.724952  0.044902  1
  Ir  Ir7  1  0.742434  0.274000  0.454563  1
  F  F8  1  0.445506  0.705163  0.922997  1
  F  F9  1  0.941659  0.298177  0.578656  1
  F  F10  1  0.554940  0.293637  0.081841  1
  F  F11  1  0.051933  0.704783  0.420428  1
  F  F12  1  0.447866  0.285712  0.540789  1
  F  F13  1  0.955580  0.715066  0.957368  1
  F  F14  1  0.547708  0.715100  0.455727  1
  F  F15  1  0.050564  0.282230  0.044361  1
  F  F16  1  0.764432  0.515812  0.860297  1
  F  F17  1  0.265247  0.480472  0.641816  1
  F  F18  1  0.233482  0.479235  0.142813  1
  F  F19  1  0.732827  0.518675  0.356947  1
  F  F20  1  0.757872  0.031120  0.049638  1
  F  F21  1  0.259049  0.970132  0.449983  1
  F  F22  1  0.240782  0.969740  0.953190  1
  F  F23  1  0.743147  0.033340  0.547184  1
  F  F24  1  0.975953  0.730715  0.637351  1
  F  F25  1  0.469242  0.271017  0.863224  1
  F  F26  1  0.030626  0.269844  0.361017  1
  F  F27  1  0.525693  0.730239  0.140320  1
  F  F28  1  0.041917  0.744026  0.173098  1
  F  F29  1  0.546664  0.254125  0.325486  1
  F  F30  1  0.955316  0.255774  0.827293  1
  F  F31  1  0.458754  0.743625  0.669725  1
  F  F32  1  0.417456  0.970399  0.232202  1
  F  F33  1  0.917814  0.028457  0.267838  1
  F  F34  1  0.582897  0.033906  0.767801  1
  F  F35  1  0.084231  0.973724  0.730195  1
