# generated using pymatgen
data_NaSeF5
_symmetry_space_group_name_H-M   'P 1'
_cell_length_a   5.05199600
_cell_length_b   8.19907300
_cell_length_c   10.56175200
_cell_angle_alpha   90.00000000
_cell_angle_beta   90.00000000
_cell_angle_gamma   90.00000000
_symmetry_Int_Tables_number   1
_chemical_formula_structural   NaSeF5
_chemical_formula_sum   'Na4 Se4 F20'
_cell_volume   437.48555383
_cell_formula_units_Z   4
loop_
 _symmetry_equiv_pos_site_id
 _symmetry_equiv_pos_as_xyz
  1  'x, y, z'
loop_
 _atom_site_type_symbol
 _atom_site_label
 _atom_site_symmetry_multiplicity
 _atom_site_fract_x
 _atom_site_fract_y
 _atom_site_fract_z
 _atom_site_occupancy
  Na  Na0  1  0.586518  0.250000  0.000000  1
  Na  Na1  1  0.413482  0.750000  0.500000  1
  Na  Na2  1  0.413482  0.750000  0.000000  1
  Na  Na3  1  0.586518  0.250000  0.500000  1
  Se  Se4  1  0.146819  0.064979  0.250000  1
  Se  Se5  1  0.146819  0.435021  0.750000  1
  Se  Se6  1  0.853181  0.564979  0.250000  1
  Se  Se7  1  0.853181  0.935021  0.750000  1
  F  F8  1  0.646307  0.760917  0.750000  1
  F  F9  1  0.646307  0.739083  0.250000  1
  F  F10  1  0.353693  0.260917  0.750000  1
  F  F11  1  0.353693  0.239083  0.250000  1
  F  F12  1  0.955896  0.178448  0.373663  1
  F  F13  1  0.955896  0.321552  0.626337  1
  F  F14  1  0.044104  0.678448  0.126337  1
  F  F15  1  0.044104  0.821552  0.873663  1
  F  F16  1  0.381946  0.995546  0.118938  1
  F  F17  1  0.381946  0.504454  0.881062  1
  F  F18  1  0.618054  0.495546  0.381062  1
  F  F19  1  0.618054  0.004454  0.618938  1
  F  F20  1  0.618054  0.004454  0.881062  1
  F  F21  1  0.618054  0.495546  0.118938  1
  F  F22  1  0.381946  0.504454  0.618938  1
  F  F23  1  0.381946  0.995546  0.381062  1
  F  F24  1  0.955896  0.178448  0.126337  1
  F  F25  1  0.955896  0.321552  0.873663  1
  F  F26  1  0.044104  0.678448  0.373663  1
  F  F27  1  0.044104  0.821552  0.626337  1
