# generated using pymatgen
data_PrNd5Dy10(CdIr)4
_symmetry_space_group_name_H-M   'P 1'
_cell_length_a   9.74895998
_cell_length_b   9.74778057
_cell_length_c   9.74778006
_cell_angle_alpha   59.98817164
_cell_angle_beta   59.99599726
_cell_angle_gamma   59.99600054
_symmetry_Int_Tables_number   1
_chemical_formula_structural   PrNd5Dy10(CdIr)4
_chemical_formula_sum   'Pr1 Nd5 Dy10 Cd4 Ir4'
_cell_volume   654.92211466
_cell_formula_units_Z   1
loop_
 _symmetry_equiv_pos_site_id
 _symmetry_equiv_pos_as_xyz
  1  'x, y, z'
loop_
 _atom_site_type_symbol
 _atom_site_label
 _atom_site_symmetry_multiplicity
 _atom_site_fract_x
 _atom_site_fract_y
 _atom_site_fract_z
 _atom_site_occupancy
  Pr  Pr0  1  0.940380  0.559620  0.559620  1
  Nd  Nd1  1  0.559051  0.940949  0.940949  1
  Nd  Nd2  1  0.559013  0.941069  0.559066  1
  Nd  Nd3  1  0.940853  0.559066  0.941069  1
  Nd  Nd4  1  0.559013  0.559066  0.941069  1
  Nd  Nd5  1  0.940853  0.941069  0.559066  1
  Dy  Dy6  1  0.347262  0.347497  0.347497  1
  Dy  Dy7  1  0.347514  0.347809  0.957161  1
  Dy  Dy8  1  0.347514  0.957161  0.347809  1
  Dy  Dy9  1  0.957743  0.347497  0.347497  1
  Dy  Dy10  1  0.812166  0.187834  0.187834  1
  Dy  Dy11  1  0.187829  0.812171  0.812171  1
  Dy  Dy12  1  0.188307  0.812010  0.187268  1
  Dy  Dy13  1  0.812415  0.187268  0.812010  1
  Dy  Dy14  1  0.188307  0.187268  0.812010  1
  Dy  Dy15  1  0.812415  0.812010  0.187268  1
  Cd  Cd16  1  0.579196  0.579573  0.579573  1
  Cd  Cd17  1  0.579652  0.579630  0.261065  1
  Cd  Cd18  1  0.579652  0.261065  0.579630  1
  Cd  Cd19  1  0.261657  0.579573  0.579573  1
  Ir  Ir20  1  0.140804  0.141628  0.141628  1
  Ir  Ir21  1  0.141231  0.141446  0.576092  1
  Ir  Ir22  1  0.141231  0.576092  0.141446  1
  Ir  Ir23  1  0.575939  0.141628  0.141628  1
