# generated using pymatgen
data_Sc4IrRuRh2
_symmetry_space_group_name_H-M   'P 1'
_cell_length_a   6.46327400
_cell_length_b   6.45671200
_cell_length_c   6.43954500
_cell_angle_alpha   90.00000000
_cell_angle_beta   90.00109246
_cell_angle_gamma   90.00000000
_symmetry_Int_Tables_number   1
_chemical_formula_structural   Sc4IrRuRh2
_chemical_formula_sum   'Sc8 Ir2 Ru2 Rh4'
_cell_volume   268.73186438
_cell_formula_units_Z   2
loop_
 _symmetry_equiv_pos_site_id
 _symmetry_equiv_pos_as_xyz
  1  'x, y, z'
loop_
 _atom_site_type_symbol
 _atom_site_label
 _atom_site_symmetry_multiplicity
 _atom_site_fract_x
 _atom_site_fract_y
 _atom_site_fract_z
 _atom_site_occupancy
  Sc  Sc0  1  0.500448  0.000001  0.250012  1
  Sc  Sc1  1  0.500448  0.499999  0.250012  1
  Sc  Sc2  1  0.000465  0.500003  0.249960  1
  Sc  Sc3  1  0.000465  0.999998  0.249960  1
  Sc  Sc4  1  0.999543  0.999993  0.749969  1
  Sc  Sc5  1  0.999543  0.500007  0.749969  1
  Sc  Sc6  1  0.499540  0.500007  0.750060  1
  Sc  Sc7  1  0.499540  0.999994  0.750060  1
  Ir  Ir8  1  0.750021  0.250001  0.000064  1
  Ir  Ir9  1  0.250025  0.750001  0.499936  1
  Ru  Ru10  1  0.749978  0.250001  0.500119  1
  Ru  Ru11  1  0.249977  0.750001  0.999876  1
  Rh  Rh12  1  0.250026  0.250001  0.000001  1
  Rh  Rh13  1  0.749988  0.750001  0.000007  1
  Rh  Rh14  1  0.750017  0.750001  0.499979  1
  Rh  Rh15  1  0.249977  0.250001  0.500017  1
