# generated using pymatgen
data_Be4Fe2Mo5WC
_symmetry_space_group_name_H-M   'P 1'
_cell_length_a   7.55125214
_cell_length_b   7.55125169
_cell_length_c   7.55569100
_cell_angle_alpha   59.98054644
_cell_angle_beta   59.98054843
_cell_angle_gamma   60.03890120
_symmetry_Int_Tables_number   1
_chemical_formula_structural   Be4Fe2Mo5WC
_chemical_formula_sum   'Be8 Fe4 Mo10 W2 C2'
_cell_volume   304.64692233
_cell_formula_units_Z   2
loop_
 _symmetry_equiv_pos_site_id
 _symmetry_equiv_pos_as_xyz
  1  'x, y, z'
loop_
 _atom_site_type_symbol
 _atom_site_label
 _atom_site_symmetry_multiplicity
 _atom_site_fract_x
 _atom_site_fract_y
 _atom_site_fract_z
 _atom_site_occupancy
  Be  Be0  1  0.921090  0.236581  0.921165  1
  Be  Be1  1  0.328838  0.013280  0.328941  1
  Be  Be2  1  0.328835  0.328835  0.328910  1
  Be  Be3  1  0.013280  0.328838  0.328941  1
  Be  Be4  1  0.921059  0.921059  0.236720  1
  Be  Be5  1  0.236581  0.921090  0.921165  1
  Be  Be6  1  0.328835  0.328835  0.013419  1
  Be  Be7  1  0.921059  0.921059  0.921162  1
  Fe  Fe8  1  0.124929  0.124929  0.625045  1
  Fe  Fe9  1  0.124904  0.624955  0.125071  1
  Fe  Fe10  1  0.124929  0.124929  0.125096  1
  Fe  Fe11  1  0.624955  0.124904  0.125071  1
  Mo  Mo12  1  0.298230  0.701631  0.701520  1
  Mo  Mo13  1  0.298690  0.298690  0.701310  1
  Mo  Mo14  1  0.548480  0.951380  0.548369  1
  Mo  Mo15  1  0.951380  0.548480  0.548369  1
  Mo  Mo16  1  0.548480  0.951380  0.951770  1
  Mo  Mo17  1  0.701631  0.298230  0.298620  1
  Mo  Mo18  1  0.951380  0.548480  0.951770  1
  Mo  Mo19  1  0.298230  0.701631  0.298620  1
  Mo  Mo20  1  0.548690  0.548690  0.951310  1
  Mo  Mo21  1  0.701631  0.298230  0.701520  1
  W  W22  1  0.701876  0.701876  0.298124  1
  W  W23  1  0.951876  0.951876  0.548124  1
  C  C24  1  0.750065  0.750065  0.749935  1
  C  C25  1  0.500065  0.500065  0.499935  1
