# generated using pymatgen
data_Tb10C4Cl17
_symmetry_space_group_name_H-M   'P 1'
_cell_length_a   8.55137781
_cell_length_b   9.23661382
_cell_length_c   11.54696029
_cell_angle_alpha   104.85849373
_cell_angle_beta   96.06095479
_cell_angle_gamma   110.05857006
_symmetry_Int_Tables_number   1
_chemical_formula_structural   Tb10C4Cl17
_chemical_formula_sum   'Tb10 C4 Cl17'
_cell_volume   809.04417552
_cell_formula_units_Z   1
loop_
 _symmetry_equiv_pos_site_id
 _symmetry_equiv_pos_as_xyz
  1  'x, y, z'
loop_
 _atom_site_type_symbol
 _atom_site_label
 _atom_site_symmetry_multiplicity
 _atom_site_fract_x
 _atom_site_fract_y
 _atom_site_fract_z
 _atom_site_occupancy
  Tb  Tb0  1  0.651907  0.488823  0.438468  1
  Tb  Tb1  1  0.348093  0.511177  0.561533  1
  Tb  Tb2  1  0.084130  0.425373  0.271428  1
  Tb  Tb3  1  0.915871  0.574628  0.728572  1
  Tb  Tb4  1  0.410108  0.370388  0.139278  1
  Tb  Tb5  1  0.589892  0.629612  0.860722  1
  Tb  Tb6  1  0.489625  0.781469  0.342190  1
  Tb  Tb7  1  0.510375  0.218531  0.657809  1
  Tb  Tb8  1  0.211216  0.099820  0.308134  1
  Tb  Tb9  1  0.788784  0.900180  0.691866  1
  C  C10  1  0.398003  0.530353  0.344891  1
  C  C11  1  0.601997  0.469647  0.655108  1
  C  C12  1  0.328669  0.363434  0.339256  1
  C  C13  1  0.671332  0.636567  0.660744  1
  Cl  Cl14  1  0.104424  0.350101  0.040769  1
  Cl  Cl15  1  0.895576  0.649900  0.959232  1
  Cl  Cl16  1  0.809978  0.821221  0.444243  1
  Cl  Cl17  1  0.190022  0.178777  0.555756  1
  Cl  Cl18  1  0.000000  0.499999  0.500000  1
  Cl  Cl19  1  0.299412  0.045697  0.093501  1
  Cl  Cl20  1  0.700589  0.954303  0.906499  1
  Cl  Cl21  1  0.908270  0.106632  0.247965  1
  Cl  Cl22  1  0.091731  0.893369  0.752035  1
  Cl  Cl23  1  0.545985  0.129475  0.410390  1
  Cl  Cl24  1  0.454014  0.870526  0.589611  1
  Cl  Cl25  1  0.739555  0.413694  0.212383  1
  Cl  Cl26  1  0.260444  0.586306  0.787617  1
  Cl  Cl27  1  0.163742  0.756729  0.285470  1
  Cl  Cl28  1  0.836257  0.243271  0.714530  1
  Cl  Cl29  1  0.534269  0.684146  0.111386  1
  Cl  Cl30  1  0.465733  0.315854  0.888614  1
