# generated using pymatgen
data_Th6Ga6PdPt5
_symmetry_space_group_name_H-M   'P 1'
_cell_length_a   7.33001900
_cell_length_b   7.33001904
_cell_length_c   8.32175000
_cell_angle_alpha   90.00000000
_cell_angle_beta   90.00000000
_cell_angle_gamma   119.99999530
_symmetry_Int_Tables_number   1
_chemical_formula_structural   Th6Ga6PdPt5
_chemical_formula_sum   'Th6 Ga6 Pd1 Pt5'
_cell_volume   387.21798450
_cell_formula_units_Z   1
loop_
 _symmetry_equiv_pos_site_id
 _symmetry_equiv_pos_as_xyz
  1  'x, y, z'
loop_
 _atom_site_type_symbol
 _atom_site_label
 _atom_site_symmetry_multiplicity
 _atom_site_fract_x
 _atom_site_fract_y
 _atom_site_fract_z
 _atom_site_occupancy
  Th  Th0  1  0.417915  0.418068  0.750000  1
  Th  Th1  1  0.000151  0.582085  0.750000  1
  Th  Th2  1  0.581932  0.999849  0.750000  1
  Th  Th3  1  0.585522  0.999687  0.250000  1
  Th  Th4  1  0.000313  0.585835  0.250000  1
  Th  Th5  1  0.414165  0.414478  0.250000  1
  Ga  Ga6  1  0.240939  0.999972  0.999182  1
  Ga  Ga7  1  0.759032  0.759061  0.999182  1
  Ga  Ga8  1  0.000028  0.240968  0.999182  1
  Ga  Ga9  1  0.759032  0.759061  0.500818  1
  Ga  Ga10  1  0.240939  0.999972  0.500818  1
  Ga  Ga11  1  0.000028  0.240968  0.500818  1
  Pd  Pd12  1  0.000000  0.000000  0.750000  1
  Pt  Pt13  1  0.666667  0.333333  0.000900  1
  Pt  Pt14  1  0.666667  0.333333  0.499100  1
  Pt  Pt15  1  0.333333  0.666667  0.499151  1
  Pt  Pt16  1  0.333333  0.666667  0.000849  1
  Pt  Pt17  1  0.000000  0.000000  0.250000  1
