# generated using pymatgen
data_Yb(PmRu)3
_symmetry_space_group_name_H-M   'P 1'
_cell_length_a   6.25035314
_cell_length_b   4.98843395
_cell_length_c   6.26977932
_cell_angle_alpha   113.53323579
_cell_angle_beta   74.90910596
_cell_angle_gamma   113.45322809
_symmetry_Int_Tables_number   1
_chemical_formula_structural   Yb(PmRu)3
_chemical_formula_sum   'Yb1 Pm3 Ru3'
_cell_volume   163.22225000
_cell_formula_units_Z   1
loop_
 _symmetry_equiv_pos_site_id
 _symmetry_equiv_pos_as_xyz
  1  'x, y, z'
loop_
 _atom_site_type_symbol
 _atom_site_label
 _atom_site_symmetry_multiplicity
 _atom_site_fract_x
 _atom_site_fract_y
 _atom_site_fract_z
 _atom_site_occupancy
  Yb  Yb0  1  0.824032  0.071404  0.823698  1
  Pm  Pm1  1  0.337785  0.084892  0.338413  1
  Pm  Pm2  1  0.751753  0.744821  0.242390  1
  Pm  Pm3  1  0.242069  0.744295  0.751968  1
  Ru  Ru4  1  0.171185  0.415667  0.166945  1
  Ru  Ru5  1  0.835640  0.411155  0.491450  1
  Ru  Ru6  1  0.495148  0.411242  0.830659  1
