# generated using pymatgen
data_Rb5Th(VS4)3
_symmetry_space_group_name_H-M   'P 1'
_cell_length_a   10.08236409
_cell_length_b   12.11048500
_cell_length_c   20.88435700
_cell_angle_alpha   90.00000000
_cell_angle_beta   90.27257520
_cell_angle_gamma   90.00000000
_symmetry_Int_Tables_number   1
_chemical_formula_structural   Rb5Th(VS4)3
_chemical_formula_sum   'Rb20 Th4 V12 S48'
_cell_volume   2549.99956651
_cell_formula_units_Z   4
loop_
 _symmetry_equiv_pos_site_id
 _symmetry_equiv_pos_as_xyz
  1  'x, y, z'
loop_
 _atom_site_type_symbol
 _atom_site_label
 _atom_site_symmetry_multiplicity
 _atom_site_fract_x
 _atom_site_fract_y
 _atom_site_fract_z
 _atom_site_occupancy
  Rb  Rb0  1  0.370670  0.417184  0.918377  1
  Rb  Rb1  1  0.870716  0.361648  0.576660  1
  Rb  Rb2  1  0.629284  0.861648  0.923340  1
  Rb  Rb3  1  0.176932  0.910165  0.904996  1
  Rb  Rb4  1  0.870670  0.082816  0.418377  1
  Rb  Rb5  1  0.323068  0.410165  0.595004  1
  Rb  Rb6  1  0.157951  0.908377  0.250980  1
  Rb  Rb7  1  0.129330  0.917184  0.581623  1
  Rb  Rb8  1  0.676932  0.589835  0.404996  1
  Rb  Rb9  1  0.342049  0.408377  0.249020  1
  Rb  Rb10  1  0.629330  0.582816  0.081623  1
  Rb  Rb11  1  0.886678  0.341437  0.260323  1
  Rb  Rb12  1  0.370716  0.138352  0.076660  1
  Rb  Rb13  1  0.657951  0.591623  0.750980  1
  Rb  Rb14  1  0.842049  0.091623  0.749020  1
  Rb  Rb15  1  0.613322  0.841437  0.239677  1
  Rb  Rb16  1  0.386678  0.158563  0.760323  1
  Rb  Rb17  1  0.129284  0.638352  0.423340  1
  Rb  Rb18  1  0.113322  0.658563  0.739677  1
  Rb  Rb19  1  0.823068  0.089835  0.095004  1
  Th  Th20  1  0.899823  0.354756  0.916719  1
  Th  Th21  1  0.399823  0.145244  0.416719  1
  Th  Th22  1  0.600177  0.854756  0.583281  1
  Th  Th23  1  0.100177  0.645244  0.083281  1
  V  V24  1  0.089983  0.343353  0.078496  1
  V  V25  1  0.903670  0.661916  0.234643  1
  V  V26  1  0.403670  0.838084  0.734643  1
  V  V27  1  0.637380  0.191611  0.920721  1
  V  V28  1  0.910017  0.656648  0.921504  1
  V  V29  1  0.096330  0.338084  0.765357  1
  V  V30  1  0.862620  0.691611  0.579279  1
  V  V31  1  0.362620  0.808389  0.079279  1
  V  V32  1  0.589983  0.156648  0.578496  1
  V  V33  1  0.596330  0.161916  0.265357  1
  V  V34  1  0.137380  0.308389  0.420721  1
  V  V35  1  0.410017  0.843352  0.421504  1
  S  S36  1  0.071990  0.556652  0.212328  1
  S  S37  1  0.235136  0.949057  0.420131  1
  S  S38  1  0.090341  0.239809  0.994277  1
  S  S39  1  0.420673  0.048384  0.567623  1
  S  S40  1  0.658538  0.300280  0.839085  1
  S  S41  1  0.455948  0.101866  0.919997  1
  S  S42  1  0.428010  0.056652  0.287672  1
  S  S43  1  0.955948  0.398134  0.419997  1
  S  S44  1  0.092821  0.234677  0.157934  1
  S  S45  1  0.093762  0.225735  0.846436  1
  S  S46  1  0.735136  0.550943  0.920131  1
  S  S47  1  0.924227  0.753421  0.321213  1
  S  S48  1  0.780013  0.072092  0.261541  1
  S  S49  1  0.928010  0.443348  0.787672  1
  S  S50  1  0.280013  0.427908  0.761541  1
  S  S51  1  0.590341  0.260191  0.494277  1
  S  S52  1  0.544052  0.898134  0.080003  1
  S  S53  1  0.909659  0.760191  0.005723  1
  S  S54  1  0.571990  0.943348  0.712328  1
  S  S55  1  0.764864  0.050943  0.579869  1
  S  S56  1  0.079327  0.548384  0.932377  1
  S  S57  1  0.592821  0.265323  0.657934  1
  S  S58  1  0.341462  0.699720  0.160915  1
  S  S59  1  0.575773  0.253421  0.178787  1
  S  S60  1  0.407179  0.734677  0.342066  1
  S  S61  1  0.841462  0.800280  0.660915  1
  S  S62  1  0.680728  0.597504  0.578893  1
  S  S63  1  0.819272  0.097504  0.921107  1
  S  S64  1  0.906238  0.774265  0.153564  1
  S  S65  1  0.337487  0.696898  0.998967  1
  S  S66  1  0.075773  0.246579  0.678787  1
  S  S67  1  0.424227  0.746579  0.821213  1
  S  S68  1  0.319272  0.402496  0.421107  1
  S  S69  1  0.180728  0.902496  0.078893  1
  S  S70  1  0.579327  0.951616  0.432377  1
  S  S71  1  0.158538  0.199720  0.339085  1
  S  S72  1  0.406238  0.725735  0.653564  1
  S  S73  1  0.409659  0.739809  0.505723  1
  S  S74  1  0.162513  0.196898  0.501033  1
  S  S75  1  0.920673  0.451616  0.067623  1
  S  S76  1  0.719987  0.572092  0.238459  1
  S  S77  1  0.662513  0.303102  0.001033  1
  S  S78  1  0.907179  0.765323  0.842066  1
  S  S79  1  0.837487  0.803102  0.498967  1
  S  S80  1  0.593762  0.274265  0.346436  1
  S  S81  1  0.044052  0.601866  0.580003  1
  S  S82  1  0.219987  0.927908  0.738459  1
  S  S83  1  0.264864  0.449057  0.079869  1
