# generated using pymatgen
data_LiY3Ho6Cd3Ru
_symmetry_space_group_name_H-M   'P 1'
_cell_length_a   9.43829100
_cell_length_b   9.43829231
_cell_length_c   9.69551400
_cell_angle_alpha   90.00000000
_cell_angle_beta   90.00000000
_cell_angle_gamma   119.99999891
_symmetry_Int_Tables_number   1
_chemical_formula_structural   LiY3Ho6Cd3Ru
_chemical_formula_sum   'Li2 Y6 Ho12 Cd6 Ru2'
_cell_volume   747.97703026
_cell_formula_units_Z   2
loop_
 _symmetry_equiv_pos_site_id
 _symmetry_equiv_pos_as_xyz
  1  'x, y, z'
loop_
 _atom_site_type_symbol
 _atom_site_label
 _atom_site_symmetry_multiplicity
 _atom_site_fract_x
 _atom_site_fract_y
 _atom_site_fract_z
 _atom_site_occupancy
  Li  Li0  1  0.000000  0.000000  0.500000  1
  Li  Li1  1  0.000000  0.000000  0.000000  1
  Y  Y2  1  0.542272  0.457728  0.250000  1
  Y  Y3  1  0.542272  0.084545  0.250000  1
  Y  Y4  1  0.915455  0.457728  0.250000  1
  Y  Y5  1  0.457728  0.542272  0.750000  1
  Y  Y6  1  0.457728  0.915455  0.750000  1
  Y  Y7  1  0.084545  0.542272  0.750000  1
  Ho  Ho8  1  0.208290  0.791710  0.441155  1
  Ho  Ho9  1  0.208290  0.416582  0.441155  1
  Ho  Ho10  1  0.583418  0.791710  0.441155  1
  Ho  Ho11  1  0.791710  0.208290  0.558845  1
  Ho  Ho12  1  0.791710  0.583418  0.558845  1
  Ho  Ho13  1  0.416582  0.208290  0.558845  1
  Ho  Ho14  1  0.791710  0.208290  0.941155  1
  Ho  Ho15  1  0.791710  0.583418  0.941155  1
  Ho  Ho16  1  0.416582  0.208290  0.941155  1
  Ho  Ho17  1  0.208290  0.791710  0.058845  1
  Ho  Ho18  1  0.208290  0.416582  0.058845  1
  Ho  Ho19  1  0.583418  0.791710  0.058845  1
  Cd  Cd20  1  0.891640  0.108360  0.250000  1
  Cd  Cd21  1  0.891640  0.783281  0.250000  1
  Cd  Cd22  1  0.216719  0.108360  0.250000  1
  Cd  Cd23  1  0.108360  0.891640  0.750000  1
  Cd  Cd24  1  0.108360  0.216719  0.750000  1
  Cd  Cd25  1  0.783281  0.891640  0.750000  1
  Ru  Ru26  1  0.333333  0.666667  0.250000  1
  Ru  Ru27  1  0.666667  0.333333  0.750000  1
