# generated using pymatgen
data_Pr2Er14Cd4OsPt3
_symmetry_space_group_name_H-M   'P 1'
_cell_length_a   9.67531675
_cell_length_b   9.67531669
_cell_length_c   9.66185879
_cell_angle_alpha   59.63106367
_cell_angle_beta   59.63106470
_cell_angle_gamma   59.23182838
_symmetry_Int_Tables_number   1
_chemical_formula_structural   Pr2Er14Cd4OsPt3
_chemical_formula_sum   'Pr2 Er14 Cd4 Os1 Pt3'
_cell_volume   632.22962555
_cell_formula_units_Z   1
loop_
 _symmetry_equiv_pos_site_id
 _symmetry_equiv_pos_as_xyz
  1  'x, y, z'
loop_
 _atom_site_type_symbol
 _atom_site_label
 _atom_site_symmetry_multiplicity
 _atom_site_fract_x
 _atom_site_fract_y
 _atom_site_fract_z
 _atom_site_occupancy
  Pr  Pr0  1  0.571633  0.571633  0.930956  1
  Pr  Pr1  1  0.932468  0.932468  0.565674  1
  Er  Er2  1  0.352492  0.352492  0.349529  1
  Er  Er3  1  0.351533  0.351533  0.951400  1
  Er  Er4  1  0.347603  0.948935  0.351038  1
  Er  Er5  1  0.948935  0.347603  0.351038  1
  Er  Er6  1  0.816696  0.187255  0.186890  1
  Er  Er7  1  0.187210  0.810750  0.810842  1
  Er  Er8  1  0.187255  0.816696  0.186890  1
  Er  Er9  1  0.810750  0.187210  0.810842  1
  Er  Er10  1  0.189367  0.189367  0.813391  1
  Er  Er11  1  0.809931  0.809931  0.185032  1
  Er  Er12  1  0.938527  0.561261  0.560177  1
  Er  Er13  1  0.550998  0.944310  0.942113  1
  Er  Er14  1  0.561261  0.938527  0.560177  1
  Er  Er15  1  0.944310  0.550998  0.942113  1
  Cd  Cd16  1  0.581079  0.581079  0.577120  1
  Cd  Cd17  1  0.580768  0.580768  0.257527  1
  Cd  Cd18  1  0.576714  0.256276  0.582572  1
  Cd  Cd19  1  0.256276  0.576714  0.582572  1
  Os  Os20  1  0.146767  0.146767  0.136389  1
  Pt  Pt21  1  0.144875  0.144875  0.573272  1
  Pt  Pt22  1  0.139354  0.573198  0.146223  1
  Pt  Pt23  1  0.573198  0.139354  0.146223  1
