# generated using pymatgen
data_Ho3Er(Fe3Os)2
_symmetry_space_group_name_H-M   'P 1'
_cell_length_a   5.20827316
_cell_length_b   5.20827350
_cell_length_c   8.95905249
_cell_angle_alpha   72.69053601
_cell_angle_beta   90.74699219
_cell_angle_gamma   120.70529044
_symmetry_Int_Tables_number   1
_chemical_formula_structural   Ho3Er(Fe3Os)2
_chemical_formula_sum   'Ho3 Er1 Fe6 Os2'
_cell_volume   196.61407474
_cell_formula_units_Z   1
loop_
 _symmetry_equiv_pos_site_id
 _symmetry_equiv_pos_as_xyz
  1  'x, y, z'
loop_
 _atom_site_type_symbol
 _atom_site_label
 _atom_site_symmetry_multiplicity
 _atom_site_fract_x
 _atom_site_fract_y
 _atom_site_fract_z
 _atom_site_occupancy
  Ho  Ho0  1  0.375346  0.749790  0.874864  1
  Ho  Ho1  1  0.999646  0.000205  0.000149  1
  Ho  Ho2  1  0.499564  0.000302  0.500135  1
  Er  Er3  1  0.875438  0.749697  0.374865  1
  Fe  Fe4  1  0.437652  0.875307  0.187127  1
  Fe  Fe5  1  0.937307  0.874551  0.687883  1
  Fe  Fe6  1  0.187503  0.374873  0.437623  1
  Fe  Fe7  1  0.687539  0.375148  0.937313  1
  Fe  Fe8  1  0.937566  0.375220  0.187127  1
  Fe  Fe9  1  0.437566  0.374810  0.687883  1
  Os  Os10  1  0.437469  0.375040  0.187491  1
  Os  Os11  1  0.937404  0.375054  0.687542  1
