# generated using pymatgen
data_Ba3AlO4F
_symmetry_space_group_name_H-M   'P 1'
_cell_length_a   7.36806200
_cell_length_b   8.21516800
_cell_length_c   10.60591000
_cell_angle_alpha   90.00000000
_cell_angle_beta   90.00000000
_cell_angle_gamma   90.00000000
_symmetry_Int_Tables_number   1
_chemical_formula_structural   Ba3AlO4F
_chemical_formula_sum   'Ba12 Al4 O16 F4'
_cell_volume   641.97432346
_cell_formula_units_Z   4
loop_
 _symmetry_equiv_pos_site_id
 _symmetry_equiv_pos_as_xyz
  1  'x, y, z'
loop_
 _atom_site_type_symbol
 _atom_site_label
 _atom_site_symmetry_multiplicity
 _atom_site_fract_x
 _atom_site_fract_y
 _atom_site_fract_z
 _atom_site_occupancy
  Ba  Ba0  1  0.400216  0.025893  0.833224  1
  Ba  Ba1  1  0.099784  0.474107  0.333224  1
  Ba  Ba2  1  0.599784  0.525893  0.166776  1
  Ba  Ba3  1  0.900216  0.974107  0.666776  1
  Ba  Ba4  1  0.599784  0.974107  0.166776  1
  Ba  Ba5  1  0.900216  0.525893  0.666776  1
  Ba  Ba6  1  0.400216  0.474107  0.833224  1
  Ba  Ba7  1  0.099784  0.025893  0.333224  1
  Ba  Ba8  1  0.903890  0.250000  0.965408  1
  Ba  Ba9  1  0.596110  0.250000  0.465408  1
  Ba  Ba10  1  0.096110  0.750000  0.034592  1
  Ba  Ba11  1  0.403890  0.750000  0.534592  1
  Al  Al12  1  0.189050  0.250000  0.603178  1
  Al  Al13  1  0.310950  0.250000  0.103178  1
  Al  Al14  1  0.810950  0.750000  0.396822  1
  Al  Al15  1  0.689050  0.750000  0.896822  1
  O  O16  1  0.305760  0.065456  0.571800  1
  O  O17  1  0.194240  0.434544  0.071800  1
  O  O18  1  0.694240  0.565456  0.428200  1
  O  O19  1  0.805760  0.934544  0.928200  1
  O  O20  1  0.694240  0.934544  0.428200  1
  O  O21  1  0.805760  0.565456  0.928200  1
  O  O22  1  0.305760  0.434544  0.571800  1
  O  O23  1  0.194240  0.065456  0.071800  1
  O  O24  1  0.984936  0.250000  0.511346  1
  O  O25  1  0.515064  0.250000  0.011346  1
  O  O26  1  0.015064  0.750000  0.488654  1
  O  O27  1  0.484936  0.750000  0.988654  1
  O  O28  1  0.129150  0.250000  0.767656  1
  O  O29  1  0.370850  0.250000  0.267656  1
  O  O30  1  0.870850  0.750000  0.232344  1
  O  O31  1  0.629150  0.750000  0.732344  1
  F  F32  1  0.661226  0.250000  0.728059  1
  F  F33  1  0.838774  0.250000  0.228059  1
  F  F34  1  0.338774  0.750000  0.271941  1
  F  F35  1  0.161226  0.750000  0.771941  1
