# generated using pymatgen
data_YbVTeO6
_symmetry_space_group_name_H-M   'P 1'
_cell_length_a   5.18229202
_cell_length_b   5.18158455
_cell_length_c   5.00533701
_cell_angle_alpha   90.00603331
_cell_angle_beta   89.99698559
_cell_angle_gamma   119.99547465
_symmetry_Int_Tables_number   1
_chemical_formula_structural   YbVTeO6
_chemical_formula_sum   'Yb1 V1 Te1 O6'
_cell_volume   116.40408611
_cell_formula_units_Z   1
loop_
 _symmetry_equiv_pos_site_id
 _symmetry_equiv_pos_as_xyz
  1  'x, y, z'
loop_
 _atom_site_type_symbol
 _atom_site_label
 _atom_site_symmetry_multiplicity
 _atom_site_fract_x
 _atom_site_fract_y
 _atom_site_fract_z
 _atom_site_occupancy
  Yb  Yb0  1  0.666641  0.333321  0.000000  1
  V  V1  1  0.999946  0.999973  0.500000  1
  Te  Te2  1  0.333353  0.666676  0.500000  1
  O  O3  1  0.294747  0.335290  0.283878  1
  O  O4  1  0.040492  0.705306  0.283948  1
  O  O5  1  0.664793  0.959497  0.283869  1
  O  O6  1  0.040492  0.335187  0.716051  1
  O  O7  1  0.664793  0.705296  0.716130  1
  O  O8  1  0.294747  0.959457  0.716121  1
