# generated using pymatgen
data_Lu3Th4Sc3(In2Rh)4
_symmetry_space_group_name_H-M   'P 1'
_cell_length_a   3.76149900
_cell_length_b   7.91155226
_cell_length_c   17.69839832
_cell_angle_alpha   90.10409812
_cell_angle_beta   90.00000000
_cell_angle_gamma   90.00000000
_symmetry_Int_Tables_number   1
_chemical_formula_structural   Lu3Th4Sc3(In2Rh)4
_chemical_formula_sum   'Lu3 Th4 Sc3 In8 Rh4'
_cell_volume   526.69100331
_cell_formula_units_Z   1
loop_
 _symmetry_equiv_pos_site_id
 _symmetry_equiv_pos_as_xyz
  1  'x, y, z'
loop_
 _atom_site_type_symbol
 _atom_site_label
 _atom_site_symmetry_multiplicity
 _atom_site_fract_x
 _atom_site_fract_y
 _atom_site_fract_z
 _atom_site_occupancy
  Lu  Lu0  1  0.000000  0.000071  0.000191  1
  Lu  Lu1  1  0.000000  0.500066  0.499179  1
  Lu  Lu2  1  0.000000  0.894261  0.585499  1
  Th  Th3  1  0.000000  0.763689  0.784608  1
  Th  Th4  1  0.000000  0.235818  0.216457  1
  Th  Th5  1  0.000000  0.264433  0.717595  1
  Th  Th6  1  0.000000  0.735457  0.282527  1
  Sc  Sc7  1  0.000000  0.105484  0.413290  1
  Sc  Sc8  1  0.000000  0.394974  0.914208  1
  Sc  Sc9  1  0.000000  0.604800  0.086127  1
  In  In10  1  0.500000  0.802028  0.442064  1
  In  In11  1  0.500000  0.203158  0.554482  1
  In  In12  1  0.500000  0.304351  0.054999  1
  In  In13  1  0.500000  0.695441  0.945448  1
  In  In14  1  0.500000  0.903301  0.142223  1
  In  In15  1  0.500000  0.096892  0.858307  1
  In  In16  1  0.500000  0.403504  0.357275  1
  In  In17  1  0.500000  0.590511  0.643323  1
  Rh  Rh18  1  0.500000  0.982309  0.698373  1
  Rh  Rh19  1  0.500000  0.019913  0.303354  1
  Rh  Rh20  1  0.500000  0.480266  0.804538  1
  Rh  Rh21  1  0.500000  0.519271  0.195932  1
