# generated using pymatgen
data_La4Al14CuPd
_symmetry_space_group_name_H-M   'P 1'
_cell_length_a   6.15850000
_cell_length_b   6.16235128
_cell_length_c   11.69139500
_cell_angle_alpha   74.71964820
_cell_angle_beta   74.72943737
_cell_angle_gamma   89.99999685
_symmetry_Int_Tables_number   1
_chemical_formula_structural   La4Al14CuPd
_chemical_formula_sum   'La4 Al14 Cu1 Pd1'
_cell_volume   411.75050872
_cell_formula_units_Z   1
loop_
 _symmetry_equiv_pos_site_id
 _symmetry_equiv_pos_as_xyz
  1  'x, y, z'
loop_
 _atom_site_type_symbol
 _atom_site_label
 _atom_site_symmetry_multiplicity
 _atom_site_fract_x
 _atom_site_fract_y
 _atom_site_fract_z
 _atom_site_occupancy
  La  La0  1  0.998997  0.998997  0.002004  1
  La  La1  1  0.499526  0.499526  0.000946  1
  La  La2  1  0.749452  0.249452  0.501096  1
  La  La3  1  0.246541  0.746541  0.506919  1
  Al  Al4  1  0.200781  0.200781  0.598441  1
  Al  Al5  1  0.807970  0.807970  0.384061  1
  Al  Al6  1  0.613698  0.123369  0.251359  1
  Al  Al7  1  0.134943  0.625269  0.251359  1
  Al  Al8  1  0.613698  0.625269  0.251359  1
  Al  Al9  1  0.134943  0.123369  0.251359  1
  Al  Al10  1  0.869111  0.356302  0.753604  1
  Al  Al11  1  0.377285  0.890093  0.753604  1
  Al  Al12  1  0.869111  0.890093  0.753604  1
  Al  Al13  1  0.377285  0.356302  0.753604  1
  Al  Al14  1  0.691069  0.691069  0.617861  1
  Al  Al15  1  0.060025  0.560025  0.879949  1
  Al  Al16  1  0.451527  0.951527  0.096944  1
  Al  Al17  1  0.943133  0.443133  0.113735  1
  Cu  Cu18  1  0.561745  0.061745  0.876511  1
  Pd  Pd19  1  0.313992  0.313992  0.372014  1
