# generated using pymatgen
data_Dy5Ho12Tm3Sn16
_symmetry_space_group_name_H-M   'P 1'
_cell_length_a   8.00426311
_cell_length_b   8.13552795
_cell_length_c   15.39790809
_cell_angle_alpha   90.00106985
_cell_angle_beta   89.92615748
_cell_angle_gamma   89.98554692
_symmetry_Int_Tables_number   1
_chemical_formula_structural   Dy5Ho12Tm3Sn16
_chemical_formula_sum   'Dy5 Ho12 Tm3 Sn16'
_cell_volume   1002.69406892
_cell_formula_units_Z   1
loop_
 _symmetry_equiv_pos_site_id
 _symmetry_equiv_pos_as_xyz
  1  'x, y, z'
loop_
 _atom_site_type_symbol
 _atom_site_label
 _atom_site_symmetry_multiplicity
 _atom_site_fract_x
 _atom_site_fract_y
 _atom_site_fract_z
 _atom_site_occupancy
  Dy  Dy0  1  0.979528  0.820714  0.096907  1
  Dy  Dy1  1  0.479679  0.678817  0.096771  1
  Dy  Dy2  1  0.979124  0.821046  0.403151  1
  Dy  Dy3  1  0.520842  0.320854  0.596795  1
  Dy  Dy4  1  0.019948  0.179165  0.903349  1
  Ho  Ho5  1  0.367055  0.837423  0.877322  1
  Ho  Ho6  1  0.867429  0.662617  0.622353  1
  Ho  Ho7  1  0.632313  0.162553  0.377552  1
  Ho  Ho8  1  0.132894  0.337533  0.122773  1
  Ho  Ho9  1  0.632681  0.162439  0.122718  1
  Ho  Ho10  1  0.132059  0.337597  0.377501  1
  Ho  Ho11  1  0.368312  0.837704  0.622481  1
  Ho  Ho12  1  0.867134  0.662585  0.877344  1
  Ho  Ho13  1  0.521251  0.320756  0.902848  1
  Ho  Ho14  1  0.021568  0.178973  0.597202  1
  Ho  Ho15  1  0.478275  0.678889  0.402775  1
  Ho  Ho16  1  0.198558  0.503325  0.749878  1
  Tm  Tm17  1  0.698799  0.996413  0.749916  1
  Tm  Tm18  1  0.801227  0.496535  0.250099  1
  Tm  Tm19  1  0.301360  0.003615  0.250182  1
  Sn  Sn20  1  0.293807  0.037375  0.041906  1
  Sn  Sn21  1  0.792571  0.463304  0.457934  1
  Sn  Sn22  1  0.707509  0.963499  0.542158  1
  Sn  Sn23  1  0.207078  0.537012  0.958357  1
  Sn  Sn24  1  0.705655  0.962412  0.958084  1
  Sn  Sn25  1  0.207155  0.538036  0.541446  1
  Sn  Sn26  1  0.293212  0.037479  0.458255  1
  Sn  Sn27  1  0.793531  0.461754  0.041575  1
  Sn  Sn28  1  0.565080  0.618541  0.749925  1
  Sn  Sn29  1  0.064052  0.882048  0.749790  1
  Sn  Sn30  1  0.435762  0.381409  0.250136  1
  Sn  Sn31  1  0.935559  0.118513  0.250104  1
  Sn  Sn32  1  0.331163  0.148095  0.750199  1
  Sn  Sn33  1  0.830578  0.350746  0.749735  1
  Sn  Sn34  1  0.668442  0.850846  0.250365  1
  Sn  Sn35  1  0.168812  0.649377  0.250112  1
