# generated using pymatgen
data_MoW11Cl24
_symmetry_space_group_name_H-M   'P 1'
_cell_length_a   9.50668144
_cell_length_b   9.50668176
_cell_length_c   11.59389368
_cell_angle_alpha   89.93755264
_cell_angle_beta   90.06245021
_cell_angle_gamma   75.15317426
_symmetry_Int_Tables_number   1
_chemical_formula_structural   MoW11Cl24
_chemical_formula_sum   'Mo1 W11 Cl24'
_cell_volume   1012.83740641
_cell_formula_units_Z   1
loop_
 _symmetry_equiv_pos_site_id
 _symmetry_equiv_pos_as_xyz
  1  'x, y, z'
loop_
 _atom_site_type_symbol
 _atom_site_label
 _atom_site_symmetry_multiplicity
 _atom_site_fract_x
 _atom_site_fract_y
 _atom_site_fract_z
 _atom_site_occupancy
  Mo  Mo0  1  0.146882  0.853118  0.932215  1
  W  W1  1  0.123785  0.123465  0.000133  1
  W  W2  1  0.876535  0.876215  0.000133  1
  W  W3  1  0.854548  0.145452  0.067526  1
  W  W4  1  0.067570  0.932430  0.145277  1
  W  W5  1  0.567325  0.432675  0.354236  1
  W  W6  1  0.354532  0.645468  0.432398  1
  W  W7  1  0.376183  0.375976  0.499692  1
  W  W8  1  0.624024  0.623817  0.499692  1
  W  W9  1  0.645784  0.354216  0.567068  1
  W  W10  1  0.433135  0.566865  0.645398  1
  W  W11  1  0.932748  0.067252  0.854990  1
  Cl  Cl12  1  0.280787  0.284329  0.001027  1
  Cl  Cl13  1  0.715671  0.719213  0.001027  1
  Cl  Cl14  1  0.085160  0.680148  0.075830  1
  Cl  Cl15  1  0.319852  0.914840  0.075830  1
  Cl  Cl16  1  0.652878  0.347121  0.152517  1
  Cl  Cl17  1  0.042228  0.191911  0.203608  1
  Cl  Cl18  1  0.808089  0.957772  0.203608  1
  Cl  Cl19  1  0.307226  0.458429  0.296148  1
  Cl  Cl20  1  0.541571  0.692773  0.296148  1
  Cl  Cl21  1  0.152200  0.847800  0.347186  1
  Cl  Cl22  1  0.586020  0.179146  0.424435  1
  Cl  Cl23  1  0.820854  0.413980  0.424435  1
  Cl  Cl24  1  0.216566  0.217199  0.499869  1
  Cl  Cl25  1  0.782801  0.783434  0.499869  1
  Cl  Cl26  1  0.179628  0.585945  0.575136  1
  Cl  Cl27  1  0.414055  0.820372  0.575136  1
  Cl  Cl28  1  0.847411  0.152589  0.653439  1
  Cl  Cl29  1  0.458648  0.306295  0.702805  1
  Cl  Cl30  1  0.693704  0.541352  0.702805  1
  Cl  Cl31  1  0.191548  0.043012  0.797517  1
  Cl  Cl32  1  0.956988  0.808452  0.797517  1
  Cl  Cl33  1  0.349932  0.650067  0.846183  1
  Cl  Cl34  1  0.679446  0.086316  0.924582  1
  Cl  Cl35  1  0.913684  0.320554  0.924582  1
