# generated using pymatgen
data_Tb2Pa(SnRh)3
_symmetry_space_group_name_H-M   'P 1'
_cell_length_a   7.68753400
_cell_length_b   7.57284473
_cell_length_c   3.86597300
_cell_angle_alpha   90.00000000
_cell_angle_beta   90.00000000
_cell_angle_gamma   120.50226359
_symmetry_Int_Tables_number   1
_chemical_formula_structural   Tb2Pa(SnRh)3
_chemical_formula_sum   'Tb2 Pa1 Sn3 Rh3'
_cell_volume   193.91669477
_cell_formula_units_Z   1
loop_
 _symmetry_equiv_pos_site_id
 _symmetry_equiv_pos_as_xyz
  1  'x, y, z'
loop_
 _atom_site_type_symbol
 _atom_site_label
 _atom_site_symmetry_multiplicity
 _atom_site_fract_x
 _atom_site_fract_y
 _atom_site_fract_z
 _atom_site_occupancy
  Tb  Tb0  1  0.000104  0.405518  0.500000  1
  Tb  Tb1  1  0.594585  0.594482  0.500000  1
  Pa  Pa2  1  0.413613  0.000000  0.500000  1
  Sn  Sn3  1  0.756137  0.000000  0.000000  1
  Sn  Sn4  1  0.987189  0.729198  0.000000  1
  Sn  Sn5  1  0.257991  0.270802  0.000000  1
  Rh  Rh6  1  0.336720  0.699709  0.000000  1
  Rh  Rh7  1  0.637012  0.300291  0.000000  1
  Rh  Rh8  1  0.016648  0.000000  0.500000  1
