# generated using pymatgen
data_DyTm6Lu3(In2Pt)4
_symmetry_space_group_name_H-M   'P 1'
_cell_length_a   3.62238900
_cell_length_b   8.03187555
_cell_length_c   18.02554183
_cell_angle_alpha   90.02864897
_cell_angle_beta   90.00000000
_cell_angle_gamma   90.00000000
_symmetry_Int_Tables_number   1
_chemical_formula_structural   DyTm6Lu3(In2Pt)4
_chemical_formula_sum   'Dy1 Tm6 Lu3 In8 Pt4'
_cell_volume   524.44546084
_cell_formula_units_Z   1
loop_
 _symmetry_equiv_pos_site_id
 _symmetry_equiv_pos_as_xyz
  1  'x, y, z'
loop_
 _atom_site_type_symbol
 _atom_site_label
 _atom_site_symmetry_multiplicity
 _atom_site_fract_x
 _atom_site_fract_y
 _atom_site_fract_z
 _atom_site_occupancy
  Dy  Dy0  1  0.000000  0.500232  0.500197  1
  Tm  Tm1  1  0.000000  0.616846  0.085661  1
  Tm  Tm2  1  0.000000  0.243977  0.220791  1
  Tm  Tm3  1  0.000000  0.756679  0.779404  1
  Tm  Tm4  1  0.000000  0.256766  0.720157  1
  Tm  Tm5  1  0.000000  0.743091  0.279937  1
  Tm  Tm6  1  0.000000  0.999705  0.999720  1
  Lu  Lu7  1  0.000000  0.117007  0.413815  1
  Lu  Lu8  1  0.000000  0.882992  0.586492  1
  Lu  Lu9  1  0.000000  0.383256  0.913458  1
  In  In10  1  0.500000  0.421523  0.351417  1
  In  In11  1  0.500000  0.578261  0.648995  1
  In  In12  1  0.500000  0.077713  0.851473  1
  In  In13  1  0.500000  0.923368  0.148709  1
  In  In14  1  0.500000  0.292258  0.065261  1
  In  In15  1  0.500000  0.706609  0.933737  1
  In  In16  1  0.500000  0.204112  0.565490  1
  In  In17  1  0.500000  0.796037  0.434682  1
  Pt  Pt18  1  0.500000  0.025890  0.304711  1
  Pt  Pt19  1  0.500000  0.974293  0.695550  1
  Pt  Pt20  1  0.500000  0.473694  0.804396  1
  Pt  Pt21  1  0.500000  0.525694  0.195947  1
