# generated using pymatgen
data_NdTh(Zn9Cu2)2
_symmetry_space_group_name_H-M   'P 1'
_cell_length_a   8.17309928
_cell_length_b   8.17310907
_cell_length_c   8.17309105
_cell_angle_alpha   99.84566781
_cell_angle_beta   99.84568567
_cell_angle_gamma   131.14879315
_symmetry_Int_Tables_number   1
_chemical_formula_structural   NdTh(Zn9Cu2)2
_chemical_formula_sum   'Nd1 Th1 Zn18 Cu4'
_cell_volume   374.31304708
_cell_formula_units_Z   1
loop_
 _symmetry_equiv_pos_site_id
 _symmetry_equiv_pos_as_xyz
  1  'x, y, z'
loop_
 _atom_site_type_symbol
 _atom_site_label
 _atom_site_symmetry_multiplicity
 _atom_site_fract_x
 _atom_site_fract_y
 _atom_site_fract_z
 _atom_site_occupancy
  Nd  Nd0  1  0.999999  0.999999  0.000000  1
  Th  Th1  1  0.250002  0.750002  0.500001  1
  Zn  Zn2  1  0.428966  0.103298  0.917522  1
  Zn  Zn3  1  0.185777  0.511444  0.082479  1
  Zn  Zn4  1  0.500002  0.500002  0.000001  1
  Zn  Zn5  1  0.749998  0.249998  0.499999  1
  Zn  Zn6  1  0.185778  0.103299  0.674333  1
  Zn  Zn7  1  0.761159  0.935999  0.582373  1
  Zn  Zn8  1  0.353627  0.178787  0.417627  1
  Zn  Zn9  1  0.428966  0.511443  0.325667  1
  Zn  Zn10  1  0.896703  0.814224  0.325667  1
  Zn  Zn11  1  0.488558  0.571036  0.674333  1
  Zn  Zn12  1  0.063998  0.238838  0.417626  1
  Zn  Zn13  1  0.821212  0.646372  0.582373  1
  Zn  Zn14  1  0.063997  0.646371  0.825159  1
  Zn  Zn15  1  0.488558  0.814226  0.917522  1
  Zn  Zn16  1  0.896703  0.571035  0.082478  1
  Zn  Zn17  1  0.821212  0.238839  0.174841  1
  Zn  Zn18  1  0.353627  0.936001  0.174840  1
  Zn  Zn19  1  0.761159  0.178786  0.825159  1
  Cu  Cu20  1  0.624192  0.374394  0.750200  1
  Cu  Cu21  1  0.126009  0.375809  0.750199  1
  Cu  Cu22  1  0.625606  0.375805  0.249800  1
  Cu  Cu23  1  0.624193  0.873993  0.249801  1
