# generated using pymatgen
data_Sm2Ta(NbSi2)2
_symmetry_space_group_name_H-M   'P 1'
_cell_length_a   7.11780800
_cell_length_b   7.11780800
_cell_length_c   13.20343900
_cell_angle_alpha   90.00000000
_cell_angle_beta   90.00000000
_cell_angle_gamma   90.00000000
_symmetry_Int_Tables_number   1
_chemical_formula_structural   Sm2Ta(NbSi2)2
_chemical_formula_sum   'Sm8 Ta4 Nb8 Si16'
_cell_volume   668.92834828
_cell_formula_units_Z   4
loop_
 _symmetry_equiv_pos_site_id
 _symmetry_equiv_pos_as_xyz
  1  'x, y, z'
loop_
 _atom_site_type_symbol
 _atom_site_label
 _atom_site_symmetry_multiplicity
 _atom_site_fract_x
 _atom_site_fract_y
 _atom_site_fract_z
 _atom_site_occupancy
  Sm  Sm0  1  0.997026  0.339250  0.217681  1
  Sm  Sm1  1  0.002974  0.660750  0.717681  1
  Sm  Sm2  1  0.160750  0.497026  0.467681  1
  Sm  Sm3  1  0.502974  0.839250  0.032319  1
  Sm  Sm4  1  0.839250  0.502974  0.967681  1
  Sm  Sm5  1  0.497026  0.160750  0.532319  1
  Sm  Sm6  1  0.339250  0.997026  0.782319  1
  Sm  Sm7  1  0.660750  0.002974  0.282319  1
  Ta  Ta8  1  0.170269  0.170269  0.000000  1
  Ta  Ta9  1  0.829731  0.829731  0.500000  1
  Ta  Ta10  1  0.329731  0.670269  0.250000  1
  Ta  Ta11  1  0.670269  0.329731  0.750000  1
  Nb  Nb12  1  0.156522  0.991034  0.375526  1
  Nb  Nb13  1  0.843478  0.008966  0.875526  1
  Nb  Nb14  1  0.508966  0.656522  0.625526  1
  Nb  Nb15  1  0.343478  0.491034  0.874474  1
  Nb  Nb16  1  0.491034  0.343478  0.125526  1
  Nb  Nb17  1  0.656522  0.508966  0.374474  1
  Nb  Nb18  1  0.991034  0.156522  0.624474  1
  Nb  Nb19  1  0.008966  0.843478  0.124474  1
  Si  Si20  1  0.292006  0.043198  0.186479  1
  Si  Si21  1  0.707994  0.956802  0.686479  1
  Si  Si22  1  0.456802  0.792006  0.436479  1
  Si  Si23  1  0.207994  0.543198  0.063521  1
  Si  Si24  1  0.543198  0.207994  0.936479  1
  Si  Si25  1  0.792006  0.456802  0.563521  1
  Si  Si26  1  0.043198  0.292006  0.813521  1
  Si  Si27  1  0.956802  0.707994  0.313521  1
  Si  Si28  1  0.370094  0.297755  0.315183  1
  Si  Si29  1  0.629906  0.702245  0.815183  1
  Si  Si30  1  0.202245  0.870094  0.565183  1
  Si  Si31  1  0.129906  0.797755  0.934817  1
  Si  Si32  1  0.797755  0.129906  0.065183  1
  Si  Si33  1  0.870094  0.202245  0.434817  1
  Si  Si34  1  0.297755  0.370094  0.684817  1
  Si  Si35  1  0.702245  0.629906  0.184817  1
