# generated using pymatgen
data_La7Nd7Th2(CdIr)4
_symmetry_space_group_name_H-M   'P 1'
_cell_length_a   10.04623985
_cell_length_b   10.04623972
_cell_length_c   10.05055300
_cell_angle_alpha   59.98579315
_cell_angle_beta   59.98579358
_cell_angle_gamma   60.19384143
_symmetry_Int_Tables_number   1
_chemical_formula_structural   La7Nd7Th2(CdIr)4
_chemical_formula_sum   'La7 Nd7 Th2 Cd4 Ir4'
_cell_volume   718.15908785
_cell_formula_units_Z   1
loop_
 _symmetry_equiv_pos_site_id
 _symmetry_equiv_pos_as_xyz
  1  'x, y, z'
loop_
 _atom_site_type_symbol
 _atom_site_label
 _atom_site_symmetry_multiplicity
 _atom_site_fract_x
 _atom_site_fract_y
 _atom_site_fract_z
 _atom_site_occupancy
  La  La0  1  0.349053  0.955488  0.347730  1
  La  La1  1  0.955488  0.349053  0.347730  1
  La  La2  1  0.808319  0.190331  0.191914  1
  La  La3  1  0.190331  0.808319  0.809437  1
  La  La4  1  0.190331  0.808319  0.191914  1
  La  La5  1  0.808319  0.190331  0.809437  1
  La  La6  1  0.191417  0.191417  0.808583  1
  Nd  Nd7  1  0.806998  0.806998  0.193002  1
  Nd  Nd8  1  0.938797  0.563474  0.563094  1
  Nd  Nd9  1  0.563474  0.938797  0.934635  1
  Nd  Nd10  1  0.563474  0.938797  0.563094  1
  Nd  Nd11  1  0.938797  0.563474  0.934635  1
  Nd  Nd12  1  0.562858  0.562858  0.937142  1
  Nd  Nd13  1  0.936635  0.936635  0.563365  1
  Th  Th14  1  0.344993  0.344993  0.345890  1
  Th  Th15  1  0.344993  0.344993  0.964124  1
  Cd  Cd16  1  0.579400  0.579400  0.581637  1
  Cd  Cd17  1  0.579400  0.579400  0.259564  1
  Cd  Cd18  1  0.578219  0.258418  0.581681  1
  Cd  Cd19  1  0.258418  0.578219  0.581681  1
  Ir  Ir20  1  0.145582  0.145582  0.137014  1
  Ir  Ir21  1  0.145582  0.145582  0.571821  1
  Ir  Ir22  1  0.151459  0.567665  0.140438  1
  Ir  Ir23  1  0.567665  0.151459  0.140438  1
