# generated using pymatgen
data_SmU5O16
_symmetry_space_group_name_H-M   'P 1'
_cell_length_a   6.75792736
_cell_length_b   6.78433647
_cell_length_c   8.38135900
_cell_angle_alpha   90.00000000
_cell_angle_beta   90.00000000
_cell_angle_gamma   116.02837238
_symmetry_Int_Tables_number   1
_chemical_formula_structural   SmU5O16
_chemical_formula_sum   'Sm1 U5 O16'
_cell_volume   345.29522371
_cell_formula_units_Z   1
loop_
 _symmetry_equiv_pos_site_id
 _symmetry_equiv_pos_as_xyz
  1  'x, y, z'
loop_
 _atom_site_type_symbol
 _atom_site_label
 _atom_site_symmetry_multiplicity
 _atom_site_fract_x
 _atom_site_fract_y
 _atom_site_fract_z
 _atom_site_occupancy
  Sm  Sm0  1  0.307757  0.684441  0.250000  1
  U  U1  1  0.997269  0.999518  0.250000  1
  U  U2  1  0.317270  0.685460  0.750000  1
  U  U3  1  0.682975  0.319326  0.750000  1
  U  U4  1  0.682595  0.317621  0.250000  1
  U  U5  1  0.999067  0.001242  0.750000  1
  O  O6  1  0.316088  0.687476  0.973467  1
  O  O7  1  0.517601  0.504780  0.750000  1
  O  O8  1  0.999728  0.998545  0.506012  1
  O  O9  1  0.025142  0.318753  0.250000  1
  O  O10  1  0.965744  0.672984  0.750000  1
  O  O11  1  0.318388  0.040903  0.250000  1
  O  O12  1  0.688354  0.311986  0.493790  1
  O  O13  1  0.038542  0.327240  0.750000  1
  O  O14  1  0.679765  0.961000  0.250000  1
  O  O15  1  0.330636  0.046579  0.750000  1
  O  O16  1  0.688354  0.311986  0.006210  1
  O  O17  1  0.316088  0.687476  0.526533  1
  O  O18  1  0.506052  0.476357  0.250000  1
  O  O19  1  0.948080  0.674373  0.250000  1
  O  O20  1  0.999728  0.998545  0.993988  1
  O  O21  1  0.674781  0.973410  0.750000  1
