# generated using pymatgen
data_La4SmY(RuI3)2
_symmetry_space_group_name_H-M   'P 1'
_cell_length_a   4.34571000
_cell_length_b   9.49981159
_cell_length_c   12.52830854
_cell_angle_alpha   87.94853570
_cell_angle_beta   90.00000000
_cell_angle_gamma   90.00000000
_symmetry_Int_Tables_number   1
_chemical_formula_structural   La4SmY(RuI3)2
_chemical_formula_sum   'La4 Sm1 Y1 Ru2 I6'
_cell_volume   516.88000866
_cell_formula_units_Z   1
loop_
 _symmetry_equiv_pos_site_id
 _symmetry_equiv_pos_as_xyz
  1  'x, y, z'
loop_
 _atom_site_type_symbol
 _atom_site_label
 _atom_site_symmetry_multiplicity
 _atom_site_fract_x
 _atom_site_fract_y
 _atom_site_fract_z
 _atom_site_occupancy
  La  La0  1  0.750000  0.119576  0.671200  1
  La  La1  1  0.250000  0.879249  0.328131  1
  La  La2  1  0.750000  0.099459  0.102308  1
  La  La3  1  0.250000  0.898433  0.898100  1
  Sm  Sm4  1  0.250000  0.313341  0.880605  1
  Y  Y5  1  0.750000  0.689007  0.120010  1
  Ru  Ru6  1  0.750000  0.114038  0.870049  1
  Ru  Ru7  1  0.250000  0.884531  0.129535  1
  I  I8  1  0.750000  0.134907  0.380521  1
  I  I9  1  0.250000  0.864659  0.619322  1
  I  I10  1  0.250000  0.377249  0.629310  1
  I  I11  1  0.750000  0.622393  0.368788  1
  I  I12  1  0.750000  0.599624  0.874130  1
  I  I13  1  0.250000  0.403533  0.127992  1
