# generated using pymatgen
data_Nb6Al5GaCo12
_symmetry_space_group_name_H-M   'P 1'
_cell_length_a   4.22292300
_cell_length_b   5.95127800
_cell_length_c   12.70190500
_cell_angle_alpha   90.00077620
_cell_angle_beta   89.99956633
_cell_angle_gamma   89.99999806
_symmetry_Int_Tables_number   1
_chemical_formula_structural   Nb6Al5GaCo12
_chemical_formula_sum   'Nb6 Al5 Ga1 Co12'
_cell_volume   319.22159333
_cell_formula_units_Z   1
loop_
 _symmetry_equiv_pos_site_id
 _symmetry_equiv_pos_as_xyz
  1  'x, y, z'
loop_
 _atom_site_type_symbol
 _atom_site_label
 _atom_site_symmetry_multiplicity
 _atom_site_fract_x
 _atom_site_fract_y
 _atom_site_fract_z
 _atom_site_occupancy
  Nb  Nb0  1  0.000009  0.000002  0.999447  1
  Nb  Nb1  1  0.500235  0.500008  0.166651  1
  Nb  Nb2  1  0.000237  0.999969  0.333336  1
  Nb  Nb3  1  0.500000  0.500006  0.500006  1
  Nb  Nb4  1  0.999766  0.999996  0.667216  1
  Nb  Nb5  1  0.499763  0.500025  0.833346  1
  Al  Al6  1  0.000001  0.500015  0.000124  1
  Al  Al7  1  0.500237  0.999986  0.166596  1
  Al  Al8  1  0.000229  0.500036  0.333322  1
  Al  Al9  1  0.500003  0.999985  0.500072  1
  Al  Al10  1  0.999770  0.500022  0.666555  1
  Ga  Ga11  1  0.499742  0.999959  0.833325  1
  Co  Co12  1  0.500010  0.250914  0.000843  1
  Co  Co13  1  0.500003  0.749086  0.000834  1
  Co  Co14  1  0.000274  0.249506  0.166461  1
  Co  Co15  1  0.000278  0.750491  0.166469  1
  Co  Co16  1  0.500281  0.249858  0.333329  1
  Co  Co17  1  0.500279  0.750137  0.333329  1
  Co  Co18  1  0.999995  0.249531  0.500202  1
  Co  Co19  1  0.000004  0.750465  0.500194  1
  Co  Co20  1  0.499728  0.250946  0.665831  1
  Co  Co21  1  0.499722  0.749050  0.665836  1
  Co  Co22  1  0.999715  0.252866  0.833338  1
  Co  Co23  1  0.999721  0.747143  0.833337  1
