# generated using pymatgen
data_Tm10Si16B
_symmetry_space_group_name_H-M   'P 1'
_cell_length_a   6.51360615
_cell_length_b   8.18589455
_cell_length_c   10.74915968
_cell_angle_alpha   112.38133025
_cell_angle_beta   107.63679420
_cell_angle_gamma   89.99999604
_symmetry_Int_Tables_number   1
_chemical_formula_structural   Tm10Si16B
_chemical_formula_sum   'Tm10 Si16 B1'
_cell_volume   500.70984485
_cell_formula_units_Z   1
loop_
 _symmetry_equiv_pos_site_id
 _symmetry_equiv_pos_as_xyz
  1  'x, y, z'
loop_
 _atom_site_type_symbol
 _atom_site_label
 _atom_site_symmetry_multiplicity
 _atom_site_fract_x
 _atom_site_fract_y
 _atom_site_fract_z
 _atom_site_occupancy
  Tm  Tm0  1  0.237092  0.240265  0.000000  1
  Tm  Tm1  1  0.237092  0.759735  0.000000  1
  Tm  Tm2  1  0.829366  0.350812  0.198903  1
  Tm  Tm3  1  0.829366  0.848090  0.198903  1
  Tm  Tm4  1  0.436060  0.446939  0.397021  1
  Tm  Tm5  1  0.436060  0.950081  0.397021  1
  Tm  Tm6  1  0.039040  0.049919  0.602979  1
  Tm  Tm7  1  0.039040  0.553061  0.602979  1
  Tm  Tm8  1  0.630465  0.151910  0.801097  1
  Tm  Tm9  1  0.630465  0.649188  0.801097  1
  Si  Si10  1  0.884179  0.000000  0.000000  1
  Si  Si11  1  0.620893  0.500000  0.000000  1
  Si  Si12  1  0.112652  0.577109  0.154217  1
  Si  Si13  1  0.496790  0.600273  0.200546  1
  Si  Si14  1  0.503141  0.095804  0.191608  1
  Si  Si15  1  0.157895  0.115808  0.231616  1
  Si  Si16  1  0.827580  0.198573  0.397146  1
  Si  Si17  1  0.102154  0.699220  0.398441  1
  Si  Si18  1  0.754529  0.718789  0.437578  1
  Si  Si19  1  0.316951  0.281211  0.562422  1
  Si  Si20  1  0.703715  0.300780  0.601559  1
  Si  Si21  1  0.430432  0.801427  0.602853  1
  Si  Si22  1  0.926279  0.884192  0.768384  1
  Si  Si23  1  0.311532  0.904196  0.808392  1
  Si  Si24  1  0.296246  0.399727  0.799454  1
  Si  Si25  1  0.958433  0.422891  0.845783  1
  B  B26  1  0.563630  0.000000  0.000000  1
