# generated using pymatgen
data_TbU(FeB4)2
_symmetry_space_group_name_H-M   'P 1'
_cell_length_a   5.89531990
_cell_length_b   11.40832474
_cell_length_c   3.38204400
_cell_angle_alpha   89.99992592
_cell_angle_beta   90.00006306
_cell_angle_gamma   90.06331509
_symmetry_Int_Tables_number   1
_chemical_formula_structural   TbU(FeB4)2
_chemical_formula_sum   'Tb2 U2 Fe4 B16'
_cell_volume   227.46167851
_cell_formula_units_Z   2
loop_
 _symmetry_equiv_pos_site_id
 _symmetry_equiv_pos_as_xyz
  1  'x, y, z'
loop_
 _atom_site_type_symbol
 _atom_site_label
 _atom_site_symmetry_multiplicity
 _atom_site_fract_x
 _atom_site_fract_y
 _atom_site_fract_z
 _atom_site_occupancy
  Tb  Tb0  1  0.126503  0.149065  0.999999  1
  Tb  Tb1  1  0.873433  0.850954  0.999999  1
  U  U2  1  0.626509  0.349346  0.999999  1
  U  U3  1  0.373452  0.650601  0.999999  1
  Fe  Fe4  1  0.134792  0.411285  0.999999  1
  Fe  Fe5  1  0.865247  0.588808  0.999999  1
  Fe  Fe6  1  0.632373  0.091567  0.999999  1
  Fe  Fe7  1  0.367699  0.908356  0.999999  1
  B  B8  1  0.475893  0.190518  0.499999  1
  B  B9  1  0.524237  0.809372  0.499999  1
  B  B10  1  0.975112  0.310221  0.499999  1
  B  B11  1  0.024886  0.689806  0.499999  1
  B  B12  1  0.283633  0.315784  0.499999  1
  B  B13  1  0.716405  0.684259  0.499999  1
  B  B14  1  0.780934  0.185426  0.499999  1
  B  B15  1  0.218870  0.814457  0.500000  1
  B  B16  1  0.364217  0.466255  0.499999  1
  B  B17  1  0.635829  0.533767  0.499999  1
  B  B18  1  0.859586  0.032601  0.499999  1
  B  B19  1  0.140220  0.967399  0.499999  1
  B  B20  1  0.388586  0.045276  0.499999  1
  B  B21  1  0.611609  0.954801  0.499999  1
  B  B22  1  0.886882  0.454195  0.499999  1
  B  B23  1  0.113090  0.545877  0.500000  1
