# generated using pymatgen
data_Li2YTm7(Sc5Si8)2
_symmetry_space_group_name_H-M   'P 1'
_cell_length_a   6.95312905
_cell_length_b   7.35851261
_cell_length_c   13.93741213
_cell_angle_alpha   90.04515421
_cell_angle_beta   90.00972263
_cell_angle_gamma   89.94352969
_symmetry_Int_Tables_number   1
_chemical_formula_structural   Li2YTm7(Sc5Si8)2
_chemical_formula_sum   'Li2 Y1 Tm7 Sc10 Si16'
_cell_volume   713.10276174
_cell_formula_units_Z   1
loop_
 _symmetry_equiv_pos_site_id
 _symmetry_equiv_pos_as_xyz
  1  'x, y, z'
loop_
 _atom_site_type_symbol
 _atom_site_label
 _atom_site_symmetry_multiplicity
 _atom_site_fract_x
 _atom_site_fract_y
 _atom_site_fract_z
 _atom_site_occupancy
  Li  Li0  1  0.159982  0.506793  0.749988  1
  Li  Li1  1  0.839951  0.493430  0.250112  1
  Y  Y2  1  0.009438  0.183915  0.097549  1
  Tm  Tm3  1  0.989750  0.815176  0.901743  1
  Tm  Tm4  1  0.485528  0.674864  0.902850  1
  Tm  Tm5  1  0.989755  0.815228  0.598052  1
  Tm  Tm6  1  0.514567  0.325363  0.097022  1
  Tm  Tm7  1  0.010194  0.184688  0.401872  1
  Tm  Tm8  1  0.514662  0.325163  0.403095  1
  Tm  Tm9  1  0.485404  0.674846  0.597024  1
  Sc  Sc10  1  0.341696  0.003639  0.250170  1
  Sc  Sc11  1  0.658503  0.996073  0.750027  1
  Sc  Sc12  1  0.326239  0.181253  0.626311  1
  Sc  Sc13  1  0.673746  0.818572  0.373904  1
  Sc  Sc14  1  0.165654  0.674996  0.373155  1
  Sc  Sc15  1  0.673538  0.818393  0.126278  1
  Sc  Sc16  1  0.834343  0.325042  0.626994  1
  Sc  Sc17  1  0.326414  0.181332  0.873608  1
  Sc  Sc18  1  0.834037  0.325340  0.872860  1
  Sc  Sc19  1  0.165786  0.674924  0.126959  1
  Si  Si20  1  0.029097  0.099598  0.749929  1
  Si  Si21  1  0.970575  0.899481  0.250472  1
  Si  Si22  1  0.466621  0.611088  0.250075  1
  Si  Si23  1  0.533364  0.389078  0.749980  1
  Si  Si24  1  0.287076  0.876372  0.750016  1
  Si  Si25  1  0.712147  0.123161  0.250552  1
  Si  Si26  1  0.221228  0.371738  0.250546  1
  Si  Si27  1  0.779691  0.629047  0.749953  1
  Si  Si28  1  0.161256  0.461628  0.533403  1
  Si  Si29  1  0.838806  0.538354  0.466652  1
  Si  Si30  1  0.342033  0.967162  0.461258  1
  Si  Si31  1  0.838446  0.539543  0.032971  1
  Si  Si32  1  0.657895  0.032890  0.538806  1
  Si  Si33  1  0.161549  0.462709  0.966210  1
  Si  Si34  1  0.657620  0.032763  0.961081  1
  Si  Si35  1  0.343407  0.966360  0.038524  1
