# generated using pymatgen
data_TmSc2InRu2
_symmetry_space_group_name_H-M   'P 1'
_cell_length_a   3.33803400
_cell_length_b   3.33803400
_cell_length_c   10.50101500
_cell_angle_alpha   90.00000000
_cell_angle_beta   90.00000000
_cell_angle_gamma   90.00000000
_symmetry_Int_Tables_number   1
_chemical_formula_structural   TmSc2InRu2
_chemical_formula_sum   'Tm1 Sc2 In1 Ru2'
_cell_volume   117.00725495
_cell_formula_units_Z   1
loop_
 _symmetry_equiv_pos_site_id
 _symmetry_equiv_pos_as_xyz
  1  'x, y, z'
loop_
 _atom_site_type_symbol
 _atom_site_label
 _atom_site_symmetry_multiplicity
 _atom_site_fract_x
 _atom_site_fract_y
 _atom_site_fract_z
 _atom_site_occupancy
  Tm  Tm0  1  0.000000  0.000000  0.000000  1
  Sc  Sc1  1  0.000000  0.000000  0.697785  1
  Sc  Sc2  1  0.000000  0.000000  0.302215  1
  In  In3  1  0.500000  0.500000  0.500000  1
  Ru  Ru4  1  0.500000  0.500000  0.831907  1
  Ru  Ru5  1  0.500000  0.500000  0.168093  1
