# generated using pymatgen
data_YLu2Mg3Ga2Hg
_symmetry_space_group_name_H-M   'P 1'
_cell_length_a   7.34391959
_cell_length_b   7.31315184
_cell_length_c   4.36379800
_cell_angle_alpha   90.00000000
_cell_angle_beta   90.00000000
_cell_angle_gamma   119.86150141
_symmetry_Int_Tables_number   1
_chemical_formula_structural   YLu2Mg3Ga2Hg
_chemical_formula_sum   'Y1 Lu2 Mg3 Ga2 Hg1'
_cell_volume   203.25076404
_cell_formula_units_Z   1
loop_
 _symmetry_equiv_pos_site_id
 _symmetry_equiv_pos_as_xyz
  1  'x, y, z'
loop_
 _atom_site_type_symbol
 _atom_site_label
 _atom_site_symmetry_multiplicity
 _atom_site_fract_x
 _atom_site_fract_y
 _atom_site_fract_z
 _atom_site_occupancy
  Y  Y0  1  0.000000  0.571692  0.000000  1
  Lu  Lu1  1  0.428336  0.427782  0.000000  1
  Lu  Lu2  1  0.571664  0.999445  0.000000  1
  Mg  Mg3  1  0.000000  0.249680  0.500000  1
  Mg  Mg4  1  0.750361  0.750180  0.500000  1
  Mg  Mg5  1  0.249639  0.999819  0.500000  1
  Ga  Ga6  1  0.663954  0.331446  0.500000  1
  Ga  Ga7  1  0.336046  0.667492  0.500000  1
  Hg  Hg8  1  0.000000  0.002463  0.000000  1
