# generated using pymatgen
data_Tc6PtRh
_symmetry_space_group_name_H-M   'P 1'
_cell_length_a   5.55877800
_cell_length_b   5.55877803
_cell_length_c   4.37482500
_cell_angle_alpha   90.00000000
_cell_angle_beta   90.00000000
_cell_angle_gamma   119.99999980
_symmetry_Int_Tables_number   1
_chemical_formula_structural   Tc6PtRh
_chemical_formula_sum   'Tc6 Pt1 Rh1'
_cell_volume   117.07117586
_cell_formula_units_Z   1
loop_
 _symmetry_equiv_pos_site_id
 _symmetry_equiv_pos_as_xyz
  1  'x, y, z'
loop_
 _atom_site_type_symbol
 _atom_site_label
 _atom_site_symmetry_multiplicity
 _atom_site_fract_x
 _atom_site_fract_y
 _atom_site_fract_z
 _atom_site_occupancy
  Tc  Tc0  1  0.158383  0.316766  0.250000  1
  Tc  Tc1  1  0.683234  0.841617  0.250000  1
  Tc  Tc2  1  0.158383  0.841617  0.250000  1
  Tc  Tc3  1  0.840324  0.680647  0.750000  1
  Tc  Tc4  1  0.319353  0.159676  0.750000  1
  Tc  Tc5  1  0.840324  0.159676  0.750000  1
  Pt  Pt6  1  0.333333  0.666667  0.750000  1
  Rh  Rh7  1  0.666667  0.333333  0.250000  1
