# generated using pymatgen
data_DyLuNi2(B2Ir)2
_symmetry_space_group_name_H-M   'P 1'
_cell_length_a   5.05263335
_cell_length_b   5.05263420
_cell_length_c   7.28805389
_cell_angle_alpha   58.46262130
_cell_angle_beta   58.46261452
_cell_angle_gamma   61.63663831
_symmetry_Int_Tables_number   1
_chemical_formula_structural   DyLuNi2(B2Ir)2
_chemical_formula_sum   'Dy1 Lu1 Ni2 B4 Ir2'
_cell_volume   129.85223013
_cell_formula_units_Z   1
loop_
 _symmetry_equiv_pos_site_id
 _symmetry_equiv_pos_as_xyz
  1  'x, y, z'
loop_
 _atom_site_type_symbol
 _atom_site_label
 _atom_site_symmetry_multiplicity
 _atom_site_fract_x
 _atom_site_fract_y
 _atom_site_fract_z
 _atom_site_occupancy
  Dy  Dy0  1  0.872782  0.127218  0.750000  1
  Lu  Lu1  1  0.109832  0.890168  0.250000  1
  Ni  Ni2  1  0.528538  0.731910  0.793606  1
  Ni  Ni3  1  0.268090  0.471462  0.706394  1
  B  B4  1  0.169502  0.492454  0.004415  1
  B  B5  1  0.507546  0.830498  0.495585  1
  B  B6  1  0.841941  0.487252  0.972513  1
  B  B7  1  0.512748  0.158059  0.527487  1
  Ir  Ir8  1  0.460448  0.271426  0.199182  1
  Ir  Ir9  1  0.728574  0.539552  0.300818  1
