# generated using pymatgen
data_Ca2NdNi6B2Ir
_symmetry_space_group_name_H-M   'P 1'
_cell_length_a   7.84492178
_cell_length_b   7.84492098
_cell_length_c   7.84492103
_cell_angle_alpha   38.30111956
_cell_angle_beta   38.30112671
_cell_angle_gamma   38.30112522
_symmetry_Int_Tables_number   1
_chemical_formula_structural   Ca2NdNi6B2Ir
_chemical_formula_sum   'Ca2 Nd1 Ni6 B2 Ir1'
_cell_volume   166.57390313
_cell_formula_units_Z   1
loop_
 _symmetry_equiv_pos_site_id
 _symmetry_equiv_pos_as_xyz
  1  'x, y, z'
loop_
 _atom_site_type_symbol
 _atom_site_label
 _atom_site_symmetry_multiplicity
 _atom_site_fract_x
 _atom_site_fract_y
 _atom_site_fract_z
 _atom_site_occupancy
  Ca  Ca0  1  0.356479  0.356479  0.356479  1
  Ca  Ca1  1  0.498277  0.498277  0.498277  1
  Nd  Nd2  1  0.645518  0.645518  0.645518  1
  Ni  Ni3  1  0.570498  0.059292  0.059292  1
  Ni  Ni4  1  0.059292  0.059292  0.570498  1
  Ni  Ni5  1  0.059292  0.570498  0.059292  1
  Ni  Ni6  1  0.940577  0.429194  0.940577  1
  Ni  Ni7  1  0.940577  0.940577  0.429194  1
  Ni  Ni8  1  0.429194  0.940577  0.940577  1
  B  B9  1  0.830866  0.830866  0.830866  1
  B  B10  1  0.169231  0.169231  0.169231  1
  Ir  Ir11  1  0.000198  0.000198  0.000198  1
