# generated using pymatgen
data_ReTc(IrRu)3
_symmetry_space_group_name_H-M   'P 1'
_cell_length_a   5.50685318
_cell_length_b   5.49854105
_cell_length_c   4.36527900
_cell_angle_alpha   90.00000000
_cell_angle_beta   90.00000000
_cell_angle_gamma   120.22193077
_symmetry_Int_Tables_number   1
_chemical_formula_structural   ReTc(IrRu)3
_chemical_formula_sum   'Re1 Tc1 Ir3 Ru3'
_cell_volume   114.21365643
_cell_formula_units_Z   1
loop_
 _symmetry_equiv_pos_site_id
 _symmetry_equiv_pos_as_xyz
  1  'x, y, z'
loop_
 _atom_site_type_symbol
 _atom_site_label
 _atom_site_symmetry_multiplicity
 _atom_site_fract_x
 _atom_site_fract_y
 _atom_site_fract_z
 _atom_site_occupancy
  Re  Re0  1  0.334303  0.669336  0.750000  1
  Tc  Tc1  1  0.667666  0.331787  0.250000  1
  Ir  Ir2  1  0.165926  0.333620  0.250000  1
  Ir  Ir3  1  0.832804  0.665418  0.750000  1
  Ir  Ir4  1  0.334931  0.166528  0.750000  1
  Ru  Ru5  1  0.665779  0.833914  0.250000  1
  Ru  Ru6  1  0.167536  0.832374  0.250000  1
  Ru  Ru7  1  0.831055  0.167024  0.750000  1
