# generated using pymatgen
data_V2Zn(SeO3)4
_symmetry_space_group_name_H-M   'P 1'
_cell_length_a   8.19124800
_cell_length_b   8.21955218
_cell_length_c   8.34579253
_cell_angle_alpha   87.30102810
_cell_angle_beta   90.00000000
_cell_angle_gamma   90.00000000
_symmetry_Int_Tables_number   1
_chemical_formula_structural   V2Zn(SeO3)4
_chemical_formula_sum   'V4 Zn2 Se8 O24'
_cell_volume   561.28546362
_cell_formula_units_Z   2
loop_
 _symmetry_equiv_pos_site_id
 _symmetry_equiv_pos_as_xyz
  1  'x, y, z'
loop_
 _atom_site_type_symbol
 _atom_site_label
 _atom_site_symmetry_multiplicity
 _atom_site_fract_x
 _atom_site_fract_y
 _atom_site_fract_z
 _atom_site_occupancy
  V  V0  1  0.759946  0.749902  0.000734  1
  V  V1  1  0.738098  0.245294  0.507779  1
  V  V2  1  0.240054  0.249902  0.000734  1
  V  V3  1  0.261902  0.745294  0.507779  1
  Zn  Zn4  1  0.604018  0.340605  0.162373  1
  Zn  Zn5  1  0.395982  0.840605  0.162373  1
  Se  Se6  1  0.092914  0.551538  0.188669  1
  Se  Se7  1  0.907086  0.051538  0.188669  1
  Se  Se8  1  0.571626  0.450468  0.821347  1
  Se  Se9  1  0.321487  0.165488  0.412972  1
  Se  Se10  1  0.055466  0.419861  0.682415  1
  Se  Se11  1  0.428374  0.950468  0.821347  1
  Se  Se12  1  0.678513  0.665488  0.412972  1
  Se  Se13  1  0.944534  0.919861  0.682415  1
  O  O14  1  0.964435  0.706932  0.119245  1
  O  O15  1  0.309668  0.004471  0.988110  1
  O  O16  1  0.166503  0.258703  0.777509  1
  O  O17  1  0.668997  0.457010  0.368219  1
  O  O18  1  0.752867  0.174718  0.269109  1
  O  O19  1  0.188506  0.497453  0.017405  1
  O  O20  1  0.215736  0.515853  0.579275  1
  O  O21  1  0.625899  0.755179  0.224631  1
  O  O22  1  0.717823  0.347529  0.722489  1
  O  O23  1  0.331003  0.957010  0.368219  1
  O  O24  1  0.976001  0.314404  0.524734  1
  O  O25  1  0.480182  0.292175  0.937327  1
  O  O26  1  0.833497  0.758703  0.777509  1
  O  O27  1  0.507718  0.693116  0.521556  1
  O  O28  1  0.282177  0.847529  0.722489  1
  O  O29  1  0.247133  0.674718  0.269109  1
  O  O30  1  0.374101  0.255179  0.224631  1
  O  O31  1  0.035565  0.206932  0.119245  1
  O  O32  1  0.023999  0.814404  0.524734  1
  O  O33  1  0.519818  0.792175  0.937327  1
  O  O34  1  0.690332  0.504470  0.988110  1
  O  O35  1  0.784264  0.015853  0.579275  1
  O  O36  1  0.492282  0.193116  0.521556  1
  O  O37  1  0.811494  0.997453  0.017405  1
