# generated using pymatgen
data_Nd6CuRh17
_symmetry_space_group_name_H-M   'P 1'
_cell_length_a   5.35337430
_cell_length_b   5.35398550
_cell_length_c   17.56919800
_cell_angle_alpha   90.00000000
_cell_angle_beta   90.00000000
_cell_angle_gamma   120.00802541
_symmetry_Int_Tables_number   1
_chemical_formula_structural   Nd6CuRh17
_chemical_formula_sum   'Nd6 Cu1 Rh17'
_cell_volume   436.06601641
_cell_formula_units_Z   1
loop_
 _symmetry_equiv_pos_site_id
 _symmetry_equiv_pos_as_xyz
  1  'x, y, z'
loop_
 _atom_site_type_symbol
 _atom_site_label
 _atom_site_symmetry_multiplicity
 _atom_site_fract_x
 _atom_site_fract_y
 _atom_site_fract_z
 _atom_site_occupancy
  Nd  Nd0  1  0.333332  0.666678  0.958115  1
  Nd  Nd1  1  0.666663  0.333334  0.042648  1
  Nd  Nd2  1  0.666663  0.333334  0.457352  1
  Nd  Nd3  1  0.333332  0.666678  0.541885  1
  Nd  Nd4  1  0.333326  0.666656  0.750000  1
  Nd  Nd5  1  0.666687  0.333335  0.250000  1
  Cu  Cu6  1  0.333365  0.666690  0.250000  1
  Rh  Rh7  1  0.168144  0.831845  0.371796  1
  Rh  Rh8  1  0.168138  0.336278  0.371782  1
  Rh  Rh9  1  0.663719  0.831852  0.371793  1
  Rh  Rh10  1  0.833433  0.166582  0.626520  1
  Rh  Rh11  1  0.833431  0.666870  0.626542  1
  Rh  Rh12  1  0.333136  0.166577  0.626531  1
  Rh  Rh13  1  0.833433  0.166582  0.873480  1
  Rh  Rh14  1  0.833431  0.666870  0.873458  1
  Rh  Rh15  1  0.333136  0.166577  0.873469  1
  Rh  Rh16  1  0.168144  0.831845  0.128204  1
  Rh  Rh17  1  0.168138  0.336278  0.128218  1
  Rh  Rh18  1  0.663719  0.831852  0.128207  1
  Rh  Rh19  1  0.666680  0.333334  0.750000  1
  Rh  Rh20  1  0.999968  0.999932  0.250000  1
  Rh  Rh21  1  0.999984  0.000023  0.750000  1
  Rh  Rh22  1  0.999998  0.999997  0.497862  1
  Rh  Rh23  1  0.999998  0.999997  0.002138  1
