# generated using pymatgen
data_PrY2WO7
_symmetry_space_group_name_H-M   'P 1'
_cell_length_a   6.53978199
_cell_length_b   6.53978193
_cell_length_c   7.64032800
_cell_angle_alpha   90.00000000
_cell_angle_beta   90.00000000
_cell_angle_gamma   109.25847505
_symmetry_Int_Tables_number   1
_chemical_formula_structural   PrY2WO7
_chemical_formula_sum   'Pr2 Y4 W2 O14'
_cell_volume   308.48144658
_cell_formula_units_Z   2
loop_
 _symmetry_equiv_pos_site_id
 _symmetry_equiv_pos_as_xyz
  1  'x, y, z'
loop_
 _atom_site_type_symbol
 _atom_site_label
 _atom_site_symmetry_multiplicity
 _atom_site_fract_x
 _atom_site_fract_y
 _atom_site_fract_z
 _atom_site_occupancy
  Pr  Pr0  1  0.500000  0.500000  0.500000  1
  Pr  Pr1  1  0.500000  0.500000  0.000000  1
  Y  Y2  1  0.532715  0.001014  0.750000  1
  Y  Y3  1  0.001014  0.532715  0.250000  1
  Y  Y4  1  0.467285  0.998986  0.250000  1
  Y  Y5  1  0.998986  0.467285  0.750000  1
  W  W6  1  0.000000  0.000000  0.500000  1
  W  W7  1  0.000000  0.000000  0.000000  1
  O  O8  1  0.679613  0.928723  0.471308  1
  O  O9  1  0.928723  0.679613  0.528692  1
  O  O10  1  0.679613  0.928723  0.028692  1
  O  O11  1  0.928723  0.679613  0.971308  1
  O  O12  1  0.320387  0.071277  0.528692  1
  O  O13  1  0.071277  0.320387  0.471308  1
  O  O14  1  0.320387  0.071277  0.971308  1
  O  O15  1  0.071277  0.320387  0.028692  1
  O  O16  1  0.930287  0.069713  0.750000  1
  O  O17  1  0.069713  0.930287  0.250000  1
  O  O18  1  0.362217  0.637783  0.750000  1
  O  O19  1  0.637783  0.362217  0.250000  1
  O  O20  1  0.642802  0.357198  0.750000  1
  O  O21  1  0.357198  0.642802  0.250000  1
