# generated using pymatgen
data_SrY6Sn23Ir6
_symmetry_space_group_name_H-M   'P 1'
_cell_length_a   9.91207900
_cell_length_b   9.91208043
_cell_length_c   10.12114600
_cell_angle_alpha   90.00000000
_cell_angle_beta   90.00000000
_cell_angle_gamma   120.00000525
_symmetry_Int_Tables_number   1
_chemical_formula_structural   SrY6Sn23Ir6
_chemical_formula_sum   'Sr1 Y6 Sn23 Ir6'
_cell_volume   861.17193977
_cell_formula_units_Z   1
loop_
 _symmetry_equiv_pos_site_id
 _symmetry_equiv_pos_as_xyz
  1  'x, y, z'
loop_
 _atom_site_type_symbol
 _atom_site_label
 _atom_site_symmetry_multiplicity
 _atom_site_fract_x
 _atom_site_fract_y
 _atom_site_fract_z
 _atom_site_occupancy
  Sr  Sr0  1  0.000000  0.000000  0.000000  1
  Y  Y1  1  0.037901  0.518951  0.306571  1
  Y  Y2  1  0.481049  0.962099  0.306571  1
  Y  Y3  1  0.481049  0.518951  0.306571  1
  Y  Y4  1  0.962099  0.481049  0.693429  1
  Y  Y5  1  0.518951  0.037901  0.693429  1
  Y  Y6  1  0.518951  0.481049  0.693429  1
  Sn  Sn7  1  0.000000  0.000000  0.500000  1
  Sn  Sn8  1  0.118056  0.881944  0.284526  1
  Sn  Sn9  1  0.763889  0.881944  0.284526  1
  Sn  Sn10  1  0.118056  0.236111  0.284526  1
  Sn  Sn11  1  0.881944  0.118056  0.715474  1
  Sn  Sn12  1  0.236111  0.118056  0.715474  1
  Sn  Sn13  1  0.881944  0.763889  0.715474  1
  Sn  Sn14  1  0.352760  0.000000  0.000000  1
  Sn  Sn15  1  0.647240  0.647240  0.000000  1
  Sn  Sn16  1  0.000000  0.352760  0.000000  1
  Sn  Sn17  1  0.352760  0.352760  0.000000  1
  Sn  Sn18  1  0.000000  0.647240  0.000000  1
  Sn  Sn19  1  0.647240  0.000000  0.000000  1
  Sn  Sn20  1  0.777516  0.555032  0.457363  1
  Sn  Sn21  1  0.777516  0.222484  0.457363  1
  Sn  Sn22  1  0.444968  0.222484  0.457363  1
  Sn  Sn23  1  0.222484  0.444968  0.542637  1
  Sn  Sn24  1  0.222484  0.777516  0.542637  1
  Sn  Sn25  1  0.555032  0.777516  0.542637  1
  Sn  Sn26  1  0.666667  0.333333  0.173980  1
  Sn  Sn27  1  0.333333  0.666667  0.826020  1
  Sn  Sn28  1  0.666667  0.333333  0.878208  1
  Sn  Sn29  1  0.333333  0.666667  0.121792  1
  Ir  Ir30  1  0.170602  0.829398  0.799115  1
  Ir  Ir31  1  0.658796  0.829398  0.799115  1
  Ir  Ir32  1  0.170602  0.341204  0.799115  1
  Ir  Ir33  1  0.829398  0.170602  0.200885  1
  Ir  Ir34  1  0.341204  0.170602  0.200885  1
  Ir  Ir35  1  0.829398  0.658796  0.200885  1
