# generated using pymatgen
data_SmMgReH6
_symmetry_space_group_name_H-M   'P 1'
_cell_length_a   4.98382827
_cell_length_b   4.98384032
_cell_length_c   4.98385200
_cell_angle_alpha   120.00026604
_cell_angle_beta   120.00035389
_cell_angle_gamma   89.99950139
_symmetry_Int_Tables_number   1
_chemical_formula_structural   SmMgReH6
_chemical_formula_sum   'Sm1 Mg1 Re1 H6'
_cell_volume   87.53367213
_cell_formula_units_Z   1
loop_
 _symmetry_equiv_pos_site_id
 _symmetry_equiv_pos_as_xyz
  1  'x, y, z'
loop_
 _atom_site_type_symbol
 _atom_site_label
 _atom_site_symmetry_multiplicity
 _atom_site_fract_x
 _atom_site_fract_y
 _atom_site_fract_z
 _atom_site_occupancy
  Sm  Sm0  1  0.750019  0.249996  0.499997  1
  Mg  Mg1  1  0.249963  0.749922  0.499904  1
  Re  Re2  1  0.999932  0.000127  0.000133  1
  H  H3  1  0.250151  0.250130  0.999993  1
  H  H4  1  0.749871  0.250130  0.999991  1
  H  H5  1  0.250158  0.749852  0.999999  1
  H  H6  1  0.749877  0.749857  0.999996  1
  H  H7  1  0.749873  0.749852  0.499713  1
  H  H8  1  0.250152  0.250129  0.500270  1
