# generated using pymatgen
data_Ba10Ir4O19F
_symmetry_space_group_name_H-M   'P 1'
_cell_length_a   6.11604667
_cell_length_b   6.11604864
_cell_length_c   17.88707460
_cell_angle_alpha   90.02563012
_cell_angle_beta   89.97436968
_cell_angle_gamma   120.34575566
_symmetry_Int_Tables_number   1
_chemical_formula_structural   Ba10Ir4O19F
_chemical_formula_sum   'Ba10 Ir4 O19 F1'
_cell_volume   577.41483295
_cell_formula_units_Z   1
loop_
 _symmetry_equiv_pos_site_id
 _symmetry_equiv_pos_as_xyz
  1  'x, y, z'
loop_
 _atom_site_type_symbol
 _atom_site_label
 _atom_site_symmetry_multiplicity
 _atom_site_fract_x
 _atom_site_fract_y
 _atom_site_fract_z
 _atom_site_occupancy
  Ba  Ba0  1  0.829969  0.170032  0.744740  1
  Ba  Ba1  1  0.829322  0.170678  0.981627  1
  Ba  Ba2  1  0.498642  0.501359  0.860517  1
  Ba  Ba3  1  0.497260  0.502741  0.632616  1
  Ba  Ba4  1  0.498127  0.501873  0.367942  1
  Ba  Ba5  1  0.499134  0.500866  0.139714  1
  Ba  Ba6  1  0.845540  0.154460  0.515329  1
  Ba  Ba7  1  0.183355  0.816645  0.485507  1
  Ba  Ba8  1  0.165143  0.834857  0.255604  1
  Ba  Ba9  1  0.164294  0.835706  0.018758  1
  Ir  Ir10  1  0.829788  0.170212  0.320075  1
  Ir  Ir11  1  0.837221  0.162778  0.176262  1
  Ir  Ir12  1  0.169599  0.830401  0.823874  1
  Ir  Ir13  1  0.163052  0.836948  0.680072  1
  O  O14  1  0.972589  0.477767  0.381258  1
  O  O15  1  0.999531  0.464662  0.111536  1
  O  O16  1  0.680783  0.319217  0.245659  1
  O  O17  1  0.140562  0.320027  0.249832  1
  O  O18  1  0.522233  0.027412  0.381258  1
  O  O19  1  0.535337  0.000469  0.111536  1
  O  O20  1  0.679972  0.859438  0.249832  1
  O  O21  1  0.980598  0.019402  0.384360  1
  O  O22  1  0.990726  0.009274  0.114201  1
  O  O23  1  0.009647  0.990353  0.618513  1
  O  O24  1  0.021320  0.978679  0.890633  1
  O  O25  1  0.317080  0.141098  0.753041  1
  O  O26  1  0.476225  0.972975  0.886230  1
  O  O27  1  0.858902  0.682920  0.753041  1
  O  O28  1  0.470037  0.001186  0.617642  1
  O  O29  1  0.319782  0.680218  0.749266  1
  O  O30  1  0.027025  0.523775  0.886230  1
  O  O31  1  0.998814  0.529963  0.617642  1
  O  O32  1  0.430933  0.569067  0.500117  1
  F  F33  1  0.557458  0.442542  0.000105  1
