# generated using pymatgen
data_Ho8Tm2Cd3Ir
_symmetry_space_group_name_H-M   'P 1'
_cell_length_a   9.52843010
_cell_length_b   9.52843130
_cell_length_c   9.78619600
_cell_angle_alpha   90.00840637
_cell_angle_beta   89.99159964
_cell_angle_gamma   120.02056496
_symmetry_Int_Tables_number   1
_chemical_formula_structural   Ho8Tm2Cd3Ir
_chemical_formula_sum   'Ho16 Tm4 Cd6 Ir2'
_cell_volume   769.30270611
_cell_formula_units_Z   2
loop_
 _symmetry_equiv_pos_site_id
 _symmetry_equiv_pos_as_xyz
  1  'x, y, z'
loop_
 _atom_site_type_symbol
 _atom_site_label
 _atom_site_symmetry_multiplicity
 _atom_site_fract_x
 _atom_site_fract_y
 _atom_site_fract_z
 _atom_site_occupancy
  Ho  Ho0  1  0.209241  0.790759  0.441477  1
  Ho  Ho1  1  0.209384  0.418736  0.441069  1
  Ho  Ho2  1  0.581264  0.790616  0.441069  1
  Ho  Ho3  1  0.790745  0.209255  0.558523  1
  Ho  Ho4  1  0.790650  0.581370  0.558515  1
  Ho  Ho5  1  0.418630  0.209350  0.558515  1
  Ho  Ho6  1  0.790797  0.209203  0.941616  1
  Ho  Ho7  1  0.790649  0.581655  0.941510  1
  Ho  Ho8  1  0.418345  0.209351  0.941510  1
  Ho  Ho9  1  0.209805  0.790195  0.058655  1
  Ho  Ho10  1  0.540767  0.459233  0.249465  1
  Ho  Ho11  1  0.541187  0.082010  0.249810  1
  Ho  Ho12  1  0.917990  0.458813  0.249810  1
  Ho  Ho13  1  0.458712  0.541288  0.750674  1
  Ho  Ho14  1  0.458999  0.917630  0.750303  1
  Ho  Ho15  1  0.082370  0.541001  0.750303  1
  Tm  Tm16  1  0.999992  0.000008  0.500266  1
  Tm  Tm17  1  0.999704  0.000296  0.000151  1
  Tm  Tm18  1  0.209881  0.419287  0.058678  1
  Tm  Tm19  1  0.580713  0.790119  0.058678  1
  Cd  Cd20  1  0.886265  0.113735  0.249921  1
  Cd  Cd21  1  0.886121  0.772434  0.249951  1
  Cd  Cd22  1  0.227566  0.113879  0.249951  1
  Cd  Cd23  1  0.113748  0.886252  0.750029  1
  Cd  Cd24  1  0.113838  0.227678  0.750166  1
  Cd  Cd25  1  0.772322  0.886162  0.750166  1
  Ir  Ir26  1  0.333650  0.666350  0.249099  1
  Ir  Ir27  1  0.666665  0.333335  0.750122  1
