# generated using pymatgen
data_TbY9(AsPb3)2
_symmetry_space_group_name_H-M   'P 1'
_cell_length_a   9.29838500
_cell_length_b   9.31733166
_cell_length_c   6.89555000
_cell_angle_alpha   90.00000000
_cell_angle_beta   90.00000000
_cell_angle_gamma   120.06743807
_symmetry_Int_Tables_number   1
_chemical_formula_structural   TbY9(AsPb3)2
_chemical_formula_sum   'Tb1 Y9 As2 Pb6'
_cell_volume   517.01494409
_cell_formula_units_Z   1
loop_
 _symmetry_equiv_pos_site_id
 _symmetry_equiv_pos_as_xyz
  1  'x, y, z'
loop_
 _atom_site_type_symbol
 _atom_site_label
 _atom_site_symmetry_multiplicity
 _atom_site_fract_x
 _atom_site_fract_y
 _atom_site_fract_z
 _atom_site_occupancy
  Tb  Tb0  1  0.000000  0.755753  0.250000  1
  Y  Y1  1  0.755891  0.757046  0.750000  1
  Y  Y2  1  0.244109  0.001155  0.750000  1
  Y  Y3  1  0.000000  0.244881  0.750000  1
  Y  Y4  1  0.243790  0.242423  0.250000  1
  Y  Y5  1  0.756210  0.998634  0.250000  1
  Y  Y6  1  0.666962  0.333355  0.000024  1
  Y  Y7  1  0.333038  0.666393  0.000024  1
  Y  Y8  1  0.333038  0.666393  0.499976  1
  Y  Y9  1  0.666962  0.333355  0.499976  1
  As  As10  1  0.000000  0.000360  0.999378  1
  As  As11  1  0.000000  0.000360  0.500622  1
  Pb  Pb12  1  0.398590  0.398945  0.750000  1
  Pb  Pb13  1  0.601410  0.000356  0.750000  1
  Pb  Pb14  1  0.000000  0.603100  0.750000  1
  Pb  Pb15  1  0.599994  0.600488  0.250000  1
  Pb  Pb16  1  0.400006  0.000494  0.250000  1
  Pb  Pb17  1  0.000000  0.396511  0.250000  1
