# generated using pymatgen
data_Sr7Ce(Bi2Sb)2
_symmetry_space_group_name_H-M   'P 1'
_cell_length_a   8.73488635
_cell_length_b   8.73976867
_cell_length_c   8.74756435
_cell_angle_alpha   109.80891073
_cell_angle_beta   109.74234606
_cell_angle_gamma   109.68889821
_symmetry_Int_Tables_number   1
_chemical_formula_structural   Sr7Ce(Bi2Sb)2
_chemical_formula_sum   'Sr7 Ce1 Bi4 Sb2'
_cell_volume   508.75874130
_cell_formula_units_Z   1
loop_
 _symmetry_equiv_pos_site_id
 _symmetry_equiv_pos_as_xyz
  1  'x, y, z'
loop_
 _atom_site_type_symbol
 _atom_site_label
 _atom_site_symmetry_multiplicity
 _atom_site_fract_x
 _atom_site_fract_y
 _atom_site_fract_z
 _atom_site_occupancy
  Sr  Sr0  1  0.494778  0.004311  0.865133  1
  Sr  Sr1  1  0.863469  0.498253  0.003766  1
  Sr  Sr2  1  0.146206  0.142671  0.142976  1
  Sr  Sr3  1  0.002313  0.858985  0.496806  1
  Sr  Sr4  1  0.496930  0.999679  0.350023  1
  Sr  Sr5  1  0.997622  0.356555  0.499255  1
  Sr  Sr6  1  0.354135  0.498222  0.000892  1
  Ce  Ce7  1  0.648844  0.644135  0.643739  1
  Bi  Bi8  1  0.744612  0.864974  0.106770  1
  Bi  Bi9  1  0.387461  0.266358  0.627490  1
  Bi  Bi10  1  0.267523  0.627914  0.388217  1
  Bi  Bi11  1  0.863885  0.106269  0.743565  1
  Sb  Sb12  1  0.626899  0.388011  0.267116  1
  Sb  Sb13  1  0.105322  0.743664  0.864252  1
