# generated using pymatgen
data_Ti4Nb(BiTe)2
_symmetry_space_group_name_H-M   'P 1'
_cell_length_a   7.65178116
_cell_length_b   7.65178173
_cell_length_c   7.72241829
_cell_angle_alpha   92.73216052
_cell_angle_beta   93.62954340
_cell_angle_gamma   152.62337776
_symmetry_Int_Tables_number   1
_chemical_formula_structural   Ti4Nb(BiTe)2
_chemical_formula_sum   'Ti4 Nb1 Bi2 Te2'
_cell_volume   202.11045945
_cell_formula_units_Z   1
loop_
 _symmetry_equiv_pos_site_id
 _symmetry_equiv_pos_as_xyz
  1  'x, y, z'
loop_
 _atom_site_type_symbol
 _atom_site_label
 _atom_site_symmetry_multiplicity
 _atom_site_fract_x
 _atom_site_fract_y
 _atom_site_fract_z
 _atom_site_occupancy
  Ti  Ti0  1  0.607432  0.677641  0.285074  1
  Ti  Ti1  1  0.392568  0.322359  0.714926  1
  Ti  Ti2  1  0.314156  0.623748  0.937903  1
  Ti  Ti3  1  0.685844  0.376252  0.062097  1
  Nb  Nb4  1  0.000000  0.000000  0.000000  1
  Bi  Bi5  1  0.704500  0.938712  0.643212  1
  Bi  Bi6  1  0.295500  0.061288  0.356788  1
  Te  Te7  1  0.064163  0.720050  0.784214  1
  Te  Te8  1  0.935837  0.279950  0.215786  1
