# generated using pymatgen
data_CaDy(NiIr)2
_symmetry_space_group_name_H-M   'P 1'
_cell_length_a   5.32928458
_cell_length_b   5.20016516
_cell_length_c   5.20016636
_cell_angle_alpha   58.80349513
_cell_angle_beta   59.17518939
_cell_angle_gamma   59.17519074
_symmetry_Int_Tables_number   1
_chemical_formula_structural   CaDy(NiIr)2
_chemical_formula_sum   'Ca1 Dy1 Ni2 Ir2'
_cell_volume   99.69586241
_cell_formula_units_Z   1
loop_
 _symmetry_equiv_pos_site_id
 _symmetry_equiv_pos_as_xyz
  1  'x, y, z'
loop_
 _atom_site_type_symbol
 _atom_site_label
 _atom_site_symmetry_multiplicity
 _atom_site_fract_x
 _atom_site_fract_y
 _atom_site_fract_z
 _atom_site_occupancy
  Ca  Ca0  1  0.751239  0.748761  0.748761  1
  Dy  Dy1  1  0.500723  0.499277  0.499277  1
  Ni  Ni2  1  0.124554  0.625500  0.125392  1
  Ni  Ni3  1  0.124554  0.125392  0.625500  1
  Ir  Ir4  1  0.624705  0.125535  0.125535  1
  Ir  Ir5  1  0.124225  0.125535  0.125535  1
