# generated using pymatgen
data_Hf3FeTc3As2
_symmetry_space_group_name_H-M   'P 1'
_cell_length_a   6.84482067
_cell_length_b   3.61488200
_cell_length_c   6.84475700
_cell_angle_alpha   90.00000000
_cell_angle_beta   120.00029434
_cell_angle_gamma   90.00000000
_symmetry_Int_Tables_number   1
_chemical_formula_structural   Hf3FeTc3As2
_chemical_formula_sum   'Hf3 Fe1 Tc3 As2'
_cell_volume   146.67077190
_cell_formula_units_Z   1
loop_
 _symmetry_equiv_pos_site_id
 _symmetry_equiv_pos_as_xyz
  1  'x, y, z'
loop_
 _atom_site_type_symbol
 _atom_site_label
 _atom_site_symmetry_multiplicity
 _atom_site_fract_x
 _atom_site_fract_y
 _atom_site_fract_z
 _atom_site_occupancy
  Hf  Hf0  1  0.608357  0.000000  0.000000  1
  Hf  Hf1  1  0.391624  0.000000  0.391623  1
  Hf  Hf2  1  0.000001  0.000000  0.608377  1
  Fe  Fe3  1  0.000035  0.000000  0.000000  1
  Tc  Tc4  1  0.242411  0.500000  0.000000  1
  Tc  Tc5  1  0.999996  0.500000  0.242389  1
  Tc  Tc6  1  0.757606  0.500000  0.757609  1
  As  As7  1  0.666684  0.500000  0.333353  1
  As  As8  1  0.333329  0.500000  0.666647  1
