# generated using pymatgen
data_Hf7Zr6Ta3(Ir2N)4
_symmetry_space_group_name_H-M   'P 1'
_cell_length_a   8.67229083
_cell_length_b   8.67229031
_cell_length_c   8.67229117
_cell_angle_alpha   60.69217919
_cell_angle_beta   60.69217748
_cell_angle_gamma   60.69218844
_symmetry_Int_Tables_number   1
_chemical_formula_structural   Hf7Zr6Ta3(Ir2N)4
_chemical_formula_sum   'Hf7 Zr6 Ta3 Ir8 N4'
_cell_volume   468.40251989
_cell_formula_units_Z   1
loop_
 _symmetry_equiv_pos_site_id
 _symmetry_equiv_pos_as_xyz
  1  'x, y, z'
loop_
 _atom_site_type_symbol
 _atom_site_label
 _atom_site_symmetry_multiplicity
 _atom_site_fract_x
 _atom_site_fract_y
 _atom_site_fract_z
 _atom_site_occupancy
  Hf  Hf0  1  0.630107  0.630107  0.630107  1
  Hf  Hf1  1  0.815451  0.815451  0.183858  1
  Hf  Hf2  1  0.185635  0.185635  0.813910  1
  Hf  Hf3  1  0.815451  0.183858  0.815451  1
  Hf  Hf4  1  0.185635  0.813910  0.185635  1
  Hf  Hf5  1  0.183858  0.815451  0.815451  1
  Hf  Hf6  1  0.813910  0.185635  0.185635  1
  Zr  Zr7  1  0.434665  0.434665  0.064716  1
  Zr  Zr8  1  0.063129  0.063129  0.436691  1
  Zr  Zr9  1  0.434665  0.064716  0.434665  1
  Zr  Zr10  1  0.063129  0.436691  0.063129  1
  Zr  Zr11  1  0.064716  0.434665  0.434665  1
  Zr  Zr12  1  0.436691  0.063129  0.063129  1
  Ta  Ta13  1  0.118645  0.626248  0.626248  1
  Ta  Ta14  1  0.626248  0.118645  0.626248  1
  Ta  Ta15  1  0.626248  0.626248  0.118645  1
  Ir  Ir16  1  0.752736  0.414596  0.414596  1
  Ir  Ir17  1  0.414596  0.752736  0.414596  1
  Ir  Ir18  1  0.414596  0.414596  0.752736  1
  Ir  Ir19  1  0.416125  0.416125  0.416125  1
  Ir  Ir20  1  0.470363  0.848611  0.848611  1
  Ir  Ir21  1  0.848611  0.470363  0.848611  1
  Ir  Ir22  1  0.848611  0.848611  0.470363  1
  Ir  Ir23  1  0.836995  0.836995  0.836995  1
  N  N24  1  0.630333  0.122373  0.122373  1
  N  N25  1  0.122373  0.630333  0.122373  1
  N  N26  1  0.122373  0.122373  0.630333  1
  N  N27  1  0.124103  0.124103  0.124103  1
