# generated using pymatgen
data_ScTa3(VSi)4
_symmetry_space_group_name_H-M   'P 1'
_cell_length_a   3.39509400
_cell_length_b   6.65502098
_cell_length_c   7.95797783
_cell_angle_alpha   90.45244755
_cell_angle_beta   90.00000000
_cell_angle_gamma   90.00000000
_symmetry_Int_Tables_number   1
_chemical_formula_structural   ScTa3(VSi)4
_chemical_formula_sum   'Sc1 Ta3 V4 Si4'
_cell_volume   179.80030140
_cell_formula_units_Z   1
loop_
 _symmetry_equiv_pos_site_id
 _symmetry_equiv_pos_as_xyz
  1  'x, y, z'
loop_
 _atom_site_type_symbol
 _atom_site_label
 _atom_site_symmetry_multiplicity
 _atom_site_fract_x
 _atom_site_fract_y
 _atom_site_fract_z
 _atom_site_occupancy
  Sc  Sc0  1  0.250000  0.045966  0.834805  1
  Ta  Ta1  1  0.250000  0.545783  0.663267  1
  Ta  Ta2  1  0.750000  0.953121  0.172030  1
  Ta  Ta3  1  0.750000  0.454956  0.333607  1
  V  V4  1  0.250000  0.130201  0.437045  1
  V  V5  1  0.250000  0.626000  0.061442  1
  V  V6  1  0.750000  0.870836  0.558503  1
  V  V7  1  0.750000  0.376975  0.940521  1
  Si  Si8  1  0.250000  0.753196  0.362157  1
  Si  Si9  1  0.250000  0.254318  0.139487  1
  Si  Si10  1  0.750000  0.247725  0.637240  1
  Si  Si11  1  0.750000  0.740923  0.859895  1
