# generated using pymatgen
data_Dy2MnCo5P4
_symmetry_space_group_name_H-M   'P 1'
_cell_length_a   3.70685700
_cell_length_b   10.57225800
_cell_length_c   12.16921400
_cell_angle_alpha   90.00000000
_cell_angle_beta   90.00000000
_cell_angle_gamma   90.00000000
_symmetry_Int_Tables_number   1
_chemical_formula_structural   Dy2MnCo5P4
_chemical_formula_sum   'Dy6 Mn3 Co15 P12'
_cell_volume   476.90965391
_cell_formula_units_Z   3
loop_
 _symmetry_equiv_pos_site_id
 _symmetry_equiv_pos_as_xyz
  1  'x, y, z'
loop_
 _atom_site_type_symbol
 _atom_site_label
 _atom_site_symmetry_multiplicity
 _atom_site_fract_x
 _atom_site_fract_y
 _atom_site_fract_z
 _atom_site_occupancy
  Dy  Dy0  1  0.000000  0.500000  0.523348  1
  Dy  Dy1  1  0.500000  0.000000  0.477139  1
  Dy  Dy2  1  0.500000  0.818158  0.204875  1
  Dy  Dy3  1  0.500000  0.181842  0.204875  1
  Dy  Dy4  1  0.000000  0.680580  0.795703  1
  Dy  Dy5  1  0.000000  0.319420  0.795703  1
  Mn  Mn6  1  0.500000  0.500000  0.154974  1
  Mn  Mn7  1  0.000000  0.000000  0.841440  1
  Mn  Mn8  1  0.000000  0.500000  0.988423  1
  Co  Co9  1  0.500000  0.500000  0.699500  1
  Co  Co10  1  0.000000  0.000000  0.297964  1
  Co  Co11  1  0.500000  0.000000  0.013417  1
  Co  Co12  1  0.500000  0.330655  0.994321  1
  Co  Co13  1  0.500000  0.669345  0.994321  1
  Co  Co14  1  0.000000  0.165075  0.005143  1
  Co  Co15  1  0.000000  0.834925  0.005143  1
  Co  Co16  1  0.500000  0.295983  0.430501  1
  Co  Co17  1  0.500000  0.704017  0.430501  1
  Co  Co18  1  0.000000  0.203431  0.569957  1
  Co  Co19  1  0.000000  0.796569  0.569957  1
  Co  Co20  1  0.500000  0.879801  0.709611  1
  Co  Co21  1  0.500000  0.120199  0.709611  1
  Co  Co22  1  0.000000  0.621103  0.291600  1
  Co  Co23  1  0.000000  0.378897  0.291600  1
  P  P24  1  0.500000  0.500000  0.882459  1
  P  P25  1  0.000000  0.000000  0.117404  1
  P  P26  1  0.500000  0.500000  0.345983  1
  P  P27  1  0.000000  0.000000  0.655016  1
  P  P28  1  0.500000  0.310349  0.616359  1
  P  P29  1  0.500000  0.689651  0.616359  1
  P  P30  1  0.000000  0.189012  0.384212  1
  P  P31  1  0.000000  0.810988  0.384212  1
  P  P32  1  0.500000  0.847156  0.893050  1
  P  P33  1  0.500000  0.152844  0.893050  1
  P  P34  1  0.000000  0.654831  0.106135  1
  P  P35  1  0.000000  0.345169  0.106135  1
