# generated using pymatgen
data_Ba4InAs3Pt4
_symmetry_space_group_name_H-M   'P 1'
_cell_length_a   6.91463405
_cell_length_b   6.91463405
_cell_length_c   6.91463405
_cell_angle_alpha   91.09109040
_cell_angle_beta   88.90890960
_cell_angle_gamma   91.09109040
_symmetry_Int_Tables_number   1
_chemical_formula_structural   Ba4InAs3Pt4
_chemical_formula_sum   'Ba4 In1 As3 Pt4'
_cell_volume   330.42603835
_cell_formula_units_Z   1
loop_
 _symmetry_equiv_pos_site_id
 _symmetry_equiv_pos_as_xyz
  1  'x, y, z'
loop_
 _atom_site_type_symbol
 _atom_site_label
 _atom_site_symmetry_multiplicity
 _atom_site_fract_x
 _atom_site_fract_y
 _atom_site_fract_z
 _atom_site_occupancy
  Ba  Ba0  1  0.630003  0.383299  0.887825  1
  Ba  Ba1  1  0.387825  0.869997  0.616701  1
  Ba  Ba2  1  0.116701  0.112175  0.130003  1
  Ba  Ba3  1  0.873573  0.626427  0.373573  1
  In  In4  1  0.164306  0.335694  0.664306  1
  As  As5  1  0.670527  0.168507  0.330686  1
  As  As6  1  0.331493  0.669314  0.170527  1
  As  As7  1  0.830686  0.829473  0.831493  1
  Pt  Pt8  1  0.595608  0.904392  0.095608  1
  Pt  Pt9  1  0.085119  0.611974  0.926132  1
  Pt  Pt10  1  0.426132  0.414881  0.388026  1
  Pt  Pt11  1  0.888026  0.073868  0.585119  1
