# generated using pymatgen
data_Sm6TiFe2(Co5P4)3
_symmetry_space_group_name_H-M   'P 1'
_cell_length_a   3.73866500
_cell_length_b   10.66041100
_cell_length_c   12.32009600
_cell_angle_alpha   90.00000000
_cell_angle_beta   90.00000000
_cell_angle_gamma   90.00000000
_symmetry_Int_Tables_number   1
_chemical_formula_structural   Sm6TiFe2(Co5P4)3
_chemical_formula_sum   'Sm6 Ti1 Fe2 Co15 P12'
_cell_volume   491.02611780
_cell_formula_units_Z   1
loop_
 _symmetry_equiv_pos_site_id
 _symmetry_equiv_pos_as_xyz
  1  'x, y, z'
loop_
 _atom_site_type_symbol
 _atom_site_label
 _atom_site_symmetry_multiplicity
 _atom_site_fract_x
 _atom_site_fract_y
 _atom_site_fract_z
 _atom_site_occupancy
  Sm  Sm0  1  0.000000  0.500000  0.524920  1
  Sm  Sm1  1  0.500000  0.000000  0.478804  1
  Sm  Sm2  1  0.500000  0.820675  0.205236  1
  Sm  Sm3  1  0.500000  0.179325  0.205236  1
  Sm  Sm4  1  0.000000  0.682126  0.796256  1
  Sm  Sm5  1  0.000000  0.317874  0.796256  1
  Ti  Ti6  1  0.500000  0.500000  0.150142  1
  Fe  Fe7  1  0.000000  0.000000  0.844791  1
  Fe  Fe8  1  0.500000  0.000000  0.010223  1
  Co  Co9  1  0.500000  0.500000  0.702184  1
  Co  Co10  1  0.000000  0.000000  0.297421  1
  Co  Co11  1  0.000000  0.500000  0.986737  1
  Co  Co12  1  0.500000  0.331307  0.992863  1
  Co  Co13  1  0.500000  0.668693  0.992863  1
  Co  Co14  1  0.000000  0.167007  0.003586  1
  Co  Co15  1  0.000000  0.832993  0.003586  1
  Co  Co16  1  0.500000  0.295684  0.431443  1
  Co  Co17  1  0.500000  0.704316  0.431443  1
  Co  Co18  1  0.000000  0.203347  0.569599  1
  Co  Co19  1  0.000000  0.796653  0.569599  1
  Co  Co20  1  0.500000  0.880501  0.709156  1
  Co  Co21  1  0.500000  0.119499  0.709156  1
  Co  Co22  1  0.000000  0.620252  0.292815  1
  Co  Co23  1  0.000000  0.379748  0.292815  1
  P  P24  1  0.500000  0.500000  0.884237  1
  P  P25  1  0.000000  0.000000  0.112418  1
  P  P26  1  0.500000  0.500000  0.349475  1
  P  P27  1  0.000000  0.000000  0.660798  1
  P  P28  1  0.500000  0.306546  0.616007  1
  P  P29  1  0.500000  0.693454  0.616007  1
  P  P30  1  0.000000  0.191727  0.385875  1
  P  P31  1  0.000000  0.808273  0.385875  1
  P  P32  1  0.500000  0.850219  0.892529  1
  P  P33  1  0.500000  0.149781  0.892529  1
  P  P34  1  0.000000  0.657158  0.103560  1
  P  P35  1  0.000000  0.342842  0.103560  1
