# generated using pymatgen
data_Nd4YCo19(Si2P)4
_symmetry_space_group_name_H-M   'P 1'
_cell_length_a   12.23318807
_cell_length_b   12.21413425
_cell_length_c   3.74578800
_cell_angle_alpha   90.00000000
_cell_angle_beta   90.00000000
_cell_angle_gamma   119.99874719
_symmetry_Int_Tables_number   1
_chemical_formula_structural   Nd4YCo19(Si2P)4
_chemical_formula_sum   'Nd4 Y1 Co19 Si8 P4'
_cell_volume   484.70963179
_cell_formula_units_Z   1
loop_
 _symmetry_equiv_pos_site_id
 _symmetry_equiv_pos_as_xyz
  1  'x, y, z'
loop_
 _atom_site_type_symbol
 _atom_site_label
 _atom_site_symmetry_multiplicity
 _atom_site_fract_x
 _atom_site_fract_y
 _atom_site_fract_z
 _atom_site_occupancy
  Nd  Nd0  1  0.332580  0.665829  0.500000  1
  Nd  Nd1  1  0.667088  0.332890  0.500000  1
  Nd  Nd2  1  0.001256  0.185252  0.000000  1
  Nd  Nd3  1  0.814776  0.815178  0.000000  1
  Y  Y4  1  0.187592  0.999970  0.000000  1
  Co  Co5  1  0.625871  0.825171  0.500000  1
  Co  Co6  1  0.176580  0.803550  0.500000  1
  Co  Co7  1  0.197787  0.372165  0.500000  1
  Co  Co8  1  0.374373  0.195813  0.500000  1
  Co  Co9  1  0.824913  0.627002  0.500000  1
  Co  Co10  1  0.796061  0.175303  0.500000  1
  Co  Co11  1  0.999802  0.559799  0.500000  1
  Co  Co12  1  0.439537  0.439036  0.500000  1
  Co  Co13  1  0.556105  0.996569  0.500000  1
  Co  Co14  1  0.520745  0.643399  0.000000  1
  Co  Co15  1  0.355911  0.877960  0.000000  1
  Co  Co16  1  0.121240  0.478064  0.000000  1
  Co  Co17  1  0.485249  0.121861  0.000000  1
  Co  Co18  1  0.642747  0.520776  0.000000  1
  Co  Co19  1  0.875910  0.355265  0.000000  1
  Co  Co20  1  0.001354  0.723847  0.000000  1
  Co  Co21  1  0.278486  0.275691  0.000000  1
  Co  Co22  1  0.719649  0.004640  0.000000  1
  Co  Co23  1  0.000640  0.000099  0.500000  1
  Si  Si24  1  0.999853  0.373862  0.500000  1
  Si  Si25  1  0.625721  0.625727  0.500000  1
  Si  Si26  1  0.371728  0.000163  0.500000  1
  Si  Si27  1  0.523754  0.841788  0.000000  1
  Si  Si28  1  0.157800  0.682773  0.000000  1
  Si  Si29  1  0.316670  0.473637  0.000000  1
  Si  Si30  1  0.475863  0.316094  0.000000  1
  Si  Si31  1  0.842225  0.526057  0.000000  1
  P  P32  1  0.687518  0.164345  0.000000  1
  P  P33  1  0.002699  0.818301  0.500000  1
  P  P34  1  0.185320  0.181203  0.500000  1
  P  P35  1  0.814596  0.000919  0.500000  1
