# generated using pymatgen
data_K4Si2PbSe6
_symmetry_space_group_name_H-M   'P 1'
_cell_length_a   7.47238119
_cell_length_b   7.47238083
_cell_length_c   8.70011148
_cell_angle_alpha   81.66218744
_cell_angle_beta   81.66218553
_cell_angle_gamma   119.79015061
_symmetry_Int_Tables_number   1
_chemical_formula_structural   K4Si2PbSe6
_chemical_formula_sum   'K4 Si2 Pb1 Se6'
_cell_volume   403.58520127
_cell_formula_units_Z   1
loop_
 _symmetry_equiv_pos_site_id
 _symmetry_equiv_pos_as_xyz
  1  'x, y, z'
loop_
 _atom_site_type_symbol
 _atom_site_label
 _atom_site_symmetry_multiplicity
 _atom_site_fract_x
 _atom_site_fract_y
 _atom_site_fract_z
 _atom_site_occupancy
  K  K0  1  0.503902  0.496098  0.000000  1
  K  K1  1  0.821211  0.178789  0.000000  1
  K  K2  1  0.176274  0.823726  0.000000  1
  K  K3  1  0.665258  0.334742  0.500000  1
  Si  Si4  1  0.046431  0.046915  0.358376  1
  Si  Si5  1  0.953085  0.953569  0.641624  1
  Pb  Pb6  1  0.335155  0.664845  0.500000  1
  Se  Se7  1  0.774795  0.793995  0.270353  1
  Se  Se8  1  0.206005  0.225205  0.729647  1
  Se  Se9  1  0.093249  0.379024  0.273662  1
  Se  Se10  1  0.360746  0.057088  0.273957  1
  Se  Se11  1  0.942912  0.639254  0.726043  1
  Se  Se12  1  0.620976  0.906751  0.726338  1
