# generated using pymatgen
data_CeDy7(ErIr3)2
_symmetry_space_group_name_H-M   'P 1'
_cell_length_a   10.85684816
_cell_length_b   10.88644300
_cell_length_c   6.36353200
_cell_angle_alpha   90.00000000
_cell_angle_beta   90.23862826
_cell_angle_gamma   90.00000000
_symmetry_Int_Tables_number   1
_chemical_formula_structural   CeDy7(ErIr3)2
_chemical_formula_sum   'Ce2 Dy14 Er4 Ir12'
_cell_volume   752.11496975
_cell_formula_units_Z   2
loop_
 _symmetry_equiv_pos_site_id
 _symmetry_equiv_pos_as_xyz
  1  'x, y, z'
loop_
 _atom_site_type_symbol
 _atom_site_label
 _atom_site_symmetry_multiplicity
 _atom_site_fract_x
 _atom_site_fract_y
 _atom_site_fract_z
 _atom_site_occupancy
  Ce  Ce0  1  0.289987  0.092255  0.380210  1
  Ce  Ce1  1  0.289987  0.907745  0.880210  1
  Dy  Dy2  1  0.708431  0.087876  0.879158  1
  Dy  Dy3  1  0.708431  0.912124  0.379158  1
  Dy  Dy4  1  0.590410  0.789700  0.877860  1
  Dy  Dy5  1  0.590410  0.210300  0.377860  1
  Dy  Dy6  1  0.414073  0.787864  0.378743  1
  Dy  Dy7  1  0.414073  0.212136  0.878743  1
  Dy  Dy8  1  0.209219  0.413193  0.622913  1
  Dy  Dy9  1  0.209219  0.586807  0.122913  1
  Dy  Dy10  1  0.791173  0.412138  0.120980  1
  Dy  Dy11  1  0.791173  0.587862  0.620980  1
  Dy  Dy12  1  0.911706  0.709629  0.120777  1
  Dy  Dy13  1  0.911706  0.290371  0.620777  1
  Dy  Dy14  1  0.086498  0.708441  0.620621  1
  Dy  Dy15  1  0.086498  0.291559  0.120621  1
  Er  Er16  1  0.998498  0.998818  0.499745  1
  Er  Er17  1  0.998498  0.001182  0.999745  1
  Er  Er18  1  0.501074  0.499821  0.001134  1
  Er  Er19  1  0.501074  0.500179  0.501134  1
  Ir  Ir20  1  0.847126  0.152417  0.249534  1
  Ir  Ir21  1  0.847126  0.847583  0.749534  1
  Ir  Ir22  1  0.154809  0.152605  0.745173  1
  Ir  Ir23  1  0.154809  0.847395  0.245173  1
  Ir  Ir24  1  0.652818  0.347535  0.750392  1
  Ir  Ir25  1  0.652818  0.652465  0.250392  1
  Ir  Ir26  1  0.347708  0.346511  0.252916  1
  Ir  Ir27  1  0.347708  0.653489  0.752916  1
  Ir  Ir28  1  0.496873  0.000424  0.122781  1
  Ir  Ir29  1  0.496873  0.999576  0.622781  1
  Ir  Ir30  1  0.999598  0.499504  0.877063  1
  Ir  Ir31  1  0.999598  0.500496  0.377063  1
