# generated using pymatgen
data_Tb3Al2CuC
_symmetry_space_group_name_H-M   'P 1'
_cell_length_a   9.19976954
_cell_length_b   9.19976996
_cell_length_c   9.19977000
_cell_angle_alpha   59.99999986
_cell_angle_beta   59.99999835
_cell_angle_gamma   60.00000456
_symmetry_Int_Tables_number   1
_chemical_formula_structural   Tb3Al2CuC
_chemical_formula_sum   'Tb12 Al8 Cu4 C4'
_cell_volume   550.57425184
_cell_formula_units_Z   4
loop_
 _symmetry_equiv_pos_site_id
 _symmetry_equiv_pos_as_xyz
  1  'x, y, z'
loop_
 _atom_site_type_symbol
 _atom_site_label
 _atom_site_symmetry_multiplicity
 _atom_site_fract_x
 _atom_site_fract_y
 _atom_site_fract_z
 _atom_site_occupancy
  Tb  Tb0  1  0.946940  0.946940  0.553060  1
  Tb  Tb1  1  0.696940  0.303060  0.303060  1
  Tb  Tb2  1  0.303060  0.696940  0.696940  1
  Tb  Tb3  1  0.696940  0.696940  0.303060  1
  Tb  Tb4  1  0.696940  0.303060  0.696940  1
  Tb  Tb5  1  0.303060  0.696940  0.303060  1
  Tb  Tb6  1  0.553060  0.946940  0.553060  1
  Tb  Tb7  1  0.553060  0.946940  0.946940  1
  Tb  Tb8  1  0.946940  0.553060  0.553060  1
  Tb  Tb9  1  0.946940  0.553060  0.946940  1
  Tb  Tb10  1  0.303060  0.303060  0.696940  1
  Tb  Tb11  1  0.553060  0.553060  0.946940  1
  Al  Al12  1  0.924896  0.225311  0.924896  1
  Al  Al13  1  0.325104  0.325104  0.024689  1
  Al  Al14  1  0.024689  0.325104  0.325104  1
  Al  Al15  1  0.325104  0.325104  0.325104  1
  Al  Al16  1  0.225311  0.924896  0.924896  1
  Al  Al17  1  0.924896  0.924896  0.924896  1
  Al  Al18  1  0.924896  0.924896  0.225311  1
  Al  Al19  1  0.325104  0.024689  0.325104  1
  Cu  Cu20  1  0.125000  0.625000  0.125000  1
  Cu  Cu21  1  0.125000  0.125000  0.625000  1
  Cu  Cu22  1  0.625000  0.125000  0.125000  1
  Cu  Cu23  1  0.125000  0.125000  0.125000  1
  C  C24  1  0.625000  0.125000  0.625000  1
  C  C25  1  0.625000  0.625000  0.125000  1
  C  C26  1  0.125000  0.625000  0.625000  1
  C  C27  1  0.625000  0.625000  0.625000  1
