# generated using pymatgen
data_Ti12Sn5Hg2Bi3
_symmetry_space_group_name_H-M   'P 1'
_cell_length_a   9.34190200
_cell_length_b   9.34139116
_cell_length_c   5.77598200
_cell_angle_alpha   90.00000000
_cell_angle_beta   90.00000000
_cell_angle_gamma   120.00181609
_symmetry_Int_Tables_number   1
_chemical_formula_structural   Ti12Sn5Hg2Bi3
_chemical_formula_sum   'Ti12 Sn5 Hg2 Bi3'
_cell_volume   436.51118858
_cell_formula_units_Z   1
loop_
 _symmetry_equiv_pos_site_id
 _symmetry_equiv_pos_as_xyz
  1  'x, y, z'
loop_
 _atom_site_type_symbol
 _atom_site_label
 _atom_site_symmetry_multiplicity
 _atom_site_fract_x
 _atom_site_fract_y
 _atom_site_fract_z
 _atom_site_occupancy
  Ti  Ti0  1  0.841079  0.682157  0.750000  1
  Ti  Ti1  1  0.156109  0.839563  0.250000  1
  Ti  Ti2  1  0.683453  0.839563  0.250000  1
  Ti  Ti3  1  0.313400  0.154674  0.750000  1
  Ti  Ti4  1  0.841275  0.154674  0.750000  1
  Ti  Ti5  1  0.156068  0.312137  0.250000  1
  Ti  Ti6  1  0.498852  0.997703  0.503729  1
  Ti  Ti7  1  0.504641  0.504290  0.999919  1
  Ti  Ti8  1  0.999648  0.504290  0.999919  1
  Ti  Ti9  1  0.999648  0.504290  0.500081  1
  Ti  Ti10  1  0.498852  0.997703  0.996271  1
  Ti  Ti11  1  0.504641  0.504290  0.500081  1
  Sn  Sn12  1  0.604734  0.802769  0.750000  1
  Sn  Sn13  1  0.198034  0.802769  0.750000  1
  Sn  Sn14  1  0.803294  0.606586  0.250000  1
  Sn  Sn15  1  0.667482  0.334962  0.750000  1
  Sn  Sn16  1  0.333990  0.667981  0.250000  1
  Hg  Hg17  1  0.996860  0.993719  0.500717  1
  Hg  Hg18  1  0.996860  0.993719  0.999283  1
  Bi  Bi19  1  0.200709  0.401419  0.750000  1
  Bi  Bi20  1  0.801419  0.200371  0.250000  1
  Bi  Bi21  1  0.398953  0.200371  0.250000  1
