# generated using pymatgen
data_Tb4Zn25(GaCu2)3
_symmetry_space_group_name_H-M   'P 1'
_cell_length_a   8.94868900
_cell_length_b   8.94868788
_cell_length_c   8.61130600
_cell_angle_alpha   90.00000000
_cell_angle_beta   90.00000000
_cell_angle_gamma   120.00000044
_symmetry_Int_Tables_number   1
_chemical_formula_structural   Tb4Zn25(GaCu2)3
_chemical_formula_sum   'Tb4 Zn25 Ga3 Cu6'
_cell_volume   597.19811388
_cell_formula_units_Z   1
loop_
 _symmetry_equiv_pos_site_id
 _symmetry_equiv_pos_as_xyz
  1  'x, y, z'
loop_
 _atom_site_type_symbol
 _atom_site_label
 _atom_site_symmetry_multiplicity
 _atom_site_fract_x
 _atom_site_fract_y
 _atom_site_fract_z
 _atom_site_occupancy
  Tb  Tb0  1  0.000000  0.000000  0.249827  1
  Tb  Tb1  1  0.000000  0.000000  0.751776  1
  Tb  Tb2  1  0.333333  0.666667  0.749412  1
  Tb  Tb3  1  0.666667  0.333333  0.249675  1
  Zn  Zn4  1  0.333333  0.666667  0.096651  1
  Zn  Zn5  1  0.332600  0.367903  0.249203  1
  Zn  Zn6  1  0.632097  0.964698  0.249203  1
  Zn  Zn7  1  0.035302  0.667400  0.249203  1
  Zn  Zn8  1  0.632097  0.667400  0.249203  1
  Zn  Zn9  1  0.035302  0.367903  0.249203  1
  Zn  Zn10  1  0.332600  0.964698  0.249203  1
  Zn  Zn11  1  0.667376  0.633656  0.750205  1
  Zn  Zn12  1  0.366344  0.033719  0.750205  1
  Zn  Zn13  1  0.966281  0.332624  0.750205  1
  Zn  Zn14  1  0.366344  0.332624  0.750205  1
  Zn  Zn15  1  0.966281  0.633656  0.750205  1
  Zn  Zn16  1  0.667376  0.033719  0.750205  1
  Zn  Zn17  1  0.163207  0.836793  0.518765  1
  Zn  Zn18  1  0.163207  0.326416  0.518765  1
  Zn  Zn19  1  0.673584  0.836793  0.518765  1
  Zn  Zn20  1  0.836479  0.163521  0.480121  1
  Zn  Zn21  1  0.836479  0.672957  0.480121  1
  Zn  Zn22  1  0.327043  0.163521  0.480121  1
  Zn  Zn23  1  0.836483  0.163517  0.019089  1
  Zn  Zn24  1  0.836483  0.672965  0.019089  1
  Zn  Zn25  1  0.327035  0.163517  0.019089  1
  Zn  Zn26  1  0.165056  0.834944  0.982100  1
  Zn  Zn27  1  0.165056  0.330114  0.982100  1
  Zn  Zn28  1  0.669886  0.834944  0.982100  1
  Ga  Ga29  1  0.333333  0.666667  0.405554  1
  Ga  Ga30  1  0.666667  0.333333  0.595169  1
  Ga  Ga31  1  0.666667  0.333333  0.905425  1
  Cu  Cu32  1  0.500471  0.499529  0.500034  1
  Cu  Cu33  1  0.500471  0.000941  0.500034  1
  Cu  Cu34  1  0.999059  0.499529  0.500034  1
  Cu  Cu35  1  0.500222  0.499778  0.999910  1
  Cu  Cu36  1  0.500222  0.000444  0.999910  1
  Cu  Cu37  1  0.999556  0.499778  0.999910  1
