# generated using pymatgen
data_LaNdTm4(RuO7)2
_symmetry_space_group_name_H-M   'P 1'
_cell_length_a   6.40255689
_cell_length_b   6.40255527
_cell_length_c   7.47238602
_cell_angle_alpha   89.99459282
_cell_angle_beta   89.99459114
_cell_angle_gamma   109.59989912
_symmetry_Int_Tables_number   1
_chemical_formula_structural   LaNdTm4(RuO7)2
_chemical_formula_sum   'La1 Nd1 Tm4 Ru2 O14'
_cell_volume   288.56505544
_cell_formula_units_Z   1
loop_
 _symmetry_equiv_pos_site_id
 _symmetry_equiv_pos_as_xyz
  1  'x, y, z'
loop_
 _atom_site_type_symbol
 _atom_site_label
 _atom_site_symmetry_multiplicity
 _atom_site_fract_x
 _atom_site_fract_y
 _atom_site_fract_z
 _atom_site_occupancy
  La  La0  1  0.000000  0.000000  0.500000  1
  Nd  Nd1  1  0.000000  0.000000  0.000000  1
  Tm  Tm2  1  0.484665  0.935789  0.750940  1
  Tm  Tm3  1  0.515335  0.064211  0.249060  1
  Tm  Tm4  1  0.935789  0.484665  0.750940  1
  Tm  Tm5  1  0.064211  0.515335  0.249060  1
  Ru  Ru6  1  0.500000  0.500000  0.500000  1
  Ru  Ru7  1  0.500000  0.500000  0.000000  1
  O  O8  1  0.591934  0.591934  0.749901  1
  O  O9  1  0.408066  0.408066  0.250099  1
  O  O10  1  0.836214  0.122336  0.752349  1
  O  O11  1  0.163786  0.877664  0.247651  1
  O  O12  1  0.122336  0.836214  0.752349  1
  O  O13  1  0.877664  0.163786  0.247651  1
  O  O14  1  0.440167  0.179445  0.963965  1
  O  O15  1  0.556692  0.820246  0.463597  1
  O  O16  1  0.179445  0.440167  0.963965  1
  O  O17  1  0.820246  0.556692  0.463597  1
  O  O18  1  0.443308  0.179754  0.536403  1
  O  O19  1  0.559833  0.820555  0.036035  1
  O  O20  1  0.820555  0.559833  0.036035  1
  O  O21  1  0.179754  0.443308  0.536403  1
