# generated using pymatgen
data_Pr5SmRhBr10
_symmetry_space_group_name_H-M   'P 1'
_cell_length_a   7.69406499
_cell_length_b   9.59643348
_cell_length_c   9.56694364
_cell_angle_alpha   107.50914698
_cell_angle_beta   96.75743519
_cell_angle_gamma   105.58745180
_symmetry_Int_Tables_number   1
_chemical_formula_structural   Pr5SmRhBr10
_chemical_formula_sum   'Pr5 Sm1 Rh1 Br10'
_cell_volume   633.54510656
_cell_formula_units_Z   1
loop_
 _symmetry_equiv_pos_site_id
 _symmetry_equiv_pos_as_xyz
  1  'x, y, z'
loop_
 _atom_site_type_symbol
 _atom_site_label
 _atom_site_symmetry_multiplicity
 _atom_site_fract_x
 _atom_site_fract_y
 _atom_site_fract_z
 _atom_site_occupancy
  Pr  Pr0  1  0.466382  0.803483  0.593721  1
  Pr  Pr1  1  0.134515  0.360407  0.316884  1
  Pr  Pr2  1  0.865587  0.636863  0.682522  1
  Pr  Pr3  1  0.625544  0.549266  0.255716  1
  Pr  Pr4  1  0.373437  0.451099  0.743875  1
  Sm  Sm5  1  0.533338  0.201151  0.407226  1
  Rh  Rh6  1  0.499570  0.499410  0.499472  1
  Br  Br7  1  0.161740  0.048775  0.232774  1
  Br  Br8  1  0.847607  0.951005  0.770344  1
  Br  Br9  1  0.250017  0.417527  0.044785  1
  Br  Br10  1  0.748788  0.581918  0.955133  1
  Br  Br11  1  0.707793  0.243928  0.157652  1
  Br  Br12  1  0.287818  0.753170  0.846912  1
  Br  Br13  1  0.045282  0.675618  0.413997  1
  Br  Br14  1  0.950247  0.320730  0.583320  1
  Br  Br15  1  0.417541  0.133106  0.669720  1
  Br  Br16  1  0.584791  0.872542  0.325943  1
