# generated using pymatgen
data_YbMnCr(Sb6Os)2
_symmetry_space_group_name_H-M   'P 1'
_cell_length_a   8.19461789
_cell_length_b   8.21653823
_cell_length_c   8.17004064
_cell_angle_alpha   109.39822171
_cell_angle_beta   109.17978117
_cell_angle_gamma   109.80637957
_symmetry_Int_Tables_number   1
_chemical_formula_structural   YbMnCr(Sb6Os)2
_chemical_formula_sum   'Yb1 Mn1 Cr1 Sb12 Os2'
_cell_volume   423.61048466
_cell_formula_units_Z   1
loop_
 _symmetry_equiv_pos_site_id
 _symmetry_equiv_pos_as_xyz
  1  'x, y, z'
loop_
 _atom_site_type_symbol
 _atom_site_label
 _atom_site_symmetry_multiplicity
 _atom_site_fract_x
 _atom_site_fract_y
 _atom_site_fract_z
 _atom_site_occupancy
  Yb  Yb0  1  0.000000  0.000000  0.000000  1
  Mn  Mn1  1  0.500000  0.500000  0.500000  1
  Cr  Cr2  1  0.000000  0.000000  0.500000  1
  Sb  Sb3  1  0.844339  0.656198  0.504146  1
  Sb  Sb4  1  0.155661  0.343802  0.495854  1
  Sb  Sb5  1  0.156985  0.663894  0.820387  1
  Sb  Sb6  1  0.843015  0.336106  0.179613  1
  Sb  Sb7  1  0.662394  0.506008  0.845488  1
  Sb  Sb8  1  0.337606  0.493992  0.154512  1
  Sb  Sb9  1  0.659181  0.817052  0.153476  1
  Sb  Sb10  1  0.340819  0.182948  0.846524  1
  Sb  Sb11  1  0.505409  0.845518  0.661708  1
  Sb  Sb12  1  0.494591  0.154482  0.338292  1
  Sb  Sb13  1  0.182826  0.842173  0.336689  1
  Sb  Sb14  1  0.817174  0.157827  0.663311  1
  Os  Os15  1  0.500000  0.000000  0.000000  1
  Os  Os16  1  0.000000  0.500000  0.000000  1
