# generated using pymatgen
data_Hf12Zn8CuPd3N4
_symmetry_space_group_name_H-M   'P 1'
_cell_length_a   8.48779467
_cell_length_b   8.48779410
_cell_length_c   8.48779425
_cell_angle_alpha   60.17593452
_cell_angle_beta   60.17593776
_cell_angle_gamma   60.17593847
_symmetry_Int_Tables_number   1
_chemical_formula_structural   Hf12Zn8CuPd3N4
_chemical_formula_sum   'Hf12 Zn8 Cu1 Pd3 N4'
_cell_volume   434.10675791
_cell_formula_units_Z   1
loop_
 _symmetry_equiv_pos_site_id
 _symmetry_equiv_pos_as_xyz
  1  'x, y, z'
loop_
 _atom_site_type_symbol
 _atom_site_label
 _atom_site_symmetry_multiplicity
 _atom_site_fract_x
 _atom_site_fract_y
 _atom_site_fract_z
 _atom_site_occupancy
  Hf  Hf0  1  0.813185  0.186505  0.186505  1
  Hf  Hf1  1  0.186505  0.813185  0.186505  1
  Hf  Hf2  1  0.813388  0.813388  0.185809  1
  Hf  Hf3  1  0.185809  0.813388  0.813388  1
  Hf  Hf4  1  0.813388  0.185809  0.813388  1
  Hf  Hf5  1  0.186505  0.186505  0.813185  1
  Hf  Hf6  1  0.436815  0.063495  0.063495  1
  Hf  Hf7  1  0.063495  0.436815  0.063495  1
  Hf  Hf8  1  0.436612  0.436612  0.064191  1
  Hf  Hf9  1  0.064191  0.436612  0.436612  1
  Hf  Hf10  1  0.436612  0.064191  0.436612  1
  Hf  Hf11  1  0.063495  0.063495  0.436815  1
  Zn  Zn12  1  0.420027  0.420027  0.747942  1
  Zn  Zn13  1  0.417504  0.417504  0.417504  1
  Zn  Zn14  1  0.747942  0.420027  0.420027  1
  Zn  Zn15  1  0.420027  0.747942  0.420027  1
  Zn  Zn16  1  0.829973  0.829973  0.502058  1
  Zn  Zn17  1  0.832496  0.832496  0.832496  1
  Zn  Zn18  1  0.502058  0.829973  0.829973  1
  Zn  Zn19  1  0.829973  0.502058  0.829973  1
  Cu  Cu20  1  0.625000  0.625000  0.625000  1
  Pd  Pd21  1  0.625000  0.625000  0.125000  1
  Pd  Pd22  1  0.125000  0.625000  0.625000  1
  Pd  Pd23  1  0.625000  0.125000  0.625000  1
  N  N24  1  0.125000  0.125000  0.625000  1
  N  N25  1  0.125000  0.125000  0.125000  1
  N  N26  1  0.625000  0.125000  0.125000  1
  N  N27  1  0.125000  0.625000  0.125000  1
