# generated using pymatgen
data_DyThZn5Si
_symmetry_space_group_name_H-M   'P 1'
_cell_length_a   8.25139900
_cell_length_b   8.25139905
_cell_length_c   8.77930300
_cell_angle_alpha   90.00000000
_cell_angle_beta   90.00000000
_cell_angle_gamma   149.43818942
_symmetry_Int_Tables_number   1
_chemical_formula_structural   DyThZn5Si
_chemical_formula_sum   'Dy2 Th2 Zn10 Si2'
_cell_volume   303.93344595
_cell_formula_units_Z   2
loop_
 _symmetry_equiv_pos_site_id
 _symmetry_equiv_pos_as_xyz
  1  'x, y, z'
loop_
 _atom_site_type_symbol
 _atom_site_label
 _atom_site_symmetry_multiplicity
 _atom_site_fract_x
 _atom_site_fract_y
 _atom_site_fract_z
 _atom_site_occupancy
  Dy  Dy0  1  0.199867  0.800133  0.250000  1
  Dy  Dy1  1  0.800133  0.199867  0.750000  1
  Th  Th2  1  0.000000  0.000000  0.500000  1
  Th  Th3  1  0.000000  0.000000  0.000000  1
  Zn  Zn4  1  0.811897  0.188103  0.393669  1
  Zn  Zn5  1  0.188103  0.811897  0.606331  1
  Zn  Zn6  1  0.811897  0.188103  0.106331  1
  Zn  Zn7  1  0.188103  0.811897  0.893669  1
  Zn  Zn8  1  0.651525  0.348475  0.474292  1
  Zn  Zn9  1  0.348475  0.651525  0.525708  1
  Zn  Zn10  1  0.651525  0.348475  0.025708  1
  Zn  Zn11  1  0.348475  0.651525  0.974292  1
  Zn  Zn12  1  0.402663  0.597337  0.250000  1
  Zn  Zn13  1  0.597337  0.402663  0.750000  1
  Si  Si14  1  0.556429  0.443571  0.250000  1
  Si  Si15  1  0.443571  0.556429  0.750000  1
