# generated using pymatgen
data_SmHo2Zn(Ga4Pd)2
_symmetry_space_group_name_H-M   'P 1'
_cell_length_a   8.17739939
_cell_length_b   8.17739918
_cell_length_c   8.17739803
_cell_angle_alpha   149.32346049
_cell_angle_beta   109.36230737
_cell_angle_gamma   78.95371796
_symmetry_Int_Tables_number   1
_chemical_formula_structural   SmHo2Zn(Ga4Pd)2
_chemical_formula_sum   'Sm1 Ho2 Zn1 Ga8 Pd2'
_cell_volume   258.18598359
_cell_formula_units_Z   1
loop_
 _symmetry_equiv_pos_site_id
 _symmetry_equiv_pos_as_xyz
  1  'x, y, z'
loop_
 _atom_site_type_symbol
 _atom_site_label
 _atom_site_symmetry_multiplicity
 _atom_site_fract_x
 _atom_site_fract_y
 _atom_site_fract_z
 _atom_site_occupancy
  Sm  Sm0  1  0.500000  0.500000  0.000000  1
  Ho  Ho1  1  0.200145  0.200145  0.000000  1
  Ho  Ho2  1  0.799855  0.799855  0.000000  1
  Zn  Zn3  1  0.000000  0.500000  0.500000  1
  Ga  Ga4  1  0.648241  0.363007  0.285234  1
  Ga  Ga5  1  0.351759  0.636993  0.714766  1
  Ga  Ga6  1  0.077773  0.363007  0.714766  1
  Ga  Ga7  1  0.922227  0.636993  0.285234  1
  Ga  Ga8  1  0.522065  0.157375  0.364690  1
  Ga  Ga9  1  0.477935  0.842625  0.635310  1
  Ga  Ga10  1  0.792686  0.157375  0.635310  1
  Ga  Ga11  1  0.207314  0.842625  0.364690  1
  Pd  Pd12  1  0.182967  0.000000  0.182967  1
  Pd  Pd13  1  0.817033  0.000000  0.817033  1
