# generated using pymatgen
data_Ca4Zn5Rh3
_symmetry_space_group_name_H-M   'P 1'
_cell_length_a   5.44271600
_cell_length_b   5.41139796
_cell_length_c   8.95180800
_cell_angle_alpha   90.00000000
_cell_angle_beta   90.00000000
_cell_angle_gamma   120.19161947
_symmetry_Int_Tables_number   1
_chemical_formula_structural   Ca4Zn5Rh3
_chemical_formula_sum   'Ca4 Zn5 Rh3'
_cell_volume   227.88971362
_cell_formula_units_Z   1
loop_
 _symmetry_equiv_pos_site_id
 _symmetry_equiv_pos_as_xyz
  1  'x, y, z'
loop_
 _atom_site_type_symbol
 _atom_site_label
 _atom_site_symmetry_multiplicity
 _atom_site_fract_x
 _atom_site_fract_y
 _atom_site_fract_z
 _atom_site_occupancy
  Ca  Ca0  1  0.331309  0.662619  0.059015  1
  Ca  Ca1  1  0.671255  0.342510  0.553480  1
  Ca  Ca2  1  0.671255  0.342510  0.946520  1
  Ca  Ca3  1  0.331309  0.662619  0.440985  1
  Zn  Zn4  1  0.169297  0.848142  0.750000  1
  Zn  Zn5  1  0.678845  0.848142  0.750000  1
  Zn  Zn6  1  0.320974  0.155848  0.250000  1
  Zn  Zn7  1  0.834874  0.155848  0.250000  1
  Zn  Zn8  1  0.165416  0.330831  0.750000  1
  Rh  Rh9  1  0.003026  0.006052  0.000569  1
  Rh  Rh10  1  0.003026  0.006052  0.499431  1
  Rh  Rh11  1  0.819413  0.638826  0.250000  1
