# generated using pymatgen
data_BaLaCd(H6Ir)2
_symmetry_space_group_name_H-M   'P 1'
_cell_length_a   4.98157700
_cell_length_b   4.98157691
_cell_length_c   9.11603500
_cell_angle_alpha   90.00000000
_cell_angle_beta   90.00000000
_cell_angle_gamma   119.99998065
_symmetry_Int_Tables_number   1
_chemical_formula_structural   BaLaCd(H6Ir)2
_chemical_formula_sum   'Ba1 La1 Cd1 H12 Ir2'
_cell_volume   195.91621777
_cell_formula_units_Z   1
loop_
 _symmetry_equiv_pos_site_id
 _symmetry_equiv_pos_as_xyz
  1  'x, y, z'
loop_
 _atom_site_type_symbol
 _atom_site_label
 _atom_site_symmetry_multiplicity
 _atom_site_fract_x
 _atom_site_fract_y
 _atom_site_fract_z
 _atom_site_occupancy
  Ba  Ba0  1  0.000000  0.000000  0.998749  1
  La  La1  1  0.333333  0.666667  0.617006  1
  Cd  Cd2  1  0.666667  0.333333  0.321544  1
  H  H3  1  0.171820  0.828180  0.370875  1
  H  H4  1  0.656360  0.828180  0.370875  1
  H  H5  1  0.171820  0.343640  0.370875  1
  H  H6  1  0.832049  0.167951  0.645261  1
  H  H7  1  0.335903  0.167951  0.645261  1
  H  H8  1  0.832049  0.664097  0.645261  1
  H  H9  1  0.505952  0.011903  0.853644  1
  H  H10  1  0.505952  0.494048  0.853644  1
  H  H11  1  0.988097  0.494048  0.853644  1
  H  H12  1  0.483463  0.966925  0.146261  1
  H  H13  1  0.483463  0.516537  0.146261  1
  H  H14  1  0.033075  0.516537  0.146261  1
  Ir  Ir15  1  0.666667  0.333333  0.746546  1
  Ir  Ir16  1  0.333333  0.666667  0.268028  1
