# generated using pymatgen
data_Tm2Co9As7Ru3
_symmetry_space_group_name_H-M   'P 1'
_cell_length_a   3.80531000
_cell_length_b   9.36747484
_cell_length_c   9.36747500
_cell_angle_alpha   119.99998997
_cell_angle_beta   90.00000000
_cell_angle_gamma   90.00000000
_symmetry_Int_Tables_number   1
_chemical_formula_structural   Tm2Co9As7Ru3
_chemical_formula_sum   'Tm2 Co9 As7 Ru3'
_cell_volume   289.17836370
_cell_formula_units_Z   1
loop_
 _symmetry_equiv_pos_site_id
 _symmetry_equiv_pos_as_xyz
  1  'x, y, z'
loop_
 _atom_site_type_symbol
 _atom_site_label
 _atom_site_symmetry_multiplicity
 _atom_site_fract_x
 _atom_site_fract_y
 _atom_site_fract_z
 _atom_site_occupancy
  Tm  Tm0  1  0.000000  0.666667  0.333333  1
  Tm  Tm1  1  0.500000  0.333333  0.666667  1
  Co  Co2  1  0.000000  0.568179  0.940184  1
  Co  Co3  1  0.000000  0.372004  0.431821  1
  Co  Co4  1  0.000000  0.059816  0.627996  1
  Co  Co5  1  0.000000  0.876033  0.159576  1
  Co  Co6  1  0.000000  0.283543  0.123967  1
  Co  Co7  1  0.000000  0.840424  0.716457  1
  Co  Co8  1  0.500000  0.946975  0.383364  1
  Co  Co9  1  0.500000  0.436388  0.053025  1
  Co  Co10  1  0.500000  0.616636  0.563612  1
  As  As11  1  0.000000  0.000000  0.000000  1
  As  As12  1  0.500000  0.708145  0.118765  1
  As  As13  1  0.500000  0.410620  0.291855  1
  As  As14  1  0.500000  0.881235  0.589380  1
  As  As15  1  0.000000  0.586830  0.701718  1
  As  As16  1  0.000000  0.114889  0.413170  1
  As  As17  1  0.000000  0.298282  0.885111  1
  Ru  Ru18  1  0.500000  0.780871  0.901240  1
  Ru  Ru19  1  0.500000  0.120371  0.219129  1
  Ru  Ru20  1  0.500000  0.098760  0.879629  1
