# generated using pymatgen
data_Tm4Sc8In2Fe2Os
_symmetry_space_group_name_H-M   'P 1'
_cell_length_a   7.96472667
_cell_length_b   7.96472720
_cell_length_c   7.96472687
_cell_angle_alpha   108.31309040
_cell_angle_beta   108.31308090
_cell_angle_gamma   111.81317775
_symmetry_Int_Tables_number   1
_chemical_formula_structural   Tm4Sc8In2Fe2Os
_chemical_formula_sum   'Tm4 Sc8 In2 Fe2 Os1'
_cell_volume   388.45775230
_cell_formula_units_Z   1
loop_
 _symmetry_equiv_pos_site_id
 _symmetry_equiv_pos_as_xyz
  1  'x, y, z'
loop_
 _atom_site_type_symbol
 _atom_site_label
 _atom_site_symmetry_multiplicity
 _atom_site_fract_x
 _atom_site_fract_y
 _atom_site_fract_z
 _atom_site_occupancy
  Tm  Tm0  1  0.304261  0.304261  0.608522  1
  Tm  Tm1  1  0.695739  0.695739  0.391478  1
  Tm  Tm2  1  0.695739  0.304261  0.000000  1
  Tm  Tm3  1  0.304261  0.695739  0.000000  1
  Sc  Sc4  1  0.191116  0.425861  0.234744  1
  Sc  Sc5  1  0.808884  0.574139  0.765256  1
  Sc  Sc6  1  0.191116  0.956373  0.765256  1
  Sc  Sc7  1  0.956373  0.191116  0.765256  1
  Sc  Sc8  1  0.808884  0.043627  0.234744  1
  Sc  Sc9  1  0.043627  0.808884  0.234744  1
  Sc  Sc10  1  0.425861  0.191116  0.234744  1
  Sc  Sc11  1  0.574139  0.808884  0.765256  1
  In  In12  1  0.000000  0.500000  0.500000  1
  In  In13  1  0.500000  0.000000  0.500000  1
  Fe  Fe14  1  0.377689  0.377689  0.000000  1
  Fe  Fe15  1  0.622311  0.622311  0.000000  1
  Os  Os16  1  0.000000  0.000000  0.000000  1
