# generated using pymatgen
data_Sm3Ho3Co4(P6Ru7)2
_symmetry_space_group_name_H-M   'P 1'
_cell_length_a   3.89300800
_cell_length_b   10.91005517
_cell_length_c   12.72497120
_cell_angle_alpha   90.02049469
_cell_angle_beta   90.00000000
_cell_angle_gamma   90.00000000
_symmetry_Int_Tables_number   1
_chemical_formula_structural   Sm3Ho3Co4(P6Ru7)2
_chemical_formula_sum   'Sm3 Ho3 Co4 P12 Ru14'
_cell_volume   540.46680300
_cell_formula_units_Z   1
loop_
 _symmetry_equiv_pos_site_id
 _symmetry_equiv_pos_as_xyz
  1  'x, y, z'
loop_
 _atom_site_type_symbol
 _atom_site_label
 _atom_site_symmetry_multiplicity
 _atom_site_fract_x
 _atom_site_fract_y
 _atom_site_fract_z
 _atom_site_occupancy
  Sm  Sm0  1  0.000000  0.499844  0.525547  1
  Sm  Sm1  1  0.500000  0.000292  0.473063  1
  Sm  Sm2  1  0.000000  0.681078  0.797886  1
  Ho  Ho3  1  0.500000  0.821838  0.202623  1
  Ho  Ho4  1  0.500000  0.178370  0.202901  1
  Ho  Ho5  1  0.000000  0.318390  0.798193  1
  Co  Co6  1  0.000000  0.499236  0.989444  1
  Co  Co7  1  0.500000  0.000742  0.013192  1
  Co  Co8  1  0.000000  0.162563  0.010417  1
  Co  Co9  1  0.000000  0.838042  0.010771  1
  P  P10  1  0.500000  0.305459  0.616544  1
  P  P11  1  0.500000  0.694676  0.615392  1
  P  P12  1  0.000000  0.194454  0.383384  1
  P  P13  1  0.000000  0.805594  0.382781  1
  P  P14  1  0.500000  0.498611  0.887959  1
  P  P15  1  0.000000  0.000387  0.112557  1
  P  P16  1  0.500000  0.853055  0.897099  1
  P  P17  1  0.500000  0.148212  0.896391  1
  P  P18  1  0.000000  0.656267  0.101028  1
  P  P19  1  0.000000  0.343375  0.101398  1
  P  P20  1  0.500000  0.499961  0.334992  1
  P  P21  1  0.000000  0.999983  0.664188  1
  Ru  Ru22  1  0.500000  0.298996  0.428136  1
  Ru  Ru23  1  0.500000  0.700762  0.427704  1
  Ru  Ru24  1  0.000000  0.200539  0.571987  1
  Ru  Ru25  1  0.000000  0.799672  0.570964  1
  Ru  Ru26  1  0.500000  0.879066  0.715515  1
  Ru  Ru27  1  0.500000  0.123087  0.716606  1
  Ru  Ru28  1  0.000000  0.624021  0.281309  1
  Ru  Ru29  1  0.000000  0.375908  0.281716  1
  Ru  Ru30  1  0.500000  0.326200  0.992933  1
  Ru  Ru31  1  0.500000  0.673136  0.993782  1
  Ru  Ru32  1  0.500000  0.499670  0.152055  1
  Ru  Ru33  1  0.000000  0.000213  0.851373  1
  Ru  Ru34  1  0.500000  0.498288  0.701759  1
  Ru  Ru35  1  0.000000  0.000013  0.296410  1
