# generated using pymatgen
data_DyTm7Sc11Si16Os
_symmetry_space_group_name_H-M   'P 1'
_cell_length_a   6.96738061
_cell_length_b   7.31746447
_cell_length_c   13.79916455
_cell_angle_alpha   90.03215038
_cell_angle_beta   90.00364582
_cell_angle_gamma   90.14767982
_symmetry_Int_Tables_number   1
_chemical_formula_structural   DyTm7Sc11Si16Os
_chemical_formula_sum   'Dy1 Tm7 Sc11 Si16 Os1'
_cell_volume   703.52808568
_cell_formula_units_Z   1
loop_
 _symmetry_equiv_pos_site_id
 _symmetry_equiv_pos_as_xyz
  1  'x, y, z'
loop_
 _atom_site_type_symbol
 _atom_site_label
 _atom_site_symmetry_multiplicity
 _atom_site_fract_x
 _atom_site_fract_y
 _atom_site_fract_z
 _atom_site_occupancy
  Dy  Dy0  1  0.011733  0.178326  0.091825  1
  Tm  Tm1  1  0.993451  0.818159  0.901083  1
  Tm  Tm2  1  0.490491  0.673488  0.903110  1
  Tm  Tm3  1  0.993398  0.818205  0.598658  1
  Tm  Tm4  1  0.511032  0.323257  0.093808  1
  Tm  Tm5  1  0.011897  0.179183  0.407578  1
  Tm  Tm6  1  0.511181  0.322839  0.406340  1
  Tm  Tm7  1  0.490411  0.673344  0.596653  1
  Sc  Sc8  1  0.841641  0.496034  0.250273  1
  Sc  Sc9  1  0.342452  0.004125  0.250210  1
  Sc  Sc10  1  0.656372  0.994055  0.750002  1
  Sc  Sc11  1  0.325558  0.176121  0.627539  1
  Sc  Sc12  1  0.671783  0.824719  0.374403  1
  Sc  Sc13  1  0.172621  0.673703  0.377246  1
  Sc  Sc14  1  0.671928  0.824422  0.125868  1
  Sc  Sc15  1  0.824506  0.331469  0.628793  1
  Sc  Sc16  1  0.325770  0.175851  0.872334  1
  Sc  Sc17  1  0.824079  0.331849  0.871184  1
  Sc  Sc18  1  0.172679  0.673448  0.122854  1
  Si  Si19  1  0.027223  0.114818  0.749956  1
  Si  Si20  1  0.973332  0.887161  0.250314  1
  Si  Si21  1  0.469509  0.612852  0.250061  1
  Si  Si22  1  0.513153  0.397845  0.749943  1
  Si  Si23  1  0.285429  0.855274  0.750016  1
  Si  Si24  1  0.716518  0.131551  0.250635  1
  Si  Si25  1  0.216118  0.369826  0.250600  1
  Si  Si26  1  0.795822  0.632611  0.749928  1
  Si  Si27  1  0.157902  0.466478  0.549383  1
  Si  Si28  1  0.841505  0.535959  0.464101  1
  Si  Si29  1  0.344044  0.965165  0.463232  1
  Si  Si30  1  0.841140  0.537156  0.035596  1
  Si  Si31  1  0.660489  0.034116  0.539829  1
  Si  Si32  1  0.158052  0.467328  0.950253  1
  Si  Si33  1  0.660039  0.033978  0.960021  1
  Si  Si34  1  0.345717  0.964314  0.036494  1
  Os  Os35  1  0.151027  0.500974  0.749879  1
