# generated using pymatgen
data_Y(SiAu2)2
_symmetry_space_group_name_H-M   'P 1'
_cell_length_a   7.31019001
_cell_length_b   7.31019020
_cell_length_c   4.29877800
_cell_angle_alpha   90.00000000
_cell_angle_beta   90.00000000
_cell_angle_gamma   145.47093936
_symmetry_Int_Tables_number   1
_chemical_formula_structural   Y(SiAu2)2
_chemical_formula_sum   'Y1 Si2 Au4'
_cell_volume   130.21191204
_cell_formula_units_Z   1
loop_
 _symmetry_equiv_pos_site_id
 _symmetry_equiv_pos_as_xyz
  1  'x, y, z'
loop_
 _atom_site_type_symbol
 _atom_site_label
 _atom_site_symmetry_multiplicity
 _atom_site_fract_x
 _atom_site_fract_y
 _atom_site_fract_z
 _atom_site_occupancy
  Y  Y0  1  0.000000  0.000000  0.000000  1
  Si  Si1  1  0.582808  0.417192  0.500000  1
  Si  Si2  1  0.417192  0.582808  0.500000  1
  Au  Au3  1  0.170906  0.829094  0.500000  1
  Au  Au4  1  0.327066  0.672934  0.000000  1
  Au  Au5  1  0.829094  0.170906  0.500000  1
  Au  Au6  1  0.672934  0.327066  0.000000  1
