# generated using pymatgen
data_CePu3(CoB10)2
_symmetry_space_group_name_H-M   'P 1'
_cell_length_a   4.14893800
_cell_length_b   5.56954601
_cell_length_c   11.08338734
_cell_angle_alpha   89.95193598
_cell_angle_beta   90.00000000
_cell_angle_gamma   90.00000000
_symmetry_Int_Tables_number   1
_chemical_formula_structural   CePu3(CoB10)2
_chemical_formula_sum   'Ce1 Pu3 Co2 B20'
_cell_volume   256.11151140
_cell_formula_units_Z   1
loop_
 _symmetry_equiv_pos_site_id
 _symmetry_equiv_pos_as_xyz
  1  'x, y, z'
loop_
 _atom_site_type_symbol
 _atom_site_label
 _atom_site_symmetry_multiplicity
 _atom_site_fract_x
 _atom_site_fract_y
 _atom_site_fract_z
 _atom_site_occupancy
  Ce  Ce0  1  0.500000  0.304880  0.865172  1
  Pu  Pu1  1  0.500000  0.691482  0.136434  1
  Pu  Pu2  1  0.500000  0.806832  0.636302  1
  Pu  Pu3  1  0.500000  0.191156  0.363506  1
  Co  Co4  1  0.000000  0.501559  0.500227  1
  Co  Co5  1  0.000000  0.002510  0.999446  1
  B  B6  1  0.000000  0.129010  0.538124  1
  B  B7  1  0.000000  0.872239  0.460425  1
  B  B8  1  0.000000  0.629918  0.961711  1
  B  B9  1  0.000000  0.374305  0.040895  1
  B  B10  1  0.000000  0.157335  0.696610  1
  B  B11  1  0.000000  0.841458  0.301981  1
  B  B12  1  0.300870  0.199931  0.113234  1
  B  B13  1  0.300496  0.801278  0.887503  1
  B  B14  1  0.699011  0.699311  0.387563  1
  B  B15  1  0.699239  0.301435  0.611291  1
  B  B16  1  0.699504  0.801278  0.887503  1
  B  B17  1  0.699130  0.199931  0.113234  1
  B  B18  1  0.300761  0.301435  0.611291  1
  B  B19  1  0.300989  0.699311  0.387563  1
  B  B20  1  0.000000  0.027830  0.185561  1
  B  B21  1  0.000000  0.968873  0.812255  1
  B  B22  1  0.000000  0.528025  0.314520  1
  B  B23  1  0.000000  0.470221  0.686349  1
  B  B24  1  0.000000  0.341585  0.198751  1
  B  B25  1  0.000000  0.656875  0.802548  1
