# generated using pymatgen
data_Ho4TmIr2Ru
_symmetry_space_group_name_H-M   'P 1'
_cell_length_a   10.76775800
_cell_length_b   10.76775800
_cell_length_c   6.39511400
_cell_angle_alpha   90.00000000
_cell_angle_beta   90.00000000
_cell_angle_gamma   90.00000000
_symmetry_Int_Tables_number   1
_chemical_formula_structural   Ho4TmIr2Ru
_chemical_formula_sum   'Ho16 Tm4 Ir8 Ru4'
_cell_volume   741.47901364
_cell_formula_units_Z   4
loop_
 _symmetry_equiv_pos_site_id
 _symmetry_equiv_pos_as_xyz
  1  'x, y, z'
loop_
 _atom_site_type_symbol
 _atom_site_label
 _atom_site_symmetry_multiplicity
 _atom_site_fract_x
 _atom_site_fract_y
 _atom_site_fract_z
 _atom_site_occupancy
  Ho  Ho0  1  0.293138  0.086365  0.376652  1
  Ho  Ho1  1  0.293138  0.913635  0.876652  1
  Ho  Ho2  1  0.706862  0.086365  0.876652  1
  Ho  Ho3  1  0.706862  0.913635  0.376652  1
  Ho  Ho4  1  0.586365  0.793138  0.876652  1
  Ho  Ho5  1  0.586365  0.206862  0.376652  1
  Ho  Ho6  1  0.413635  0.793138  0.376652  1
  Ho  Ho7  1  0.413635  0.206862  0.876652  1
  Ho  Ho8  1  0.206862  0.413635  0.623348  1
  Ho  Ho9  1  0.206862  0.586365  0.123348  1
  Ho  Ho10  1  0.793138  0.413635  0.123348  1
  Ho  Ho11  1  0.793138  0.586365  0.623348  1
  Ho  Ho12  1  0.913635  0.706862  0.123348  1
  Ho  Ho13  1  0.913635  0.293138  0.623348  1
  Ho  Ho14  1  0.086365  0.706862  0.623348  1
  Ho  Ho15  1  0.086365  0.293138  0.123348  1
  Tm  Tm16  1  0.000000  0.000000  0.500000  1
  Tm  Tm17  1  0.000000  0.000000  0.000000  1
  Tm  Tm18  1  0.500000  0.500000  0.000000  1
  Tm  Tm19  1  0.500000  0.500000  0.500000  1
  Ir  Ir20  1  0.847911  0.152089  0.250000  1
  Ir  Ir21  1  0.847911  0.847911  0.750000  1
  Ir  Ir22  1  0.152089  0.152089  0.750000  1
  Ir  Ir23  1  0.152089  0.847911  0.250000  1
  Ir  Ir24  1  0.652089  0.347911  0.750000  1
  Ir  Ir25  1  0.652089  0.652089  0.250000  1
  Ir  Ir26  1  0.347911  0.347911  0.250000  1
  Ir  Ir27  1  0.347911  0.652089  0.750000  1
  Ru  Ru28  1  0.500000  0.000000  0.122246  1
  Ru  Ru29  1  0.500000  0.000000  0.622246  1
  Ru  Ru30  1  0.000000  0.500000  0.877754  1
  Ru  Ru31  1  0.000000  0.500000  0.377754  1
