# generated using pymatgen
data_Cs(TlSe8)3
_symmetry_space_group_name_H-M   'P 1'
_cell_length_a   11.30504017
_cell_length_b   11.30504042
_cell_length_c   11.36251416
_cell_angle_alpha   130.27619649
_cell_angle_beta   120.12221784
_cell_angle_gamma   81.13208234
_symmetry_Int_Tables_number   1
_chemical_formula_structural   Cs(TlSe8)3
_chemical_formula_sum   'Cs1 Tl3 Se24'
_cell_volume   925.85086378
_cell_formula_units_Z   1
loop_
 _symmetry_equiv_pos_site_id
 _symmetry_equiv_pos_as_xyz
  1  'x, y, z'
loop_
 _atom_site_type_symbol
 _atom_site_label
 _atom_site_symmetry_multiplicity
 _atom_site_fract_x
 _atom_site_fract_y
 _atom_site_fract_z
 _atom_site_occupancy
  Cs  Cs0  1  0.500000  0.500000  0.000000  1
  Tl  Tl1  1  0.000000  0.000000  0.000000  1
  Tl  Tl2  1  0.752883  0.252883  0.500000  1
  Tl  Tl3  1  0.247117  0.747117  0.500000  1
  Se  Se4  1  0.647262  0.749863  0.896864  1
  Se  Se5  1  0.852999  0.750398  0.103136  1
  Se  Se6  1  0.352738  0.250137  0.103136  1
  Se  Se7  1  0.147001  0.249602  0.896864  1
  Se  Se8  1  0.233083  0.118820  0.659820  1
  Se  Se9  1  0.255824  0.929833  0.889648  1
  Se  Se10  1  0.040185  0.366176  0.110352  1
  Se  Se11  1  0.458999  0.573262  0.340180  1
  Se  Se12  1  0.766917  0.881180  0.340180  1
  Se  Se13  1  0.744176  0.070167  0.110352  1
  Se  Se14  1  0.959815  0.633824  0.889648  1
  Se  Se15  1  0.541001  0.426738  0.659820  1
  Se  Se16  1  0.923562  0.829255  0.529676  1
  Se  Se17  1  0.579219  0.099208  0.901122  1
  Se  Se18  1  0.198087  0.678098  0.098878  1
  Se  Se19  1  0.299578  0.393886  0.470324  1
  Se  Se20  1  0.076438  0.170745  0.470324  1
  Se  Se21  1  0.420781  0.900792  0.098878  1
  Se  Se22  1  0.801914  0.321902  0.901122  1
  Se  Se23  1  0.700422  0.606114  0.529676  1
  Se  Se24  1  0.677475  0.061703  0.739176  1
  Se  Se25  1  0.827786  0.569128  0.396914  1
  Se  Se26  1  0.172214  0.430872  0.603086  1
  Se  Se27  1  0.322525  0.938297  0.260824  1
