# generated using pymatgen
data_Y5Ho5Al3Ru
_symmetry_space_group_name_H-M   'P 1'
_cell_length_a   9.53238991
_cell_length_b   9.53277224
_cell_length_c   9.61603321
_cell_angle_alpha   89.99999833
_cell_angle_beta   90.04994594
_cell_angle_gamma   120.00133036
_symmetry_Int_Tables_number   1
_chemical_formula_structural   Y5Ho5Al3Ru
_chemical_formula_sum   'Y10 Ho10 Al6 Ru2'
_cell_volume   756.73105925
_cell_formula_units_Z   2
loop_
 _symmetry_equiv_pos_site_id
 _symmetry_equiv_pos_as_xyz
  1  'x, y, z'
loop_
 _atom_site_type_symbol
 _atom_site_label
 _atom_site_symmetry_multiplicity
 _atom_site_fract_x
 _atom_site_fract_y
 _atom_site_fract_z
 _atom_site_occupancy
  Y  Y0  1  0.413737  0.206868  0.939905  1
  Y  Y1  1  0.206218  0.793082  0.060127  1
  Y  Y2  1  0.206218  0.413136  0.060127  1
  Y  Y3  1  0.586913  0.793457  0.060025  1
  Y  Y4  1  0.540165  0.460087  0.251107  1
  Y  Y5  1  0.540165  0.080078  0.251107  1
  Y  Y6  1  0.919610  0.459805  0.250706  1
  Y  Y7  1  0.460364  0.540123  0.748823  1
  Y  Y8  1  0.460364  0.920241  0.748823  1
  Y  Y9  1  0.079096  0.539548  0.749088  1
  Ho  Ho10  1  0.000022  0.000011  0.500219  1
  Ho  Ho11  1  0.999447  0.999723  0.999814  1
  Ho  Ho12  1  0.207018  0.792874  0.439856  1
  Ho  Ho13  1  0.207018  0.414145  0.439856  1
  Ho  Ho14  1  0.585885  0.792943  0.439791  1
  Ho  Ho15  1  0.792913  0.207009  0.560434  1
  Ho  Ho16  1  0.792913  0.585903  0.560434  1
  Ho  Ho17  1  0.414348  0.207174  0.560254  1
  Ho  Ho18  1  0.792907  0.207313  0.939134  1
  Ho  Ho19  1  0.792907  0.585593  0.939134  1
  Al  Al20  1  0.888746  0.111296  0.249774  1
  Al  Al21  1  0.888746  0.777451  0.249774  1
  Al  Al22  1  0.222526  0.111263  0.249836  1
  Al  Al23  1  0.111365  0.888688  0.750185  1
  Al  Al24  1  0.111365  0.222676  0.750185  1
  Al  Al25  1  0.777394  0.888696  0.750048  1
  Ru  Ru26  1  0.333299  0.666650  0.252501  1
  Ru  Ru27  1  0.668331  0.334165  0.748935  1
