# generated using pymatgen
data_Yb3DyHo2(CoSn6)2
_symmetry_space_group_name_H-M   'P 1'
_cell_length_a   8.41604810
_cell_length_b   8.41604767
_cell_length_c   13.25026934
_cell_angle_alpha   90.07229898
_cell_angle_beta   89.92770181
_cell_angle_gamma   148.08606409
_symmetry_Int_Tables_number   1
_chemical_formula_structural   Yb3DyHo2(CoSn6)2
_chemical_formula_sum   'Yb3 Dy1 Ho2 Co2 Sn12'
_cell_volume   496.14052613
_cell_formula_units_Z   1
loop_
 _symmetry_equiv_pos_site_id
 _symmetry_equiv_pos_as_xyz
  1  'x, y, z'
loop_
 _atom_site_type_symbol
 _atom_site_label
 _atom_site_symmetry_multiplicity
 _atom_site_fract_x
 _atom_site_fract_y
 _atom_site_fract_z
 _atom_site_occupancy
  Yb  Yb0  1  0.101085  0.898915  0.598114  1
  Yb  Yb1  1  0.101097  0.898903  0.902779  1
  Yb  Yb2  1  0.899447  0.100553  0.401613  1
  Dy  Dy3  1  0.897460  0.102540  0.095245  1
  Ho  Ho4  1  0.900981  0.099019  0.754807  1
  Ho  Ho5  1  0.098995  0.901005  0.247391  1
  Co  Co6  1  0.299358  0.700642  0.249149  1
  Co  Co7  1  0.702523  0.297477  0.750280  1
  Sn  Sn8  1  0.759955  0.240045  0.573109  1
  Sn  Sn9  1  0.425329  0.574671  0.578819  1
  Sn  Sn10  1  0.573954  0.426046  0.422531  1
  Sn  Sn11  1  0.733036  0.266964  0.248475  1
  Sn  Sn12  1  0.267444  0.732556  0.750523  1
  Sn  Sn13  1  0.240210  0.759790  0.072530  1
  Sn  Sn14  1  0.241353  0.758647  0.426605  1
  Sn  Sn15  1  0.572606  0.427394  0.075061  1
  Sn  Sn16  1  0.455600  0.544400  0.248354  1
  Sn  Sn17  1  0.545095  0.454905  0.750442  1
  Sn  Sn18  1  0.757885  0.242115  0.928564  1
  Sn  Sn19  1  0.426587  0.573413  0.925609  1
