# generated using pymatgen
data_Zr4AlRe7
_symmetry_space_group_name_H-M   'P 1'
_cell_length_a   5.28215100
_cell_length_b   5.28215079
_cell_length_c   8.74158200
_cell_angle_alpha   90.00000000
_cell_angle_beta   90.00000000
_cell_angle_gamma   119.99999505
_symmetry_Int_Tables_number   1
_chemical_formula_structural   Zr4AlRe7
_chemical_formula_sum   'Zr4 Al1 Re7'
_cell_volume   211.22352998
_cell_formula_units_Z   1
loop_
 _symmetry_equiv_pos_site_id
 _symmetry_equiv_pos_as_xyz
  1  'x, y, z'
loop_
 _atom_site_type_symbol
 _atom_site_label
 _atom_site_symmetry_multiplicity
 _atom_site_fract_x
 _atom_site_fract_y
 _atom_site_fract_z
 _atom_site_occupancy
  Zr  Zr0  1  0.333333  0.666667  0.431478  1
  Zr  Zr1  1  0.666667  0.333333  0.939674  1
  Zr  Zr2  1  0.666667  0.333333  0.568522  1
  Zr  Zr3  1  0.333333  0.666667  0.060326  1
  Al  Al4  1  0.000000  0.000000  0.500000  1
  Re  Re5  1  0.169938  0.339875  0.749456  1
  Re  Re6  1  0.830062  0.169938  0.250544  1
  Re  Re7  1  0.339875  0.169938  0.250544  1
  Re  Re8  1  0.660125  0.830062  0.749456  1
  Re  Re9  1  0.000000  0.000000  0.000000  1
  Re  Re10  1  0.830062  0.660125  0.250544  1
  Re  Re11  1  0.169938  0.830062  0.749456  1
