# generated using pymatgen
data_Y(LuTe2)2
_symmetry_space_group_name_H-M   'P 1'
_cell_length_a   4.28586700
_cell_length_b   7.42394456
_cell_length_c   7.44649669
_cell_angle_alpha   71.75419055
_cell_angle_beta   90.00000000
_cell_angle_gamma   90.00000000
_symmetry_Int_Tables_number   1
_chemical_formula_structural   Y(LuTe2)2
_chemical_formula_sum   'Y1 Lu2 Te4'
_cell_volume   225.02041534
_cell_formula_units_Z   1
loop_
 _symmetry_equiv_pos_site_id
 _symmetry_equiv_pos_as_xyz
  1  'x, y, z'
loop_
 _atom_site_type_symbol
 _atom_site_label
 _atom_site_symmetry_multiplicity
 _atom_site_fract_x
 _atom_site_fract_y
 _atom_site_fract_z
 _atom_site_occupancy
  Y  Y0  1  0.000000  0.500000  0.500000  1
  Lu  Lu1  1  0.000000  0.000000  0.000000  1
  Lu  Lu2  1  0.500000  0.500000  0.000000  1
  Te  Te3  1  0.500000  0.760856  0.250439  1
  Te  Te4  1  0.000000  0.249524  0.245075  1
  Te  Te5  1  0.500000  0.239144  0.749561  1
  Te  Te6  1  0.000000  0.750476  0.754925  1
