# generated using pymatgen
data_Nd5Dy11Cd4Co3Ni
_symmetry_space_group_name_H-M   'P 1'
_cell_length_a   9.59415032
_cell_length_b   9.61042538
_cell_length_c   9.61042586
_cell_angle_alpha   60.15656210
_cell_angle_beta   60.09338261
_cell_angle_gamma   60.09338651
_symmetry_Int_Tables_number   1
_chemical_formula_structural   Nd5Dy11Cd4Co3Ni
_chemical_formula_sum   'Nd5 Dy11 Cd4 Co3 Ni1'
_cell_volume   628.20446008
_cell_formula_units_Z   1
loop_
 _symmetry_equiv_pos_site_id
 _symmetry_equiv_pos_as_xyz
  1  'x, y, z'
loop_
 _atom_site_type_symbol
 _atom_site_label
 _atom_site_symmetry_multiplicity
 _atom_site_fract_x
 _atom_site_fract_y
 _atom_site_fract_z
 _atom_site_occupancy
  Nd  Nd0  1  0.805076  0.192540  0.192540  1
  Nd  Nd1  1  0.810936  0.189156  0.810576  1
  Nd  Nd2  1  0.190444  0.808348  0.188800  1
  Nd  Nd3  1  0.810936  0.810576  0.189156  1
  Nd  Nd4  1  0.190444  0.188800  0.808348  1
  Dy  Dy5  1  0.593178  0.598195  0.598195  1
  Dy  Dy6  1  0.593895  0.600196  0.211325  1
  Dy  Dy7  1  0.593895  0.211325  0.600196  1
  Dy  Dy8  1  0.211929  0.596843  0.596843  1
  Dy  Dy9  1  0.067212  0.436077  0.436077  1
  Dy  Dy10  1  0.433592  0.063486  0.063486  1
  Dy  Dy11  1  0.435934  0.061559  0.438204  1
  Dy  Dy12  1  0.067521  0.435313  0.057722  1
  Dy  Dy13  1  0.435934  0.438204  0.061559  1
  Dy  Dy14  1  0.067521  0.057722  0.435313  1
  Dy  Dy15  1  0.191561  0.807816  0.807816  1
  Cd  Cd16  1  0.831470  0.828350  0.828350  1
  Cd  Cd17  1  0.828955  0.829190  0.511585  1
  Cd  Cd18  1  0.828955  0.511585  0.829190  1
  Cd  Cd19  1  0.508689  0.829655  0.829655  1
  Co  Co20  1  0.393403  0.391075  0.391075  1
  Co  Co21  1  0.390827  0.395808  0.826653  1
  Co  Co22  1  0.390827  0.826653  0.395808  1
  Ni  Ni23  1  0.826865  0.391531  0.391531  1
