# generated using pymatgen
data_Dy3Zn3Hg2Rh
_symmetry_space_group_name_H-M   'P 1'
_cell_length_a   7.75515900
_cell_length_b   7.75515827
_cell_length_c   3.72806700
_cell_angle_alpha   90.00000000
_cell_angle_beta   90.00000000
_cell_angle_gamma   120.00000851
_symmetry_Int_Tables_number   1
_chemical_formula_structural   Dy3Zn3Hg2Rh
_chemical_formula_sum   'Dy3 Zn3 Hg2 Rh1'
_cell_volume   194.17605584
_cell_formula_units_Z   1
loop_
 _symmetry_equiv_pos_site_id
 _symmetry_equiv_pos_as_xyz
  1  'x, y, z'
loop_
 _atom_site_type_symbol
 _atom_site_label
 _atom_site_symmetry_multiplicity
 _atom_site_fract_x
 _atom_site_fract_y
 _atom_site_fract_z
 _atom_site_occupancy
  Dy  Dy0  1  0.029066  0.420516  0.500000  1
  Dy  Dy1  1  0.579484  0.608550  0.500000  1
  Dy  Dy2  1  0.391450  0.970934  0.500000  1
  Zn  Zn3  1  0.007608  0.725108  0.000000  1
  Zn  Zn4  1  0.274892  0.282500  0.000000  1
  Zn  Zn5  1  0.717500  0.992392  0.000000  1
  Hg  Hg6  1  0.666667  0.333333  0.000000  1
  Hg  Hg7  1  0.000000  0.000000  0.500000  1
  Rh  Rh8  1  0.333333  0.666667  0.000000  1
