# generated using pymatgen
data_Lu6GaCoRh
_symmetry_space_group_name_H-M   'P 1'
_cell_length_a   8.13523149
_cell_length_b   8.13523167
_cell_length_c   8.13523088
_cell_angle_alpha   106.30211643
_cell_angle_beta   110.09850334
_cell_angle_gamma   112.06527328
_symmetry_Int_Tables_number   1
_chemical_formula_structural   Lu6GaCoRh
_chemical_formula_sum   'Lu12 Ga2 Co2 Rh2'
_cell_volume   413.39138069
_cell_formula_units_Z   2
loop_
 _symmetry_equiv_pos_site_id
 _symmetry_equiv_pos_as_xyz
  1  'x, y, z'
loop_
 _atom_site_type_symbol
 _atom_site_label
 _atom_site_symmetry_multiplicity
 _atom_site_fract_x
 _atom_site_fract_y
 _atom_site_fract_z
 _atom_site_occupancy
  Lu  Lu0  1  0.694337  0.255249  0.949587  1
  Lu  Lu1  1  0.305663  0.744751  0.050413  1
  Lu  Lu2  1  0.694337  0.744751  0.439089  1
  Lu  Lu3  1  0.305663  0.255249  0.560911  1
  Lu  Lu4  1  0.810186  0.130283  0.320097  1
  Lu  Lu5  1  0.810186  0.490089  0.679903  1
  Lu  Lu6  1  0.189814  0.869717  0.679903  1
  Lu  Lu7  1  0.189814  0.509911  0.320097  1
  Lu  Lu8  1  0.601706  0.781187  0.820518  1
  Lu  Lu9  1  0.960669  0.781187  0.179482  1
  Lu  Lu10  1  0.039331  0.218813  0.820518  1
  Lu  Lu11  1  0.398294  0.218813  0.179482  1
  Ga  Ga12  1  0.500000  0.500000  0.000000  1
  Ga  Ga13  1  0.500000  0.000000  0.500000  1
  Co  Co14  1  0.000000  0.114993  0.114993  1
  Co  Co15  1  0.000000  0.885007  0.885007  1
  Rh  Rh16  1  0.837107  0.500000  0.337107  1
  Rh  Rh17  1  0.162893  0.500000  0.662893  1
