# generated using pymatgen
data_Tb16HoEr3Pb16
_symmetry_space_group_name_H-M   'P 1'
_cell_length_a   8.21562001
_cell_length_b   8.30491263
_cell_length_c   15.69806700
_cell_angle_alpha   90.00000000
_cell_angle_beta   90.00000000
_cell_angle_gamma   90.01922106
_symmetry_Int_Tables_number   1
_chemical_formula_structural   Tb16HoEr3Pb16
_chemical_formula_sum   'Tb16 Ho1 Er3 Pb16'
_cell_volume   1071.07915226
_cell_formula_units_Z   1
loop_
 _symmetry_equiv_pos_site_id
 _symmetry_equiv_pos_as_xyz
  1  'x, y, z'
loop_
 _atom_site_type_symbol
 _atom_site_label
 _atom_site_symmetry_multiplicity
 _atom_site_fract_x
 _atom_site_fract_y
 _atom_site_fract_z
 _atom_site_occupancy
  Tb  Tb0  1  0.377582  0.840692  0.879595  1
  Tb  Tb1  1  0.877246  0.659535  0.620393  1
  Tb  Tb2  1  0.622584  0.159362  0.379553  1
  Tb  Tb3  1  0.122565  0.340630  0.120532  1
  Tb  Tb4  1  0.622584  0.159362  0.120447  1
  Tb  Tb5  1  0.122565  0.340630  0.379468  1
  Tb  Tb6  1  0.377582  0.840692  0.620405  1
  Tb  Tb7  1  0.877246  0.659535  0.879607  1
  Tb  Tb8  1  0.534487  0.323126  0.899912  1
  Tb  Tb9  1  0.034279  0.176597  0.600093  1
  Tb  Tb10  1  0.465598  0.676760  0.399821  1
  Tb  Tb11  1  0.965622  0.823250  0.100106  1
  Tb  Tb12  1  0.465598  0.676760  0.100179  1
  Tb  Tb13  1  0.965622  0.823250  0.399894  1
  Tb  Tb14  1  0.534487  0.323126  0.600088  1
  Tb  Tb15  1  0.034279  0.176597  0.899907  1
  Ho  Ho16  1  0.208937  0.503607  0.750000  1
  Er  Er17  1  0.709054  0.996227  0.750000  1
  Er  Er18  1  0.790967  0.496262  0.250000  1
  Er  Er19  1  0.290990  0.003644  0.250000  1
  Pb  Pb20  1  0.280942  0.032739  0.043073  1
  Pb  Pb21  1  0.780956  0.467329  0.456922  1
  Pb  Pb22  1  0.719031  0.967292  0.543000  1
  Pb  Pb23  1  0.219079  0.532846  0.957266  1
  Pb  Pb24  1  0.719031  0.967292  0.957000  1
  Pb  Pb25  1  0.219079  0.532846  0.542734  1
  Pb  Pb26  1  0.280942  0.032739  0.456927  1
  Pb  Pb27  1  0.780956  0.467329  0.043078  1
  Pb  Pb28  1  0.573164  0.626474  0.750000  1
  Pb  Pb29  1  0.072467  0.874274  0.750000  1
  Pb  Pb30  1  0.427416  0.373808  0.250000  1
  Pb  Pb31  1  0.927436  0.126144  0.250000  1
  Pb  Pb32  1  0.346193  0.152011  0.750000  1
  Pb  Pb33  1  0.845698  0.347046  0.750000  1
  Pb  Pb34  1  0.653902  0.847231  0.250000  1
  Pb  Pb35  1  0.153835  0.652952  0.250000  1
