# generated using pymatgen
data_Lu2SnRuF14
_symmetry_space_group_name_H-M   'P 1'
_cell_length_a   5.48275807
_cell_length_b   8.75208490
_cell_length_c   11.79543000
_cell_angle_alpha   63.27672441
_cell_angle_beta   90.21350801
_cell_angle_gamma   90.08858679
_symmetry_Int_Tables_number   1
_chemical_formula_structural   Lu2SnRuF14
_chemical_formula_sum   'Lu4 Sn2 Ru2 F28'
_cell_volume   505.55059260
_cell_formula_units_Z   2
loop_
 _symmetry_equiv_pos_site_id
 _symmetry_equiv_pos_as_xyz
  1  'x, y, z'
loop_
 _atom_site_type_symbol
 _atom_site_label
 _atom_site_symmetry_multiplicity
 _atom_site_fract_x
 _atom_site_fract_y
 _atom_site_fract_z
 _atom_site_occupancy
  Lu  Lu0  1  0.257945  0.810157  0.266832  1
  Lu  Lu1  1  0.742055  0.189843  0.733168  1
  Lu  Lu2  1  0.759178  0.182413  0.233206  1
  Lu  Lu3  1  0.240822  0.817587  0.766794  1
  Sn  Sn4  1  0.257483  0.272212  0.455355  1
  Sn  Sn5  1  0.742517  0.727788  0.544645  1
  Ru  Ru6  1  0.755527  0.727902  0.043405  1
  Ru  Ru7  1  0.244473  0.272098  0.956595  1
  F  F8  1  0.945267  0.699264  0.416115  1
  F  F9  1  0.054733  0.300736  0.583885  1
  F  F10  1  0.454256  0.292555  0.084167  1
  F  F11  1  0.545744  0.707445  0.915833  1
  F  F12  1  0.468220  0.733077  0.140526  1
  F  F13  1  0.531780  0.266923  0.859474  1
  F  F14  1  0.962882  0.274962  0.354016  1
  F  F15  1  0.037118  0.725038  0.645984  1
  F  F16  1  0.959462  0.751932  0.172930  1
  F  F17  1  0.040538  0.248068  0.827070  1
  F  F18  1  0.456254  0.252153  0.320665  1
  F  F19  1  0.543746  0.747847  0.679335  1
  F  F20  1  0.768899  0.485043  0.139708  1
  F  F21  1  0.231101  0.514957  0.860292  1
  F  F22  1  0.277530  0.524865  0.354008  1
  F  F23  1  0.722470  0.475135  0.645992  1
  F  F24  1  0.948778  0.278047  0.050742  1
  F  F25  1  0.051222  0.721953  0.949258  1
  F  F26  1  0.432484  0.720520  0.455920  1
  F  F27  1  0.567516  0.279480  0.544080  1
  F  F28  1  0.745062  0.980928  0.447993  1
  F  F29  1  0.254938  0.019072  0.552007  1
  F  F30  1  0.245273  0.029766  0.049907  1
  F  F31  1  0.754727  0.970234  0.950093  1
  F  F32  1  0.575600  0.968655  0.235965  1
  F  F33  1  0.424400  0.031345  0.764035  1
  F  F34  1  0.075327  0.022061  0.268615  1
  F  F35  1  0.924673  0.977939  0.731385  1
