# generated using pymatgen
data_Ho7Th(TcB6)4
_symmetry_space_group_name_H-M   'P 1'
_cell_length_a   3.70251100
_cell_length_b   9.16421376
_cell_length_c   11.55496904
_cell_angle_alpha   90.03086224
_cell_angle_beta   90.00000000
_cell_angle_gamma   90.00000000
_symmetry_Int_Tables_number   1
_chemical_formula_structural   Ho7Th(TcB6)4
_chemical_formula_sum   'Ho7 Th1 Tc4 B24'
_cell_volume   392.06700164
_cell_formula_units_Z   1
loop_
 _symmetry_equiv_pos_site_id
 _symmetry_equiv_pos_as_xyz
  1  'x, y, z'
loop_
 _atom_site_type_symbol
 _atom_site_label
 _atom_site_symmetry_multiplicity
 _atom_site_fract_x
 _atom_site_fract_y
 _atom_site_fract_z
 _atom_site_occupancy
  Ho  Ho0  1  0.000000  0.677472  0.587120  1
  Ho  Ho1  1  0.000000  0.823668  0.084736  1
  Ho  Ho2  1  0.000000  0.175556  0.914303  1
  Ho  Ho3  1  0.000000  0.941392  0.368621  1
  Ho  Ho4  1  0.000000  0.056314  0.632216  1
  Ho  Ho5  1  0.000000  0.443185  0.128890  1
  Ho  Ho6  1  0.000000  0.557875  0.870003  1
  Th  Th7  1  0.000000  0.322858  0.414268  1
  Tc  Tc8  1  0.000000  0.639521  0.319942  1
  Tc  Tc9  1  0.000000  0.361600  0.680717  1
  Tc  Tc10  1  0.000000  0.138417  0.178307  1
  Tc  Tc11  1  0.000000  0.861197  0.820918  1
  B  B12  1  0.500000  0.556099  0.432491  1
  B  B13  1  0.500000  0.447228  0.569659  1
  B  B14  1  0.500000  0.053006  0.066270  1
  B  B15  1  0.500000  0.946504  0.932935  1
  B  B16  1  0.500000  0.750076  0.418358  1
  B  B17  1  0.500000  0.250823  0.585119  1
  B  B18  1  0.500000  0.248708  0.080167  1
  B  B19  1  0.500000  0.750965  0.918474  1
  B  B20  1  0.500000  0.791979  0.264695  1
  B  B21  1  0.500000  0.208192  0.736395  1
  B  B22  1  0.500000  0.290237  0.232254  1
  B  B23  1  0.500000  0.708193  0.765328  1
  B  B24  1  0.500000  0.631940  0.184275  1
  B  B25  1  0.500000  0.369560  0.815443  1
  B  B26  1  0.500000  0.129055  0.312416  1
  B  B27  1  0.500000  0.868967  0.685941  1
  B  B28  1  0.500000  0.981980  0.210656  1
  B  B29  1  0.500000  0.017074  0.788848  1
  B  B30  1  0.500000  0.485693  0.286478  1
  B  B31  1  0.500000  0.518192  0.713171  1
  B  B32  1  0.500000  0.601372  0.027642  1
  B  B33  1  0.500000  0.399355  0.971542  1
  B  B34  1  0.500000  0.096847  0.473035  1
  B  B35  1  0.500000  0.898900  0.528367  1
