# generated using pymatgen
data_Ca3Pa5(AlRh)8
_symmetry_space_group_name_H-M   'P 1'
_cell_length_a   4.18182400
_cell_length_b   7.03162916
_cell_length_c   15.91324733
_cell_angle_alpha   89.85816942
_cell_angle_beta   90.00000000
_cell_angle_gamma   90.00000000
_symmetry_Int_Tables_number   1
_chemical_formula_structural   Ca3Pa5(AlRh)8
_chemical_formula_sum   'Ca3 Pa5 Al8 Rh8'
_cell_volume   467.92817035
_cell_formula_units_Z   1
loop_
 _symmetry_equiv_pos_site_id
 _symmetry_equiv_pos_as_xyz
  1  'x, y, z'
loop_
 _atom_site_type_symbol
 _atom_site_label
 _atom_site_symmetry_multiplicity
 _atom_site_fract_x
 _atom_site_fract_y
 _atom_site_fract_z
 _atom_site_occupancy
  Ca  Ca0  1  0.750000  0.345578  0.439460  1
  Ca  Ca1  1  0.750000  0.845120  0.057704  1
  Ca  Ca2  1  0.250000  0.151386  0.942723  1
  Pa  Pa3  1  0.250000  0.521110  0.778187  1
  Pa  Pa4  1  0.750000  0.472417  0.222600  1
  Pa  Pa5  1  0.750000  0.967199  0.279552  1
  Pa  Pa6  1  0.250000  0.029797  0.721459  1
  Pa  Pa7  1  0.250000  0.659377  0.560275  1
  Al  Al8  1  0.250000  0.641029  0.354105  1
  Al  Al9  1  0.750000  0.361727  0.648438  1
  Al  Al10  1  0.750000  0.854909  0.848489  1
  Al  Al11  1  0.250000  0.141251  0.149478  1
  Al  Al12  1  0.250000  0.513560  0.060442  1
  Al  Al13  1  0.750000  0.487174  0.939154  1
  Al  Al14  1  0.750000  0.003573  0.562358  1
  Al  Al15  1  0.250000  0.013659  0.440020  1
  Rh  Rh16  1  0.250000  0.753721  0.195325  1
  Rh  Rh17  1  0.750000  0.239913  0.807252  1
  Rh  Rh18  1  0.750000  0.740301  0.679011  1
  Rh  Rh19  1  0.250000  0.247983  0.307726  1
  Rh  Rh20  1  0.250000  0.705147  0.917009  1
  Rh  Rh21  1  0.750000  0.292706  0.080960  1
  Rh  Rh22  1  0.750000  0.782709  0.430397  1
  Rh  Rh23  1  0.250000  0.228651  0.577877  1
