# generated using pymatgen
data_Gd5Os2C7
_symmetry_space_group_name_H-M   'P 1'
_cell_length_a   8.28427503
_cell_length_b   8.28427378
_cell_length_c   3.55735400
_cell_angle_alpha   90.00000000
_cell_angle_beta   90.00000000
_cell_angle_gamma   122.72273576
_symmetry_Int_Tables_number   1
_chemical_formula_structural   Gd5Os2C7
_chemical_formula_sum   'Gd5 Os2 C7'
_cell_volume   205.39271555
_cell_formula_units_Z   1
loop_
 _symmetry_equiv_pos_site_id
 _symmetry_equiv_pos_as_xyz
  1  'x, y, z'
loop_
 _atom_site_type_symbol
 _atom_site_label
 _atom_site_symmetry_multiplicity
 _atom_site_fract_x
 _atom_site_fract_y
 _atom_site_fract_z
 _atom_site_occupancy
  Gd  Gd0  1  0.500000  0.500000  0.000000  1
  Gd  Gd1  1  0.073721  0.335522  0.500000  1
  Gd  Gd2  1  0.926279  0.664478  0.500000  1
  Gd  Gd3  1  0.664478  0.926279  0.500000  1
  Gd  Gd4  1  0.335522  0.073721  0.500000  1
  Os  Os5  1  0.713301  0.286699  0.000000  1
  Os  Os6  1  0.286699  0.713301  0.000000  1
  C  C7  1  0.634723  0.365277  0.500000  1
  C  C8  1  0.365277  0.634723  0.500000  1
  C  C9  1  0.000000  0.000000  0.000000  1
  C  C10  1  0.170720  0.170720  0.000000  1
  C  C11  1  0.829280  0.829280  0.000000  1
  C  C12  1  0.000000  0.500000  0.000000  1
  C  C13  1  0.500000  0.000000  0.000000  1
