# generated using pymatgen
data_Pr8Si15Au
_symmetry_space_group_name_H-M   'P 1'
_cell_length_a   8.28420000
_cell_length_b   8.28420080
_cell_length_c   8.54765300
_cell_angle_alpha   90.00000000
_cell_angle_beta   90.00000000
_cell_angle_gamma   120.00000478
_symmetry_Int_Tables_number   1
_chemical_formula_structural   Pr8Si15Au
_chemical_formula_sum   'Pr8 Si15 Au1'
_cell_volume   508.01751597
_cell_formula_units_Z   1
loop_
 _symmetry_equiv_pos_site_id
 _symmetry_equiv_pos_as_xyz
  1  'x, y, z'
loop_
 _atom_site_type_symbol
 _atom_site_label
 _atom_site_symmetry_multiplicity
 _atom_site_fract_x
 _atom_site_fract_y
 _atom_site_fract_z
 _atom_site_occupancy
  Pr  Pr0  1  0.496844  0.503156  0.743398  1
  Pr  Pr1  1  0.497125  0.502875  0.256573  1
  Pr  Pr2  1  0.006312  0.503156  0.743398  1
  Pr  Pr3  1  0.005751  0.502875  0.256573  1
  Pr  Pr4  1  0.496844  0.993688  0.743398  1
  Pr  Pr5  1  0.497125  0.994249  0.256573  1
  Pr  Pr6  1  0.000000  0.000000  0.748452  1
  Pr  Pr7  1  0.000000  0.000000  0.251607  1
  Si  Si8  1  0.836107  0.163893  0.000044  1
  Si  Si9  1  0.166087  0.833913  0.000031  1
  Si  Si10  1  0.327787  0.163893  0.000044  1
  Si  Si11  1  0.166738  0.833262  0.499673  1
  Si  Si12  1  0.667825  0.833913  0.000031  1
  Si  Si13  1  0.833346  0.166654  0.500349  1
  Si  Si14  1  0.836107  0.672213  0.000044  1
  Si  Si15  1  0.666524  0.833262  0.499673  1
  Si  Si16  1  0.166087  0.332175  0.000031  1
  Si  Si17  1  0.333309  0.166654  0.500349  1
  Si  Si18  1  0.166738  0.333476  0.499673  1
  Si  Si19  1  0.833346  0.666691  0.500349  1
  Si  Si20  1  0.333333  0.666667  0.000322  1
  Si  Si21  1  0.333333  0.666667  0.499619  1
  Si  Si22  1  0.666667  0.333333  0.500268  1
  Au  Au23  1  0.666667  0.333333  0.999528  1
