# generated using pymatgen
data_Ac2PrTlPd3Pb2
_symmetry_space_group_name_H-M   'P 1'
_cell_length_a   8.13069600
_cell_length_b   8.12640596
_cell_length_c   4.16101500
_cell_angle_alpha   90.00000000
_cell_angle_beta   90.00000000
_cell_angle_gamma   120.20378289
_symmetry_Int_Tables_number   1
_chemical_formula_structural   Ac2PrTlPd3Pb2
_chemical_formula_sum   'Ac2 Pr1 Tl1 Pd3 Pb2'
_cell_volume   237.60779301
_cell_formula_units_Z   1
loop_
 _symmetry_equiv_pos_site_id
 _symmetry_equiv_pos_as_xyz
  1  'x, y, z'
loop_
 _atom_site_type_symbol
 _atom_site_label
 _atom_site_symmetry_multiplicity
 _atom_site_fract_x
 _atom_site_fract_y
 _atom_site_fract_z
 _atom_site_occupancy
  Ac  Ac0  1  0.414424  0.414214  0.500000  1
  Ac  Ac1  1  0.590163  0.997879  0.500000  1
  Pr  Pr2  1  0.997281  0.592907  0.500000  1
  Tl  Tl3  1  0.750331  0.743872  0.000000  1
  Pd  Pd4  1  0.670858  0.334645  0.000000  1
  Pd  Pd5  1  0.328175  0.665159  0.000000  1
  Pd  Pd6  1  0.003813  0.001367  0.500000  1
  Pb  Pb7  1  0.245381  0.991912  0.000000  1
  Pb  Pb8  1  0.999573  0.258042  0.000000  1
