# generated using pymatgen
data_Nd3Cd3Hg2Ir
_symmetry_space_group_name_H-M   'P 1'
_cell_length_a   8.18827100
_cell_length_b   8.18827324
_cell_length_c   3.93768000
_cell_angle_alpha   90.00000000
_cell_angle_beta   90.00000000
_cell_angle_gamma   119.99999498
_symmetry_Int_Tables_number   1
_chemical_formula_structural   Nd3Cd3Hg2Ir
_chemical_formula_sum   'Nd3 Cd3 Hg2 Ir1'
_cell_volume   228.64178806
_cell_formula_units_Z   1
loop_
 _symmetry_equiv_pos_site_id
 _symmetry_equiv_pos_as_xyz
  1  'x, y, z'
loop_
 _atom_site_type_symbol
 _atom_site_label
 _atom_site_symmetry_multiplicity
 _atom_site_fract_x
 _atom_site_fract_y
 _atom_site_fract_z
 _atom_site_occupancy
  Nd  Nd0  1  0.607357  0.033843  0.000000  1
  Nd  Nd1  1  0.966157  0.573513  0.000000  1
  Nd  Nd2  1  0.426487  0.392643  0.000000  1
  Cd  Cd3  1  0.272265  0.000611  0.500000  1
  Cd  Cd4  1  0.999389  0.271653  0.500000  1
  Cd  Cd5  1  0.728347  0.727735  0.500000  1
  Hg  Hg6  1  0.333333  0.666667  0.500000  1
  Hg  Hg7  1  0.000000  0.000000  0.000000  1
  Ir  Ir8  1  0.666667  0.333333  0.500000  1
