# generated using pymatgen
data_Y2HoGa5
_symmetry_space_group_name_H-M   'P 1'
_cell_length_a   6.09687400
_cell_length_b   9.62209400
_cell_length_c   11.56721100
_cell_angle_alpha   90.00000000
_cell_angle_beta   90.00000000
_cell_angle_gamma   90.00000000
_symmetry_Int_Tables_number   1
_chemical_formula_structural   Y2HoGa5
_chemical_formula_sum   'Y8 Ho4 Ga20'
_cell_volume   678.58690224
_cell_formula_units_Z   4
loop_
 _symmetry_equiv_pos_site_id
 _symmetry_equiv_pos_as_xyz
  1  'x, y, z'
loop_
 _atom_site_type_symbol
 _atom_site_label
 _atom_site_symmetry_multiplicity
 _atom_site_fract_x
 _atom_site_fract_y
 _atom_site_fract_z
 _atom_site_occupancy
  Y  Y0  1  0.890832  0.509479  0.351286  1
  Y  Y1  1  0.609168  0.990521  0.851286  1
  Y  Y2  1  0.109168  0.009479  0.648714  1
  Y  Y3  1  0.390832  0.490521  0.148714  1
  Y  Y4  1  0.109168  0.490521  0.648714  1
  Y  Y5  1  0.390832  0.009479  0.148714  1
  Y  Y6  1  0.890832  0.990521  0.351286  1
  Y  Y7  1  0.609168  0.509479  0.851286  1
  Ho  Ho8  1  0.849133  0.750000  0.075267  1
  Ho  Ho9  1  0.650867  0.750000  0.575267  1
  Ho  Ho10  1  0.150867  0.250000  0.924733  1
  Ho  Ho11  1  0.349133  0.250000  0.424733  1
  Ga  Ga12  1  0.875964  0.054015  0.090063  1
  Ga  Ga13  1  0.624036  0.445985  0.590063  1
  Ga  Ga14  1  0.124036  0.554015  0.909937  1
  Ga  Ga15  1  0.375964  0.945985  0.409937  1
  Ga  Ga16  1  0.124036  0.945985  0.909937  1
  Ga  Ga17  1  0.375964  0.554015  0.409937  1
  Ga  Ga18  1  0.875964  0.445985  0.090063  1
  Ga  Ga19  1  0.624036  0.054015  0.590063  1
  Ga  Ga20  1  0.172260  0.750000  0.252244  1
  Ga  Ga21  1  0.327740  0.750000  0.752244  1
  Ga  Ga22  1  0.827740  0.250000  0.747756  1
  Ga  Ga23  1  0.672260  0.250000  0.247756  1
  Ga  Ga24  1  0.373344  0.750000  0.004098  1
  Ga  Ga25  1  0.126656  0.750000  0.504098  1
  Ga  Ga26  1  0.626656  0.250000  0.995902  1
  Ga  Ga27  1  0.873344  0.250000  0.495902  1
  Ga  Ga28  1  0.601404  0.750000  0.299323  1
  Ga  Ga29  1  0.898596  0.750000  0.799323  1
  Ga  Ga30  1  0.398596  0.250000  0.700677  1
  Ga  Ga31  1  0.101404  0.250000  0.200677  1
