# generated using pymatgen
data_Tb2Er2Ga4Ir3Pd
_symmetry_space_group_name_H-M   'P 1'
_cell_length_a   4.35525300
_cell_length_b   6.82018516
_cell_length_c   7.79822694
_cell_angle_alpha   90.11464928
_cell_angle_beta   90.00000000
_cell_angle_gamma   90.00000000
_symmetry_Int_Tables_number   1
_chemical_formula_structural   Tb2Er2Ga4Ir3Pd
_chemical_formula_sum   'Tb2 Er2 Ga4 Ir3 Pd1'
_cell_volume   231.63519847
_cell_formula_units_Z   1
loop_
 _symmetry_equiv_pos_site_id
 _symmetry_equiv_pos_as_xyz
  1  'x, y, z'
loop_
 _atom_site_type_symbol
 _atom_site_label
 _atom_site_symmetry_multiplicity
 _atom_site_fract_x
 _atom_site_fract_y
 _atom_site_fract_z
 _atom_site_occupancy
  Tb  Tb0  1  0.750000  0.021924  0.683466  1
  Tb  Tb1  1  0.750000  0.531404  0.811511  1
  Er  Er2  1  0.250000  0.976358  0.311602  1
  Er  Er3  1  0.250000  0.478927  0.194845  1
  Ga  Ga4  1  0.250000  0.346998  0.565240  1
  Ga  Ga5  1  0.250000  0.840483  0.932848  1
  Ga  Ga6  1  0.750000  0.654308  0.430330  1
  Ga  Ga7  1  0.750000  0.152699  0.069559  1
  Ir  Ir8  1  0.250000  0.732682  0.611032  1
  Ir  Ir9  1  0.750000  0.767114  0.112894  1
  Ir  Ir10  1  0.750000  0.267015  0.386500  1
  Pd  Pd11  1  0.250000  0.230088  0.890172  1
