# generated using pymatgen
data_CoRe6Ni
_symmetry_space_group_name_H-M   'P 1'
_cell_length_a   5.43761100
_cell_length_b   5.43761189
_cell_length_c   4.35619800
_cell_angle_alpha   90.00000000
_cell_angle_beta   90.00000000
_cell_angle_gamma   120.00000067
_symmetry_Int_Tables_number   1
_chemical_formula_structural   CoRe6Ni
_chemical_formula_sum   'Co1 Re6 Ni1'
_cell_volume   111.54614916
_cell_formula_units_Z   1
loop_
 _symmetry_equiv_pos_site_id
 _symmetry_equiv_pos_as_xyz
  1  'x, y, z'
loop_
 _atom_site_type_symbol
 _atom_site_label
 _atom_site_symmetry_multiplicity
 _atom_site_fract_x
 _atom_site_fract_y
 _atom_site_fract_z
 _atom_site_occupancy
  Co  Co0  1  0.666667  0.333333  0.250000  1
  Re  Re1  1  0.166482  0.332966  0.250000  1
  Re  Re2  1  0.667034  0.833518  0.250000  1
  Re  Re3  1  0.166482  0.833518  0.250000  1
  Re  Re4  1  0.834456  0.668911  0.750000  1
  Re  Re5  1  0.331089  0.165544  0.750000  1
  Re  Re6  1  0.834456  0.165544  0.750000  1
  Ni  Ni7  1  0.333333  0.666667  0.750000  1
