# generated using pymatgen
data_Y7Sn23(Os2Rh)2
_symmetry_space_group_name_H-M   'P 1'
_cell_length_a   9.87338783
_cell_length_b   9.87338827
_cell_length_c   10.15772804
_cell_angle_alpha   90.14957413
_cell_angle_beta   89.85042329
_cell_angle_gamma   120.00360044
_symmetry_Int_Tables_number   1
_chemical_formula_structural   Y7Sn23(Os2Rh)2
_chemical_formula_sum   'Y7 Sn23 Os4 Rh2'
_cell_volume   857.51533432
_cell_formula_units_Z   1
loop_
 _symmetry_equiv_pos_site_id
 _symmetry_equiv_pos_as_xyz
  1  'x, y, z'
loop_
 _atom_site_type_symbol
 _atom_site_label
 _atom_site_symmetry_multiplicity
 _atom_site_fract_x
 _atom_site_fract_y
 _atom_site_fract_z
 _atom_site_occupancy
  Y  Y0  1  0.994888  0.005112  0.987028  1
  Y  Y1  1  0.037855  0.516380  0.306634  1
  Y  Y2  1  0.483620  0.962145  0.306634  1
  Y  Y3  1  0.480792  0.519208  0.308140  1
  Y  Y4  1  0.966051  0.482448  0.696652  1
  Y  Y5  1  0.517552  0.033949  0.696652  1
  Y  Y6  1  0.517241  0.482759  0.696019  1
  Sn  Sn7  1  0.000778  0.999222  0.497023  1
  Sn  Sn8  1  0.117068  0.882932  0.273871  1
  Sn  Sn9  1  0.765232  0.881632  0.273456  1
  Sn  Sn10  1  0.118368  0.234768  0.273456  1
  Sn  Sn11  1  0.882672  0.117328  0.721055  1
  Sn  Sn12  1  0.235582  0.117598  0.723421  1
  Sn  Sn13  1  0.882402  0.764418  0.723421  1
  Sn  Sn14  1  0.348115  0.998656  0.000843  1
  Sn  Sn15  1  0.649081  0.649844  0.000984  1
  Sn  Sn16  1  0.998779  0.351099  0.000264  1
  Sn  Sn17  1  0.350156  0.350919  0.000984  1
  Sn  Sn18  1  0.001344  0.651885  0.000843  1
  Sn  Sn19  1  0.648901  0.001221  0.000264  1
  Sn  Sn20  1  0.781232  0.561119  0.458521  1
  Sn  Sn21  1  0.780150  0.219850  0.459433  1
  Sn  Sn22  1  0.438881  0.218768  0.458521  1
  Sn  Sn23  1  0.219847  0.438592  0.542773  1
  Sn  Sn24  1  0.219413  0.780587  0.541602  1
  Sn  Sn25  1  0.561408  0.780153  0.542773  1
  Sn  Sn26  1  0.667746  0.332254  0.181322  1
  Sn  Sn27  1  0.333373  0.666627  0.822524  1
  Sn  Sn28  1  0.666668  0.333332  0.878328  1
  Sn  Sn29  1  0.333568  0.666432  0.124784  1
  Os  Os30  1  0.168844  0.831156  0.799623  1
  Os  Os31  1  0.663164  0.831810  0.801161  1
  Os  Os32  1  0.168190  0.336836  0.801161  1
  Os  Os33  1  0.830661  0.169339  0.200766  1
  Rh  Rh34  1  0.341323  0.170944  0.199533  1
  Rh  Rh35  1  0.829056  0.658677  0.199533  1
