# generated using pymatgen
data_Ho3BiIrRh3O14
_symmetry_space_group_name_H-M   'P 1'
_cell_length_a   7.26592105
_cell_length_b   7.26592115
_cell_length_c   7.26592089
_cell_angle_alpha   59.60525311
_cell_angle_beta   59.60525159
_cell_angle_gamma   59.60525407
_symmetry_Int_Tables_number   1
_chemical_formula_structural   Ho3BiIrRh3O14
_chemical_formula_sum   'Ho3 Bi1 Ir1 Rh3 O14'
_cell_volume   268.80850860
_cell_formula_units_Z   1
loop_
 _symmetry_equiv_pos_site_id
 _symmetry_equiv_pos_as_xyz
  1  'x, y, z'
loop_
 _atom_site_type_symbol
 _atom_site_label
 _atom_site_symmetry_multiplicity
 _atom_site_fract_x
 _atom_site_fract_y
 _atom_site_fract_z
 _atom_site_occupancy
  Ho  Ho0  1  0.125000  0.625000  0.125000  1
  Ho  Ho1  1  0.625000  0.125000  0.125000  1
  Ho  Ho2  1  0.125000  0.125000  0.625000  1
  Bi  Bi3  1  0.125000  0.125000  0.125000  1
  Ir  Ir4  1  0.625000  0.625000  0.625000  1
  Rh  Rh5  1  0.625000  0.625000  0.125000  1
  Rh  Rh6  1  0.125000  0.625000  0.625000  1
  Rh  Rh7  1  0.625000  0.125000  0.625000  1
  O  O8  1  0.253213  0.253213  0.253213  1
  O  O9  1  0.287075  0.706557  0.287075  1
  O  O10  1  0.962925  0.962925  0.543443  1
  O  O11  1  0.538710  0.959084  0.538710  1
  O  O12  1  0.711290  0.711290  0.290916  1
  O  O13  1  0.959084  0.538710  0.538710  1
  O  O14  1  0.711290  0.290916  0.711290  1
  O  O15  1  0.287075  0.287075  0.706557  1
  O  O16  1  0.706557  0.287075  0.287075  1
  O  O17  1  0.290916  0.711290  0.711290  1
  O  O18  1  0.962925  0.543443  0.962925  1
  O  O19  1  0.538710  0.538710  0.959084  1
  O  O20  1  0.996787  0.996787  0.996787  1
  O  O21  1  0.543443  0.962925  0.962925  1
