# generated using pymatgen
data_DyLu4(In2Pt)2
_symmetry_space_group_name_H-M   'P 1'
_cell_length_a   3.59160000
_cell_length_b   8.03845900
_cell_length_c   18.03534600
_cell_angle_alpha   90.00000000
_cell_angle_beta   90.00000000
_cell_angle_gamma   90.00000000
_symmetry_Int_Tables_number   1
_chemical_formula_structural   DyLu4(In2Pt)2
_chemical_formula_sum   'Dy2 Lu8 In8 Pt4'
_cell_volume   520.69720007
_cell_formula_units_Z   2
loop_
 _symmetry_equiv_pos_site_id
 _symmetry_equiv_pos_as_xyz
  1  'x, y, z'
loop_
 _atom_site_type_symbol
 _atom_site_label
 _atom_site_symmetry_multiplicity
 _atom_site_fract_x
 _atom_site_fract_y
 _atom_site_fract_z
 _atom_site_occupancy
  Dy  Dy0  1  0.000000  0.000000  0.000000  1
  Dy  Dy1  1  0.000000  0.500000  0.500000  1
  Lu  Lu2  1  0.000000  0.116761  0.413777  1
  Lu  Lu3  1  0.000000  0.883239  0.586223  1
  Lu  Lu4  1  0.000000  0.383239  0.913777  1
  Lu  Lu5  1  0.000000  0.616761  0.086223  1
  Lu  Lu6  1  0.000000  0.244628  0.221202  1
  Lu  Lu7  1  0.000000  0.755372  0.778798  1
  Lu  Lu8  1  0.000000  0.255372  0.721202  1
  Lu  Lu9  1  0.000000  0.744628  0.278798  1
  In  In10  1  0.500000  0.424240  0.351147  1
  In  In11  1  0.500000  0.575760  0.648853  1
  In  In12  1  0.500000  0.075760  0.851147  1
  In  In13  1  0.500000  0.924240  0.148853  1
  In  In14  1  0.500000  0.294008  0.066938  1
  In  In15  1  0.500000  0.705992  0.933062  1
  In  In16  1  0.500000  0.205992  0.566938  1
  In  In17  1  0.500000  0.794008  0.433062  1
  Pt  Pt18  1  0.500000  0.025932  0.303988  1
  Pt  Pt19  1  0.500000  0.974068  0.696012  1
  Pt  Pt20  1  0.500000  0.474068  0.803988  1
  Pt  Pt21  1  0.500000  0.525932  0.196012  1
