# generated using pymatgen
data_Sr4LiTl(TeO6)2
_symmetry_space_group_name_H-M   'P 1'
_cell_length_a   5.78207543
_cell_length_b   5.81086379
_cell_length_c   8.31368046
_cell_angle_alpha   89.78905445
_cell_angle_beta   90.10780364
_cell_angle_gamma   90.01047732
_symmetry_Int_Tables_number   1
_chemical_formula_structural   Sr4LiTl(TeO6)2
_chemical_formula_sum   'Sr4 Li1 Tl1 Te2 O12'
_cell_volume   279.32773359
_cell_formula_units_Z   1
loop_
 _symmetry_equiv_pos_site_id
 _symmetry_equiv_pos_as_xyz
  1  'x, y, z'
loop_
 _atom_site_type_symbol
 _atom_site_label
 _atom_site_symmetry_multiplicity
 _atom_site_fract_x
 _atom_site_fract_y
 _atom_site_fract_z
 _atom_site_occupancy
  Sr  Sr0  1  0.003839  0.470642  0.230966  1
  Sr  Sr1  1  0.996161  0.529358  0.769034  1
  Sr  Sr2  1  0.490358  0.958299  0.231085  1
  Sr  Sr3  1  0.509642  0.041701  0.768915  1
  Li  Li4  1  0.500000  0.500000  0.000000  1
  Tl  Tl5  1  0.000000  0.000000  0.500000  1
  Te  Te6  1  0.000000  0.000000  0.000000  1
  Te  Te7  1  0.500000  0.500000  0.500000  1
  O  O8  1  0.922289  0.022095  0.233155  1
  O  O9  1  0.077711  0.977905  0.766845  1
  O  O10  1  0.578029  0.523839  0.275132  1
  O  O11  1  0.421971  0.476162  0.724868  1
  O  O12  1  0.203619  0.738268  0.036282  1
  O  O13  1  0.796381  0.261732  0.963718  1
  O  O14  1  0.322198  0.217788  0.449187  1
  O  O15  1  0.677802  0.782212  0.550813  1
  O  O16  1  0.260078  0.207506  0.030128  1
  O  O17  1  0.739922  0.792494  0.969872  1
  O  O18  1  0.218969  0.684615  0.452527  1
  O  O19  1  0.781031  0.315385  0.547473  1
