# generated using pymatgen
data_Dy5ErTh2(MgRh)2
_symmetry_space_group_name_H-M   'P 1'
_cell_length_a   9.78402629
_cell_length_b   9.78402710
_cell_length_c   9.78812200
_cell_angle_alpha   59.98615421
_cell_angle_beta   59.98615147
_cell_angle_gamma   60.02769011
_symmetry_Int_Tables_number   1
_chemical_formula_structural   Dy5ErTh2(MgRh)2
_chemical_formula_sum   'Dy10 Er2 Th4 Mg4 Rh4'
_cell_volume   662.55123527
_cell_formula_units_Z   2
loop_
 _symmetry_equiv_pos_site_id
 _symmetry_equiv_pos_as_xyz
  1  'x, y, z'
loop_
 _atom_site_type_symbol
 _atom_site_label
 _atom_site_symmetry_multiplicity
 _atom_site_fract_x
 _atom_site_fract_y
 _atom_site_fract_z
 _atom_site_occupancy
  Dy  Dy0  1  0.812902  0.187098  0.187098  1
  Dy  Dy1  1  0.187098  0.812902  0.812902  1
  Dy  Dy2  1  0.187098  0.812902  0.187098  1
  Dy  Dy3  1  0.812902  0.187098  0.812902  1
  Dy  Dy4  1  0.186989  0.186989  0.813011  1
  Dy  Dy5  1  0.813011  0.813011  0.186989  1
  Dy  Dy6  1  0.933624  0.566376  0.566376  1
  Dy  Dy7  1  0.566376  0.933624  0.933624  1
  Dy  Dy8  1  0.566376  0.933624  0.566376  1
  Dy  Dy9  1  0.933624  0.566376  0.933624  1
  Er  Er10  1  0.566005  0.566005  0.933995  1
  Er  Er11  1  0.933995  0.933995  0.566005  1
  Th  Th12  1  0.348540  0.348540  0.348302  1
  Th  Th13  1  0.348540  0.348540  0.954616  1
  Th  Th14  1  0.348302  0.954616  0.348540  1
  Th  Th15  1  0.954616  0.348302  0.348540  1
  Mg  Mg16  1  0.580475  0.580475  0.580717  1
  Mg  Mg17  1  0.580475  0.580475  0.258331  1
  Mg  Mg18  1  0.580717  0.258331  0.580475  1
  Mg  Mg19  1  0.258331  0.580717  0.580475  1
  Rh  Rh20  1  0.144338  0.144338  0.144635  1
  Rh  Rh21  1  0.144338  0.144338  0.566687  1
  Rh  Rh22  1  0.144635  0.566687  0.144338  1
  Rh  Rh23  1  0.566687  0.144635  0.144338  1
