# generated using pymatgen
data_Ca2Cu17Si8Pd
_symmetry_space_group_name_H-M   'P 1'
_cell_length_a   8.21958931
_cell_length_b   8.21958929
_cell_length_c   8.21998400
_cell_angle_alpha   120.31569737
_cell_angle_beta   120.22900407
_cell_angle_gamma   89.52616253
_symmetry_Int_Tables_number   1
_chemical_formula_structural   Ca2Cu17Si8Pd
_chemical_formula_sum   'Ca2 Cu17 Si8 Pd1'
_cell_volume   391.07397052
_cell_formula_units_Z   1
loop_
 _symmetry_equiv_pos_site_id
 _symmetry_equiv_pos_as_xyz
  1  'x, y, z'
loop_
 _atom_site_type_symbol
 _atom_site_label
 _atom_site_symmetry_multiplicity
 _atom_site_fract_x
 _atom_site_fract_y
 _atom_site_fract_z
 _atom_site_occupancy
  Ca  Ca0  1  0.247268  0.249250  0.998574  1
  Ca  Ca1  1  0.749324  0.751305  0.998574  1
  Cu  Cu2  1  0.212555  0.059497  0.272052  1
  Cu  Cu3  1  0.792020  0.922289  0.714308  1
  Cu  Cu4  1  0.434961  0.296728  0.731689  1
  Cu  Cu5  1  0.065940  0.797862  0.863800  1
  Cu  Cu6  1  0.808070  0.059871  0.499134  1
  Cu  Cu7  1  0.560773  0.309499  0.504582  1
  Cu  Cu8  1  0.195083  0.943810  0.504582  1
  Cu  Cu9  1  0.439263  0.691065  0.499134  1
  Cu  Cu10  1  0.941824  0.441129  0.750902  1
  Cu  Cu11  1  0.685164  0.194751  0.252303  1
  Cu  Cu12  1  0.057552  0.567138  0.252303  1
  Cu  Cu13  1  0.701450  0.437871  0.139320  1
  Cu  Cu14  1  0.563514  0.702783  0.266298  1
  Cu  Cu15  1  0.502650  0.000340  0.502989  1
  Cu  Cu16  1  0.999748  0.506043  0.505791  1
  Cu  Cu17  1  0.309775  0.809080  0.750902  1
  Cu  Cu18  1  0.297131  0.564431  0.861563  1
  Si  Si19  1  0.792471  0.292661  0.852334  1
  Si  Si20  1  0.559673  0.059862  0.852334  1
  Si  Si21  1  0.059976  0.207335  0.499058  1
  Si  Si22  1  0.291723  0.439082  0.499058  1
  Si  Si23  1  0.941314  0.793788  0.498519  1
  Si  Si24  1  0.440724  0.938579  0.147714  1
  Si  Si25  1  0.209135  0.706989  0.147714  1
  Si  Si26  1  0.704731  0.557206  0.498519  1
  Pd  Pd27  1  0.936193  0.199757  0.135950  1
