# generated using pymatgen
data_Li4B4IrRu3
_symmetry_space_group_name_H-M   'P 1'
_cell_length_a   6.79374453
_cell_length_b   6.01198705
_cell_length_c   5.53691714
_cell_angle_alpha   71.93352030
_cell_angle_beta   57.27771222
_cell_angle_gamma   51.13146067
_symmetry_Int_Tables_number   1
_chemical_formula_structural   Li4B4IrRu3
_chemical_formula_sum   'Li4 B4 Ir1 Ru3'
_cell_volume   147.98746273
_cell_formula_units_Z   1
loop_
 _symmetry_equiv_pos_site_id
 _symmetry_equiv_pos_as_xyz
  1  'x, y, z'
loop_
 _atom_site_type_symbol
 _atom_site_label
 _atom_site_symmetry_multiplicity
 _atom_site_fract_x
 _atom_site_fract_y
 _atom_site_fract_z
 _atom_site_occupancy
  Li  Li0  1  0.124243  0.628618  0.625262  1
  Li  Li1  1  0.627928  0.622174  0.624578  1
  Li  Li2  1  0.622174  0.627928  0.125319  1
  Li  Li3  1  0.628618  0.124243  0.621877  1
  B  B4  1  0.433081  0.065826  0.427661  1
  B  B5  1  0.177458  0.820662  0.178911  1
  B  B6  1  0.065826  0.433081  0.073432  1
  B  B7  1  0.820662  0.177458  0.822969  1
  Ir  Ir8  1  0.113271  0.113271  0.386729  1
  Ru  Ru9  1  0.385889  0.385889  0.114111  1
  Ru  Ru10  1  0.863891  0.863891  0.136109  1
  Ru  Ru11  1  0.136958  0.136958  0.863042  1
