# generated using pymatgen
data_La4TePd5O19
_symmetry_space_group_name_H-M   'P 1'
_cell_length_a   7.90803154
_cell_length_b   7.88669961
_cell_length_c   7.90804806
_cell_angle_alpha   109.70824966
_cell_angle_beta   109.48085763
_cell_angle_gamma   109.33446019
_symmetry_Int_Tables_number   1
_chemical_formula_structural   La4TePd5O19
_chemical_formula_sum   'La4 Te1 Pd5 O19'
_cell_volume   379.15528247
_cell_formula_units_Z   1
loop_
 _symmetry_equiv_pos_site_id
 _symmetry_equiv_pos_as_xyz
  1  'x, y, z'
loop_
 _atom_site_type_symbol
 _atom_site_label
 _atom_site_symmetry_multiplicity
 _atom_site_fract_x
 _atom_site_fract_y
 _atom_site_fract_z
 _atom_site_occupancy
  La  La0  1  0.013872  0.023219  0.330920  1
  La  La1  1  0.001981  0.320353  0.997017  1
  La  La2  1  0.676659  0.679643  0.681623  1
  La  La3  1  0.307698  0.976779  0.990651  1
  Te  Te4  1  0.661190  0.500000  0.161193  1
  Pd  Pd5  1  0.335898  0.499998  0.835898  1
  Pd  Pd6  1  0.841661  0.339080  0.499186  1
  Pd  Pd7  1  0.500947  0.160047  0.657717  1
  Pd  Pd8  1  0.160108  0.660922  0.502584  1
  Pd  Pd9  1  0.497671  0.839953  0.340900  1
  O  O10  1  0.343607  0.000001  0.343608  1
  O  O11  1  0.354945  0.347088  0.001136  1
  O  O12  1  0.997592  0.660256  0.660176  1
  O  O13  1  0.654049  0.652912  0.007856  1
  O  O14  1  0.999920  0.339744  0.337335  1
  O  O15  1  0.661173  0.000001  0.661172  1
  O  O16  1  0.000988  0.999999  0.000987  1
  O  O17  1  0.366127  0.328850  0.606747  1
  O  O18  1  0.037421  0.284057  0.671904  1
  O  O19  1  0.753734  0.391830  0.712855  1
  O  O20  1  0.387846  0.715943  0.753362  1
  O  O21  1  0.249592  0.964487  0.641468  1
  O  O22  1  0.608746  0.359385  0.313737  1
  O  O23  1  0.321027  0.608172  0.361904  1
  O  O24  1  0.676982  0.035514  0.285105  1
  O  O25  1  0.954352  0.640617  0.249360  1
  O  O26  1  0.710105  0.743369  0.389583  1
  O  O27  1  0.646215  0.256631  0.966736  1
  O  O28  1  0.277899  0.671150  0.037277  1
