# generated using pymatgen
data_NdGd5Dy2(MoO6)4
_symmetry_space_group_name_H-M   'P 1'
_cell_length_a   10.07869298
_cell_length_b   10.07869286
_cell_length_c   5.46813176
_cell_angle_alpha   74.97954298
_cell_angle_beta   74.97954224
_cell_angle_gamma   68.29073953
_symmetry_Int_Tables_number   1
_chemical_formula_structural   NdGd5Dy2(MoO6)4
_chemical_formula_sum   'Nd1 Gd5 Dy2 Mo4 O24'
_cell_volume   490.10147083
_cell_formula_units_Z   1
loop_
 _symmetry_equiv_pos_site_id
 _symmetry_equiv_pos_as_xyz
  1  'x, y, z'
loop_
 _atom_site_type_symbol
 _atom_site_label
 _atom_site_symmetry_multiplicity
 _atom_site_fract_x
 _atom_site_fract_y
 _atom_site_fract_z
 _atom_site_occupancy
  Nd  Nd0  1  0.135200  0.864800  0.250000  1
  Gd  Gd1  1  0.783976  0.551856  0.621127  1
  Gd  Gd2  1  0.448144  0.216024  0.878873  1
  Gd  Gd3  1  0.216184  0.447087  0.378877  1
  Gd  Gd4  1  0.552913  0.783816  0.121123  1
  Gd  Gd5  1  0.862236  0.137764  0.750000  1
  Dy  Dy6  1  0.395088  0.604912  0.750000  1
  Dy  Dy7  1  0.606172  0.393828  0.250000  1
  Mo  Mo8  1  0.989396  0.701811  0.938866  1
  Mo  Mo9  1  0.298189  0.010604  0.561134  1
  Mo  Mo10  1  0.010506  0.298036  0.061262  1
  Mo  Mo11  1  0.701964  0.989494  0.438738  1
  O  O12  1  0.428424  0.391375  0.077256  1
  O  O13  1  0.608625  0.571576  0.422744  1
  O  O14  1  0.572154  0.607838  0.923666  1
  O  O15  1  0.392162  0.427846  0.576334  1
  O  O16  1  0.193444  0.658663  0.073208  1
  O  O17  1  0.341337  0.806556  0.426792  1
  O  O18  1  0.805768  0.338086  0.922407  1
  O  O19  1  0.661914  0.194232  0.577593  1
  O  O20  1  0.115029  0.670559  0.631197  1
  O  O21  1  0.329441  0.884971  0.868803  1
  O  O22  1  0.884719  0.327510  0.369488  1
  O  O23  1  0.672490  0.115281  0.130512  1
  O  O24  1  0.710518  0.819310  0.364481  1
  O  O25  1  0.180690  0.289482  0.135519  1
  O  O26  1  0.290262  0.180810  0.635690  1
  O  O27  1  0.819190  0.709738  0.864310  1
  O  O28  1  0.884124  0.954035  0.487499  1
  O  O29  1  0.045965  0.115876  0.012501  1
  O  O30  1  0.113922  0.048077  0.518200  1
  O  O31  1  0.951923  0.886078  0.981800  1
  O  O32  1  0.569107  0.976281  0.741289  1
  O  O33  1  0.023719  0.430893  0.758711  1
  O  O34  1  0.430382  0.025281  0.256703  1
  O  O35  1  0.974719  0.569618  0.243297  1
