# generated using pymatgen
data_EuHo2Sn3Pt2Rh
_symmetry_space_group_name_H-M   'P 1'
_cell_length_a   7.65062941
_cell_length_b   7.63638937
_cell_length_c   3.92433900
_cell_angle_alpha   90.00000000
_cell_angle_beta   90.00000000
_cell_angle_gamma   119.93845790
_symmetry_Int_Tables_number   1
_chemical_formula_structural   EuHo2Sn3Pt2Rh
_chemical_formula_sum   'Eu1 Ho2 Sn3 Pt2 Rh1'
_cell_volume   198.67872629
_cell_formula_units_Z   1
loop_
 _symmetry_equiv_pos_site_id
 _symmetry_equiv_pos_as_xyz
  1  'x, y, z'
loop_
 _atom_site_type_symbol
 _atom_site_label
 _atom_site_symmetry_multiplicity
 _atom_site_fract_x
 _atom_site_fract_y
 _atom_site_fract_z
 _atom_site_occupancy
  Eu  Eu0  1  0.000000  0.408542  0.000000  1
  Ho  Ho1  1  0.592716  0.593702  0.000000  1
  Ho  Ho2  1  0.407284  0.000987  0.000000  1
  Sn  Sn3  1  0.253837  0.255133  0.500000  1
  Sn  Sn4  1  0.000000  0.742102  0.500000  1
  Sn  Sn5  1  0.746163  0.001296  0.500000  1
  Pt  Pt6  1  0.654598  0.331174  0.500000  1
  Pt  Pt7  1  0.345402  0.676577  0.500000  1
  Rh  Rh8  1  0.000000  0.990487  0.000000  1
