# generated using pymatgen
data_Ho7Er3Tl3In5Ni4
_symmetry_space_group_name_H-M   'P 1'
_cell_length_a   3.58919200
_cell_length_b   7.98881219
_cell_length_c   17.97528902
_cell_angle_alpha   89.98992567
_cell_angle_beta   90.00000000
_cell_angle_gamma   90.00000000
_symmetry_Int_Tables_number   1
_chemical_formula_structural   Ho7Er3Tl3In5Ni4
_chemical_formula_sum   'Ho7 Er3 Tl3 In5 Ni4'
_cell_volume   515.41229887
_cell_formula_units_Z   1
loop_
 _symmetry_equiv_pos_site_id
 _symmetry_equiv_pos_as_xyz
  1  'x, y, z'
loop_
 _atom_site_type_symbol
 _atom_site_label
 _atom_site_symmetry_multiplicity
 _atom_site_fract_x
 _atom_site_fract_y
 _atom_site_fract_z
 _atom_site_occupancy
  Ho  Ho0  1  0.000000  0.499903  0.500067  1
  Ho  Ho1  1  0.000000  0.999763  0.999902  1
  Ho  Ho2  1  0.000000  0.755772  0.279410  1
  Ho  Ho3  1  0.000000  0.244336  0.720618  1
  Ho  Ho4  1  0.000000  0.744432  0.779235  1
  Ho  Ho5  1  0.000000  0.255690  0.220821  1
  Ho  Ho6  1  0.000000  0.622508  0.088852  1
  Er  Er7  1  0.000000  0.377494  0.910794  1
  Er  Er8  1  0.000000  0.877614  0.589183  1
  Er  Er9  1  0.000000  0.122653  0.411000  1
  Tl  Tl10  1  0.500000  0.700491  0.932322  1
  Tl  Tl11  1  0.500000  0.298769  0.067248  1
  Tl  Tl12  1  0.500000  0.799908  0.432826  1
  In  In13  1  0.500000  0.200159  0.567357  1
  In  In14  1  0.500000  0.567288  0.652248  1
  In  In15  1  0.500000  0.432570  0.347833  1
  In  In16  1  0.500000  0.933153  0.152377  1
  In  In17  1  0.500000  0.067474  0.847688  1
  Ni  Ni18  1  0.500000  0.537051  0.196724  1
  Ni  Ni19  1  0.500000  0.462609  0.803602  1
  Ni  Ni20  1  0.500000  0.962999  0.696217  1
  Ni  Ni21  1  0.500000  0.037362  0.303674  1
