# generated using pymatgen
data_La15Ho(HgRh)4
_symmetry_space_group_name_H-M   'P 1'
_cell_length_a   10.06535203
_cell_length_b   10.06535216
_cell_length_c   10.07520900
_cell_angle_alpha   59.96760354
_cell_angle_beta   59.96760310
_cell_angle_gamma   60.11501882
_symmetry_Int_Tables_number   1
_chemical_formula_structural   La15Ho(HgRh)4
_chemical_formula_sum   'La15 Ho1 Hg4 Rh4'
_cell_volume   722.03772921
_cell_formula_units_Z   1
loop_
 _symmetry_equiv_pos_site_id
 _symmetry_equiv_pos_as_xyz
  1  'x, y, z'
loop_
 _atom_site_type_symbol
 _atom_site_label
 _atom_site_symmetry_multiplicity
 _atom_site_fract_x
 _atom_site_fract_y
 _atom_site_fract_z
 _atom_site_occupancy
  La  La0  1  0.939477  0.939477  0.560523  1
  La  La1  1  0.560805  0.560805  0.939195  1
  La  La2  1  0.691414  0.691414  0.308586  1
  La  La3  1  0.150050  0.548901  0.150524  1
  La  La4  1  0.686978  0.309324  0.690627  1
  La  La5  1  0.152549  0.152549  0.146643  1
  La  La6  1  0.548901  0.150050  0.150524  1
  La  La7  1  0.686978  0.309324  0.313070  1
  La  La8  1  0.152549  0.152549  0.548258  1
  La  La9  1  0.309324  0.686978  0.313070  1
  La  La10  1  0.309324  0.686978  0.690627  1
  La  La11  1  0.941218  0.558733  0.563810  1
  La  La12  1  0.941218  0.558733  0.936239  1
  La  La13  1  0.558733  0.941218  0.563810  1
  La  La14  1  0.558733  0.941218  0.936239  1
  Ho  Ho15  1  0.309143  0.309143  0.690857  1
  Hg  Hg16  1  0.917310  0.917310  0.247772  1
  Hg  Hg17  1  0.248489  0.919275  0.916118  1
  Hg  Hg18  1  0.917310  0.917310  0.917608  1
  Hg  Hg19  1  0.919275  0.248489  0.916118  1
  Rh  Rh20  1  0.358413  0.358413  0.921892  1
  Rh  Rh21  1  0.359098  0.924296  0.358302  1
  Rh  Rh22  1  0.924296  0.359098  0.358302  1
  Rh  Rh23  1  0.358413  0.358413  0.361282  1
