# generated using pymatgen
data_Tb5FeRuO12
_symmetry_space_group_name_H-M   'P 1'
_cell_length_a   6.85488827
_cell_length_b   6.85488755
_cell_length_c   7.32099116
_cell_angle_alpha   74.44795986
_cell_angle_beta   74.44796300
_cell_angle_gamma   51.05883214
_symmetry_Int_Tables_number   1
_chemical_formula_structural   Tb5FeRuO12
_chemical_formula_sum   'Tb5 Fe1 Ru1 O12'
_cell_volume   255.48424387
_cell_formula_units_Z   1
loop_
 _symmetry_equiv_pos_site_id
 _symmetry_equiv_pos_as_xyz
  1  'x, y, z'
loop_
 _atom_site_type_symbol
 _atom_site_label
 _atom_site_symmetry_multiplicity
 _atom_site_fract_x
 _atom_site_fract_y
 _atom_site_fract_z
 _atom_site_occupancy
  Tb  Tb0  1  0.691868  0.691785  0.669152  1
  Tb  Tb1  1  0.691808  0.701650  0.140499  1
  Tb  Tb2  1  0.996574  0.003426  0.000000  1
  Tb  Tb3  1  0.298350  0.308192  0.859501  1
  Tb  Tb4  1  0.308215  0.308132  0.330848  1
  Fe  Fe5  1  0.249374  0.750626  0.500000  1
  Ru  Ru6  1  0.760421  0.239579  0.500000  1
  O  O7  1  0.400506  0.906107  0.924113  1
  O  O8  1  0.574885  0.097108  0.582524  1
  O  O9  1  0.902892  0.425115  0.417476  1
  O  O10  1  0.093893  0.599494  0.075887  1
  O  O11  1  0.993629  0.006668  0.316848  1
  O  O12  1  0.511335  0.488902  0.686110  1
  O  O13  1  0.900456  0.405484  0.925560  1
  O  O14  1  0.102001  0.575152  0.580420  1
  O  O15  1  0.424848  0.897999  0.419580  1
  O  O16  1  0.594516  0.099544  0.074440  1
  O  O17  1  0.511098  0.488665  0.313890  1
  O  O18  1  0.993332  0.006371  0.683152  1
