# generated using pymatgen
data_Dy4Y12Cd4Ir3Ru
_symmetry_space_group_name_H-M   'P 1'
_cell_length_a   9.69149864
_cell_length_b   9.69149753
_cell_length_c   9.69149865
_cell_angle_alpha   59.70959269
_cell_angle_beta   59.70959712
_cell_angle_gamma   59.70959909
_symmetry_Int_Tables_number   1
_chemical_formula_structural   Dy4Y12Cd4Ir3Ru
_chemical_formula_sum   'Dy4 Y12 Cd4 Ir3 Ru1'
_cell_volume   639.41619406
_cell_formula_units_Z   1
loop_
 _symmetry_equiv_pos_site_id
 _symmetry_equiv_pos_as_xyz
  1  'x, y, z'
loop_
 _atom_site_type_symbol
 _atom_site_label
 _atom_site_symmetry_multiplicity
 _atom_site_fract_x
 _atom_site_fract_y
 _atom_site_fract_z
 _atom_site_occupancy
  Dy  Dy0  1  0.348634  0.348634  0.348634  1
  Dy  Dy1  1  0.348112  0.348112  0.957804  1
  Dy  Dy2  1  0.348112  0.957804  0.348112  1
  Dy  Dy3  1  0.957804  0.348112  0.348112  1
  Y  Y4  1  0.811510  0.189267  0.189267  1
  Y  Y5  1  0.188301  0.809238  0.809238  1
  Y  Y6  1  0.189267  0.811510  0.189267  1
  Y  Y7  1  0.809238  0.188301  0.809238  1
  Y  Y8  1  0.189267  0.189267  0.811510  1
  Y  Y9  1  0.809238  0.809238  0.188301  1
  Y  Y10  1  0.940125  0.560818  0.560818  1
  Y  Y11  1  0.559277  0.938569  0.938569  1
  Y  Y12  1  0.560818  0.940125  0.560818  1
  Y  Y13  1  0.938569  0.559277  0.938569  1
  Y  Y14  1  0.560818  0.560818  0.940125  1
  Y  Y15  1  0.938569  0.938569  0.559277  1
  Cd  Cd16  1  0.579729  0.579729  0.579729  1
  Cd  Cd17  1  0.580589  0.580589  0.256832  1
  Cd  Cd18  1  0.580589  0.256832  0.580589  1
  Cd  Cd19  1  0.256832  0.580589  0.580589  1
  Ir  Ir20  1  0.143811  0.143811  0.575251  1
  Ir  Ir21  1  0.143811  0.575251  0.143811  1
  Ir  Ir22  1  0.575251  0.143811  0.143811  1
  Ru  Ru23  1  0.141733  0.141733  0.141733  1
