# generated using pymatgen
data_HoTm9Si5Pb
_symmetry_space_group_name_H-M   'P 1'
_cell_length_a   8.44258533
_cell_length_b   8.44258485
_cell_length_c   6.29827900
_cell_angle_alpha   90.00000000
_cell_angle_beta   90.00000000
_cell_angle_gamma   120.23068969
_symmetry_Int_Tables_number   1
_chemical_formula_structural   HoTm9Si5Pb
_chemical_formula_sum   'Ho1 Tm9 Si5 Pb1'
_cell_volume   387.87265721
_cell_formula_units_Z   1
loop_
 _symmetry_equiv_pos_site_id
 _symmetry_equiv_pos_as_xyz
  1  'x, y, z'
loop_
 _atom_site_type_symbol
 _atom_site_label
 _atom_site_symmetry_multiplicity
 _atom_site_fract_x
 _atom_site_fract_y
 _atom_site_fract_z
 _atom_site_occupancy
  Ho  Ho0  1  0.239561  0.239561  0.750000  1
  Tm  Tm1  1  0.675203  0.331367  0.503864  1
  Tm  Tm2  1  0.331367  0.675203  0.503864  1
  Tm  Tm3  1  0.331367  0.675203  0.996136  1
  Tm  Tm4  1  0.675203  0.331367  0.996136  1
  Tm  Tm5  1  0.767516  0.767516  0.250000  1
  Tm  Tm6  1  0.239530  0.987181  0.250000  1
  Tm  Tm7  1  0.987181  0.239530  0.250000  1
  Tm  Tm8  1  0.756382  0.998479  0.750000  1
  Tm  Tm9  1  0.998479  0.756382  0.750000  1
  Si  Si10  1  0.603875  0.998450  0.250000  1
  Si  Si11  1  0.998450  0.603875  0.250000  1
  Si  Si12  1  0.606195  0.606195  0.750000  1
  Si  Si13  1  0.393925  0.001337  0.750000  1
  Si  Si14  1  0.001337  0.393925  0.750000  1
  Pb  Pb15  1  0.394428  0.394428  0.250000  1
