# generated using pymatgen
data_Ti8Al14AsIr7
_symmetry_space_group_name_H-M   'P 1'
_cell_length_a   8.65928230
_cell_length_b   8.65921504
_cell_length_c   8.65929119
_cell_angle_alpha   119.99736242
_cell_angle_beta   119.89146932
_cell_angle_gamma   90.09661105
_symmetry_Int_Tables_number   1
_chemical_formula_structural   Ti8Al14AsIr7
_chemical_formula_sum   'Ti8 Al14 As1 Ir7'
_cell_volume   459.50504173
_cell_formula_units_Z   1
loop_
 _symmetry_equiv_pos_site_id
 _symmetry_equiv_pos_as_xyz
  1  'x, y, z'
loop_
 _atom_site_type_symbol
 _atom_site_label
 _atom_site_symmetry_multiplicity
 _atom_site_fract_x
 _atom_site_fract_y
 _atom_site_fract_z
 _atom_site_occupancy
  Ti  Ti0  1  0.796800  0.295480  0.085587  1
  Ti  Ti1  1  0.209894  0.295479  0.498679  1
  Ti  Ti2  1  0.204317  0.704339  0.500021  1
  Ti  Ti3  1  0.209812  0.711172  0.914310  1
  Ti  Ti4  1  0.796860  0.711172  0.501358  1
  Ti  Ti5  1  0.790231  0.290279  0.500048  1
  Ti  Ti6  1  0.379947  0.123124  0.743182  1
  Ti  Ti7  1  0.380020  0.636785  0.256763  1
  Al  Al8  1  0.159216  0.339059  0.179840  1
  Al  Al9  1  0.159131  0.979238  0.820108  1
  Al  Al10  1  0.155273  0.340601  0.814789  1
  Al  Al11  1  0.525812  0.340600  0.185327  1
  Al  Al12  1  0.839732  0.658805  0.819074  1
  Al  Al13  1  0.839670  0.020549  0.180877  1
  Al  Al14  1  0.838251  0.660071  0.178262  1
  Al  Al15  1  0.481810  0.660073  0.821823  1
  Al  Al16  1  0.380052  0.119920  0.260026  1
  Al  Al17  1  0.859895  0.119921  0.739868  1
  Al  Al18  1  0.620333  0.879422  0.259089  1
  Al  Al19  1  0.620384  0.361282  0.740900  1
  Al  Al20  1  0.620853  0.879310  0.741436  1
  Al  Al21  1  0.137873  0.879309  0.258457  1
  As  As22  1  0.997962  0.498087  0.500124  1
  Ir  Ir23  1  0.001248  0.999740  0.501191  1
  Ir  Ir24  1  0.498549  0.999740  0.998492  1
  Ir  Ir25  1  0.497605  0.497630  0.000025  1
  Ir  Ir26  1  0.498564  0.500099  0.498827  1
  Ir  Ir27  1  0.001272  0.500099  0.001535  1
  Ir  Ir28  1  0.000128  0.000133  0.000005  1
  Ir  Ir29  1  0.498501  0.998476  0.499976  1
