# generated using pymatgen
data_Er3Th2Ru3
_symmetry_space_group_name_H-M   'P 1'
_cell_length_a   8.19056510
_cell_length_b   8.19056502
_cell_length_c   6.38656500
_cell_angle_alpha   90.00000000
_cell_angle_beta   90.00000000
_cell_angle_gamma   119.47064502
_symmetry_Int_Tables_number   1
_chemical_formula_structural   Er3Th2Ru3
_chemical_formula_sum   'Er6 Th4 Ru6'
_cell_volume   373.00757766
_cell_formula_units_Z   2
loop_
 _symmetry_equiv_pos_site_id
 _symmetry_equiv_pos_as_xyz
  1  'x, y, z'
loop_
 _atom_site_type_symbol
 _atom_site_label
 _atom_site_symmetry_multiplicity
 _atom_site_fract_x
 _atom_site_fract_y
 _atom_site_fract_z
 _atom_site_occupancy
  Er  Er0  1  0.669693  0.334913  0.503107  1
  Er  Er1  1  0.334913  0.669693  0.503107  1
  Er  Er2  1  0.334913  0.669693  0.996893  1
  Er  Er3  1  0.669693  0.334913  0.996893  1
  Er  Er4  1  0.745932  0.997157  0.750000  1
  Er  Er5  1  0.997157  0.745932  0.750000  1
  Th  Th6  1  0.754654  0.754654  0.250000  1
  Th  Th7  1  0.247703  0.998763  0.250000  1
  Th  Th8  1  0.998763  0.247703  0.250000  1
  Th  Th9  1  0.244385  0.244385  0.750000  1
  Ru  Ru10  1  0.379949  0.379949  0.250000  1
  Ru  Ru11  1  0.620042  0.002737  0.250000  1
  Ru  Ru12  1  0.002737  0.620042  0.250000  1
  Ru  Ru13  1  0.596144  0.596144  0.750000  1
  Ru  Ru14  1  0.394641  0.008681  0.750000  1
  Ru  Ru15  1  0.008681  0.394641  0.750000  1
