# generated using pymatgen
data_Sm6Co13P12Ru5
_symmetry_space_group_name_H-M   'P 1'
_cell_length_a   3.78810900
_cell_length_b   10.64304159
_cell_length_c   12.43433348
_cell_angle_alpha   90.47566295
_cell_angle_beta   90.00000000
_cell_angle_gamma   90.00000000
_symmetry_Int_Tables_number   1
_chemical_formula_structural   Sm6Co13P12Ru5
_chemical_formula_sum   'Sm6 Co13 P12 Ru5'
_cell_volume   501.29776735
_cell_formula_units_Z   1
loop_
 _symmetry_equiv_pos_site_id
 _symmetry_equiv_pos_as_xyz
  1  'x, y, z'
loop_
 _atom_site_type_symbol
 _atom_site_label
 _atom_site_symmetry_multiplicity
 _atom_site_fract_x
 _atom_site_fract_y
 _atom_site_fract_z
 _atom_site_occupancy
  Sm  Sm0  1  0.000000  0.502724  0.525854  1
  Sm  Sm1  1  0.500000  0.995224  0.478309  1
  Sm  Sm2  1  0.500000  0.818535  0.202995  1
  Sm  Sm3  1  0.500000  0.183662  0.201223  1
  Sm  Sm4  1  0.000000  0.682783  0.795513  1
  Sm  Sm5  1  0.000000  0.316338  0.798747  1
  Co  Co6  1  0.000000  0.500356  0.986092  1
  Co  Co7  1  0.500000  0.999607  0.013294  1
  Co  Co8  1  0.000000  0.798350  0.574339  1
  Co  Co9  1  0.500000  0.878966  0.712801  1
  Co  Co10  1  0.500000  0.116101  0.716019  1
  Co  Co11  1  0.000000  0.620619  0.285188  1
  Co  Co12  1  0.000000  0.382925  0.283882  1
  Co  Co13  1  0.500000  0.332904  0.991012  1
  Co  Co14  1  0.500000  0.667824  0.991078  1
  Co  Co15  1  0.000000  0.166796  0.008121  1
  Co  Co16  1  0.000000  0.832471  0.008402  1
  Co  Co17  1  0.500000  0.499483  0.706027  1
  Co  Co18  1  0.000000  0.001465  0.293934  1
  P  P19  1  0.500000  0.310476  0.621104  1
  P  P20  1  0.500000  0.691936  0.619529  1
  P  P21  1  0.000000  0.188911  0.379392  1
  P  P22  1  0.000000  0.814090  0.382327  1
  P  P23  1  0.500000  0.500181  0.884672  1
  P  P24  1  0.000000  0.000321  0.114914  1
  P  P25  1  0.500000  0.846586  0.896086  1
  P  P26  1  0.500000  0.151624  0.896647  1
  P  P27  1  0.000000  0.653079  0.103570  1
  P  P28  1  0.000000  0.348047  0.102530  1
  P  P29  1  0.500000  0.500206  0.341442  1
  P  P30  1  0.000000  0.996620  0.656747  1
  Ru  Ru31  1  0.500000  0.298829  0.426717  1
  Ru  Ru32  1  0.500000  0.703325  0.429178  1
  Ru  Ru33  1  0.000000  0.200137  0.573806  1
  Ru  Ru34  1  0.500000  0.501088  0.154782  1
  Ru  Ru35  1  0.000000  0.997413  0.843725  1
