# generated using pymatgen
data_MgCo20(B3Mo)2
_symmetry_space_group_name_H-M   'P 1'
_cell_length_a   7.42601506
_cell_length_b   7.42601490
_cell_length_c   7.42601500
_cell_angle_alpha   60.00000401
_cell_angle_beta   60.00000473
_cell_angle_gamma   60.00000244
_symmetry_Int_Tables_number   1
_chemical_formula_structural   MgCo20(B3Mo)2
_chemical_formula_sum   'Mg1 Co20 B6 Mo2'
_cell_volume   289.56929126
_cell_formula_units_Z   1
loop_
 _symmetry_equiv_pos_site_id
 _symmetry_equiv_pos_as_xyz
  1  'x, y, z'
loop_
 _atom_site_type_symbol
 _atom_site_label
 _atom_site_symmetry_multiplicity
 _atom_site_fract_x
 _atom_site_fract_y
 _atom_site_fract_z
 _atom_site_occupancy
  Mg  Mg0  1  0.000000  0.000000  0.000000  1
  Co  Co1  1  0.617859  0.617859  0.146421  1
  Co  Co2  1  0.617859  0.146421  0.617859  1
  Co  Co3  1  0.146421  0.617859  0.617859  1
  Co  Co4  1  0.617859  0.617859  0.617859  1
  Co  Co5  1  0.382141  0.382141  0.853579  1
  Co  Co6  1  0.382141  0.853579  0.382141  1
  Co  Co7  1  0.853579  0.382141  0.382141  1
  Co  Co8  1  0.382141  0.382141  0.382141  1
  Co  Co9  1  0.000000  0.000000  0.344717  1
  Co  Co10  1  0.655283  0.000000  0.344717  1
  Co  Co11  1  0.000000  0.655283  0.344717  1
  Co  Co12  1  0.655283  0.344717  0.000000  1
  Co  Co13  1  0.000000  0.344717  0.000000  1
  Co  Co14  1  0.000000  0.344717  0.655283  1
  Co  Co15  1  0.344717  0.655283  0.000000  1
  Co  Co16  1  0.344717  0.000000  0.655283  1
  Co  Co17  1  0.344717  0.000000  0.000000  1
  Co  Co18  1  0.000000  0.000000  0.655283  1
  Co  Co19  1  0.000000  0.655283  0.000000  1
  Co  Co20  1  0.655283  0.000000  0.000000  1
  B  B21  1  0.726147  0.726147  0.273853  1
  B  B22  1  0.273853  0.726147  0.273853  1
  B  B23  1  0.726147  0.273853  0.273853  1
  B  B24  1  0.273853  0.273853  0.726147  1
  B  B25  1  0.726147  0.273853  0.726147  1
  B  B26  1  0.273853  0.726147  0.726147  1
  Mo  Mo27  1  0.750000  0.750000  0.750000  1
  Mo  Mo28  1  0.250000  0.250000  0.250000  1
