# generated using pymatgen
data_ErNbB6Os
_symmetry_space_group_name_H-M   'P 1'
_cell_length_a   3.49884400
_cell_length_b   8.99097300
_cell_length_c   11.27275800
_cell_angle_alpha   90.00000000
_cell_angle_beta   90.00000000
_cell_angle_gamma   90.00000000
_symmetry_Int_Tables_number   1
_chemical_formula_structural   ErNbB6Os
_chemical_formula_sum   'Er4 Nb4 B24 Os4'
_cell_volume   354.61855571
_cell_formula_units_Z   4
loop_
 _symmetry_equiv_pos_site_id
 _symmetry_equiv_pos_as_xyz
  1  'x, y, z'
loop_
 _atom_site_type_symbol
 _atom_site_label
 _atom_site_symmetry_multiplicity
 _atom_site_fract_x
 _atom_site_fract_y
 _atom_site_fract_z
 _atom_site_occupancy
  Er  Er0  1  0.000000  0.323076  0.412687  1
  Er  Er1  1  0.000000  0.676924  0.587313  1
  Er  Er2  1  0.000000  0.823076  0.087313  1
  Er  Er3  1  0.000000  0.176924  0.912687  1
  Nb  Nb4  1  0.000000  0.946294  0.377293  1
  Nb  Nb5  1  0.000000  0.053706  0.622708  1
  Nb  Nb6  1  0.000000  0.446294  0.122707  1
  Nb  Nb7  1  0.000000  0.553706  0.877292  1
  B  B8  1  0.500000  0.554239  0.434531  1
  B  B9  1  0.500000  0.445761  0.565469  1
  B  B10  1  0.500000  0.054239  0.065469  1
  B  B11  1  0.500000  0.945761  0.934531  1
  B  B12  1  0.500000  0.753281  0.419680  1
  B  B13  1  0.500000  0.246719  0.580320  1
  B  B14  1  0.500000  0.253281  0.080320  1
  B  B15  1  0.500000  0.746719  0.919680  1
  B  B16  1  0.500000  0.797261  0.263034  1
  B  B17  1  0.500000  0.202739  0.736966  1
  B  B18  1  0.500000  0.297260  0.236966  1
  B  B19  1  0.500000  0.702739  0.763034  1
  B  B20  1  0.500000  0.629465  0.181477  1
  B  B21  1  0.500000  0.370535  0.818523  1
  B  B22  1  0.500000  0.129465  0.318523  1
  B  B23  1  0.500000  0.870535  0.681477  1
  B  B24  1  0.500000  0.980208  0.213368  1
  B  B25  1  0.500000  0.019792  0.786632  1
  B  B26  1  0.500000  0.480208  0.286632  1
  B  B27  1  0.500000  0.519792  0.713368  1
  B  B28  1  0.500000  0.601355  0.027226  1
  B  B29  1  0.500000  0.398645  0.972774  1
  B  B30  1  0.500000  0.101355  0.472774  1
  B  B31  1  0.500000  0.898645  0.527226  1
  Os  Os32  1  0.000000  0.642481  0.318202  1
  Os  Os33  1  0.000000  0.357519  0.681798  1
  Os  Os34  1  0.000000  0.142481  0.181798  1
  Os  Os35  1  0.000000  0.857519  0.818202  1
