# generated using pymatgen
data_HfSc3(Co5P3)4
_symmetry_space_group_name_H-M   'P 1'
_cell_length_a   3.57626200
_cell_length_b   10.12993552
_cell_length_c   11.57880359
_cell_angle_alpha   90.03667060
_cell_angle_beta   90.00000000
_cell_angle_gamma   90.00000000
_symmetry_Int_Tables_number   1
_chemical_formula_structural   HfSc3(Co5P3)4
_chemical_formula_sum   'Hf1 Sc3 Co20 P12'
_cell_volume   419.46874553
_cell_formula_units_Z   1
loop_
 _symmetry_equiv_pos_site_id
 _symmetry_equiv_pos_as_xyz
  1  'x, y, z'
loop_
 _atom_site_type_symbol
 _atom_site_label
 _atom_site_symmetry_multiplicity
 _atom_site_fract_x
 _atom_site_fract_y
 _atom_site_fract_z
 _atom_site_occupancy
  Hf  Hf0  1  0.250000  0.581447  0.702474  1
  Sc  Sc1  1  0.250000  0.918079  0.202571  1
  Sc  Sc2  1  0.750000  0.418109  0.297340  1
  Sc  Sc3  1  0.750000  0.081774  0.797295  1
  Co  Co4  1  0.250000  0.719038  0.992643  1
  Co  Co5  1  0.250000  0.780638  0.492517  1
  Co  Co6  1  0.750000  0.281477  0.006635  1
  Co  Co7  1  0.750000  0.218881  0.507512  1
  Co  Co8  1  0.250000  0.409309  0.486514  1
  Co  Co9  1  0.250000  0.091656  0.986012  1
  Co  Co10  1  0.750000  0.592024  0.516058  1
  Co  Co11  1  0.750000  0.907827  0.013912  1
  Co  Co12  1  0.250000  0.221801  0.176881  1
  Co  Co13  1  0.250000  0.278542  0.677580  1
  Co  Co14  1  0.750000  0.776347  0.822261  1
  Co  Co15  1  0.750000  0.721307  0.323511  1
  Co  Co16  1  0.250000  0.882482  0.700105  1
  Co  Co17  1  0.250000  0.616625  0.199562  1
  Co  Co18  1  0.750000  0.116553  0.300130  1
  Co  Co19  1  0.750000  0.385317  0.799154  1
  Co  Co20  1  0.250000  0.467226  0.929975  1
  Co  Co21  1  0.250000  0.033290  0.430925  1
  Co  Co22  1  0.750000  0.533061  0.069211  1
  Co  Co23  1  0.750000  0.967005  0.569204  1
  P  P24  1  0.250000  0.418605  0.114994  1
  P  P25  1  0.250000  0.081418  0.615269  1
  P  P26  1  0.750000  0.581695  0.885552  1
  P  P27  1  0.750000  0.918700  0.384765  1
  P  P28  1  0.250000  0.265170  0.869315  1
  P  P29  1  0.250000  0.234452  0.368986  1
  P  P30  1  0.750000  0.734248  0.131204  1
  P  P31  1  0.750000  0.766521  0.630788  1
  P  P32  1  0.250000  0.598251  0.388692  1
  P  P33  1  0.250000  0.901861  0.889476  1
  P  P34  1  0.750000  0.400888  0.610372  1
  P  P35  1  0.750000  0.098376  0.110601  1
