# generated using pymatgen
data_Pr4CuRh3Pb2
_symmetry_space_group_name_H-M   'P 1'
_cell_length_a   7.87715194
_cell_length_b   7.87715179
_cell_length_c   3.89523500
_cell_angle_alpha   90.00000000
_cell_angle_beta   90.00000000
_cell_angle_gamma   89.63984271
_symmetry_Int_Tables_number   1
_chemical_formula_structural   Pr4CuRh3Pb2
_chemical_formula_sum   'Pr4 Cu1 Rh3 Pb2'
_cell_volume   241.69269285
_cell_formula_units_Z   1
loop_
 _symmetry_equiv_pos_site_id
 _symmetry_equiv_pos_as_xyz
  1  'x, y, z'
loop_
 _atom_site_type_symbol
 _atom_site_label
 _atom_site_symmetry_multiplicity
 _atom_site_fract_x
 _atom_site_fract_y
 _atom_site_fract_z
 _atom_site_occupancy
  Pr  Pr0  1  0.686178  0.172001  0.500000  1
  Pr  Pr1  1  0.327999  0.813822  0.500000  1
  Pr  Pr2  1  0.165082  0.334918  0.500000  1
  Pr  Pr3  1  0.821717  0.678283  0.500000  1
  Cu  Cu4  1  0.382736  0.117264  0.000000  1
  Rh  Rh5  1  0.125409  0.628774  0.000000  1
  Rh  Rh6  1  0.871226  0.374591  0.000000  1
  Rh  Rh7  1  0.617233  0.882767  0.000000  1
  Pb  Pb8  1  0.498381  0.495961  0.000000  1
  Pb  Pb9  1  0.004039  0.001619  0.000000  1
