# generated using pymatgen
data_Nd16MgCd3NiOs3
_symmetry_space_group_name_H-M   'P 1'
_cell_length_a   9.89977935
_cell_length_b   10.01127230
_cell_length_c   10.01127286
_cell_angle_alpha   59.76230956
_cell_angle_beta   59.47297626
_cell_angle_gamma   59.47298375
_symmetry_Int_Tables_number   1
_chemical_formula_structural   Nd16MgCd3NiOs3
_chemical_formula_sum   'Nd16 Mg1 Cd3 Ni1 Os3'
_cell_volume   694.71972756
_cell_formula_units_Z   1
loop_
 _symmetry_equiv_pos_site_id
 _symmetry_equiv_pos_as_xyz
  1  'x, y, z'
loop_
 _atom_site_type_symbol
 _atom_site_label
 _atom_site_symmetry_multiplicity
 _atom_site_fract_x
 _atom_site_fract_y
 _atom_site_fract_z
 _atom_site_occupancy
  Nd  Nd0  1  0.599175  0.595903  0.595903  1
  Nd  Nd1  1  0.598942  0.595636  0.210318  1
  Nd  Nd2  1  0.598942  0.210318  0.595636  1
  Nd  Nd3  1  0.214483  0.594600  0.594600  1
  Nd  Nd4  1  0.058297  0.441400  0.441400  1
  Nd  Nd5  1  0.436004  0.060920  0.060920  1
  Nd  Nd6  1  0.440157  0.058501  0.443207  1
  Nd  Nd7  1  0.060552  0.439836  0.060995  1
  Nd  Nd8  1  0.440157  0.443207  0.058501  1
  Nd  Nd9  1  0.060552  0.060995  0.439836  1
  Nd  Nd10  1  0.190278  0.809736  0.809736  1
  Nd  Nd11  1  0.805582  0.189800  0.189800  1
  Nd  Nd12  1  0.806324  0.187473  0.817822  1
  Nd  Nd13  1  0.190702  0.809255  0.193001  1
  Nd  Nd14  1  0.806324  0.817822  0.187473  1
  Nd  Nd15  1  0.190702  0.193001  0.809255  1
  Mg  Mg16  1  0.824684  0.824300  0.824300  1
  Cd  Cd17  1  0.829494  0.830044  0.509323  1
  Cd  Cd18  1  0.829494  0.509323  0.830044  1
  Cd  Cd19  1  0.508774  0.829861  0.829861  1
  Ni  Ni20  1  0.828798  0.390996  0.390996  1
  Os  Os21  1  0.394410  0.387229  0.387229  1
  Os  Os22  1  0.393587  0.388097  0.831751  1
  Os  Os23  1  0.393587  0.831751  0.388097  1
