# generated using pymatgen
data_Dy2Ho10Co2Ni3Bi
_symmetry_space_group_name_H-M   'P 1'
_cell_length_a   8.31636368
_cell_length_b   8.31635018
_cell_length_c   8.31701310
_cell_angle_alpha   111.16084262
_cell_angle_beta   109.36271372
_cell_angle_gamma   107.90344202
_symmetry_Int_Tables_number   1
_chemical_formula_structural   Dy2Ho10Co2Ni3Bi
_chemical_formula_sum   'Dy2 Ho10 Co2 Ni3 Bi1'
_cell_volume   442.46166130
_cell_formula_units_Z   1
loop_
 _symmetry_equiv_pos_site_id
 _symmetry_equiv_pos_as_xyz
  1  'x, y, z'
loop_
 _atom_site_type_symbol
 _atom_site_label
 _atom_site_symmetry_multiplicity
 _atom_site_fract_x
 _atom_site_fract_y
 _atom_site_fract_z
 _atom_site_occupancy
  Dy  Dy0  1  0.819420  0.710160  0.529583  1
  Dy  Dy1  1  0.180580  0.289840  0.470417  1
  Ho  Ho2  1  0.180613  0.710175  0.890790  1
  Ho  Ho3  1  0.819387  0.289825  0.109210  1
  Ho  Ho4  1  0.685126  0.375342  0.690367  1
  Ho  Ho5  1  0.314874  0.624658  0.309633  1
  Ho  Ho6  1  0.684976  0.994762  0.309636  1
  Ho  Ho7  1  0.315024  0.005238  0.690364  1
  Ho  Ho8  1  0.596545  0.790886  0.805801  1
  Ho  Ho9  1  0.403455  0.209114  0.194199  1
  Ho  Ho10  1  0.985085  0.790745  0.194201  1
  Ho  Ho11  1  0.014915  0.209255  0.805799  1
  Co  Co12  1  0.114007  0.614007  0.499999  1
  Co  Co13  1  0.885993  0.385993  0.500001  1
  Ni  Ni14  1  0.632040  0.000060  0.632099  1
  Ni  Ni15  1  0.367960  0.999940  0.367901  1
  Ni  Ni16  1  0.000000  0.000000  0.000000  1
  Bi  Bi17  1  0.500000  0.500000  0.000000  1
