# generated using pymatgen
data_PrYCd2(Ir2O7)2
_symmetry_space_group_name_H-M   'P 1'
_cell_length_a   7.29826660
_cell_length_b   7.29826679
_cell_length_c   7.42217302
_cell_angle_alpha   59.36842923
_cell_angle_beta   59.36842843
_cell_angle_gamma   59.25761959
_symmetry_Int_Tables_number   1
_chemical_formula_structural   PrYCd2(Ir2O7)2
_chemical_formula_sum   'Pr1 Y1 Cd2 Ir4 O14'
_cell_volume   275.29228716
_cell_formula_units_Z   1
loop_
 _symmetry_equiv_pos_site_id
 _symmetry_equiv_pos_as_xyz
  1  'x, y, z'
loop_
 _atom_site_type_symbol
 _atom_site_label
 _atom_site_symmetry_multiplicity
 _atom_site_fract_x
 _atom_site_fract_y
 _atom_site_fract_z
 _atom_site_occupancy
  Pr  Pr0  1  0.125000  0.125000  0.625000  1
  Y  Y1  1  0.125000  0.125000  0.125000  1
  Cd  Cd2  1  0.625000  0.125000  0.125000  1
  Cd  Cd3  1  0.125000  0.625000  0.125000  1
  Ir  Ir4  1  0.125000  0.625000  0.625000  1
  Ir  Ir5  1  0.625000  0.125000  0.625000  1
  Ir  Ir6  1  0.625000  0.625000  0.125000  1
  Ir  Ir7  1  0.625000  0.625000  0.625000  1
  O  O8  1  0.698431  0.698431  0.300677  1
  O  O9  1  0.290150  0.290150  0.715562  1
  O  O10  1  0.702570  0.296101  0.701667  1
  O  O11  1  0.296371  0.711313  0.298599  1
  O  O12  1  0.296101  0.702570  0.701667  1
  O  O13  1  0.711313  0.296371  0.298599  1
  O  O14  1  0.551569  0.551569  0.949323  1
  O  O15  1  0.959850  0.959850  0.534438  1
  O  O16  1  0.547430  0.953899  0.548333  1
  O  O17  1  0.953629  0.538687  0.951401  1
  O  O18  1  0.953899  0.547430  0.548333  1
  O  O19  1  0.538687  0.953629  0.951401  1
  O  O20  1  0.254475  0.254475  0.235576  1
  O  O21  1  0.995525  0.995525  0.014424  1
