# generated using pymatgen
data_Tb7DyRe2(TcB12)2
_symmetry_space_group_name_H-M   'P 1'
_cell_length_a   3.70372400
_cell_length_b   9.20052994
_cell_length_c   11.59376202
_cell_angle_alpha   90.06276155
_cell_angle_beta   90.00000000
_cell_angle_gamma   90.00000000
_symmetry_Int_Tables_number   1
_chemical_formula_structural   Tb7DyRe2(TcB12)2
_chemical_formula_sum   'Tb7 Dy1 Re2 Tc2 B24'
_cell_volume   395.07138950
_cell_formula_units_Z   1
loop_
 _symmetry_equiv_pos_site_id
 _symmetry_equiv_pos_as_xyz
  1  'x, y, z'
loop_
 _atom_site_type_symbol
 _atom_site_label
 _atom_site_symmetry_multiplicity
 _atom_site_fract_x
 _atom_site_fract_y
 _atom_site_fract_z
 _atom_site_occupancy
  Tb  Tb0  1  0.000000  0.324118  0.413970  1
  Tb  Tb1  1  0.000000  0.675833  0.586114  1
  Tb  Tb2  1  0.000000  0.823754  0.085926  1
  Tb  Tb3  1  0.000000  0.176269  0.914025  1
  Tb  Tb4  1  0.000000  0.942053  0.369719  1
  Tb  Tb5  1  0.000000  0.058009  0.630285  1
  Tb  Tb6  1  0.000000  0.443601  0.130506  1
  Dy  Dy7  1  0.000000  0.556425  0.869263  1
  Re  Re8  1  0.000000  0.138543  0.179246  1
  Re  Re9  1  0.000000  0.861252  0.820803  1
  Tc  Tc10  1  0.000000  0.638571  0.320774  1
  Tc  Tc11  1  0.000000  0.361577  0.679376  1
  B  B12  1  0.500000  0.553579  0.432605  1
  B  B13  1  0.500000  0.446408  0.567463  1
  B  B14  1  0.500000  0.053495  0.067304  1
  B  B15  1  0.500000  0.946451  0.932683  1
  B  B16  1  0.500000  0.748133  0.418258  1
  B  B17  1  0.500000  0.251910  0.581780  1
  B  B18  1  0.500000  0.248645  0.081758  1
  B  B19  1  0.500000  0.751044  0.918258  1
  B  B20  1  0.500000  0.791262  0.265617  1
  B  B21  1  0.500000  0.208847  0.734385  1
  B  B22  1  0.500000  0.291552  0.234485  1
  B  B23  1  0.500000  0.708194  0.765571  1
  B  B24  1  0.500000  0.631218  0.186213  1
  B  B25  1  0.500000  0.369008  0.813894  1
  B  B26  1  0.500000  0.130872  0.314013  1
  B  B27  1  0.500000  0.869059  0.686013  1
  B  B28  1  0.500000  0.982864  0.211706  1
  B  B29  1  0.500000  0.017121  0.788301  1
  B  B30  1  0.500000  0.483174  0.288386  1
  B  B31  1  0.500000  0.516925  0.711800  1
  B  B32  1  0.500000  0.600682  0.027746  1
  B  B33  1  0.500000  0.399554  0.971761  1
  B  B34  1  0.500000  0.100558  0.471716  1
  B  B35  1  0.500000  0.899440  0.528278  1
