# generated using pymatgen
data_Y12Lu4MgCo4Ag3
_symmetry_space_group_name_H-M   'P 1'
_cell_length_a   9.45832842
_cell_length_b   9.45938692
_cell_length_c   9.45938600
_cell_angle_alpha   60.00000321
_cell_angle_beta   59.99630114
_cell_angle_gamma   59.99630039
_symmetry_Int_Tables_number   1
_chemical_formula_structural   Y12Lu4MgCo4Ag3
_chemical_formula_sum   'Y12 Lu4 Mg1 Co4 Ag3'
_cell_volume   598.41304854
_cell_formula_units_Z   1
loop_
 _symmetry_equiv_pos_site_id
 _symmetry_equiv_pos_as_xyz
  1  'x, y, z'
loop_
 _atom_site_type_symbol
 _atom_site_label
 _atom_site_symmetry_multiplicity
 _atom_site_fract_x
 _atom_site_fract_y
 _atom_site_fract_z
 _atom_site_occupancy
  Y  Y0  1  0.808026  0.190239  0.190239  1
  Y  Y1  1  0.187046  0.812341  0.812341  1
  Y  Y2  1  0.187046  0.812341  0.188271  1
  Y  Y3  1  0.808026  0.190239  0.811495  1
  Y  Y4  1  0.187046  0.188271  0.812341  1
  Y  Y5  1  0.808026  0.811495  0.190239  1
  Y  Y6  1  0.937345  0.561848  0.561848  1
  Y  Y7  1  0.562133  0.937375  0.937375  1
  Y  Y8  1  0.562133  0.937375  0.563117  1
  Y  Y9  1  0.937345  0.561848  0.938960  1
  Y  Y10  1  0.562133  0.563117  0.937375  1
  Y  Y11  1  0.937345  0.938960  0.561848  1
  Lu  Lu12  1  0.344497  0.344060  0.344060  1
  Lu  Lu13  1  0.344497  0.344060  0.967383  1
  Lu  Lu14  1  0.344497  0.967383  0.344060  1
  Lu  Lu15  1  0.955057  0.348314  0.348314  1
  Mg  Mg16  1  0.288618  0.570460  0.570460  1
  Co  Co17  1  0.140104  0.144644  0.144644  1
  Co  Co18  1  0.140104  0.144644  0.570609  1
  Co  Co19  1  0.140104  0.570609  0.144644  1
  Co  Co20  1  0.570801  0.143066  0.143066  1
  Ag  Ag21  1  0.582690  0.581836  0.581836  1
  Ag  Ag22  1  0.582690  0.581836  0.253639  1
  Ag  Ag23  1  0.582690  0.253639  0.581836  1
