# generated using pymatgen
data_Y3Mg3CuSn2
_symmetry_space_group_name_H-M   'P 1'
_cell_length_a   7.49539300
_cell_length_b   7.49539247
_cell_length_c   4.43589300
_cell_angle_alpha   90.00000000
_cell_angle_beta   90.00000000
_cell_angle_gamma   119.99998911
_symmetry_Int_Tables_number   1
_chemical_formula_structural   Y3Mg3CuSn2
_chemical_formula_sum   'Y3 Mg3 Cu1 Sn2'
_cell_volume   215.82439287
_cell_formula_units_Z   1
loop_
 _symmetry_equiv_pos_site_id
 _symmetry_equiv_pos_as_xyz
  1  'x, y, z'
loop_
 _atom_site_type_symbol
 _atom_site_label
 _atom_site_symmetry_multiplicity
 _atom_site_fract_x
 _atom_site_fract_y
 _atom_site_fract_z
 _atom_site_occupancy
  Y  Y0  1  0.000000  0.595112  0.000000  1
  Y  Y1  1  0.595112  0.000000  0.000000  1
  Y  Y2  1  0.404888  0.404888  0.000000  1
  Mg  Mg3  1  0.000000  0.234290  0.500000  1
  Mg  Mg4  1  0.765710  0.765710  0.500000  1
  Mg  Mg5  1  0.234290  0.000000  0.500000  1
  Cu  Cu6  1  0.000000  0.000000  0.000000  1
  Sn  Sn7  1  0.333333  0.666667  0.500000  1
  Sn  Sn8  1  0.666667  0.333333  0.500000  1
