# generated using pymatgen
data_EuTa4O11
_symmetry_space_group_name_H-M   'P 1'
_cell_length_a   6.35160800
_cell_length_b   6.35160810
_cell_length_c   12.50039900
_cell_angle_alpha   90.00000000
_cell_angle_beta   90.00000000
_cell_angle_gamma   119.99999947
_symmetry_Int_Tables_number   1
_chemical_formula_structural   EuTa4O11
_chemical_formula_sum   'Eu2 Ta8 O22'
_cell_volume   436.73891466
_cell_formula_units_Z   2
loop_
 _symmetry_equiv_pos_site_id
 _symmetry_equiv_pos_as_xyz
  1  'x, y, z'
loop_
 _atom_site_type_symbol
 _atom_site_label
 _atom_site_symmetry_multiplicity
 _atom_site_fract_x
 _atom_site_fract_y
 _atom_site_fract_z
 _atom_site_occupancy
  Eu  Eu0  1  0.333333  0.666667  0.750000  1
  Eu  Eu1  1  0.666667  0.333333  0.250000  1
  Ta  Ta2  1  0.666667  0.333333  0.750000  1
  Ta  Ta3  1  0.333333  0.666667  0.250000  1
  Ta  Ta4  1  0.645492  0.000000  0.500000  1
  Ta  Ta5  1  0.645492  0.645492  0.000000  1
  Ta  Ta6  1  0.000000  0.354508  0.000000  1
  Ta  Ta7  1  0.000000  0.645492  0.500000  1
  Ta  Ta8  1  0.354508  0.354508  0.500000  1
  Ta  Ta9  1  0.354508  0.000000  0.000000  1
  O  O10  1  0.333333  0.666667  0.533699  1
  O  O11  1  0.666667  0.333333  0.033699  1
  O  O12  1  0.666667  0.333333  0.466301  1
  O  O13  1  0.333333  0.666667  0.966301  1
  O  O14  1  0.242013  0.000000  0.500000  1
  O  O15  1  0.242013  0.242013  0.000000  1
  O  O16  1  0.000000  0.757987  0.000000  1
  O  O17  1  0.000000  0.242013  0.500000  1
  O  O18  1  0.757987  0.757987  0.500000  1
  O  O19  1  0.757987  0.000000  0.000000  1
  O  O20  1  0.376158  0.940211  0.154627  1
  O  O21  1  0.435947  0.376158  0.654627  1
  O  O22  1  0.940211  0.564053  0.654627  1
  O  O23  1  0.059789  0.435947  0.154627  1
  O  O24  1  0.564053  0.623842  0.154627  1
  O  O25  1  0.435947  0.059789  0.845373  1
  O  O26  1  0.623842  0.564053  0.845373  1
  O  O27  1  0.623842  0.059789  0.654627  1
  O  O28  1  0.940211  0.376158  0.845373  1
  O  O29  1  0.059789  0.623842  0.345373  1
  O  O30  1  0.564053  0.940211  0.345373  1
  O  O31  1  0.376158  0.435947  0.345373  1
