# generated using pymatgen
data_Ce3(SiIr)2
_symmetry_space_group_name_H-M   'P 1'
_cell_length_a   5.75945097
_cell_length_b   5.75945239
_cell_length_c   13.31238100
_cell_angle_alpha   90.00000000
_cell_angle_beta   90.00000000
_cell_angle_gamma   138.75950421
_symmetry_Int_Tables_number   1
_chemical_formula_structural   Ce3(SiIr)2
_chemical_formula_sum   'Ce6 Si4 Ir4'
_cell_volume   291.10462833
_cell_formula_units_Z   2
loop_
 _symmetry_equiv_pos_site_id
 _symmetry_equiv_pos_as_xyz
  1  'x, y, z'
loop_
 _atom_site_type_symbol
 _atom_site_label
 _atom_site_symmetry_multiplicity
 _atom_site_fract_x
 _atom_site_fract_y
 _atom_site_fract_z
 _atom_site_occupancy
  Ce  Ce0  1  0.776378  0.223622  0.600812  1
  Ce  Ce1  1  0.513209  0.486791  0.250000  1
  Ce  Ce2  1  0.223622  0.776378  0.399188  1
  Ce  Ce3  1  0.776378  0.223622  0.899188  1
  Ce  Ce4  1  0.486791  0.513209  0.750000  1
  Ce  Ce5  1  0.223622  0.776378  0.100812  1
  Si  Si6  1  0.062884  0.937116  0.590852  1
  Si  Si7  1  0.062884  0.937116  0.909148  1
  Si  Si8  1  0.937116  0.062884  0.409148  1
  Si  Si9  1  0.937116  0.062884  0.090852  1
  Ir  Ir10  1  0.800305  0.199695  0.250000  1
  Ir  Ir11  1  0.199695  0.800305  0.750000  1
  Ir  Ir12  1  0.500000  0.500000  0.000000  1
  Ir  Ir13  1  0.500000  0.500000  0.500000  1
