# generated using pymatgen
data_Te3(PdCl)4
_symmetry_space_group_name_H-M   'P 1'
_cell_length_a   8.45031474
_cell_length_b   8.49986129
_cell_length_c   8.80909865
_cell_angle_alpha   107.16067961
_cell_angle_beta   97.85794203
_cell_angle_gamma   88.50183318
_symmetry_Int_Tables_number   1
_chemical_formula_structural   Te3(PdCl)4
_chemical_formula_sum   'Te6 Pd8 Cl8'
_cell_volume   598.81434303
_cell_formula_units_Z   2
loop_
 _symmetry_equiv_pos_site_id
 _symmetry_equiv_pos_as_xyz
  1  'x, y, z'
loop_
 _atom_site_type_symbol
 _atom_site_label
 _atom_site_symmetry_multiplicity
 _atom_site_fract_x
 _atom_site_fract_y
 _atom_site_fract_z
 _atom_site_occupancy
  Te  Te0  1  0.149597  0.277974  0.972849  1
  Te  Te1  1  0.191603  0.478388  0.705849  1
  Te  Te2  1  0.808397  0.521612  0.294151  1
  Te  Te3  1  0.387766  0.142227  0.695901  1
  Te  Te4  1  0.612234  0.857773  0.304099  1
  Te  Te5  1  0.850403  0.722026  0.027151  1
  Pd  Pd6  1  0.215791  0.581323  0.011970  1
  Pd  Pd7  1  0.448194  0.213505  0.999542  1
  Pd  Pd8  1  0.551806  0.786495  0.000458  1
  Pd  Pd9  1  0.784209  0.418677  0.988030  1
  Pd  Pd10  1  0.925933  0.818537  0.340656  1
  Pd  Pd11  1  0.490112  0.424971  0.704214  1
  Pd  Pd12  1  0.074067  0.181463  0.659344  1
  Pd  Pd13  1  0.509888  0.575029  0.295786  1
  Cl  Cl14  1  0.461068  0.291408  0.292210  1
  Cl  Cl15  1  0.538932  0.708592  0.707790  1
  Cl  Cl16  1  0.271157  0.860350  0.010374  1
  Cl  Cl17  1  0.223421  0.657023  0.307945  1
  Cl  Cl18  1  0.022625  0.100738  0.362512  1
  Cl  Cl19  1  0.977375  0.899262  0.637488  1
  Cl  Cl20  1  0.728843  0.139650  0.989626  1
  Cl  Cl21  1  0.776579  0.342977  0.692055  1
