# generated using pymatgen
data_Th2FeSi4Pd
_symmetry_space_group_name_H-M   'P 1'
_cell_length_a   8.61928833
_cell_length_b   8.61928763
_cell_length_c   4.16804600
_cell_angle_alpha   90.00000000
_cell_angle_beta   90.00000000
_cell_angle_gamma   151.83745440
_symmetry_Int_Tables_number   1
_chemical_formula_structural   Th2FeSi4Pd
_chemical_formula_sum   'Th2 Fe1 Si4 Pd1'
_cell_volume   146.14833427
_cell_formula_units_Z   1
loop_
 _symmetry_equiv_pos_site_id
 _symmetry_equiv_pos_as_xyz
  1  'x, y, z'
loop_
 _atom_site_type_symbol
 _atom_site_label
 _atom_site_symmetry_multiplicity
 _atom_site_fract_x
 _atom_site_fract_y
 _atom_site_fract_z
 _atom_site_occupancy
  Th  Th0  1  0.605502  0.394498  0.750000  1
  Th  Th1  1  0.394414  0.605586  0.250000  1
  Fe  Fe2  1  0.180203  0.819797  0.250000  1
  Si  Si3  1  0.967607  0.032393  0.750000  1
  Si  Si4  1  0.044182  0.955818  0.250000  1
  Si  Si5  1  0.243386  0.756614  0.750000  1
  Si  Si6  1  0.741882  0.258118  0.250000  1
  Pd  Pd7  1  0.822822  0.177178  0.750000  1
