# generated using pymatgen
data_Gd2Re3Os
_symmetry_space_group_name_H-M   'P 1'
_cell_length_a   5.32553900
_cell_length_b   5.32553833
_cell_length_c   9.05845100
_cell_angle_alpha   90.00000000
_cell_angle_beta   90.00000000
_cell_angle_gamma   120.00001038
_symmetry_Int_Tables_number   1
_chemical_formula_structural   Gd2Re3Os
_chemical_formula_sum   'Gd4 Re6 Os2'
_cell_volume   222.49057068
_cell_formula_units_Z   2
loop_
 _symmetry_equiv_pos_site_id
 _symmetry_equiv_pos_as_xyz
  1  'x, y, z'
loop_
 _atom_site_type_symbol
 _atom_site_label
 _atom_site_symmetry_multiplicity
 _atom_site_fract_x
 _atom_site_fract_y
 _atom_site_fract_z
 _atom_site_occupancy
  Gd  Gd0  1  0.333333  0.666667  0.438901  1
  Gd  Gd1  1  0.666667  0.333333  0.561099  1
  Gd  Gd2  1  0.666667  0.333333  0.938901  1
  Gd  Gd3  1  0.333333  0.666667  0.061099  1
  Re  Re4  1  0.829456  0.170544  0.250000  1
  Re  Re5  1  0.829456  0.658913  0.250000  1
  Re  Re6  1  0.341087  0.170544  0.250000  1
  Re  Re7  1  0.170544  0.829456  0.750000  1
  Re  Re8  1  0.170544  0.341087  0.750000  1
  Re  Re9  1  0.658913  0.829456  0.750000  1
  Os  Os10  1  0.000000  0.000000  0.500000  1
  Os  Os11  1  0.000000  0.000000  0.000000  1
