# generated using pymatgen
data_Ca4Nd8Zr4V3Ga13O48
_symmetry_space_group_name_H-M   'P 1'
_cell_length_a   10.99279573
_cell_length_b   11.05456772
_cell_length_c   11.06620800
_cell_angle_alpha   109.36635368
_cell_angle_beta   109.42802146
_cell_angle_gamma   109.29921767
_symmetry_Int_Tables_number   1
_chemical_formula_structural   Ca4Nd8Zr4V3Ga13O48
_chemical_formula_sum   'Ca4 Nd8 Zr4 V3 Ga13 O48'
_cell_volume   1039.27424068
_cell_formula_units_Z   1
loop_
 _symmetry_equiv_pos_site_id
 _symmetry_equiv_pos_as_xyz
  1  'x, y, z'
loop_
 _atom_site_type_symbol
 _atom_site_label
 _atom_site_symmetry_multiplicity
 _atom_site_fract_x
 _atom_site_fract_y
 _atom_site_fract_z
 _atom_site_occupancy
  Ca  Ca0  1  0.622709  0.237598  0.371305  1
  Ca  Ca1  1  0.873117  0.120748  0.243363  1
  Ca  Ca2  1  0.126883  0.879252  0.756637  1
  Ca  Ca3  1  0.377291  0.762402  0.628695  1
  Nd  Nd4  1  0.248667  0.623321  0.875483  1
  Nd  Nd5  1  0.627608  0.371557  0.749901  1
  Nd  Nd6  1  0.125952  0.251210  0.881283  1
  Nd  Nd7  1  0.250383  0.121906  0.370408  1
  Nd  Nd8  1  0.874048  0.748790  0.118717  1
  Nd  Nd9  1  0.749617  0.878094  0.629592  1
  Nd  Nd10  1  0.372392  0.628443  0.250099  1
  Nd  Nd11  1  0.751333  0.376679  0.124517  1
  Zr  Zr12  1  0.000000  0.000000  0.500000  1
  Zr  Zr13  1  0.500000  0.000000  0.000000  1
  Zr  Zr14  1  0.000000  0.500000  0.500000  1
  Zr  Zr15  1  0.500000  0.500000  0.500000  1
  V  V16  1  0.500000  0.500000  0.000000  1
  V  V17  1  0.000000  0.000000  0.000000  1
  V  V18  1  0.500000  0.000000  0.500000  1
  Ga  Ga19  1  0.883925  0.635080  0.761305  1
  Ga  Ga20  1  0.623888  0.749531  0.872900  1
  Ga  Ga21  1  0.869471  0.253650  0.628584  1
  Ga  Ga22  1  0.245946  0.869555  0.127358  1
  Ga  Ga23  1  0.253349  0.374471  0.630972  1
  Ga  Ga24  1  0.625672  0.874923  0.249674  1
  Ga  Ga25  1  0.374328  0.125077  0.750326  1
  Ga  Ga26  1  0.754054  0.130445  0.872641  1
  Ga  Ga27  1  0.746651  0.625529  0.369028  1
  Ga  Ga28  1  0.130529  0.746350  0.371416  1
  Ga  Ga29  1  0.000000  0.500000  0.000000  1
  Ga  Ga30  1  0.376112  0.250469  0.127100  1
  Ga  Ga31  1  0.116075  0.364920  0.238695  1
  O  O32  1  0.294784  0.876656  0.981953  1
  O  O33  1  0.418182  0.290876  0.320131  1
  O  O34  1  0.689477  0.487132  0.608385  1
  O  O35  1  0.028873  0.626124  0.710960  1
  O  O36  1  0.472800  0.790384  0.876851  1
  O  O37  1  0.206422  0.519794  0.623571  1
  O  O38  1  0.877859  0.296077  0.481431  1
  O  O39  1  0.021657  0.404026  0.821687  1
  O  O40  1  0.674805  0.203552  0.584417  1
  O  O41  1  0.398637  0.016292  0.318758  1
  O  O42  1  0.623985  0.022657  0.205372  1
  O  O43  1  0.620133  0.595803  0.912475  1
  O  O44  1  0.081846  0.175698  0.200815  1
  O  O45  1  0.404242  0.377592  0.586831  1
  O  O46  1  0.295385  0.415899  0.822538  1
  O  O47  1  0.103785  0.184121  0.479872  1
  O  O48  1  0.883171  0.583951  0.907080  1
  O  O49  1  0.817243  0.899222  0.018053  1
  O  O50  1  0.914403  0.100690  0.623269  1
  O  O51  1  0.200637  0.674813  0.081634  1
  O  O52  1  0.587823  0.877099  0.402631  1
  O  O53  1  0.818705  0.913421  0.290497  1
  O  O54  1  0.523862  0.320432  0.903329  1
  O  O55  1  0.094850  0.912862  0.122396  1
  O  O56  1  0.905150  0.087138  0.877604  1
  O  O57  1  0.476138  0.679568  0.096671  1
  O  O58  1  0.181295  0.086579  0.709503  1
  O  O59  1  0.412177  0.122901  0.597369  1
  O  O60  1  0.799363  0.325187  0.918366  1
  O  O61  1  0.085597  0.899310  0.376731  1
  O  O62  1  0.182757  0.100778  0.981947  1
  O  O63  1  0.116829  0.416049  0.092920  1
  O  O64  1  0.896215  0.815879  0.520128  1
  O  O65  1  0.704615  0.584101  0.177462  1
  O  O66  1  0.595758  0.622408  0.413169  1
  O  O67  1  0.918154  0.824302  0.799185  1
  O  O68  1  0.379867  0.404197  0.087525  1
  O  O69  1  0.376015  0.977343  0.794628  1
  O  O70  1  0.601363  0.983708  0.681242  1
  O  O71  1  0.325195  0.796448  0.415583  1
  O  O72  1  0.978343  0.595974  0.178313  1
  O  O73  1  0.122141  0.703923  0.518569  1
  O  O74  1  0.793578  0.480206  0.376429  1
  O  O75  1  0.527200  0.209616  0.123149  1
  O  O76  1  0.971127  0.373876  0.289040  1
  O  O77  1  0.310523  0.512868  0.391615  1
  O  O78  1  0.581818  0.709124  0.679869  1
  O  O79  1  0.705216  0.123344  0.018047  1
