# generated using pymatgen
data_Ho3Er7(SiBi)4
_symmetry_space_group_name_H-M   'P 1'
_cell_length_a   8.59736800
_cell_length_b   8.59238564
_cell_length_c   7.86963206
_cell_angle_alpha   89.98991329
_cell_angle_beta   89.99781510
_cell_angle_gamma   125.62195274
_symmetry_Int_Tables_number   1
_chemical_formula_structural   Ho3Er7(SiBi)4
_chemical_formula_sum   'Ho3 Er7 Si4 Bi4'
_cell_volume   472.56209268
_cell_formula_units_Z   1
loop_
 _symmetry_equiv_pos_site_id
 _symmetry_equiv_pos_as_xyz
  1  'x, y, z'
loop_
 _atom_site_type_symbol
 _atom_site_label
 _atom_site_symmetry_multiplicity
 _atom_site_fract_x
 _atom_site_fract_y
 _atom_site_fract_z
 _atom_site_occupancy
  Ho  Ho0  1  0.042470  0.286264  0.336046  1
  Ho  Ho1  1  0.957515  0.713790  0.663948  1
  Ho  Ho2  1  0.457535  0.213841  0.836026  1
  Er  Er3  1  0.785803  0.542681  0.163908  1
  Er  Er4  1  0.542651  0.785823  0.163900  1
  Er  Er5  1  0.214174  0.457380  0.836178  1
  Er  Er6  1  0.714118  0.957394  0.663843  1
  Er  Er7  1  0.285850  0.042667  0.336135  1
  Er  Er8  1  0.999854  0.999943  0.000043  1
  Er  Er9  1  0.499995  0.500069  0.499837  1
  Si  Si10  1  0.365013  0.364879  0.134037  1
  Si  Si11  1  0.635059  0.635426  0.866153  1
  Si  Si12  1  0.135110  0.135372  0.634039  1
  Si  Si13  1  0.864649  0.864629  0.365821  1
  Bi  Bi14  1  0.792679  0.207368  0.999854  1
  Bi  Bi15  1  0.207344  0.792347  0.000435  1
  Bi  Bi16  1  0.707144  0.292394  0.499700  1
  Bi  Bi17  1  0.293038  0.707733  0.500097  1
