# generated using pymatgen
data_Nd4InSn7Pd4
_symmetry_space_group_name_H-M   'P 1'
_cell_length_a   10.31303378
_cell_length_b   10.28152507
_cell_length_c   10.28152500
_cell_angle_alpha   153.69894718
_cell_angle_beta   124.41119277
_cell_angle_gamma   62.48875928
_symmetry_Int_Tables_number   1
_chemical_formula_structural   Nd4InSn7Pd4
_chemical_formula_sum   'Nd4 In1 Sn7 Pd4'
_cell_volume   395.52587146
_cell_formula_units_Z   1
loop_
 _symmetry_equiv_pos_site_id
 _symmetry_equiv_pos_as_xyz
  1  'x, y, z'
loop_
 _atom_site_type_symbol
 _atom_site_label
 _atom_site_symmetry_multiplicity
 _atom_site_fract_x
 _atom_site_fract_y
 _atom_site_fract_z
 _atom_site_occupancy
  Nd  Nd0  1  0.779095  0.000412  0.778682  1
  Nd  Nd1  1  0.222621  0.999682  0.222939  1
  Nd  Nd2  1  0.203170  0.204254  0.998915  1
  Nd  Nd3  1  0.796105  0.796433  0.999670  1
  In  In4  1  0.460305  0.803919  0.656385  1
  Sn  Sn5  1  0.417357  0.415488  0.001869  1
  Sn  Sn6  1  0.579811  0.579791  0.000021  1
  Sn  Sn7  1  0.922617  0.421718  0.500899  1
  Sn  Sn8  1  0.079846  0.579890  0.499955  1
  Sn  Sn9  1  0.854302  0.198298  0.656004  1
  Sn  Sn10  1  0.145588  0.801298  0.344290  1
  Sn  Sn11  1  0.538099  0.199688  0.338410  1
  Pd  Pd12  1  0.099558  0.351867  0.747693  1
  Pd  Pd13  1  0.897687  0.647632  0.250055  1
  Pd  Pd14  1  0.608216  0.353337  0.254879  1
  Pd  Pd15  1  0.395625  0.646291  0.749334  1
