# generated using pymatgen
data_Pa3ZnPt5
_symmetry_space_group_name_H-M   'P 1'
_cell_length_a   8.18524956
_cell_length_b   8.18525100
_cell_length_c   13.33097500
_cell_angle_alpha   90.00000000
_cell_angle_beta   90.00000000
_cell_angle_gamma   127.38656639
_symmetry_Int_Tables_number   1
_chemical_formula_structural   Pa3ZnPt5
_chemical_formula_sum   'Pa12 Zn4 Pt20'
_cell_volume   709.66093856
_cell_formula_units_Z   4
loop_
 _symmetry_equiv_pos_site_id
 _symmetry_equiv_pos_as_xyz
  1  'x, y, z'
loop_
 _atom_site_type_symbol
 _atom_site_label
 _atom_site_symmetry_multiplicity
 _atom_site_fract_x
 _atom_site_fract_y
 _atom_site_fract_z
 _atom_site_occupancy
  Pa  Pa0  1  0.931492  0.068508  0.250000  1
  Pa  Pa1  1  0.068508  0.931492  0.750000  1
  Pa  Pa2  1  0.318046  0.681954  0.250000  1
  Pa  Pa3  1  0.681954  0.318046  0.750000  1
  Pa  Pa4  1  0.629773  0.370227  0.462855  1
  Pa  Pa5  1  0.370227  0.629773  0.537145  1
  Pa  Pa6  1  0.629773  0.370227  0.037145  1
  Pa  Pa7  1  0.370227  0.629773  0.962855  1
  Pa  Pa8  1  0.879986  0.120014  0.946549  1
  Pa  Pa9  1  0.120014  0.879986  0.053451  1
  Pa  Pa10  1  0.879986  0.120014  0.553451  1
  Pa  Pa11  1  0.120014  0.879986  0.446549  1
  Zn  Zn12  1  0.722027  0.277973  0.250000  1
  Zn  Zn13  1  0.277973  0.722027  0.750000  1
  Zn  Zn14  1  0.531212  0.468788  0.250000  1
  Zn  Zn15  1  0.468788  0.531212  0.750000  1
  Pt  Pt16  1  0.315896  0.061567  0.250000  1
  Pt  Pt17  1  0.061567  0.315896  0.750000  1
  Pt  Pt18  1  0.684104  0.938433  0.750000  1
  Pt  Pt19  1  0.938433  0.684104  0.250000  1
  Pt  Pt20  1  0.561776  0.998306  0.398185  1
  Pt  Pt21  1  0.998306  0.561776  0.601815  1
  Pt  Pt22  1  0.561776  0.998306  0.101815  1
  Pt  Pt23  1  0.998306  0.561776  0.898185  1
  Pt  Pt24  1  0.438224  0.001694  0.601815  1
  Pt  Pt25  1  0.001694  0.438224  0.398185  1
  Pt  Pt26  1  0.438224  0.001694  0.898185  1
  Pt  Pt27  1  0.001694  0.438224  0.101815  1
  Pt  Pt28  1  0.695695  0.747889  0.396138  1
  Pt  Pt29  1  0.747889  0.695695  0.603862  1
  Pt  Pt30  1  0.695695  0.747889  0.103862  1
  Pt  Pt31  1  0.747889  0.695695  0.896138  1
  Pt  Pt32  1  0.304305  0.252111  0.603862  1
  Pt  Pt33  1  0.252111  0.304305  0.396138  1
  Pt  Pt34  1  0.304305  0.252111  0.896138  1
  Pt  Pt35  1  0.252111  0.304305  0.103862  1
