# generated using pymatgen
data_Ac4Se3O4
_symmetry_space_group_name_H-M   'P 1'
_cell_length_a   4.26900300
_cell_length_b   7.24337440
_cell_length_c   8.73988600
_cell_angle_alpha   90.00000000
_cell_angle_beta   90.00000000
_cell_angle_gamma   72.86144799
_symmetry_Int_Tables_number   1
_chemical_formula_structural   Ac4Se3O4
_chemical_formula_sum   'Ac4 Se3 O4'
_cell_volume   258.25397087
_cell_formula_units_Z   1
loop_
 _symmetry_equiv_pos_site_id
 _symmetry_equiv_pos_as_xyz
  1  'x, y, z'
loop_
 _atom_site_type_symbol
 _atom_site_label
 _atom_site_symmetry_multiplicity
 _atom_site_fract_x
 _atom_site_fract_y
 _atom_site_fract_z
 _atom_site_occupancy
  Ac  Ac0  1  0.999991  0.000019  0.000000  1
  Ac  Ac1  1  0.313670  0.372660  0.238238  1
  Ac  Ac2  1  0.985640  0.028721  0.500000  1
  Ac  Ac3  1  0.313670  0.372660  0.761762  1
  Se  Se4  1  0.684627  0.630747  0.000000  1
  Se  Se5  1  0.643965  0.712072  0.352177  1
  Se  Se6  1  0.643965  0.712072  0.647823  1
  O  O7  1  0.412018  0.175965  0.000000  1
  O  O8  1  0.909197  0.181608  0.244168  1
  O  O9  1  0.387495  0.225010  0.500000  1
  O  O10  1  0.909197  0.181608  0.755833  1
