# generated using pymatgen
data_Th10Bi5PbSe2
_symmetry_space_group_name_H-M   'P 1'
_cell_length_a   9.57129800
_cell_length_b   9.58858721
_cell_length_c   6.71531600
_cell_angle_alpha   90.00000000
_cell_angle_beta   90.00000000
_cell_angle_gamma   120.05977314
_symmetry_Int_Tables_number   1
_chemical_formula_structural   Th10Bi5PbSe2
_chemical_formula_sum   'Th10 Bi5 Pb1 Se2'
_cell_volume   533.40938107
_cell_formula_units_Z   1
loop_
 _symmetry_equiv_pos_site_id
 _symmetry_equiv_pos_as_xyz
  1  'x, y, z'
loop_
 _atom_site_type_symbol
 _atom_site_label
 _atom_site_symmetry_multiplicity
 _atom_site_fract_x
 _atom_site_fract_y
 _atom_site_fract_z
 _atom_site_occupancy
  Th  Th0  1  0.000000  0.737273  0.750000  1
  Th  Th1  1  0.260899  0.260321  0.750000  1
  Th  Th2  1  0.332482  0.666620  0.499590  1
  Th  Th3  1  0.667518  0.334137  0.499590  1
  Th  Th4  1  0.740442  0.739222  0.250000  1
  Th  Th5  1  0.739101  0.999423  0.750000  1
  Th  Th6  1  0.000000  0.262956  0.250000  1
  Th  Th7  1  0.259558  0.998780  0.250000  1
  Th  Th8  1  0.332482  0.666620  0.000410  1
  Th  Th9  1  0.667518  0.334137  0.000410  1
  Bi  Bi10  1  0.610530  0.610727  0.750000  1
  Bi  Bi11  1  0.000000  0.387924  0.750000  1
  Bi  Bi12  1  0.389470  0.000197  0.750000  1
  Bi  Bi13  1  0.611075  0.999549  0.250000  1
  Bi  Bi14  1  0.388925  0.388474  0.250000  1
  Pb  Pb15  1  0.000000  0.611752  0.250000  1
  Se  Se16  1  0.000000  0.000944  0.999865  1
  Se  Se17  1  0.000000  0.000944  0.500135  1
