# generated using pymatgen
data_Th2BIr5Rh
_symmetry_space_group_name_H-M   'P 1'
_cell_length_a   5.98093426
_cell_length_b   5.98093469
_cell_length_c   5.95743700
_cell_angle_alpha   60.12987213
_cell_angle_beta   60.12986974
_cell_angle_gamma   59.74024865
_symmetry_Int_Tables_number   1
_chemical_formula_structural   Th2BIr5Rh
_chemical_formula_sum   'Th2 B1 Ir5 Rh1'
_cell_volume   150.68470226
_cell_formula_units_Z   1
loop_
 _symmetry_equiv_pos_site_id
 _symmetry_equiv_pos_as_xyz
  1  'x, y, z'
loop_
 _atom_site_type_symbol
 _atom_site_label
 _atom_site_symmetry_multiplicity
 _atom_site_fract_x
 _atom_site_fract_y
 _atom_site_fract_z
 _atom_site_occupancy
  Th  Th0  1  0.750041  0.750041  0.749959  1
  Th  Th1  1  0.250041  0.250041  0.249959  1
  B  B2  1  0.000226  0.000226  0.999774  1
  Ir  Ir3  1  0.255907  0.743596  0.256404  1
  Ir  Ir4  1  0.743596  0.255907  0.256404  1
  Ir  Ir5  1  0.257354  0.257354  0.742646  1
  Ir  Ir6  1  0.743596  0.255907  0.744093  1
  Ir  Ir7  1  0.255907  0.743596  0.744093  1
  Rh  Rh8  1  0.743331  0.743331  0.256669  1
