# generated using pymatgen
data_Lu4Sc4B24MoIr3
_symmetry_space_group_name_H-M   'P 1'
_cell_length_a   3.53071600
_cell_length_b   8.96980280
_cell_length_c   11.33994254
_cell_angle_alpha   90.14086021
_cell_angle_beta   90.00000000
_cell_angle_gamma   90.00000000
_symmetry_Int_Tables_number   1
_chemical_formula_structural   Lu4Sc4B24MoIr3
_chemical_formula_sum   'Lu4 Sc4 B24 Mo1 Ir3'
_cell_volume   359.13292469
_cell_formula_units_Z   1
loop_
 _symmetry_equiv_pos_site_id
 _symmetry_equiv_pos_as_xyz
  1  'x, y, z'
loop_
 _atom_site_type_symbol
 _atom_site_label
 _atom_site_symmetry_multiplicity
 _atom_site_fract_x
 _atom_site_fract_y
 _atom_site_fract_z
 _atom_site_occupancy
  Lu  Lu0  1  0.500000  0.316446  0.411000  1
  Lu  Lu1  1  0.500000  0.680671  0.585265  1
  Lu  Lu2  1  0.500000  0.180568  0.916834  1
  Lu  Lu3  1  0.500000  0.821625  0.086750  1
  Sc  Sc4  1  0.500000  0.443622  0.123855  1
  Sc  Sc5  1  0.500000  0.555672  0.875666  1
  Sc  Sc6  1  0.500000  0.054979  0.625130  1
  Sc  Sc7  1  0.500000  0.947461  0.374832  1
  B  B8  1  0.000000  0.100691  0.474302  1
  B  B9  1  0.000000  0.898462  0.528256  1
  B  B10  1  0.000000  0.400815  0.971325  1
  B  B11  1  0.000000  0.602343  0.026977  1
  B  B12  1  0.000000  0.130034  0.319187  1
  B  B13  1  0.000000  0.869230  0.681004  1
  B  B14  1  0.000000  0.370553  0.818911  1
  B  B15  1  0.000000  0.629908  0.182058  1
  B  B16  1  0.000000  0.051940  0.063481  1
  B  B17  1  0.000000  0.945596  0.933610  1
  B  B18  1  0.000000  0.445153  0.564996  1
  B  B19  1  0.000000  0.554104  0.434662  1
  B  B20  1  0.000000  0.481284  0.286474  1
  B  B21  1  0.000000  0.519101  0.714054  1
  B  B22  1  0.000000  0.019124  0.785482  1
  B  B23  1  0.000000  0.977444  0.214738  1
  B  B24  1  0.000000  0.254918  0.078408  1
  B  B25  1  0.000000  0.746987  0.920678  1
  B  B26  1  0.000000  0.246442  0.579139  1
  B  B27  1  0.000000  0.753618  0.421002  1
  B  B28  1  0.000000  0.297656  0.236408  1
  B  B29  1  0.000000  0.704685  0.763850  1
  B  B30  1  0.000000  0.205655  0.736199  1
  B  B31  1  0.000000  0.794100  0.265934  1
  Mo  Mo32  1  0.500000  0.139324  0.180368  1
  Ir  Ir33  1  0.500000  0.859274  0.818678  1
  Ir  Ir34  1  0.500000  0.360179  0.680362  1
  Ir  Ir35  1  0.500000  0.640339  0.320123  1
