# generated using pymatgen
data_Y3Mn(Ni4P3)2
_symmetry_space_group_name_H-M   'P 1'
_cell_length_a   3.77058600
_cell_length_b   10.56934000
_cell_length_c   12.31500200
_cell_angle_alpha   90.00000000
_cell_angle_beta   90.00000000
_cell_angle_gamma   90.00000000
_symmetry_Int_Tables_number   1
_chemical_formula_structural   Y3Mn(Ni4P3)2
_chemical_formula_sum   'Y6 Mn2 Ni16 P12'
_cell_volume   490.78491562
_cell_formula_units_Z   2
loop_
 _symmetry_equiv_pos_site_id
 _symmetry_equiv_pos_as_xyz
  1  'x, y, z'
loop_
 _atom_site_type_symbol
 _atom_site_label
 _atom_site_symmetry_multiplicity
 _atom_site_fract_x
 _atom_site_fract_y
 _atom_site_fract_z
 _atom_site_occupancy
  Y  Y0  1  0.000000  0.500000  0.521199  1
  Y  Y1  1  0.500000  0.000000  0.478801  1
  Y  Y2  1  0.500000  0.816721  0.205396  1
  Y  Y3  1  0.500000  0.183279  0.205396  1
  Y  Y4  1  0.000000  0.683279  0.794604  1
  Y  Y5  1  0.000000  0.316721  0.794604  1
  Mn  Mn6  1  0.500000  0.500000  0.154512  1
  Mn  Mn7  1  0.000000  0.000000  0.845488  1
  Ni  Ni8  1  0.500000  0.500000  0.699934  1
  Ni  Ni9  1  0.000000  0.000000  0.300066  1
  Ni  Ni10  1  0.000000  0.500000  0.983971  1
  Ni  Ni11  1  0.500000  0.000000  0.016029  1
  Ni  Ni12  1  0.500000  0.333155  0.992226  1
  Ni  Ni13  1  0.500000  0.666845  0.992226  1
  Ni  Ni14  1  0.000000  0.166845  0.007774  1
  Ni  Ni15  1  0.000000  0.833155  0.007774  1
  Ni  Ni16  1  0.500000  0.300812  0.428435  1
  Ni  Ni17  1  0.500000  0.699188  0.428435  1
  Ni  Ni18  1  0.000000  0.199188  0.571565  1
  Ni  Ni19  1  0.000000  0.800812  0.571565  1
  Ni  Ni20  1  0.500000  0.879692  0.710587  1
  Ni  Ni21  1  0.500000  0.120308  0.710587  1
  Ni  Ni22  1  0.000000  0.620308  0.289413  1
  Ni  Ni23  1  0.000000  0.379692  0.289413  1
  P  P24  1  0.500000  0.500000  0.877263  1
  P  P25  1  0.000000  0.000000  0.122737  1
  P  P26  1  0.500000  0.500000  0.345051  1
  P  P27  1  0.000000  0.000000  0.654949  1
  P  P28  1  0.500000  0.313267  0.614217  1
  P  P29  1  0.500000  0.686733  0.614217  1
  P  P30  1  0.000000  0.186733  0.385783  1
  P  P31  1  0.000000  0.813267  0.385783  1
  P  P32  1  0.500000  0.847098  0.893187  1
  P  P33  1  0.500000  0.152902  0.893187  1
  P  P34  1  0.000000  0.652902  0.106813  1
  P  P35  1  0.000000  0.347098  0.106813  1
