# generated using pymatgen
data_Li(EuPd)2
_symmetry_space_group_name_H-M   'P 1'
_cell_length_a   5.86365626
_cell_length_b   5.86365746
_cell_length_c   8.01791447
_cell_angle_alpha   78.38492751
_cell_angle_beta   78.38492264
_cell_angle_gamma   59.40194913
_symmetry_Int_Tables_number   1
_chemical_formula_structural   Li(EuPd)2
_chemical_formula_sum   'Li2 Eu4 Pd4'
_cell_volume   230.82820861
_cell_formula_units_Z   2
loop_
 _symmetry_equiv_pos_site_id
 _symmetry_equiv_pos_as_xyz
  1  'x, y, z'
loop_
 _atom_site_type_symbol
 _atom_site_label
 _atom_site_symmetry_multiplicity
 _atom_site_fract_x
 _atom_site_fract_y
 _atom_site_fract_z
 _atom_site_occupancy
  Li  Li0  1  0.126149  0.873851  0.250000  1
  Li  Li1  1  0.873851  0.126149  0.750000  1
  Eu  Eu2  1  0.787802  0.512409  0.348961  1
  Eu  Eu3  1  0.487591  0.212198  0.151039  1
  Eu  Eu4  1  0.212198  0.487591  0.651039  1
  Eu  Eu5  1  0.512409  0.787802  0.848961  1
  Pd  Pd6  1  0.002745  0.737570  0.002544  1
  Pd  Pd7  1  0.262430  0.997255  0.497456  1
  Pd  Pd8  1  0.997255  0.262430  0.997456  1
  Pd  Pd9  1  0.737570  0.002745  0.502544  1
