# generated using pymatgen
data_La3Bi(Pt2O7)2
_symmetry_space_group_name_H-M   'P 1'
_cell_length_a   7.50656253
_cell_length_b   7.50656242
_cell_length_c   7.48964157
_cell_angle_alpha   59.92523692
_cell_angle_beta   59.92523764
_cell_angle_gamma   60.00000869
_symmetry_Int_Tables_number   1
_chemical_formula_structural   La3Bi(Pt2O7)2
_chemical_formula_sum   'La3 Bi1 Pt4 O14'
_cell_volume   298.08256650
_cell_formula_units_Z   1
loop_
 _symmetry_equiv_pos_site_id
 _symmetry_equiv_pos_as_xyz
  1  'x, y, z'
loop_
 _atom_site_type_symbol
 _atom_site_label
 _atom_site_symmetry_multiplicity
 _atom_site_fract_x
 _atom_site_fract_y
 _atom_site_fract_z
 _atom_site_occupancy
  La  La0  1  0.125000  0.625000  0.125000  1
  La  La1  1  0.625000  0.125000  0.125000  1
  La  La2  1  0.125000  0.125000  0.125000  1
  Bi  Bi3  1  0.125000  0.125000  0.625000  1
  Pt  Pt4  1  0.625000  0.625000  0.125000  1
  Pt  Pt5  1  0.625000  0.125000  0.625000  1
  Pt  Pt6  1  0.125000  0.625000  0.625000  1
  Pt  Pt7  1  0.625000  0.625000  0.625000  1
  O  O8  1  0.249624  0.249624  0.251128  1
  O  O9  1  0.000376  0.000376  0.998872  1
  O  O10  1  0.541772  0.957618  0.542993  1
  O  O11  1  0.291925  0.708107  0.291860  1
  O  O12  1  0.541893  0.541893  0.958140  1
  O  O13  1  0.957618  0.541772  0.542993  1
  O  O14  1  0.541893  0.958075  0.958140  1
  O  O15  1  0.957618  0.957618  0.542993  1
  O  O16  1  0.958075  0.541893  0.958140  1
  O  O17  1  0.708107  0.291925  0.291860  1
  O  O18  1  0.292382  0.708228  0.707007  1
  O  O19  1  0.708228  0.292382  0.707007  1
  O  O20  1  0.292382  0.292382  0.707007  1
  O  O21  1  0.708107  0.708107  0.291860  1
