# generated using pymatgen
data_Tb4Ho16(IrRh3)3
_symmetry_space_group_name_H-M   'P 1'
_cell_length_a   10.86841309
_cell_length_b   10.86898642
_cell_length_c   6.35214503
_cell_angle_alpha   89.99228675
_cell_angle_beta   89.99458991
_cell_angle_gamma   89.93073738
_symmetry_Int_Tables_number   1
_chemical_formula_structural   Tb4Ho16(IrRh3)3
_chemical_formula_sum   'Tb4 Ho16 Ir3 Rh9'
_cell_volume   750.36965901
_cell_formula_units_Z   1
loop_
 _symmetry_equiv_pos_site_id
 _symmetry_equiv_pos_as_xyz
  1  'x, y, z'
loop_
 _atom_site_type_symbol
 _atom_site_label
 _atom_site_symmetry_multiplicity
 _atom_site_fract_x
 _atom_site_fract_y
 _atom_site_fract_z
 _atom_site_occupancy
  Tb  Tb0  1  0.290830  0.089910  0.378316  1
  Tb  Tb1  1  0.291016  0.909797  0.878129  1
  Tb  Tb2  1  0.709210  0.088555  0.878046  1
  Tb  Tb3  1  0.708903  0.909908  0.378027  1
  Ho  Ho4  1  0.587523  0.789398  0.879464  1
  Ho  Ho5  1  0.587170  0.209741  0.378111  1
  Ho  Ho6  1  0.412410  0.789686  0.378879  1
  Ho  Ho7  1  0.410760  0.209744  0.879512  1
  Ho  Ho8  1  0.210190  0.412613  0.620493  1
  Ho  Ho9  1  0.209897  0.587419  0.121090  1
  Ho  Ho10  1  0.790658  0.412990  0.121894  1
  Ho  Ho11  1  0.790667  0.589103  0.620414  1
  Ho  Ho12  1  0.910470  0.708687  0.121238  1
  Ho  Ho13  1  0.911962  0.291218  0.621469  1
  Ho  Ho14  1  0.089807  0.708553  0.621450  1
  Ho  Ho15  1  0.089668  0.291555  0.121535  1
  Ho  Ho16  1  0.999798  0.999917  0.500074  1
  Ho  Ho17  1  0.000096  0.000197  0.000341  1
  Ho  Ho18  1  0.499741  0.499901  0.999992  1
  Ho  Ho19  1  0.500100  0.500261  0.500276  1
  Ir  Ir20  1  0.654506  0.653515  0.249774  1
  Ir  Ir21  1  0.346155  0.345844  0.249751  1
  Ir  Ir22  1  0.345443  0.654203  0.749788  1
  Rh  Rh23  1  0.846321  0.154416  0.250410  1
  Rh  Rh24  1  0.846774  0.846602  0.750708  1
  Rh  Rh25  1  0.152686  0.153939  0.750144  1
  Rh  Rh26  1  0.152977  0.846306  0.250435  1
  Rh  Rh27  1  0.654895  0.345383  0.749839  1
  Rh  Rh28  1  0.500255  0.000491  0.122754  1
  Rh  Rh29  1  0.500336  0.000749  0.623377  1
  Rh  Rh30  1  0.999266  0.499655  0.876818  1
  Rh  Rh31  1  0.999513  0.499741  0.377456  1
