# generated using pymatgen
data_Tb3Y5GePd24
_symmetry_space_group_name_H-M   'P 1'
_cell_length_a   8.37144800
_cell_length_b   8.37144800
_cell_length_c   8.37137600
_cell_angle_alpha   89.99997262
_cell_angle_beta   89.99997262
_cell_angle_gamma   89.99975361
_symmetry_Int_Tables_number   1
_chemical_formula_structural   Tb3Y5GePd24
_chemical_formula_sum   'Tb3 Y5 Ge1 Pd24'
_cell_volume   586.67558698
_cell_formula_units_Z   1
loop_
 _symmetry_equiv_pos_site_id
 _symmetry_equiv_pos_as_xyz
  1  'x, y, z'
loop_
 _atom_site_type_symbol
 _atom_site_label
 _atom_site_symmetry_multiplicity
 _atom_site_fract_x
 _atom_site_fract_y
 _atom_site_fract_z
 _atom_site_occupancy
  Tb  Tb0  1  0.253267  0.253267  0.253267  1
  Tb  Tb1  1  0.746733  0.746733  0.746736  1
  Tb  Tb2  1  0.746730  0.746730  0.253268  1
  Y  Y3  1  0.746758  0.253238  0.746758  1
  Y  Y4  1  0.253238  0.253238  0.746766  1
  Y  Y5  1  0.253237  0.746762  0.253242  1
  Y  Y6  1  0.253238  0.746758  0.746758  1
  Y  Y7  1  0.746762  0.253237  0.253242  1
  Ge  Ge8  1  0.000017  0.000017  0.999984  1
  Pd  Pd9  1  0.259936  0.499975  0.000013  1
  Pd  Pd10  1  0.740060  0.500040  0.999999  1
  Pd  Pd11  1  0.000015  0.259936  0.499982  1
  Pd  Pd12  1  0.499975  0.259936  0.000013  1
  Pd  Pd13  1  0.999974  0.740061  0.500003  1
  Pd  Pd14  1  0.500040  0.740060  0.999999  1
  Pd  Pd15  1  0.499997  0.000002  0.259939  1
  Pd  Pd16  1  0.259936  0.000015  0.499982  1
  Pd  Pd17  1  0.500018  0.999987  0.740063  1
  Pd  Pd18  1  0.740061  0.999974  0.500003  1
  Pd  Pd19  1  0.000002  0.499997  0.259939  1
  Pd  Pd20  1  0.999987  0.500018  0.740063  1
  Pd  Pd21  1  0.253445  0.499978  0.499981  1
  Pd  Pd22  1  0.746550  0.500040  0.500001  1
  Pd  Pd23  1  0.499978  0.253445  0.499981  1
  Pd  Pd24  1  0.500040  0.746550  0.500001  1
  Pd  Pd25  1  0.499999  0.499999  0.253450  1
  Pd  Pd26  1  0.500019  0.500019  0.746555  1
  Pd  Pd27  1  0.289067  0.000008  0.000003  1
  Pd  Pd28  1  0.710919  0.999992  0.999997  1
  Pd  Pd29  1  0.000008  0.289067  0.000003  1
  Pd  Pd30  1  0.999992  0.710919  0.999997  1
  Pd  Pd31  1  0.000003  0.000003  0.289081  1
  Pd  Pd32  1  0.999998  0.999998  0.710933  1
