# generated using pymatgen
data_Sc22CdTc7
_symmetry_space_group_name_H-M   'P 1'
_cell_length_a   9.50167416
_cell_length_b   9.65404909
_cell_length_c   9.65413724
_cell_angle_alpha   58.83749039
_cell_angle_beta   60.52480841
_cell_angle_gamma   60.52578576
_symmetry_Int_Tables_number   1
_chemical_formula_structural   Sc22CdTc7
_chemical_formula_sum   'Sc22 Cd1 Tc7'
_cell_volume   625.30477830
_cell_formula_units_Z   1
loop_
 _symmetry_equiv_pos_site_id
 _symmetry_equiv_pos_as_xyz
  1  'x, y, z'
loop_
 _atom_site_type_symbol
 _atom_site_label
 _atom_site_symmetry_multiplicity
 _atom_site_fract_x
 _atom_site_fract_y
 _atom_site_fract_z
 _atom_site_occupancy
  Sc  Sc0  1  0.845997  0.842789  0.842765  1
  Sc  Sc1  1  0.531533  0.157206  0.157208  1
  Sc  Sc2  1  0.167087  0.139957  0.525773  1
  Sc  Sc3  1  0.167076  0.525791  0.139957  1
  Sc  Sc4  1  0.832913  0.860043  0.474227  1
  Sc  Sc5  1  0.832924  0.474209  0.860043  1
  Sc  Sc6  1  0.468467  0.842794  0.842792  1
  Sc  Sc7  1  0.154003  0.157211  0.157235  1
  Sc  Sc8  1  0.195357  0.803779  0.196242  1
  Sc  Sc9  1  0.198152  0.801876  0.801837  1
  Sc  Sc10  1  0.801848  0.198124  0.198163  1
  Sc  Sc11  1  0.804634  0.803779  0.196244  1
  Sc  Sc12  1  0.195366  0.196221  0.803756  1
  Sc  Sc13  1  0.804643  0.196221  0.803758  1
  Sc  Sc14  1  0.399793  0.376129  0.376166  1
  Sc  Sc15  1  0.152123  0.623855  0.623840  1
  Sc  Sc16  1  0.612922  0.149340  0.624805  1
  Sc  Sc17  1  0.612932  0.624799  0.149339  1
  Sc  Sc18  1  0.387078  0.850660  0.375195  1
  Sc  Sc19  1  0.387068  0.375201  0.850661  1
  Sc  Sc20  1  0.847877  0.376145  0.376160  1
  Sc  Sc21  1  0.600207  0.623871  0.623834  1
  Cd  Cd22  1  0.000000  0.500000  0.500000  1
  Tc  Tc23  1  0.500000  0.500000  0.000000  1
  Tc  Tc24  1  0.000000  0.000000  0.500000  1
  Tc  Tc25  1  0.500000  0.000000  0.500000  1
  Tc  Tc26  1  0.500000  0.000000  0.000000  1
  Tc  Tc27  1  0.000000  0.500000  0.000000  1
  Tc  Tc28  1  0.500000  0.500000  0.500000  1
  Tc  Tc29  1  0.000000  0.000000  0.000000  1
