# generated using pymatgen
data_DyHo3Al18(IrPt)3
_symmetry_space_group_name_H-M   'P 1'
_cell_length_a   7.58683744
_cell_length_b   7.58777623
_cell_length_c   9.41574326
_cell_angle_alpha   89.98646099
_cell_angle_beta   89.98658711
_cell_angle_gamma   119.59761435
_symmetry_Int_Tables_number   1
_chemical_formula_structural   DyHo3Al18(IrPt)3
_chemical_formula_sum   'Dy1 Ho3 Al18 Ir3 Pt3'
_cell_volume   471.31056995
_cell_formula_units_Z   1
loop_
 _symmetry_equiv_pos_site_id
 _symmetry_equiv_pos_as_xyz
  1  'x, y, z'
loop_
 _atom_site_type_symbol
 _atom_site_label
 _atom_site_symmetry_multiplicity
 _atom_site_fract_x
 _atom_site_fract_y
 _atom_site_fract_z
 _atom_site_occupancy
  Dy  Dy0  1  0.995417  0.671326  0.250473  1
  Ho  Ho1  1  0.005056  0.329023  0.749587  1
  Ho  Ho2  1  0.670959  0.994895  0.250423  1
  Ho  Ho3  1  0.328587  0.004630  0.749470  1
  Al  Al4  1  0.127170  0.128064  0.250457  1
  Al  Al5  1  0.872140  0.873005  0.749541  1
  Al  Al6  1  0.999835  0.331730  0.076689  1
  Al  Al7  1  0.999836  0.668527  0.922202  1
  Al  Al8  1  0.997167  0.664488  0.576050  1
  Al  Al9  1  0.335633  0.003018  0.424487  1
  Al  Al10  1  0.996472  0.331405  0.424577  1
  Al  Al11  1  0.668389  0.003558  0.575750  1
  Al  Al12  1  0.668074  0.000252  0.922988  1
  Al  Al13  1  0.331655  0.000403  0.077238  1
  Al  Al14  1  0.332441  0.329136  0.553045  1
  Al  Al15  1  0.670701  0.667497  0.447542  1
  Al  Al16  1  0.669752  0.669969  0.055491  1
  Al  Al17  1  0.329999  0.330082  0.943932  1
  Al  Al18  1  0.340949  0.546607  0.250474  1
  Al  Al19  1  0.658617  0.451136  0.747473  1
  Al  Al20  1  0.548578  0.341077  0.252569  1
  Al  Al21  1  0.453349  0.659314  0.749530  1
  Ir  Ir22  1  0.672000  0.327858  0.500133  1
  Ir  Ir23  1  0.999845  0.000296  0.999858  1
  Ir  Ir24  1  0.000380  0.999758  0.500134  1
  Pt  Pt25  1  0.672197  0.327766  0.999908  1
  Pt  Pt26  1  0.327314  0.672687  0.999910  1
  Pt  Pt27  1  0.327485  0.672495  0.500072  1
