# generated using pymatgen
data_Rb2Ho4Cu4S9
_symmetry_space_group_name_H-M   'P 1'
_cell_length_a   3.97079865
_cell_length_b   7.23161219
_cell_length_c   15.25819162
_cell_angle_alpha   94.00137681
_cell_angle_beta   97.47653520
_cell_angle_gamma   105.93486774
_symmetry_Int_Tables_number   1
_chemical_formula_structural   Rb2Ho4Cu4S9
_chemical_formula_sum   'Rb2 Ho4 Cu4 S9'
_cell_volume   415.15983157
_cell_formula_units_Z   1
loop_
 _symmetry_equiv_pos_site_id
 _symmetry_equiv_pos_as_xyz
  1  'x, y, z'
loop_
 _atom_site_type_symbol
 _atom_site_label
 _atom_site_symmetry_multiplicity
 _atom_site_fract_x
 _atom_site_fract_y
 _atom_site_fract_z
 _atom_site_occupancy
  Rb  Rb0  1  0.258228  0.286840  0.229616  1
  Rb  Rb1  1  0.741771  0.713159  0.770384  1
  Ho  Ho2  1  0.400499  0.746428  0.054569  1
  Ho  Ho3  1  0.628821  0.861219  0.396423  1
  Ho  Ho4  1  0.371178  0.138781  0.603577  1
  Ho  Ho5  1  0.599502  0.253573  0.945430  1
  Cu  Cu6  1  0.981421  0.733555  0.229285  1
  Cu  Cu7  1  0.891484  0.321651  0.461314  1
  Cu  Cu8  1  0.108516  0.678349  0.538686  1
  Cu  Cu9  1  0.018579  0.266444  0.770715  1
  S  S10  1  0.000000  0.000000  0.000000  1
  S  S11  1  0.805282  0.511028  0.099534  1
  S  S12  1  0.566216  0.909529  0.222904  1
  S  S13  1  0.985165  0.594232  0.376096  1
  S  S14  1  0.284882  0.144183  0.425581  1
  S  S15  1  0.715117  0.855816  0.574419  1
  S  S16  1  0.014834  0.405767  0.623903  1
  S  S17  1  0.433783  0.090470  0.777097  1
  S  S18  1  0.194717  0.488971  0.900466  1
