# generated using pymatgen
data_Nd9Y(TmIn10)2
_symmetry_space_group_name_H-M   'P 1'
_cell_length_a   6.68559004
_cell_length_b   10.56222400
_cell_length_c   12.47361800
_cell_angle_alpha   90.00000000
_cell_angle_beta   89.95398530
_cell_angle_gamma   90.00000000
_symmetry_Int_Tables_number   1
_chemical_formula_structural   Nd9Y(TmIn10)2
_chemical_formula_sum   'Nd9 Y1 Tm2 In20'
_cell_volume   880.82050396
_cell_formula_units_Z   1
loop_
 _symmetry_equiv_pos_site_id
 _symmetry_equiv_pos_as_xyz
  1  'x, y, z'
loop_
 _atom_site_type_symbol
 _atom_site_label
 _atom_site_symmetry_multiplicity
 _atom_site_fract_x
 _atom_site_fract_y
 _atom_site_fract_z
 _atom_site_occupancy
  Nd  Nd0  1  0.349970  0.750000  0.059757  1
  Nd  Nd1  1  0.887698  0.490227  0.143629  1
  Nd  Nd2  1  0.612537  0.011415  0.643045  1
  Nd  Nd3  1  0.109992  0.991259  0.855445  1
  Nd  Nd4  1  0.389656  0.509324  0.356215  1
  Nd  Nd5  1  0.109992  0.508741  0.855445  1
  Nd  Nd6  1  0.389656  0.990676  0.356215  1
  Nd  Nd7  1  0.887698  0.009773  0.143629  1
  Nd  Nd8  1  0.612537  0.488585  0.643045  1
  Y  Y9  1  0.150416  0.750000  0.558791  1
  Tm  Tm10  1  0.650057  0.250000  0.940120  1
  Tm  Tm11  1  0.849436  0.250000  0.440855  1
  In  In12  1  0.617406  0.750000  0.505518  1
  In  In13  1  0.876590  0.750000  0.002340  1
  In  In14  1  0.385014  0.250000  0.496462  1
  In  In15  1  0.112822  0.250000  0.996296  1
  In  In16  1  0.659737  0.750000  0.246189  1
  In  In17  1  0.846302  0.750000  0.743291  1
  In  In18  1  0.347171  0.250000  0.755672  1
  In  In19  1  0.152961  0.250000  0.256347  1
  In  In20  1  0.111939  0.750000  0.287715  1
  In  In21  1  0.389167  0.750000  0.782364  1
  In  In22  1  0.889683  0.250000  0.716005  1
  In  In23  1  0.612873  0.250000  0.216865  1
  In  In24  1  0.874476  0.544232  0.404662  1
  In  In25  1  0.624571  0.956757  0.902516  1
  In  In26  1  0.126535  0.045230  0.595912  1
  In  In27  1  0.373763  0.451267  0.096281  1
  In  In28  1  0.126535  0.454770  0.595912  1
  In  In29  1  0.373763  0.048733  0.096281  1
  In  In30  1  0.874476  0.955768  0.404662  1
  In  In31  1  0.624571  0.543243  0.902516  1
