# generated using pymatgen
data_Dy8Co3Si12Rh
_symmetry_space_group_name_H-M   'P 1'
_cell_length_a   8.03924200
_cell_length_b   8.03924377
_cell_length_c   7.93988400
_cell_angle_alpha   89.99994649
_cell_angle_beta   90.00000000
_cell_angle_gamma   119.99996200
_symmetry_Int_Tables_number   1
_chemical_formula_structural   Dy8Co3Si12Rh
_chemical_formula_sum   'Dy8 Co3 Si12 Rh1'
_cell_volume   444.40123332
_cell_formula_units_Z   1
loop_
 _symmetry_equiv_pos_site_id
 _symmetry_equiv_pos_as_xyz
  1  'x, y, z'
loop_
 _atom_site_type_symbol
 _atom_site_label
 _atom_site_symmetry_multiplicity
 _atom_site_fract_x
 _atom_site_fract_y
 _atom_site_fract_z
 _atom_site_occupancy
  Dy  Dy0  1  0.000000  0.000000  0.248870  1
  Dy  Dy1  1  0.000000  0.000000  0.751358  1
  Dy  Dy2  1  0.011853  0.505927  0.248517  1
  Dy  Dy3  1  0.494073  0.505926  0.248516  1
  Dy  Dy4  1  0.503697  0.007393  0.750041  1
  Dy  Dy5  1  0.494073  0.988147  0.248516  1
  Dy  Dy6  1  0.503697  0.496304  0.750040  1
  Dy  Dy7  1  0.992607  0.496303  0.750041  1
  Co  Co8  1  0.333333  0.666667  0.970899  1
  Co  Co9  1  0.333333  0.666667  0.529208  1
  Co  Co10  1  0.666667  0.333334  0.028885  1
  Si  Si11  1  0.171184  0.342369  0.000382  1
  Si  Si12  1  0.657631  0.828816  0.000381  1
  Si  Si13  1  0.171977  0.343953  0.498844  1
  Si  Si14  1  0.343639  0.171819  0.999195  1
  Si  Si15  1  0.171184  0.828815  0.000382  1
  Si  Si16  1  0.656047  0.828023  0.498843  1
  Si  Si17  1  0.828180  0.656361  0.999195  1
  Si  Si18  1  0.332114  0.166057  0.502324  1
  Si  Si19  1  0.171977  0.828023  0.498844  1
  Si  Si20  1  0.833943  0.667886  0.502325  1
  Si  Si21  1  0.828180  0.171819  0.999195  1
  Si  Si22  1  0.833943  0.166057  0.502325  1
  Rh  Rh23  1  0.666667  0.333333  0.472873  1
