# generated using pymatgen
data_Zr6TiNbAl14SiIr7
_symmetry_space_group_name_H-M   'P 1'
_cell_length_a   8.81351501
_cell_length_b   8.81351417
_cell_length_c   8.81351500
_cell_angle_alpha   120.14670421
_cell_angle_beta   119.78860253
_cell_angle_gamma   90.05631327
_symmetry_Int_Tables_number   1
_chemical_formula_structural   Zr6TiNbAl14SiIr7
_chemical_formula_sum   'Zr6 Ti1 Nb1 Al14 Si1 Ir7'
_cell_volume   484.32754778
_cell_formula_units_Z   1
loop_
 _symmetry_equiv_pos_site_id
 _symmetry_equiv_pos_as_xyz
  1  'x, y, z'
loop_
 _atom_site_type_symbol
 _atom_site_label
 _atom_site_symmetry_multiplicity
 _atom_site_fract_x
 _atom_site_fract_y
 _atom_site_fract_z
 _atom_site_occupancy
  Zr  Zr0  1  0.800012  0.295540  0.088506  1
  Zr  Zr1  1  0.207033  0.295540  0.495527  1
  Zr  Zr2  1  0.202952  0.701898  0.498946  1
  Zr  Zr3  1  0.208110  0.711045  0.912532  1
  Zr  Zr4  1  0.798512  0.711045  0.502933  1
  Zr  Zr5  1  0.790873  0.290063  0.499190  1
  Ti  Ti6  1  0.380677  0.636957  0.256279  1
  Nb  Nb7  1  0.379542  0.123915  0.744372  1
  Al  Al8  1  0.163607  0.336098  0.172490  1
  Al  Al9  1  0.161663  0.989508  0.827843  1
  Al  Al10  1  0.156497  0.339882  0.820580  1
  Al  Al11  1  0.519301  0.339882  0.183386  1
  Al  Al12  1  0.836136  0.662089  0.825954  1
  Al  Al13  1  0.835813  0.009561  0.173749  1
  Al  Al14  1  0.834848  0.663421  0.172109  1
  Al  Al15  1  0.491312  0.663421  0.828573  1
  Al  Al16  1  0.380899  0.120114  0.260232  1
  Al  Al17  1  0.859883  0.120114  0.739214  1
  Al  Al18  1  0.619957  0.878256  0.258300  1
  Al  Al19  1  0.621089  0.361560  0.740471  1
  Al  Al20  1  0.620911  0.877160  0.740183  1
  Al  Al21  1  0.136976  0.877160  0.256251  1
  Si  Si22  1  0.997078  0.497541  0.500463  1
  Ir  Ir23  1  0.001924  0.000171  0.501580  1
  Ir  Ir24  1  0.498590  0.000171  0.998246  1
  Ir  Ir25  1  0.497244  0.498455  0.001210  1
  Ir  Ir26  1  0.497967  0.501194  0.498744  1
  Ir  Ir27  1  0.002450  0.501194  0.003228  1
  Ir  Ir28  1  0.000504  0.001207  0.000703  1
  Ir  Ir29  1  0.497634  0.995838  0.498204  1
