# generated using pymatgen
data_Er20Si15Pd
_symmetry_space_group_name_H-M   'P 1'
_cell_length_a   7.37874757
_cell_length_b   7.61033569
_cell_length_c   14.45593141
_cell_angle_alpha   90.25275305
_cell_angle_beta   90.47586173
_cell_angle_gamma   90.17561816
_symmetry_Int_Tables_number   1
_chemical_formula_structural   Er20Si15Pd
_chemical_formula_sum   'Er20 Si15 Pd1'
_cell_volume   811.72935567
_cell_formula_units_Z   1
loop_
 _symmetry_equiv_pos_site_id
 _symmetry_equiv_pos_as_xyz
  1  'x, y, z'
loop_
 _atom_site_type_symbol
 _atom_site_label
 _atom_site_symmetry_multiplicity
 _atom_site_fract_x
 _atom_site_fract_y
 _atom_site_fract_z
 _atom_site_occupancy
  Er  Er0  1  0.026387  0.817398  0.600184  1
  Er  Er1  1  0.525645  0.680068  0.599242  1
  Er  Er2  1  0.319261  0.820308  0.121870  1
  Er  Er3  1  0.816486  0.679046  0.122539  1
  Er  Er4  1  0.853088  0.506438  0.749419  1
  Er  Er5  1  0.470358  0.317425  0.099010  1
  Er  Er6  1  0.029274  0.817021  0.901286  1
  Er  Er7  1  0.470817  0.319990  0.400786  1
  Er  Er8  1  0.651597  0.011386  0.254166  1
  Er  Er9  1  0.531245  0.682721  0.900081  1
  Er  Er10  1  0.681634  0.178854  0.877393  1
  Er  Er11  1  0.178760  0.321412  0.623760  1
  Er  Er12  1  0.184099  0.323018  0.876407  1
  Er  Er13  1  0.819850  0.682732  0.379598  1
  Er  Er14  1  0.319950  0.825179  0.377486  1
  Er  Er15  1  0.351820  0.989971  0.747705  1
  Er  Er16  1  0.682412  0.168998  0.620977  1
  Er  Er17  1  0.147796  0.490408  0.250890  1
  Er  Er18  1  0.969966  0.182636  0.098464  1
  Er  Er19  1  0.973994  0.180069  0.400093  1
  Si  Si20  1  0.233763  0.628788  0.750945  1
  Si  Si21  1  0.342124  0.028573  0.541630  1
  Si  Si22  1  0.024500  0.894151  0.247215  1
  Si  Si23  1  0.734207  0.868858  0.752142  1
  Si  Si24  1  0.267753  0.128856  0.246711  1
  Si  Si25  1  0.850251  0.470899  0.541721  1
  Si  Si26  1  0.481570  0.392818  0.749483  1
  Si  Si27  1  0.148173  0.530650  0.460772  1
  Si  Si28  1  0.145932  0.528168  0.040708  1
  Si  Si29  1  0.978501  0.104385  0.752195  1
  Si  Si30  1  0.767129  0.374650  0.249137  1
  Si  Si31  1  0.352303  0.029808  0.959458  1
  Si  Si32  1  0.855240  0.471397  0.958773  1
  Si  Si33  1  0.645483  0.971298  0.039835  1
  Si  Si34  1  0.521053  0.606253  0.248536  1
  Pd  Pd35  1  0.647579  0.975369  0.459380  1
