# generated using pymatgen
data_YGa2Pd3
_symmetry_space_group_name_H-M   'P 1'
_cell_length_a   4.41839800
_cell_length_b   9.53512700
_cell_length_c   9.94798900
_cell_angle_alpha   90.00000000
_cell_angle_beta   90.00000000
_cell_angle_gamma   90.00000000
_symmetry_Int_Tables_number   1
_chemical_formula_structural   YGa2Pd3
_chemical_formula_sum   'Y4 Ga8 Pd12'
_cell_volume   419.10863796
_cell_formula_units_Z   4
loop_
 _symmetry_equiv_pos_site_id
 _symmetry_equiv_pos_as_xyz
  1  'x, y, z'
loop_
 _atom_site_type_symbol
 _atom_site_label
 _atom_site_symmetry_multiplicity
 _atom_site_fract_x
 _atom_site_fract_y
 _atom_site_fract_z
 _atom_site_occupancy
  Y  Y0  1  0.250000  0.442954  0.740076  1
  Y  Y1  1  0.250000  0.057046  0.240076  1
  Y  Y2  1  0.750000  0.557046  0.259924  1
  Y  Y3  1  0.750000  0.942954  0.759924  1
  Ga  Ga4  1  0.250000  0.884179  0.513440  1
  Ga  Ga5  1  0.250000  0.615821  0.013440  1
  Ga  Ga6  1  0.750000  0.115821  0.486560  1
  Ga  Ga7  1  0.750000  0.384179  0.986560  1
  Ga  Ga8  1  0.250000  0.150076  0.889785  1
  Ga  Ga9  1  0.250000  0.349924  0.389785  1
  Ga  Ga10  1  0.750000  0.849924  0.110215  1
  Ga  Ga11  1  0.750000  0.650076  0.610215  1
  Pd  Pd12  1  0.250000  0.141018  0.611866  1
  Pd  Pd13  1  0.250000  0.358982  0.111866  1
  Pd  Pd14  1  0.750000  0.858982  0.388134  1
  Pd  Pd15  1  0.750000  0.641018  0.888134  1
  Pd  Pd16  1  0.250000  0.742887  0.732449  1
  Pd  Pd17  1  0.250000  0.757113  0.232449  1
  Pd  Pd18  1  0.750000  0.257113  0.267551  1
  Pd  Pd19  1  0.750000  0.242887  0.767551  1
  Pd  Pd20  1  0.250000  0.892046  0.974842  1
  Pd  Pd21  1  0.250000  0.607954  0.474842  1
  Pd  Pd22  1  0.750000  0.107954  0.025158  1
  Pd  Pd23  1  0.750000  0.392046  0.525158  1
