# generated using pymatgen
data_Tb10Lu2Co4SnRh
_symmetry_space_group_name_H-M   'P 1'
_cell_length_a   8.29514950
_cell_length_b   8.30996518
_cell_length_c   8.29514849
_cell_angle_alpha   110.96748416
_cell_angle_beta   110.48315806
_cell_angle_gamma   106.92208038
_symmetry_Int_Tables_number   1
_chemical_formula_structural   Tb10Lu2Co4SnRh
_chemical_formula_sum   'Tb10 Lu2 Co4 Sn1 Rh1'
_cell_volume   439.91133211
_cell_formula_units_Z   1
loop_
 _symmetry_equiv_pos_site_id
 _symmetry_equiv_pos_as_xyz
  1  'x, y, z'
loop_
 _atom_site_type_symbol
 _atom_site_label
 _atom_site_symmetry_multiplicity
 _atom_site_fract_x
 _atom_site_fract_y
 _atom_site_fract_z
 _atom_site_occupancy
  Tb  Tb0  1  0.408186  0.211630  0.192835  1
  Tb  Tb1  1  0.591814  0.788370  0.807165  1
  Tb  Tb2  1  0.018794  0.211630  0.803444  1
  Tb  Tb3  1  0.981206  0.788370  0.196556  1
  Tb  Tb4  1  0.183123  0.288429  0.476139  1
  Tb  Tb5  1  0.816877  0.711571  0.523861  1
  Tb  Tb6  1  0.187709  0.711571  0.894693  1
  Tb  Tb7  1  0.812291  0.288429  0.105307  1
  Tb  Tb8  1  0.314977  0.622808  0.307831  1
  Tb  Tb9  1  0.685023  0.377192  0.692169  1
  Lu  Lu10  1  0.316334  0.006780  0.690446  1
  Lu  Lu11  1  0.683666  0.993220  0.309554  1
  Co  Co12  1  0.376708  0.000000  0.376708  1
  Co  Co13  1  0.623292  0.000000  0.623292  1
  Co  Co14  1  0.112281  0.614465  0.502184  1
  Co  Co15  1  0.887719  0.385535  0.497816  1
  Sn  Sn16  1  0.500000  0.500000  0.000000  1
  Rh  Rh17  1  0.000000  0.000000  0.000000  1
