# generated using pymatgen
data_Tm16Cd4Ni3Os
_symmetry_space_group_name_H-M   'P 1'
_cell_length_a   9.48760498
_cell_length_b   9.48760600
_cell_length_c   9.48760572
_cell_angle_alpha   59.43339563
_cell_angle_beta   59.43338940
_cell_angle_gamma   59.43339553
_symmetry_Int_Tables_number   1
_chemical_formula_structural   Tm16Cd4Ni3Os
_chemical_formula_sum   'Tm16 Cd4 Ni3 Os1'
_cell_volume   596.10096569
_cell_formula_units_Z   1
loop_
 _symmetry_equiv_pos_site_id
 _symmetry_equiv_pos_as_xyz
  1  'x, y, z'
loop_
 _atom_site_type_symbol
 _atom_site_label
 _atom_site_symmetry_multiplicity
 _atom_site_fract_x
 _atom_site_fract_y
 _atom_site_fract_z
 _atom_site_occupancy
  Tm  Tm0  1  0.347062  0.347062  0.347062  1
  Tm  Tm1  1  0.351584  0.351584  0.953587  1
  Tm  Tm2  1  0.351584  0.953587  0.351584  1
  Tm  Tm3  1  0.953587  0.351584  0.351584  1
  Tm  Tm4  1  0.809854  0.187929  0.187929  1
  Tm  Tm5  1  0.185948  0.811676  0.811676  1
  Tm  Tm6  1  0.187929  0.809854  0.187929  1
  Tm  Tm7  1  0.811676  0.185948  0.811676  1
  Tm  Tm8  1  0.187929  0.187929  0.809854  1
  Tm  Tm9  1  0.811676  0.811676  0.185948  1
  Tm  Tm10  1  0.935145  0.566138  0.566138  1
  Tm  Tm11  1  0.557881  0.939204  0.939204  1
  Tm  Tm12  1  0.566138  0.935145  0.566138  1
  Tm  Tm13  1  0.939204  0.557881  0.939204  1
  Tm  Tm14  1  0.566138  0.566138  0.935145  1
  Tm  Tm15  1  0.939204  0.939204  0.557881  1
  Cd  Cd16  1  0.580336  0.580336  0.580336  1
  Cd  Cd17  1  0.580028  0.580028  0.255364  1
  Cd  Cd18  1  0.580028  0.255364  0.580028  1
  Cd  Cd19  1  0.255364  0.580028  0.580028  1
  Ni  Ni20  1  0.141572  0.141572  0.575102  1
  Ni  Ni21  1  0.141572  0.575102  0.141572  1
  Ni  Ni22  1  0.575102  0.141572  0.141572  1
  Os  Os23  1  0.143462  0.143462  0.143462  1
