# generated using pymatgen
data_Sc4Si3Sn3Ir7
_symmetry_space_group_name_H-M   'P 1'
_cell_length_a   7.18345707
_cell_length_b   7.18345768
_cell_length_c   7.29903200
_cell_angle_alpha   109.79746943
_cell_angle_beta   109.79747120
_cell_angle_gamma   109.14300720
_symmetry_Int_Tables_number   1
_chemical_formula_structural   Sc4Si3Sn3Ir7
_chemical_formula_sum   'Sc4 Si3 Sn3 Ir7'
_cell_volume   288.76592294
_cell_formula_units_Z   1
loop_
 _symmetry_equiv_pos_site_id
 _symmetry_equiv_pos_as_xyz
  1  'x, y, z'
loop_
 _atom_site_type_symbol
 _atom_site_label
 _atom_site_symmetry_multiplicity
 _atom_site_fract_x
 _atom_site_fract_y
 _atom_site_fract_z
 _atom_site_occupancy
  Sc  Sc0  1  0.000000  0.000000  0.558526  1
  Sc  Sc1  1  0.000000  0.468423  0.985616  1
  Sc  Sc2  1  0.468423  0.000000  0.985616  1
  Sc  Sc3  1  0.531577  0.531577  0.517193  1
  Si  Si4  1  0.334048  0.334048  0.004419  1
  Si  Si5  1  0.665952  0.000000  0.670371  1
  Si  Si6  1  0.000000  0.665952  0.670371  1
  Sn  Sn7  1  0.712463  0.712463  0.013628  1
  Sn  Sn8  1  0.287537  0.000000  0.301165  1
  Sn  Sn9  1  0.000000  0.287537  0.301165  1
  Ir  Ir10  1  0.750485  0.252545  0.509592  1
  Ir  Ir11  1  0.747455  0.497940  0.257046  1
  Ir  Ir12  1  0.502060  0.249515  0.759106  1
  Ir  Ir13  1  0.249515  0.502060  0.759106  1
  Ir  Ir14  1  0.252545  0.750485  0.509592  1
  Ir  Ir15  1  0.497940  0.747455  0.257046  1
  Ir  Ir16  1  0.000000  0.000000  0.940443  1
