# generated using pymatgen
data_Dy16Cd4Ni3Ru
_symmetry_space_group_name_H-M   'P 1'
_cell_length_a   9.56669476
_cell_length_b   9.56669467
_cell_length_c   9.56669448
_cell_angle_alpha   59.65104000
_cell_angle_beta   59.65104058
_cell_angle_gamma   59.65103848
_symmetry_Int_Tables_number   1
_chemical_formula_structural   Dy16Cd4Ni3Ru
_chemical_formula_sum   'Dy16 Cd4 Ni3 Ru1'
_cell_volume   614.20521479
_cell_formula_units_Z   1
loop_
 _symmetry_equiv_pos_site_id
 _symmetry_equiv_pos_as_xyz
  1  'x, y, z'
loop_
 _atom_site_type_symbol
 _atom_site_label
 _atom_site_symmetry_multiplicity
 _atom_site_fract_x
 _atom_site_fract_y
 _atom_site_fract_z
 _atom_site_occupancy
  Dy  Dy0  1  0.597561  0.597561  0.597561  1
  Dy  Dy1  1  0.600833  0.600833  0.202894  1
  Dy  Dy2  1  0.600833  0.202894  0.600833  1
  Dy  Dy3  1  0.202894  0.600833  0.600833  1
  Dy  Dy4  1  0.059944  0.438521  0.438521  1
  Dy  Dy5  1  0.437338  0.061504  0.061504  1
  Dy  Dy6  1  0.438521  0.059944  0.438521  1
  Dy  Dy7  1  0.061504  0.437338  0.061504  1
  Dy  Dy8  1  0.438521  0.438521  0.059944  1
  Dy  Dy9  1  0.061504  0.061504  0.437338  1
  Dy  Dy10  1  0.186178  0.815721  0.815721  1
  Dy  Dy11  1  0.809639  0.187616  0.187616  1
  Dy  Dy12  1  0.815721  0.186178  0.815721  1
  Dy  Dy13  1  0.187616  0.809639  0.187616  1
  Dy  Dy14  1  0.815721  0.815721  0.186178  1
  Dy  Dy15  1  0.187616  0.187616  0.809639  1
  Cd  Cd16  1  0.830214  0.830214  0.830214  1
  Cd  Cd17  1  0.830299  0.830299  0.505684  1
  Cd  Cd18  1  0.830299  0.505684  0.830299  1
  Cd  Cd19  1  0.505684  0.830299  0.830299  1
  Ni  Ni20  1  0.392319  0.392319  0.823944  1
  Ni  Ni21  1  0.392319  0.823944  0.392319  1
  Ni  Ni22  1  0.823944  0.392319  0.392319  1
  Ru  Ru23  1  0.392980  0.392980  0.392980  1
