# generated using pymatgen
data_Rb5Ag(IO)2
_symmetry_space_group_name_H-M   'P 1'
_cell_length_a   5.89576900
_cell_length_b   7.64746200
_cell_length_c   14.83837900
_cell_angle_alpha   90.00000000
_cell_angle_beta   90.00000000
_cell_angle_gamma   90.00000000
_symmetry_Int_Tables_number   1
_chemical_formula_structural   Rb5Ag(IO)2
_chemical_formula_sum   'Rb10 Ag2 I4 O4'
_cell_volume   669.02792661
_cell_formula_units_Z   2
loop_
 _symmetry_equiv_pos_site_id
 _symmetry_equiv_pos_as_xyz
  1  'x, y, z'
loop_
 _atom_site_type_symbol
 _atom_site_label
 _atom_site_symmetry_multiplicity
 _atom_site_fract_x
 _atom_site_fract_y
 _atom_site_fract_z
 _atom_site_occupancy
  Rb  Rb0  1  0.500000  0.329737  0.601404  1
  Rb  Rb1  1  0.500000  0.170263  0.101404  1
  Rb  Rb2  1  0.000000  0.600465  0.738192  1
  Rb  Rb3  1  0.000000  0.500000  0.000000  1
  Rb  Rb4  1  0.500000  0.670263  0.398596  1
  Rb  Rb5  1  0.500000  0.829737  0.898596  1
  Rb  Rb6  1  0.000000  0.899535  0.238192  1
  Rb  Rb7  1  0.000000  0.399535  0.261808  1
  Rb  Rb8  1  0.000000  0.100465  0.761808  1
  Rb  Rb9  1  0.000000  0.000000  0.500000  1
  Ag  Ag10  1  0.000000  0.500000  0.500000  1
  Ag  Ag11  1  0.000000  0.000000  0.000000  1
  I  I12  1  0.500000  0.650780  0.145339  1
  I  I13  1  0.500000  0.349220  0.854661  1
  I  I14  1  0.500000  0.150780  0.354661  1
  I  I15  1  0.500000  0.849220  0.645339  1
  O  O16  1  0.000000  0.675034  0.393316  1
  O  O17  1  0.000000  0.824966  0.893316  1
  O  O18  1  0.000000  0.175034  0.106684  1
  O  O19  1  0.000000  0.324966  0.606684  1
