# generated using pymatgen
data_Pr3ZnIn3Ir2
_symmetry_space_group_name_H-M   'P 1'
_cell_length_a   7.78242800
_cell_length_b   7.78242906
_cell_length_c   4.08321900
_cell_angle_alpha   90.00000000
_cell_angle_beta   90.00000000
_cell_angle_gamma   120.00000399
_symmetry_Int_Tables_number   1
_chemical_formula_structural   Pr3ZnIn3Ir2
_chemical_formula_sum   'Pr3 Zn1 In3 Ir2'
_cell_volume   214.17243284
_cell_formula_units_Z   1
loop_
 _symmetry_equiv_pos_site_id
 _symmetry_equiv_pos_as_xyz
  1  'x, y, z'
loop_
 _atom_site_type_symbol
 _atom_site_label
 _atom_site_symmetry_multiplicity
 _atom_site_fract_x
 _atom_site_fract_y
 _atom_site_fract_z
 _atom_site_occupancy
  Pr  Pr0  1  0.415977  0.019987  0.500000  1
  Pr  Pr1  1  0.980013  0.395991  0.500000  1
  Pr  Pr2  1  0.604009  0.584023  0.500000  1
  Zn  Zn3  1  0.333333  0.666667  0.000000  1
  In  In4  1  0.749427  0.998831  0.000000  1
  In  In5  1  0.001169  0.750595  0.000000  1
  In  In6  1  0.249405  0.250573  0.000000  1
  Ir  Ir7  1  0.000000  0.000000  0.500000  1
  Ir  Ir8  1  0.666667  0.333333  0.000000  1
