# generated using pymatgen
data_Rb3Cr2Cu3S8
_symmetry_space_group_name_H-M   'P 1'
_cell_length_a   12.11862547
_cell_length_b   12.11862553
_cell_length_c   14.61288086
_cell_angle_alpha   61.53760222
_cell_angle_beta   61.53760243
_cell_angle_gamma   26.18367329
_symmetry_Int_Tables_number   1
_chemical_formula_structural   Rb3Cr2Cu3S8
_chemical_formula_sum   'Rb6 Cr4 Cu6 S16'
_cell_volume   825.85074482
_cell_formula_units_Z   2
loop_
 _symmetry_equiv_pos_site_id
 _symmetry_equiv_pos_as_xyz
  1  'x, y, z'
loop_
 _atom_site_type_symbol
 _atom_site_label
 _atom_site_symmetry_multiplicity
 _atom_site_fract_x
 _atom_site_fract_y
 _atom_site_fract_z
 _atom_site_occupancy
  Rb  Rb0  1  0.733580  0.648596  0.406744  1
  Rb  Rb1  1  0.351404  0.266420  0.093256  1
  Rb  Rb2  1  0.266420  0.351404  0.593256  1
  Rb  Rb3  1  0.648596  0.733580  0.906744  1
  Rb  Rb4  1  0.000000  0.000000  0.000000  1
  Rb  Rb5  1  0.000000  0.000000  0.500000  1
  Cr  Cr6  1  0.159855  0.592735  0.277842  1
  Cr  Cr7  1  0.407265  0.840145  0.222158  1
  Cr  Cr8  1  0.840145  0.407265  0.722158  1
  Cr  Cr9  1  0.592735  0.159855  0.777842  1
  Cu  Cu10  1  0.277487  0.722513  0.250000  1
  Cu  Cu11  1  0.722513  0.277487  0.750000  1
  Cu  Cu12  1  0.904186  0.337762  0.219836  1
  Cu  Cu13  1  0.662238  0.095814  0.280164  1
  Cu  Cu14  1  0.095814  0.662238  0.780164  1
  Cu  Cu15  1  0.337762  0.904186  0.719836  1
  S  S16  1  0.970182  0.847768  0.367188  1
  S  S17  1  0.152232  0.029818  0.132812  1
  S  S18  1  0.029818  0.152232  0.632812  1
  S  S19  1  0.847768  0.970182  0.867188  1
  S  S20  1  0.465752  0.447820  0.167908  1
  S  S21  1  0.552180  0.534248  0.332092  1
  S  S22  1  0.534248  0.552180  0.832092  1
  S  S23  1  0.447820  0.465752  0.667908  1
  S  S24  1  0.889996  0.801484  0.193471  1
  S  S25  1  0.198516  0.110004  0.306529  1
  S  S26  1  0.110004  0.198516  0.806529  1
  S  S27  1  0.801484  0.889996  0.693471  1
  S  S28  1  0.718991  0.686068  0.122446  1
  S  S29  1  0.313932  0.281009  0.377554  1
  S  S30  1  0.281009  0.313932  0.877554  1
  S  S31  1  0.686068  0.718991  0.622446  1
