# generated using pymatgen
data_Lu6CdTcNi
_symmetry_space_group_name_H-M   'P 1'
_cell_length_a   8.29075596
_cell_length_b   8.29075715
_cell_length_c   8.29075661
_cell_angle_alpha   113.99251586
_cell_angle_beta   111.34781636
_cell_angle_gamma   103.25904158
_symmetry_Int_Tables_number   1
_chemical_formula_structural   Lu6CdTcNi
_chemical_formula_sum   'Lu12 Cd2 Tc2 Ni2'
_cell_volume   434.62146196
_cell_formula_units_Z   2
loop_
 _symmetry_equiv_pos_site_id
 _symmetry_equiv_pos_as_xyz
  1  'x, y, z'
loop_
 _atom_site_type_symbol
 _atom_site_label
 _atom_site_symmetry_multiplicity
 _atom_site_fract_x
 _atom_site_fract_y
 _atom_site_fract_z
 _atom_site_occupancy
  Lu  Lu0  1  0.666804  0.849844  0.183040  1
  Lu  Lu1  1  0.333196  0.516237  0.183040  1
  Lu  Lu2  1  0.816103  0.787399  0.603501  1
  Lu  Lu3  1  0.183897  0.787399  0.971296  1
  Lu  Lu4  1  0.816103  0.212601  0.028704  1
  Lu  Lu5  1  0.183897  0.212601  0.396499  1
  Lu  Lu6  1  0.666804  0.483763  0.816960  1
  Lu  Lu7  1  0.333196  0.150156  0.816960  1
  Lu  Lu8  1  0.558506  0.256844  0.301661  1
  Lu  Lu9  1  0.441494  0.743156  0.698339  1
  Lu  Lu10  1  0.044817  0.743156  0.301661  1
  Lu  Lu11  1  0.955183  0.256844  0.698339  1
  Cd  Cd12  1  0.000000  0.500000  0.500000  1
  Cd  Cd13  1  0.500000  0.000000  0.500000  1
  Tc  Tc14  1  0.321728  0.500000  0.821728  1
  Tc  Tc15  1  0.678272  0.500000  0.178272  1
  Ni  Ni16  1  0.880979  0.880979  0.000000  1
  Ni  Ni17  1  0.119021  0.119021  0.000000  1
