# generated using pymatgen
data_NdAs4(Ru2Rh)2
_symmetry_space_group_name_H-M   'P 1'
_cell_length_a   7.21144627
_cell_length_b   7.18520345
_cell_length_c   3.91492200
_cell_angle_alpha   90.00000000
_cell_angle_beta   90.00000000
_cell_angle_gamma   120.13648215
_symmetry_Int_Tables_number   1
_chemical_formula_structural   NdAs4(Ru2Rh)2
_chemical_formula_sum   'Nd1 As4 Ru4 Rh2'
_cell_volume   175.43500930
_cell_formula_units_Z   1
loop_
 _symmetry_equiv_pos_site_id
 _symmetry_equiv_pos_as_xyz
  1  'x, y, z'
loop_
 _atom_site_type_symbol
 _atom_site_label
 _atom_site_symmetry_multiplicity
 _atom_site_fract_x
 _atom_site_fract_y
 _atom_site_fract_z
 _atom_site_occupancy
  Nd  Nd0  1  0.998806  0.997773  0.500000  1
  As  As1  1  0.669124  0.338274  0.500000  1
  As  As2  1  0.195986  0.390826  0.000000  1
  As  As3  1  0.190262  0.803058  0.000000  1
  As  As4  1  0.612567  0.804153  0.000000  1
  Ru  Ru5  1  0.468364  0.934340  0.500000  1
  Ru  Ru6  1  0.464770  0.533210  0.500000  1
  Ru  Ru7  1  0.068447  0.535286  0.500000  1
  Ru  Ru8  1  0.797864  0.597291  0.000000  1
  Rh  Rh9  1  0.802828  0.200382  0.000000  1
  Rh  Rh10  1  0.397653  0.198739  0.000000  1
