# generated using pymatgen
data_Ce4Zr6Si3Ge5
_symmetry_space_group_name_H-M   'P 1'
_cell_length_a   7.44530480
_cell_length_b   7.27450428
_cell_length_c   7.49391373
_cell_angle_alpha   70.78573870
_cell_angle_beta   90.06576907
_cell_angle_gamma   90.14129578
_symmetry_Int_Tables_number   1
_chemical_formula_structural   Ce4Zr6Si3Ge5
_chemical_formula_sum   'Ce4 Zr6 Si3 Ge5'
_cell_volume   383.26633985
_cell_formula_units_Z   1
loop_
 _symmetry_equiv_pos_site_id
 _symmetry_equiv_pos_as_xyz
  1  'x, y, z'
loop_
 _atom_site_type_symbol
 _atom_site_label
 _atom_site_symmetry_multiplicity
 _atom_site_fract_x
 _atom_site_fract_y
 _atom_site_fract_z
 _atom_site_occupancy
  Ce  Ce0  1  0.669113  0.935694  0.690902  1
  Ce  Ce1  1  0.328296  0.067711  0.305994  1
  Ce  Ce2  1  0.173689  0.568313  0.305891  1
  Ce  Ce3  1  0.828398  0.429288  0.693646  1
  Zr  Zr4  1  0.671267  0.751014  0.246750  1
  Zr  Zr5  1  0.326411  0.251980  0.755304  1
  Zr  Zr6  1  0.176025  0.752564  0.755397  1
  Zr  Zr7  1  0.826400  0.244491  0.244386  1
  Zr  Zr8  1  0.000970  0.002530  0.000284  1
  Zr  Zr9  1  0.496987  0.499289  0.000738  1
  Si  Si10  1  0.128255  0.368796  0.007114  1
  Si  Si11  1  0.375176  0.871963  0.006116  1
  Si  Si12  1  0.624464  0.128741  0.993401  1
  Ge  Ge13  1  0.963017  0.857077  0.417615  1
  Ge  Ge14  1  0.037976  0.140208  0.583184  1
  Ge  Ge15  1  0.463649  0.640191  0.585029  1
  Ge  Ge16  1  0.538324  0.359006  0.415400  1
  Ge  Ge17  1  0.871581  0.631145  0.992848  1
