# generated using pymatgen
data_DyCu3AgPt
_symmetry_space_group_name_H-M   'P 1'
_cell_length_a   5.09594677
_cell_length_b   5.09594777
_cell_length_c   5.18107483
_cell_angle_alpha   60.54203549
_cell_angle_beta   60.54203384
_cell_angle_gamma   60.00000115
_symmetry_Int_Tables_number   1
_chemical_formula_structural   DyCu3AgPt
_chemical_formula_sum   'Dy1 Cu3 Ag1 Pt1'
_cell_volume   95.91017098
_cell_formula_units_Z   1
loop_
 _symmetry_equiv_pos_site_id
 _symmetry_equiv_pos_as_xyz
  1  'x, y, z'
loop_
 _atom_site_type_symbol
 _atom_site_label
 _atom_site_symmetry_multiplicity
 _atom_site_fract_x
 _atom_site_fract_y
 _atom_site_fract_z
 _atom_site_occupancy
  Dy  Dy0  1  0.997865  0.997865  0.006406  1
  Cu  Cu1  1  0.625907  0.128553  0.619632  1
  Cu  Cu2  1  0.128553  0.625907  0.619632  1
  Cu  Cu3  1  0.625907  0.625907  0.619632  1
  Ag  Ag4  1  0.245323  0.245323  0.264032  1
  Pt  Pt5  1  0.626445  0.626445  0.120666  1
