# generated using pymatgen
data_Tm4CrRu6W
_symmetry_space_group_name_H-M   'P 1'
_cell_length_a   5.49540600
_cell_length_b   5.11733908
_cell_length_c   8.94781000
_cell_angle_alpha   90.00000000
_cell_angle_beta   90.00000000
_cell_angle_gamma   122.71908285
_symmetry_Int_Tables_number   1
_chemical_formula_structural   Tm4CrRu6W
_chemical_formula_sum   'Tm4 Cr1 Ru6 W1'
_cell_volume   211.70324836
_cell_formula_units_Z   1
loop_
 _symmetry_equiv_pos_site_id
 _symmetry_equiv_pos_as_xyz
  1  'x, y, z'
loop_
 _atom_site_type_symbol
 _atom_site_label
 _atom_site_symmetry_multiplicity
 _atom_site_fract_x
 _atom_site_fract_y
 _atom_site_fract_z
 _atom_site_occupancy
  Tm  Tm0  1  0.672139  0.344801  0.564038  1
  Tm  Tm1  1  0.332277  0.664415  0.431788  1
  Tm  Tm2  1  0.332277  0.664415  0.068212  1
  Tm  Tm3  1  0.672139  0.344801  0.935962  1
  Cr  Cr4  1  0.827891  0.657579  0.250000  1
  Ru  Ru5  1  0.001506  0.002573  0.495131  1
  Ru  Ru6  1  0.001506  0.002573  0.004869  1
  Ru  Ru7  1  0.170304  0.818503  0.750000  1
  Ru  Ru8  1  0.649464  0.818498  0.750000  1
  Ru  Ru9  1  0.832173  0.181570  0.250000  1
  Ru  Ru10  1  0.348958  0.181872  0.250000  1
  W  W11  1  0.159367  0.318398  0.750000  1
