# generated using pymatgen
data_MnCr(BMo)4
_symmetry_space_group_name_H-M   'P 1'
_cell_length_a   5.82362200
_cell_length_b   5.82362200
_cell_length_c   3.15059200
_cell_angle_alpha   90.00000000
_cell_angle_beta   90.00000000
_cell_angle_gamma   90.00000000
_symmetry_Int_Tables_number   1
_chemical_formula_structural   MnCr(BMo)4
_chemical_formula_sum   'Mn1 Cr1 B4 Mo4'
_cell_volume   106.85098300
_cell_formula_units_Z   1
loop_
 _symmetry_equiv_pos_site_id
 _symmetry_equiv_pos_as_xyz
  1  'x, y, z'
loop_
 _atom_site_type_symbol
 _atom_site_label
 _atom_site_symmetry_multiplicity
 _atom_site_fract_x
 _atom_site_fract_y
 _atom_site_fract_z
 _atom_site_occupancy
  Mn  Mn0  1  0.000000  0.000000  0.000000  1
  Cr  Cr1  1  0.500000  0.500000  0.000000  1
  B  B2  1  0.114014  0.613934  0.000000  1
  B  B3  1  0.885986  0.386066  0.000000  1
  B  B4  1  0.613934  0.885986  0.000000  1
  B  B5  1  0.386066  0.114014  0.000000  1
  Mo  Mo6  1  0.677431  0.177436  0.500000  1
  Mo  Mo7  1  0.322569  0.822564  0.500000  1
  Mo  Mo8  1  0.177436  0.322569  0.500000  1
  Mo  Mo9  1  0.822564  0.677431  0.500000  1
