# generated using pymatgen
data_Tb2Tm2Ni13C4
_symmetry_space_group_name_H-M   'P 1'
_cell_length_a   3.85149400
_cell_length_b   8.37088911
_cell_length_c   8.37088958
_cell_angle_alpha   91.13094670
_cell_angle_beta   90.00000000
_cell_angle_gamma   90.00000000
_symmetry_Int_Tables_number   1
_chemical_formula_structural   Tb2Tm2Ni13C4
_chemical_formula_sum   'Tb2 Tm2 Ni13 C4'
_cell_volume   269.82849934
_cell_formula_units_Z   1
loop_
 _symmetry_equiv_pos_site_id
 _symmetry_equiv_pos_as_xyz
  1  'x, y, z'
loop_
 _atom_site_type_symbol
 _atom_site_label
 _atom_site_symmetry_multiplicity
 _atom_site_fract_x
 _atom_site_fract_y
 _atom_site_fract_z
 _atom_site_occupancy
  Tb  Tb0  1  0.500000  0.651591  0.651591  1
  Tb  Tb1  1  0.500000  0.348409  0.348409  1
  Tm  Tm2  1  0.500000  0.186379  0.813621  1
  Tm  Tm3  1  0.500000  0.813621  0.186379  1
  Ni  Ni4  1  0.500000  0.000000  0.500000  1
  Ni  Ni5  1  0.500000  0.500000  0.000000  1
  Ni  Ni6  1  0.000000  0.000000  0.000000  1
  Ni  Ni7  1  0.000000  0.785131  0.428660  1
  Ni  Ni8  1  0.000000  0.214869  0.571340  1
  Ni  Ni9  1  0.000000  0.571340  0.214869  1
  Ni  Ni10  1  0.000000  0.428660  0.785131  1
  Ni  Ni11  1  0.000000  0.927637  0.709438  1
  Ni  Ni12  1  0.000000  0.072363  0.290562  1
  Ni  Ni13  1  0.000000  0.290562  0.072363  1
  Ni  Ni14  1  0.000000  0.709438  0.927637  1
  Ni  Ni15  1  0.500000  0.877347  0.877347  1
  Ni  Ni16  1  0.500000  0.122653  0.122653  1
  C  C17  1  0.000000  0.557101  0.442899  1
  C  C18  1  0.000000  0.442899  0.557101  1
  C  C19  1  0.000000  0.000000  0.500000  1
  C  C20  1  0.000000  0.500000  0.000000  1
