# generated using pymatgen
data_Tb3YAl18(Co2Cu)2
_symmetry_space_group_name_H-M   'P 1'
_cell_length_a   7.45852735
_cell_length_b   7.45951392
_cell_length_c   9.31585602
_cell_angle_alpha   89.99661519
_cell_angle_beta   89.99671087
_cell_angle_gamma   119.31635920
_symmetry_Int_Tables_number   1
_chemical_formula_structural   Tb3YAl18(Co2Cu)2
_chemical_formula_sum   'Tb3 Y1 Al18 Co4 Cu2'
_cell_volume   451.92644491
_cell_formula_units_Z   1
loop_
 _symmetry_equiv_pos_site_id
 _symmetry_equiv_pos_as_xyz
  1  'x, y, z'
loop_
 _atom_site_type_symbol
 _atom_site_label
 _atom_site_symmetry_multiplicity
 _atom_site_fract_x
 _atom_site_fract_y
 _atom_site_fract_z
 _atom_site_occupancy
  Tb  Tb0  1  0.994531  0.678311  0.249995  1
  Tb  Tb1  1  0.005355  0.321570  0.750012  1
  Tb  Tb2  1  0.678134  0.994453  0.249997  1
  Y  Y3  1  0.321832  0.005744  0.750017  1
  Al  Al4  1  0.136076  0.136022  0.249982  1
  Al  Al5  1  0.864027  0.864024  0.750002  1
  Al  Al6  1  0.338897  0.338876  0.547550  1
  Al  Al7  1  0.661085  0.661023  0.047253  1
  Al  Al8  1  0.338942  0.338860  0.952470  1
  Al  Al9  1  0.661061  0.661064  0.452744  1
  Al  Al10  1  0.339283  0.557885  0.249955  1
  Al  Al11  1  0.660743  0.442014  0.750063  1
  Al  Al12  1  0.557914  0.339291  0.249946  1
  Al  Al13  1  0.441844  0.660723  0.750055  1
  Al  Al14  1  0.998878  0.343999  0.073637  1
  Al  Al15  1  0.001363  0.656256  0.573829  1
  Al  Al16  1  0.343900  0.998877  0.426437  1
  Al  Al17  1  0.655880  0.001080  0.926237  1
  Al  Al18  1  0.001366  0.656216  0.926183  1
  Al  Al19  1  0.998928  0.344006  0.426350  1
  Al  Al20  1  0.655878  0.001045  0.573788  1
  Al  Al21  1  0.343930  0.998862  0.073565  1
  Co  Co22  1  0.670899  0.329025  0.999896  1
  Co  Co23  1  0.329111  0.670980  0.500063  1
  Co  Co24  1  0.329116  0.670978  0.999946  1
  Co  Co25  1  0.670888  0.329033  0.500111  1
  Cu  Cu26  1  0.000095  0.999877  0.999880  1
  Cu  Cu27  1  0.000045  0.999907  0.500039  1
