# generated using pymatgen
data_Nd3Th(SiTc2)8
_symmetry_space_group_name_H-M   'P 1'
_cell_length_a   4.17739500
_cell_length_b   7.24065437
_cell_length_c   15.53575345
_cell_angle_alpha   89.80780494
_cell_angle_beta   90.00000000
_cell_angle_gamma   90.00000000
_symmetry_Int_Tables_number   1
_chemical_formula_structural   Nd3Th(SiTc2)8
_chemical_formula_sum   'Nd3 Th1 Si8 Tc16'
_cell_volume   469.90843076
_cell_formula_units_Z   1
loop_
 _symmetry_equiv_pos_site_id
 _symmetry_equiv_pos_as_xyz
  1  'x, y, z'
loop_
 _atom_site_type_symbol
 _atom_site_label
 _atom_site_symmetry_multiplicity
 _atom_site_fract_x
 _atom_site_fract_y
 _atom_site_fract_z
 _atom_site_occupancy
  Nd  Nd0  1  0.000000  0.416913  0.881728  1
  Nd  Nd1  1  0.500000  0.084194  0.384147  1
  Nd  Nd2  1  0.500000  0.917230  0.617028  1
  Th  Th3  1  0.000000  0.585592  0.117079  1
  Si  Si4  1  0.000000  0.824177  0.474358  1
  Si  Si5  1  0.000000  0.175484  0.526251  1
  Si  Si6  1  0.500000  0.323860  0.024905  1
  Si  Si7  1  0.500000  0.673093  0.973031  1
  Si  Si8  1  0.000000  0.297631  0.274554  1
  Si  Si9  1  0.000000  0.702104  0.726076  1
  Si  Si10  1  0.500000  0.804018  0.228641  1
  Si  Si11  1  0.500000  0.201393  0.773502  1
  Tc  Tc12  1  0.000000  0.137043  0.051777  1
  Tc  Tc13  1  0.000000  0.859507  0.948280  1
  Tc  Tc14  1  0.500000  0.637818  0.447634  1
  Tc  Tc15  1  0.500000  0.361872  0.552351  1
  Tc  Tc16  1  0.000000  0.731520  0.320223  1
  Tc  Tc17  1  0.000000  0.267723  0.680214  1
  Tc  Tc18  1  0.500000  0.233508  0.179648  1
  Tc  Tc19  1  0.500000  0.768351  0.819347  1
  Tc  Tc20  1  0.000000  0.435314  0.419695  1
  Tc  Tc21  1  0.000000  0.564773  0.580442  1
  Tc  Tc22  1  0.500000  0.930722  0.080072  1
  Tc  Tc23  1  0.500000  0.063632  0.919492  1
  Tc  Tc24  1  0.000000  0.995768  0.205979  1
  Tc  Tc25  1  0.000000  0.005685  0.793997  1
  Tc  Tc26  1  0.500000  0.494839  0.294012  1
  Tc  Tc27  1  0.500000  0.506238  0.705538  1
