# generated using pymatgen
data_LaEu2Mo2PbO12
_symmetry_space_group_name_H-M   'P 1'
_cell_length_a   5.49707327
_cell_length_b   10.32340063
_cell_length_c   10.32340045
_cell_angle_alpha   68.41454007
_cell_angle_beta   74.65051119
_cell_angle_gamma   74.65051266
_symmetry_Int_Tables_number   1
_chemical_formula_structural   LaEu2Mo2PbO12
_chemical_formula_sum   'La2 Eu4 Mo4 Pb2 O24'
_cell_volume   516.09406574
_cell_formula_units_Z   2
loop_
 _symmetry_equiv_pos_site_id
 _symmetry_equiv_pos_as_xyz
  1  'x, y, z'
loop_
 _atom_site_type_symbol
 _atom_site_label
 _atom_site_symmetry_multiplicity
 _atom_site_fract_x
 _atom_site_fract_y
 _atom_site_fract_z
 _atom_site_occupancy
  La  La0  1  0.250000  0.359875  0.640125  1
  La  La1  1  0.750000  0.640125  0.359875  1
  Eu  Eu2  1  0.385851  0.946059  0.708452  1
  Eu  Eu3  1  0.614149  0.053941  0.291548  1
  Eu  Eu4  1  0.114149  0.291548  0.053941  1
  Eu  Eu5  1  0.885851  0.708452  0.946059  1
  Mo  Mo6  1  0.070991  0.797637  0.513322  1
  Mo  Mo7  1  0.929009  0.202363  0.486678  1
  Mo  Mo8  1  0.429009  0.486678  0.202363  1
  Mo  Mo9  1  0.570991  0.513322  0.797637  1
  Pb  Pb10  1  0.250000  0.900259  0.099741  1
  Pb  Pb11  1  0.750000  0.099741  0.900259  1
  O  O12  1  0.043964  0.157763  0.704875  1
  O  O13  1  0.956036  0.842237  0.295125  1
  O  O14  1  0.456036  0.295125  0.842237  1
  O  O15  1  0.543964  0.704875  0.157763  1
  O  O16  1  0.382048  0.830398  0.399239  1
  O  O17  1  0.617952  0.169602  0.600761  1
  O  O18  1  0.117952  0.600761  0.169602  1
  O  O19  1  0.882048  0.399239  0.830398  1
  O  O20  1  0.126367  0.787454  0.682937  1
  O  O21  1  0.873633  0.212546  0.317063  1
  O  O22  1  0.373633  0.317063  0.212546  1
  O  O23  1  0.626367  0.682937  0.787454  1
  O  O24  1  0.231342  0.073396  0.483926  1
  O  O25  1  0.768658  0.926604  0.516074  1
  O  O26  1  0.268658  0.516074  0.926604  1
  O  O27  1  0.731342  0.483926  0.073396  1
  O  O28  1  0.021778  0.621488  0.540331  1
  O  O29  1  0.978222  0.378512  0.459669  1
  O  O30  1  0.478222  0.459669  0.378512  1
  O  O31  1  0.521778  0.540331  0.621488  1
  O  O32  1  0.581628  0.938297  0.887988  1
  O  O33  1  0.418372  0.061703  0.112012  1
  O  O34  1  0.918372  0.112012  0.061703  1
  O  O35  1  0.081628  0.887988  0.938297  1
