# generated using pymatgen
data_Ho3Ag(Pt2O7)2
_symmetry_space_group_name_H-M   'P 1'
_cell_length_a   7.32371504
_cell_length_b   7.18567384
_cell_length_c   7.32371400
_cell_angle_alpha   59.36245258
_cell_angle_beta   59.99999567
_cell_angle_gamma   59.36245674
_symmetry_Int_Tables_number   1
_chemical_formula_structural   Ho3Ag(Pt2O7)2
_chemical_formula_sum   'Ho3 Ag1 Pt4 O14'
_cell_volume   269.87478456
_cell_formula_units_Z   1
loop_
 _symmetry_equiv_pos_site_id
 _symmetry_equiv_pos_as_xyz
  1  'x, y, z'
loop_
 _atom_site_type_symbol
 _atom_site_label
 _atom_site_symmetry_multiplicity
 _atom_site_fract_x
 _atom_site_fract_y
 _atom_site_fract_z
 _atom_site_occupancy
  Ho  Ho0  1  0.625000  0.625000  0.125000  1
  Ho  Ho1  1  0.625000  0.625000  0.625000  1
  Ho  Ho2  1  0.125000  0.625000  0.625000  1
  Ag  Ag3  1  0.625000  0.125000  0.625000  1
  Pt  Pt4  1  0.125000  0.125000  0.125000  1
  Pt  Pt5  1  0.625000  0.125000  0.125000  1
  Pt  Pt6  1  0.125000  0.625000  0.125000  1
  Pt  Pt7  1  0.125000  0.125000  0.625000  1
  O  O8  1  0.031111  0.471691  0.466087  1
  O  O9  1  0.783913  0.778309  0.218889  1
  O  O10  1  0.792539  0.219441  0.195482  1
  O  O11  1  0.457461  0.030559  0.457461  1
  O  O12  1  0.745707  0.762879  0.745707  1
  O  O13  1  0.054518  0.030559  0.457461  1
  O  O14  1  0.031111  0.471691  0.031111  1
  O  O15  1  0.792539  0.219441  0.792539  1
  O  O16  1  0.218889  0.778309  0.218889  1
  O  O17  1  0.195482  0.219441  0.792539  1
  O  O18  1  0.504293  0.487121  0.504293  1
  O  O19  1  0.457461  0.030559  0.054518  1
  O  O20  1  0.466087  0.471691  0.031111  1
  O  O21  1  0.218889  0.778309  0.783913  1
