# generated using pymatgen
data_Li2TbPr7(Zn3Rh4)2
_symmetry_space_group_name_H-M   'P 1'
_cell_length_a   4.11149600
_cell_length_b   7.26350724
_cell_length_c   16.48282055
_cell_angle_alpha   89.97030621
_cell_angle_beta   90.00000000
_cell_angle_gamma   90.00000000
_symmetry_Int_Tables_number   1
_chemical_formula_structural   Li2TbPr7(Zn3Rh4)2
_chemical_formula_sum   'Li2 Tb1 Pr7 Zn6 Rh8'
_cell_volume   492.24092510
_cell_formula_units_Z   1
loop_
 _symmetry_equiv_pos_site_id
 _symmetry_equiv_pos_as_xyz
  1  'x, y, z'
loop_
 _atom_site_type_symbol
 _atom_site_label
 _atom_site_symmetry_multiplicity
 _atom_site_fract_x
 _atom_site_fract_y
 _atom_site_fract_z
 _atom_site_occupancy
  Li  Li0  1  0.250000  0.992241  0.438811  1
  Li  Li1  1  0.750000  0.507601  0.939319  1
  Tb  Tb2  1  0.750000  0.454065  0.216725  1
  Pr  Pr3  1  0.750000  0.954771  0.281224  1
  Pr  Pr4  1  0.750000  0.831736  0.061516  1
  Pr  Pr5  1  0.250000  0.044539  0.717608  1
  Pr  Pr6  1  0.250000  0.164493  0.940521  1
  Pr  Pr7  1  0.250000  0.544859  0.782025  1
  Pr  Pr8  1  0.750000  0.335950  0.439038  1
  Pr  Pr9  1  0.250000  0.667323  0.560302  1
  Zn  Zn10  1  0.750000  0.003034  0.559526  1
  Zn  Zn11  1  0.250000  0.627641  0.349088  1
  Zn  Zn12  1  0.750000  0.373098  0.649011  1
  Zn  Zn13  1  0.750000  0.870115  0.851433  1
  Zn  Zn14  1  0.250000  0.496618  0.061698  1
  Zn  Zn15  1  0.250000  0.130641  0.150345  1
  Rh  Rh16  1  0.250000  0.243613  0.565460  1
  Rh  Rh17  1  0.750000  0.259641  0.068294  1
  Rh  Rh18  1  0.250000  0.258200  0.308850  1
  Rh  Rh19  1  0.750000  0.249454  0.812091  1
  Rh  Rh20  1  0.250000  0.749752  0.936481  1
  Rh  Rh21  1  0.750000  0.751021  0.686536  1
  Rh  Rh22  1  0.750000  0.749938  0.435917  1
  Rh  Rh23  1  0.250000  0.739657  0.188180  1
