# generated using pymatgen
data_Y12Co2Ni2BiRu
_symmetry_space_group_name_H-M   'P 1'
_cell_length_a   8.39926410
_cell_length_b   8.39926440
_cell_length_c   8.39926465
_cell_angle_alpha   109.80041681
_cell_angle_beta   111.12786157
_cell_angle_gamma   107.50594561
_symmetry_Int_Tables_number   1
_chemical_formula_structural   Y12Co2Ni2BiRu
_chemical_formula_sum   'Y12 Co2 Ni2 Bi1 Ru1'
_cell_volume   455.67966392
_cell_formula_units_Z   1
loop_
 _symmetry_equiv_pos_site_id
 _symmetry_equiv_pos_as_xyz
  1  'x, y, z'
loop_
 _atom_site_type_symbol
 _atom_site_label
 _atom_site_symmetry_multiplicity
 _atom_site_fract_x
 _atom_site_fract_y
 _atom_site_fract_z
 _atom_site_occupancy
  Y  Y0  1  0.288440  0.181072  0.469513  1
  Y  Y1  1  0.711560  0.818928  0.530487  1
  Y  Y2  1  0.288440  0.818928  0.107369  1
  Y  Y3  1  0.711560  0.181072  0.892631  1
  Y  Y4  1  0.622023  0.313104  0.308918  1
  Y  Y5  1  0.377977  0.686896  0.691082  1
  Y  Y6  1  0.004186  0.313104  0.691082  1
  Y  Y7  1  0.995814  0.686896  0.308918  1
  Y  Y8  1  0.211467  0.404670  0.193203  1
  Y  Y9  1  0.788533  0.595330  0.806797  1
  Y  Y10  1  0.211467  0.018266  0.806797  1
  Y  Y11  1  0.788533  0.981734  0.193203  1
  Co  Co12  1  0.388557  0.888557  0.500000  1
  Co  Co13  1  0.611443  0.111443  0.500000  1
  Ni  Ni14  1  0.000000  0.368824  0.368824  1
  Ni  Ni15  1  0.000000  0.631176  0.631176  1
  Bi  Bi16  1  0.500000  0.500000  0.000000  1
  Ru  Ru17  1  0.000000  0.000000  0.000000  1
