# generated using pymatgen
data_Er4Zn2B4(IrRh)5
_symmetry_space_group_name_H-M   'P 1'
_cell_length_a   9.51827361
_cell_length_b   9.54361561
_cell_length_c   3.16687200
_cell_angle_alpha   90.00000000
_cell_angle_beta   90.00000000
_cell_angle_gamma   89.95895908
_symmetry_Int_Tables_number   1
_chemical_formula_structural   Er4Zn2B4(IrRh)5
_chemical_formula_sum   'Er4 Zn2 B4 Ir5 Rh5'
_cell_volume   287.67460308
_cell_formula_units_Z   1
loop_
 _symmetry_equiv_pos_site_id
 _symmetry_equiv_pos_as_xyz
  1  'x, y, z'
loop_
 _atom_site_type_symbol
 _atom_site_label
 _atom_site_symmetry_multiplicity
 _atom_site_fract_x
 _atom_site_fract_y
 _atom_site_fract_z
 _atom_site_occupancy
  Er  Er0  1  0.322506  0.822972  0.000000  1
  Er  Er1  1  0.677509  0.176653  0.000000  1
  Er  Er2  1  0.177067  0.323269  0.000000  1
  Er  Er3  1  0.822384  0.677952  0.000000  1
  Zn  Zn4  1  0.500171  0.499944  0.000000  1
  Zn  Zn5  1  0.999641  0.999780  0.000000  1
  B  B6  1  0.124540  0.621561  0.000000  1
  B  B7  1  0.875436  0.378694  0.000000  1
  B  B8  1  0.375415  0.121727  0.000000  1
  B  B9  1  0.622187  0.877921  0.000000  1
  Ir  Ir10  1  0.220164  0.069776  0.500000  1
  Ir  Ir11  1  0.280304  0.569132  0.500000  1
  Ir  Ir12  1  0.719997  0.430220  0.500000  1
  Ir  Ir13  1  0.999707  0.500618  0.500000  1
  Ir  Ir14  1  0.500974  0.999521  0.500000  1
  Rh  Rh15  1  0.569246  0.719965  0.500000  1
  Rh  Rh16  1  0.431909  0.280185  0.500000  1
  Rh  Rh17  1  0.931827  0.219535  0.500000  1
  Rh  Rh18  1  0.068781  0.780682  0.500000  1
  Rh  Rh19  1  0.780235  0.929894  0.500000  1
