# generated using pymatgen
data_Ho4VRe(B8W)2
_symmetry_space_group_name_H-M   'P 1'
_cell_length_a   3.58263200
_cell_length_b   6.00192968
_cell_length_c   11.58927538
_cell_angle_alpha   90.05754446
_cell_angle_beta   90.00000000
_cell_angle_gamma   90.00000000
_symmetry_Int_Tables_number   1
_chemical_formula_structural   Ho4VRe(B8W)2
_chemical_formula_sum   'Ho4 V1 Re1 B16 W2'
_cell_volume   249.20064766
_cell_formula_units_Z   1
loop_
 _symmetry_equiv_pos_site_id
 _symmetry_equiv_pos_as_xyz
  1  'x, y, z'
loop_
 _atom_site_type_symbol
 _atom_site_label
 _atom_site_symmetry_multiplicity
 _atom_site_fract_x
 _atom_site_fract_y
 _atom_site_fract_z
 _atom_site_occupancy
  Ho  Ho0  1  0.500000  0.126175  0.647774  1
  Ho  Ho1  1  0.500000  0.874741  0.351920  1
  Ho  Ho2  1  0.500000  0.626896  0.849008  1
  Ho  Ho3  1  0.500000  0.372561  0.152514  1
  V  V4  1  0.500000  0.371416  0.418364  1
  Re  Re5  1  0.500000  0.627860  0.582748  1
  B  B6  1  0.000000  0.477358  0.691499  1
  B  B7  1  0.000000  0.522257  0.308420  1
  B  B8  1  0.000000  0.974559  0.805032  1
  B  B9  1  0.000000  0.025290  0.194786  1
  B  B10  1  0.000000  0.288468  0.811783  1
  B  B11  1  0.000000  0.711788  0.187951  1
  B  B12  1  0.000000  0.784137  0.684061  1
  B  B13  1  0.000000  0.215916  0.315861  1
  B  B14  1  0.000000  0.367456  0.967877  1
  B  B15  1  0.000000  0.632631  0.032326  1
  B  B16  1  0.000000  0.864523  0.531638  1
  B  B17  1  0.000000  0.135540  0.468137  1
  B  B18  1  0.000000  0.386562  0.547048  1
  B  B19  1  0.000000  0.613571  0.452688  1
  B  B20  1  0.000000  0.885583  0.952139  1
  B  B21  1  0.000000  0.115048  0.047567  1
  W  W22  1  0.500000  0.130644  0.914022  1
  W  W23  1  0.500000  0.869021  0.084839  1
