# generated using pymatgen
data_Ba2Li2DyTlO6
_symmetry_space_group_name_H-M   'P 1'
_cell_length_a   6.09921594
_cell_length_b   6.09921613
_cell_length_c   8.76118094
_cell_angle_alpha   90.42548602
_cell_angle_beta   89.57451517
_cell_angle_gamma   146.29568257
_symmetry_Int_Tables_number   1
_chemical_formula_structural   Ba2Li2DyTlO6
_chemical_formula_sum   'Ba2 Li2 Dy1 Tl1 O6'
_cell_volume   180.84974583
_cell_formula_units_Z   1
loop_
 _symmetry_equiv_pos_site_id
 _symmetry_equiv_pos_as_xyz
  1  'x, y, z'
loop_
 _atom_site_type_symbol
 _atom_site_label
 _atom_site_symmetry_multiplicity
 _atom_site_fract_x
 _atom_site_fract_y
 _atom_site_fract_z
 _atom_site_occupancy
  Ba  Ba0  1  0.758217  0.241785  0.247454  1
  Ba  Ba1  1  0.241785  0.758217  0.752546  1
  Li  Li2  1  0.030071  0.969930  0.244863  1
  Li  Li3  1  0.969930  0.030071  0.755137  1
  Dy  Dy4  1  0.500001  0.500001  0.500000  1
  Tl  Tl5  1  0.500001  0.500001  0.000000  1
  O  O6  1  0.124981  0.875020  0.064814  1
  O  O7  1  0.441248  0.558754  0.253895  1
  O  O8  1  0.118527  0.881474  0.429983  1
  O  O9  1  0.881474  0.118527  0.570017  1
  O  O10  1  0.558754  0.441248  0.746105  1
  O  O11  1  0.875020  0.124981  0.935186  1
