# generated using pymatgen
data_Dy6Al24Ru7Rh
_symmetry_space_group_name_H-M   'P 1'
_cell_length_a   8.80611500
_cell_length_b   8.80447323
_cell_length_c   9.57571549
_cell_angle_alpha   89.88426469
_cell_angle_beta   90.00000000
_cell_angle_gamma   120.00617232
_symmetry_Int_Tables_number   1
_chemical_formula_structural   Dy6Al24Ru7Rh
_chemical_formula_sum   'Dy6 Al24 Ru7 Rh1'
_cell_volume   642.92660771
_cell_formula_units_Z   1
loop_
 _symmetry_equiv_pos_site_id
 _symmetry_equiv_pos_as_xyz
  1  'x, y, z'
loop_
 _atom_site_type_symbol
 _atom_site_label
 _atom_site_symmetry_multiplicity
 _atom_site_fract_x
 _atom_site_fract_y
 _atom_site_fract_z
 _atom_site_occupancy
  Dy  Dy0  1  0.192374  0.806299  0.249252  1
  Dy  Dy1  1  0.193529  0.387059  0.249631  1
  Dy  Dy2  1  0.613924  0.806299  0.249252  1
  Dy  Dy3  1  0.807626  0.193701  0.750748  1
  Dy  Dy4  1  0.806471  0.612941  0.750369  1
  Dy  Dy5  1  0.386076  0.193701  0.750748  1
  Al  Al6  1  0.561204  0.438336  0.250271  1
  Al  Al7  1  0.561380  0.122759  0.249222  1
  Al  Al8  1  0.877132  0.438336  0.250271  1
  Al  Al9  1  0.438796  0.561664  0.749729  1
  Al  Al10  1  0.438620  0.877241  0.750778  1
  Al  Al11  1  0.122868  0.561664  0.749729  1
  Al  Al12  1  0.325315  0.164309  0.422838  1
  Al  Al13  1  0.838994  0.164309  0.422838  1
  Al  Al14  1  0.837283  0.674566  0.422666  1
  Al  Al15  1  0.674685  0.835691  0.577162  1
  Al  Al16  1  0.161006  0.835691  0.577162  1
  Al  Al17  1  0.162717  0.325434  0.577334  1
  Al  Al18  1  0.674367  0.837251  0.923200  1
  Al  Al19  1  0.162884  0.837251  0.923200  1
  Al  Al20  1  0.162956  0.325911  0.923041  1
  Al  Al21  1  0.325633  0.162749  0.076800  1
  Al  Al22  1  0.837116  0.162749  0.076800  1
  Al  Al23  1  0.837044  0.674089  0.076959  1
  Al  Al24  1  0.667511  0.335020  0.516721  1
  Al  Al25  1  0.332489  0.664980  0.483279  1
  Al  Al26  1  0.333315  0.666631  0.016567  1
  Al  Al27  1  0.666685  0.333369  0.983433  1
  Al  Al28  1  0.999758  0.999516  0.249976  1
  Al  Al29  1  0.000242  0.000484  0.750024  1
  Ru  Ru30  1  0.000000  0.000000  0.500000  1
  Ru  Ru31  1  0.000000  0.000000  0.000000  1
  Ru  Ru32  1  0.500000  0.500000  0.500000  1
  Ru  Ru33  1  0.000000  0.500000  0.500000  1
  Ru  Ru34  1  0.500000  0.500000  0.000000  1
  Ru  Ru35  1  0.500000  0.000000  0.000000  1
  Ru  Ru36  1  0.000000  0.500000  0.000000  1
  Rh  Rh37  1  0.500000  0.000000  0.500000  1
