# generated using pymatgen
data_Dy2ErIn3Pt2Au
_symmetry_space_group_name_H-M   'P 1'
_cell_length_a   7.80240677
_cell_length_b   7.81169303
_cell_length_c   3.78695100
_cell_angle_alpha   90.00000000
_cell_angle_beta   90.00000000
_cell_angle_gamma   120.05718713
_symmetry_Int_Tables_number   1
_chemical_formula_structural   Dy2ErIn3Pt2Au
_chemical_formula_sum   'Dy2 Er1 In3 Pt2 Au1'
_cell_volume   199.77609560
_cell_formula_units_Z   1
loop_
 _symmetry_equiv_pos_site_id
 _symmetry_equiv_pos_as_xyz
  1  'x, y, z'
loop_
 _atom_site_type_symbol
 _atom_site_label
 _atom_site_symmetry_multiplicity
 _atom_site_fract_x
 _atom_site_fract_y
 _atom_site_fract_z
 _atom_site_occupancy
  Dy  Dy0  1  0.604217  0.013421  0.500000  1
  Dy  Dy1  1  0.409361  0.395865  0.500000  1
  Er  Er2  1  0.986075  0.590701  0.500000  1
  In  In3  1  0.737053  0.737514  0.000000  1
  In  In4  1  0.000911  0.263505  0.000000  1
  In  In5  1  0.262113  0.998756  0.000000  1
  Pt  Pt6  1  0.667666  0.334110  0.000000  1
  Pt  Pt7  1  0.000003  0.999609  0.500000  1
  Au  Au8  1  0.332602  0.666518  0.000000  1
