# generated using pymatgen
data_YHo6Tm9(InIr)4
_symmetry_space_group_name_H-M   'P 1'
_cell_length_a   9.58299837
_cell_length_b   9.58523477
_cell_length_c   9.59478000
_cell_angle_alpha   59.96705285
_cell_angle_beta   59.95932244
_cell_angle_gamma   59.96822679
_symmetry_Int_Tables_number   1
_chemical_formula_structural   YHo6Tm9(InIr)4
_chemical_formula_sum   'Y1 Ho6 Tm9 In4 Ir4'
_cell_volume   622.69881151
_cell_formula_units_Z   1
loop_
 _symmetry_equiv_pos_site_id
 _symmetry_equiv_pos_as_xyz
  1  'x, y, z'
loop_
 _atom_site_type_symbol
 _atom_site_label
 _atom_site_symmetry_multiplicity
 _atom_site_fract_x
 _atom_site_fract_y
 _atom_site_fract_z
 _atom_site_occupancy
  Y  Y0  1  0.438689  0.439612  0.060850  1
  Ho  Ho1  1  0.047764  0.650586  0.650825  1
  Ho  Ho2  1  0.439099  0.059998  0.059751  1
  Ho  Ho3  1  0.060178  0.061117  0.439353  1
  Ho  Ho4  1  0.650857  0.047800  0.650671  1
  Ho  Ho5  1  0.810176  0.808464  0.190680  1
  Ho  Ho6  1  0.439099  0.059998  0.441153  1
  Tm  Tm7  1  0.651339  0.650911  0.046165  1
  Tm  Tm8  1  0.190629  0.809591  0.190390  1
  Tm  Tm9  1  0.059223  0.439882  0.059936  1
  Tm  Tm10  1  0.190629  0.809591  0.809390  1
  Tm  Tm11  1  0.059223  0.439882  0.440958  1
  Tm  Tm12  1  0.810498  0.190762  0.190091  1
  Tm  Tm13  1  0.651339  0.650911  0.651587  1
  Tm  Tm14  1  0.810498  0.190762  0.808648  1
  Tm  Tm15  1  0.189967  0.190434  0.809800  1
  In  In16  1  0.416200  0.417031  0.416690  1
  In  In17  1  0.416200  0.417031  0.750080  1
  In  In18  1  0.417440  0.749523  0.416519  1
  In  In19  1  0.751015  0.417053  0.415966  1
  Ir  Ir20  1  0.422948  0.858716  0.859167  1
  Ir  Ir21  1  0.859044  0.858542  0.859099  1
  Ir  Ir22  1  0.858905  0.423263  0.858916  1
  Ir  Ir23  1  0.859044  0.858542  0.423315  1
