# generated using pymatgen
data_Pr9Nd(Sn3O)2
_symmetry_space_group_name_H-M   'P 1'
_cell_length_a   9.44504708
_cell_length_b   9.44504684
_cell_length_c   9.43821969
_cell_angle_alpha   126.29364816
_cell_angle_beta   126.29364142
_cell_angle_gamma   79.39557380
_symmetry_Int_Tables_number   1
_chemical_formula_structural   Pr9Nd(Sn3O)2
_chemical_formula_sum   'Pr9 Nd1 Sn6 O2'
_cell_volume   528.73181724
_cell_formula_units_Z   1
loop_
 _symmetry_equiv_pos_site_id
 _symmetry_equiv_pos_as_xyz
  1  'x, y, z'
loop_
 _atom_site_type_symbol
 _atom_site_label
 _atom_site_symmetry_multiplicity
 _atom_site_fract_x
 _atom_site_fract_y
 _atom_site_fract_z
 _atom_site_occupancy
  Pr  Pr0  1  0.497950  0.304092  0.499877  1
  Pr  Pr1  1  0.804092  0.997950  0.499877  1
  Pr  Pr2  1  0.997939  0.497939  0.193764  1
  Pr  Pr3  1  0.304274  0.804274  0.806356  1
  Pr  Pr4  1  0.503997  0.697926  0.500088  1
  Pr  Pr5  1  0.197926  0.003997  0.500088  1
  Pr  Pr6  1  0.003861  0.503861  0.805834  1
  Pr  Pr7  1  0.503362  0.503220  0.000084  1
  Pr  Pr8  1  0.003220  0.003362  0.000084  1
  Nd  Nd9  1  0.698803  0.198803  0.195841  1
  Sn  Sn10  1  0.140559  0.360279  0.499662  1
  Sn  Sn11  1  0.860279  0.640559  0.499662  1
  Sn  Sn12  1  0.641099  0.141099  0.781110  1
  Sn  Sn13  1  0.360446  0.860446  0.219418  1
  Sn  Sn14  1  0.751693  0.752173  0.000090  1
  Sn  Sn15  1  0.252173  0.251693  0.000090  1
  O  O16  1  0.750419  0.250419  0.498164  1
  O  O17  1  0.250749  0.750749  0.499911  1
