# generated using pymatgen
data_CeVN2
_symmetry_space_group_name_H-M   'P 1'
_cell_length_a   3.27349200
_cell_length_b   5.59359400
_cell_length_c   10.58181800
_cell_angle_alpha   90.00000000
_cell_angle_beta   90.00000000
_cell_angle_gamma   90.00000000
_symmetry_Int_Tables_number   1
_chemical_formula_structural   CeVN2
_chemical_formula_sum   'Ce4 V4 N8'
_cell_volume   193.75928017
_cell_formula_units_Z   4
loop_
 _symmetry_equiv_pos_site_id
 _symmetry_equiv_pos_as_xyz
  1  'x, y, z'
loop_
 _atom_site_type_symbol
 _atom_site_label
 _atom_site_symmetry_multiplicity
 _atom_site_fract_x
 _atom_site_fract_y
 _atom_site_fract_z
 _atom_site_occupancy
  Ce  Ce0  1  0.750000  0.078703  0.858403  1
  Ce  Ce1  1  0.750000  0.578703  0.641597  1
  Ce  Ce2  1  0.250000  0.921297  0.141597  1
  Ce  Ce3  1  0.250000  0.421297  0.358403  1
  V  V4  1  0.250000  0.075300  0.598678  1
  V  V5  1  0.750000  0.424700  0.098678  1
  V  V6  1  0.250000  0.575300  0.901322  1
  V  V7  1  0.750000  0.924700  0.401322  1
  N  N8  1  0.250000  0.336042  0.748289  1
  N  N9  1  0.750000  0.163958  0.248289  1
  N  N10  1  0.250000  0.279753  0.014038  1
  N  N11  1  0.750000  0.663958  0.251711  1
  N  N12  1  0.250000  0.836042  0.751711  1
  N  N13  1  0.750000  0.720247  0.985962  1
  N  N14  1  0.750000  0.220247  0.514038  1
  N  N15  1  0.250000  0.779753  0.485962  1
