# generated using pymatgen
data_Ho7Sc4In9Co4
_symmetry_space_group_name_H-M   'P 1'
_cell_length_a   12.76492580
_cell_length_b   12.76492692
_cell_length_c   3.58050000
_cell_angle_alpha   90.00000000
_cell_angle_beta   90.00000000
_cell_angle_gamma   112.41788772
_symmetry_Int_Tables_number   1
_chemical_formula_structural   Ho7Sc4In9Co4
_chemical_formula_sum   'Ho7 Sc4 In9 Co4'
_cell_volume   539.32795978
_cell_formula_units_Z   1
loop_
 _symmetry_equiv_pos_site_id
 _symmetry_equiv_pos_as_xyz
  1  'x, y, z'
loop_
 _atom_site_type_symbol
 _atom_site_label
 _atom_site_symmetry_multiplicity
 _atom_site_fract_x
 _atom_site_fract_y
 _atom_site_fract_z
 _atom_site_occupancy
  Ho  Ho0  1  0.627354  0.372646  0.000000  1
  Ho  Ho1  1  0.372646  0.627354  0.000000  1
  Ho  Ho2  1  0.837733  0.162267  0.000000  1
  Ho  Ho3  1  0.162267  0.837733  0.000000  1
  Ho  Ho4  1  0.000000  0.000000  0.000000  1
  Ho  Ho5  1  0.312390  0.312390  0.000000  1
  Ho  Ho6  1  0.687610  0.687610  0.000000  1
  Sc  Sc7  1  0.085841  0.418855  0.000000  1
  Sc  Sc8  1  0.914159  0.581145  0.000000  1
  Sc  Sc9  1  0.418855  0.085841  0.000000  1
  Sc  Sc10  1  0.581145  0.914159  0.000000  1
  In  In11  1  0.850006  0.375389  0.500000  1
  In  In12  1  0.149994  0.624611  0.500000  1
  In  In13  1  0.375389  0.850006  0.500000  1
  In  In14  1  0.624611  0.149994  0.500000  1
  In  In15  1  0.076176  0.225078  0.500000  1
  In  In16  1  0.923824  0.774922  0.500000  1
  In  In17  1  0.225078  0.076176  0.500000  1
  In  In18  1  0.774922  0.923824  0.500000  1
  In  In19  1  0.500000  0.500000  0.500000  1
  Co  Co20  1  0.239810  0.450160  0.500000  1
  Co  Co21  1  0.760190  0.549840  0.500000  1
  Co  Co22  1  0.450160  0.239810  0.500000  1
  Co  Co23  1  0.549840  0.760190  0.500000  1
