# generated using pymatgen
data_Zr13Nb3(Ir2N)4
_symmetry_space_group_name_H-M   'P 1'
_cell_length_a   8.80374044
_cell_length_b   8.73011874
_cell_length_c   8.80373400
_cell_angle_alpha   59.72063635
_cell_angle_beta   59.99997563
_cell_angle_gamma   59.72065915
_symmetry_Int_Tables_number   1
_chemical_formula_structural   Zr13Nb3(Ir2N)4
_chemical_formula_sum   'Zr13 Nb3 Ir8 N4'
_cell_volume   476.42274121
_cell_formula_units_Z   1
loop_
 _symmetry_equiv_pos_site_id
 _symmetry_equiv_pos_as_xyz
  1  'x, y, z'
loop_
 _atom_site_type_symbol
 _atom_site_label
 _atom_site_symmetry_multiplicity
 _atom_site_fract_x
 _atom_site_fract_y
 _atom_site_fract_z
 _atom_site_occupancy
  Zr  Zr0  1  0.625000  0.125000  0.625000  1
  Zr  Zr1  1  0.812689  0.812637  0.187337  1
  Zr  Zr2  1  0.184340  0.185633  0.815013  1
  Zr  Zr3  1  0.815013  0.185633  0.815013  1
  Zr  Zr4  1  0.187337  0.812637  0.187337  1
  Zr  Zr5  1  0.187337  0.812637  0.812689  1
  Zr  Zr6  1  0.815013  0.185632  0.184342  1
  Zr  Zr7  1  0.437311  0.437363  0.062663  1
  Zr  Zr8  1  0.065660  0.064367  0.434987  1
  Zr  Zr9  1  0.434987  0.064367  0.434987  1
  Zr  Zr10  1  0.062663  0.437363  0.062663  1
  Zr  Zr11  1  0.062663  0.437363  0.437311  1
  Zr  Zr12  1  0.434987  0.064368  0.065658  1
  Nb  Nb13  1  0.125000  0.625000  0.625000  1
  Nb  Nb14  1  0.625000  0.625000  0.125000  1
  Nb  Nb15  1  0.625000  0.625000  0.625000  1
  Ir  Ir16  1  0.763591  0.420917  0.407747  1
  Ir  Ir17  1  0.415035  0.754894  0.415036  1
  Ir  Ir18  1  0.407746  0.420918  0.763590  1
  Ir  Ir19  1  0.407745  0.420917  0.407747  1
  Ir  Ir20  1  0.486409  0.829083  0.842253  1
  Ir  Ir21  1  0.834965  0.495106  0.834964  1
  Ir  Ir22  1  0.842254  0.829082  0.486410  1
  Ir  Ir23  1  0.842255  0.829083  0.842253  1
  N  N24  1  0.625000  0.125000  0.125000  1
  N  N25  1  0.125000  0.625000  0.125000  1
  N  N26  1  0.125000  0.125000  0.625000  1
  N  N27  1  0.125000  0.125000  0.125000  1
