# generated using pymatgen
data_Y2As3Rh4
_symmetry_space_group_name_H-M   'P 1'
_cell_length_a   13.46148900
_cell_length_b   13.46148973
_cell_length_c   4.04851600
_cell_angle_alpha   90.00000000
_cell_angle_beta   90.00000000
_cell_angle_gamma   120.00000067
_symmetry_Int_Tables_number   1
_chemical_formula_structural   Y2As3Rh4
_chemical_formula_sum   'Y8 As12 Rh16'
_cell_volume   635.34953088
_cell_formula_units_Z   4
loop_
 _symmetry_equiv_pos_site_id
 _symmetry_equiv_pos_as_xyz
  1  'x, y, z'
loop_
 _atom_site_type_symbol
 _atom_site_label
 _atom_site_symmetry_multiplicity
 _atom_site_fract_x
 _atom_site_fract_y
 _atom_site_fract_z
 _atom_site_occupancy
  Y  Y0  1  0.188230  0.188230  0.500000  1
  Y  Y1  1  0.811770  0.000000  0.500000  1
  Y  Y2  1  0.000000  0.811770  0.500000  1
  Y  Y3  1  0.333333  0.666667  0.000000  1
  Y  Y4  1  0.666667  0.333333  0.000000  1
  Y  Y5  1  0.557970  0.557970  0.000000  1
  Y  Y6  1  0.442030  0.000000  0.000000  1
  Y  Y7  1  0.000000  0.442030  0.000000  1
  As  As8  1  0.824384  0.824384  0.000000  1
  As  As9  1  0.175616  0.000000  0.000000  1
  As  As10  1  0.000000  0.175616  0.000000  1
  As  As11  1  0.174878  0.486328  0.500000  1
  As  As12  1  0.513672  0.688550  0.500000  1
  As  As13  1  0.311450  0.825122  0.500000  1
  As  As14  1  0.688550  0.513672  0.500000  1
  As  As15  1  0.825122  0.311450  0.500000  1
  As  As16  1  0.486328  0.174878  0.500000  1
  As  As17  1  0.349372  0.349372  0.000000  1
  As  As18  1  0.650628  0.000000  0.000000  1
  As  As19  1  0.000000  0.650628  0.000000  1
  Rh  Rh20  1  0.723839  0.723839  0.500000  1
  Rh  Rh21  1  0.276161  0.000000  0.500000  1
  Rh  Rh22  1  0.000000  0.276161  0.500000  1
  Rh  Rh23  1  0.177174  0.373967  0.000000  1
  Rh  Rh24  1  0.626033  0.803207  0.000000  1
  Rh  Rh25  1  0.196793  0.822826  0.000000  1
  Rh  Rh26  1  0.803207  0.626033  0.000000  1
  Rh  Rh27  1  0.822826  0.196793  0.000000  1
  Rh  Rh28  1  0.373967  0.177174  0.000000  1
  Rh  Rh29  1  0.354024  0.480420  0.500000  1
  Rh  Rh30  1  0.519580  0.873605  0.500000  1
  Rh  Rh31  1  0.126395  0.645976  0.500000  1
  Rh  Rh32  1  0.873605  0.519580  0.500000  1
  Rh  Rh33  1  0.645976  0.126395  0.500000  1
  Rh  Rh34  1  0.480420  0.354024  0.500000  1
  Rh  Rh35  1  0.000000  0.000000  0.000000  1
