# generated using pymatgen
data_Sc5Co19(SiP)6
_symmetry_space_group_name_H-M   'P 1'
_cell_length_a   11.89669300
_cell_length_b   11.89669567
_cell_length_c   3.59380200
_cell_angle_alpha   90.00000000
_cell_angle_beta   90.00000000
_cell_angle_gamma   120.00000648
_symmetry_Int_Tables_number   1
_chemical_formula_structural   Sc5Co19(SiP)6
_chemical_formula_sum   'Sc5 Co19 Si6 P6'
_cell_volume   440.49132108
_cell_formula_units_Z   1
loop_
 _symmetry_equiv_pos_site_id
 _symmetry_equiv_pos_as_xyz
  1  'x, y, z'
loop_
 _atom_site_type_symbol
 _atom_site_label
 _atom_site_symmetry_multiplicity
 _atom_site_fract_x
 _atom_site_fract_y
 _atom_site_fract_z
 _atom_site_occupancy
  Sc  Sc0  1  0.666667  0.333333  0.000000  1
  Sc  Sc1  1  0.333333  0.666667  0.000000  1
  Sc  Sc2  1  0.816797  0.816797  0.500000  1
  Sc  Sc3  1  0.183203  0.000000  0.500000  1
  Sc  Sc4  1  0.000000  0.183203  0.500000  1
  Co  Co5  1  0.877326  0.353622  0.500000  1
  Co  Co6  1  0.646378  0.523705  0.500000  1
  Co  Co7  1  0.476295  0.122674  0.500000  1
  Co  Co8  1  0.353622  0.877326  0.500000  1
  Co  Co9  1  0.523705  0.646378  0.500000  1
  Co  Co10  1  0.122674  0.476295  0.500000  1
  Co  Co11  1  0.448819  0.448819  0.000000  1
  Co  Co12  1  0.551181  0.000000  0.000000  1
  Co  Co13  1  0.000000  0.551181  0.000000  1
  Co  Co14  1  0.807452  0.178371  0.000000  1
  Co  Co15  1  0.821629  0.629081  0.000000  1
  Co  Co16  1  0.370919  0.192548  0.000000  1
  Co  Co17  1  0.178371  0.807452  0.000000  1
  Co  Co18  1  0.629081  0.821629  0.000000  1
  Co  Co19  1  0.192548  0.370919  0.000000  1
  Co  Co20  1  0.276845  0.276845  0.500000  1
  Co  Co21  1  0.723155  0.000000  0.500000  1
  Co  Co22  1  0.000000  0.723155  0.500000  1
  Co  Co23  1  0.000000  0.000000  0.000000  1
  Si  Si24  1  0.680155  0.161926  0.500000  1
  Si  Si25  1  0.838074  0.518229  0.500000  1
  Si  Si26  1  0.481771  0.319845  0.500000  1
  Si  Si27  1  0.161926  0.680155  0.500000  1
  Si  Si28  1  0.518229  0.838074  0.500000  1
  Si  Si29  1  0.319845  0.481771  0.500000  1
  P  P30  1  0.177591  0.177591  0.000000  1
  P  P31  1  0.822409  0.000000  0.000000  1
  P  P32  1  0.000000  0.822409  0.000000  1
  P  P33  1  0.636290  0.636290  0.000000  1
  P  P34  1  0.363710  0.000000  0.000000  1
  P  P35  1  0.000000  0.363710  0.000000  1
