# generated using pymatgen
data_Sm3Ho(AgO3)4
_symmetry_space_group_name_H-M   'P 1'
_cell_length_a   3.91258553
_cell_length_b   5.64178700
_cell_length_c   12.99581900
_cell_angle_alpha   90.00000000
_cell_angle_beta   90.16144997
_cell_angle_gamma   90.00000000
_symmetry_Int_Tables_number   1
_chemical_formula_structural   Sm3Ho(AgO3)4
_chemical_formula_sum   'Sm3 Ho1 Ag4 O12'
_cell_volume   286.86823439
_cell_formula_units_Z   1
loop_
 _symmetry_equiv_pos_site_id
 _symmetry_equiv_pos_as_xyz
  1  'x, y, z'
loop_
 _atom_site_type_symbol
 _atom_site_label
 _atom_site_symmetry_multiplicity
 _atom_site_fract_x
 _atom_site_fract_y
 _atom_site_fract_z
 _atom_site_occupancy
  Sm  Sm0  1  0.259414  0.750000  0.077404  1
  Sm  Sm1  1  0.259785  0.250000  0.424326  1
  Sm  Sm2  1  0.740412  0.250000  0.921183  1
  Ho  Ho3  1  0.738800  0.750000  0.576359  1
  Ag  Ag4  1  0.071360  0.750000  0.826160  1
  Ag  Ag5  1  0.073434  0.250000  0.669946  1
  Ag  Ag6  1  0.929244  0.250000  0.172214  1
  Ag  Ag7  1  0.928929  0.750000  0.330603  1
  O  O8  1  0.194845  0.499871  0.251633  1
  O  O9  1  0.803843  0.997628  0.746178  1
  O  O10  1  0.803843  0.502372  0.746178  1
  O  O11  1  0.194845  0.000129  0.251633  1
  O  O12  1  0.745231  0.498019  0.075307  1
  O  O13  1  0.744027  0.504488  0.428492  1
  O  O14  1  0.254824  0.998234  0.923510  1
  O  O15  1  0.256541  0.994434  0.575782  1
  O  O16  1  0.744027  0.995512  0.428492  1
  O  O17  1  0.745231  0.001981  0.075307  1
  O  O18  1  0.256541  0.505566  0.575782  1
  O  O19  1  0.254824  0.501766  0.923510  1
