# generated using pymatgen
data_DyEr2In3Cu2Ir
_symmetry_space_group_name_H-M   'P 1'
_cell_length_a   7.52576000
_cell_length_b   7.51638450
_cell_length_c   3.88320600
_cell_angle_alpha   90.00000000
_cell_angle_beta   90.00000000
_cell_angle_gamma   120.04468401
_symmetry_Int_Tables_number   1
_chemical_formula_structural   DyEr2In3Cu2Ir
_chemical_formula_sum   'Dy1 Er2 In3 Cu2 Ir1'
_cell_volume   190.14490396
_cell_formula_units_Z   1
loop_
 _symmetry_equiv_pos_site_id
 _symmetry_equiv_pos_as_xyz
  1  'x, y, z'
loop_
 _atom_site_type_symbol
 _atom_site_label
 _atom_site_symmetry_multiplicity
 _atom_site_fract_x
 _atom_site_fract_y
 _atom_site_fract_z
 _atom_site_occupancy
  Dy  Dy0  1  0.016144  0.597551  0.500000  1
  Er  Er1  1  0.402033  0.419154  0.500000  1
  Er  Er2  1  0.581047  0.982723  0.500000  1
  In  In3  1  0.749643  0.744118  0.000000  1
  In  In4  1  0.993903  0.249500  0.000000  1
  In  In5  1  0.256363  0.006608  0.000000  1
  Cu  Cu6  1  0.999981  0.000239  0.500000  1
  Cu  Cu7  1  0.666109  0.332926  0.000000  1
  Ir  Ir8  1  0.334776  0.667180  0.000000  1
