# generated using pymatgen
data_Ce2NdHo(Al8Pd3)3
_symmetry_space_group_name_H-M   'P 1'
_cell_length_a   7.56288023
_cell_length_b   7.58315205
_cell_length_c   13.26663629
_cell_angle_alpha   84.55199948
_cell_angle_beta   79.12087214
_cell_angle_gamma   59.92803028
_symmetry_Int_Tables_number   1
_chemical_formula_structural   Ce2NdHo(Al8Pd3)3
_chemical_formula_sum   'Ce2 Nd1 Ho1 Al24 Pd9'
_cell_volume   646.60141533
_cell_formula_units_Z   1
loop_
 _symmetry_equiv_pos_site_id
 _symmetry_equiv_pos_as_xyz
  1  'x, y, z'
loop_
 _atom_site_type_symbol
 _atom_site_label
 _atom_site_symmetry_multiplicity
 _atom_site_fract_x
 _atom_site_fract_y
 _atom_site_fract_z
 _atom_site_occupancy
  Ce  Ce0  1  0.394857  0.168309  0.806554  1
  Ce  Ce1  1  0.605117  0.831813  0.193891  1
  Nd  Nd2  1  0.733280  0.497704  0.809638  1
  Ho  Ho3  1  0.265960  0.501979  0.192434  1
  Al  Al4  1  0.685850  0.834889  0.947054  1
  Al  Al5  1  0.314214  0.167140  0.055269  1
  Al  Al6  1  0.144298  0.834130  0.558730  1
  Al  Al7  1  0.856050  0.165755  0.439543  1
  Al  Al8  1  0.479443  0.167321  0.558679  1
  Al  Al9  1  0.520644  0.832852  0.440461  1
  Al  Al10  1  0.217008  0.165805  0.331210  1
  Al  Al11  1  0.783844  0.835170  0.666200  1
  Al  Al12  1  0.436224  0.507252  0.666542  1
  Al  Al13  1  0.563855  0.492461  0.330802  1
  Al  Al14  1  0.110632  0.158564  0.665320  1
  Al  Al15  1  0.891362  0.840304  0.332269  1
  Al  Al16  1  0.348800  0.501140  0.947831  1
  Al  Al17  1  0.647057  0.499494  0.056343  1
  Al  Al18  1  0.015805  0.165487  0.957180  1
  Al  Al19  1  0.984253  0.832765  0.046810  1
  Al  Al20  1  0.186960  0.501174  0.440364  1
  Al  Al21  1  0.813799  0.498652  0.558098  1
  Al  Al22  1  0.733734  0.164429  0.184030  1
  Al  Al23  1  0.263177  0.839091  0.816476  1
  Al  Al24  1  0.064790  0.631294  0.814810  1
  Al  Al25  1  0.939188  0.367555  0.185365  1
  Al  Al26  1  0.857350  0.038246  0.816045  1
  Al  Al27  1  0.142034  0.958583  0.183832  1
  Pd  Pd28  1  0.119396  0.495461  0.636012  1
  Pd  Pd29  1  0.881960  0.504979  0.362410  1
  Pd  Pd30  1  0.656706  0.171649  0.000846  1
  Pd  Pd31  1  0.342437  0.828720  0.001040  1
  Pd  Pd32  1  0.539244  0.168585  0.362713  1
  Pd  Pd33  1  0.460084  0.832183  0.635923  1
  Pd  Pd34  1  0.781275  0.172887  0.636490  1
  Pd  Pd35  1  0.219951  0.825734  0.361595  1
  Pd  Pd36  1  0.999362  0.500446  0.001191  1
