# generated using pymatgen
data_Ho10Ga3Bi2Pt
_symmetry_space_group_name_H-M   'P 1'
_cell_length_a   8.60728411
_cell_length_b   8.60728419
_cell_length_c   8.72796429
_cell_angle_alpha   124.55209392
_cell_angle_beta   124.55209063
_cell_angle_gamma   81.36065746
_symmetry_Int_Tables_number   1
_chemical_formula_structural   Ho10Ga3Bi2Pt
_chemical_formula_sum   'Ho10 Ga3 Bi2 Pt1'
_cell_volume   424.37936869
_cell_formula_units_Z   1
loop_
 _symmetry_equiv_pos_site_id
 _symmetry_equiv_pos_as_xyz
  1  'x, y, z'
loop_
 _atom_site_type_symbol
 _atom_site_label
 _atom_site_symmetry_multiplicity
 _atom_site_fract_x
 _atom_site_fract_y
 _atom_site_fract_z
 _atom_site_occupancy
  Ho  Ho0  1  0.997670  0.999518  0.997188  1
  Ho  Ho1  1  0.500482  0.502330  0.002812  1
  Ho  Ho2  1  0.785677  0.295274  0.799854  1
  Ho  Ho3  1  0.204726  0.714323  0.200146  1
  Ho  Ho4  1  0.485824  0.995420  0.200146  1
  Ho  Ho5  1  0.299526  0.469061  0.500000  1
  Ho  Ho6  1  0.030939  0.200474  0.500000  1
  Ho  Ho7  1  0.504580  0.014176  0.799854  1
  Ho  Ho8  1  0.701912  0.514346  0.500000  1
  Ho  Ho9  1  0.985654  0.798088  0.500000  1
  Ga  Ga10  1  0.141848  0.644102  0.785950  1
  Ga  Ga11  1  0.855898  0.358152  0.214050  1
  Ga  Ga12  1  0.639504  0.860496  0.500000  1
  Bi  Bi13  1  0.246874  0.253126  0.000000  1
  Bi  Bi14  1  0.746874  0.753126  0.000000  1
  Pt  Pt15  1  0.372009  0.127991  0.500000  1
