# generated using pymatgen
data_Li10OsRuN8
_symmetry_space_group_name_H-M   'P 1'
_cell_length_a   4.92007700
_cell_length_b   6.62339500
_cell_length_c   6.72733400
_cell_angle_alpha   90.00000000
_cell_angle_beta   90.00000000
_cell_angle_gamma   90.00000000
_symmetry_Int_Tables_number   1
_chemical_formula_structural   Li10OsRuN8
_chemical_formula_sum   'Li10 Os1 Ru1 N8'
_cell_volume   219.22775961
_cell_formula_units_Z   1
loop_
 _symmetry_equiv_pos_site_id
 _symmetry_equiv_pos_as_xyz
  1  'x, y, z'
loop_
 _atom_site_type_symbol
 _atom_site_label
 _atom_site_symmetry_multiplicity
 _atom_site_fract_x
 _atom_site_fract_y
 _atom_site_fract_z
 _atom_site_occupancy
  Li  Li0  1  0.756870  0.231482  0.305210  1
  Li  Li1  1  0.756870  0.231482  0.694790  1
  Li  Li2  1  0.756870  0.768518  0.305210  1
  Li  Li3  1  0.756870  0.768518  0.694790  1
  Li  Li4  1  0.245485  0.253146  0.205256  1
  Li  Li5  1  0.245485  0.253146  0.794744  1
  Li  Li6  1  0.245485  0.746854  0.205256  1
  Li  Li7  1  0.245485  0.746854  0.794744  1
  Li  Li8  1  0.298555  0.500000  0.500000  1
  Li  Li9  1  0.678563  0.000000  0.000000  1
  Os  Os10  1  0.723892  0.500000  0.000000  1
  Ru  Ru11  1  0.279216  0.000000  0.500000  1
  N  N12  1  0.074528  0.762915  0.500000  1
  N  N13  1  0.074528  0.237085  0.500000  1
  N  N14  1  0.928346  0.728078  0.000000  1
  N  N15  1  0.928346  0.271922  0.000000  1
  N  N16  1  0.519882  0.500000  0.225343  1
  N  N17  1  0.519882  0.500000  0.774657  1
  N  N18  1  0.482421  0.000000  0.264402  1
  N  N19  1  0.482421  0.000000  0.735598  1
