# generated using pymatgen
data_Tb8Er12Sn13Pb3
_symmetry_space_group_name_H-M   'P 1'
_cell_length_a   8.02609259
_cell_length_b   8.16083946
_cell_length_c   15.42501283
_cell_angle_alpha   90.05470945
_cell_angle_beta   89.94018321
_cell_angle_gamma   89.93014946
_symmetry_Int_Tables_number   1
_chemical_formula_structural   Tb8Er12Sn13Pb3
_chemical_formula_sum   'Tb8 Er12 Sn13 Pb3'
_cell_volume   1010.33122650
_cell_formula_units_Z   1
loop_
 _symmetry_equiv_pos_site_id
 _symmetry_equiv_pos_as_xyz
  1  'x, y, z'
loop_
 _atom_site_type_symbol
 _atom_site_label
 _atom_site_symmetry_multiplicity
 _atom_site_fract_x
 _atom_site_fract_y
 _atom_site_fract_z
 _atom_site_occupancy
  Tb  Tb0  1  0.521745  0.323029  0.902224  1
  Tb  Tb1  1  0.024906  0.179394  0.598694  1
  Tb  Tb2  1  0.475409  0.679338  0.401540  1
  Tb  Tb3  1  0.977050  0.819024  0.097569  1
  Tb  Tb4  1  0.480426  0.676478  0.097282  1
  Tb  Tb5  1  0.981960  0.822021  0.401264  1
  Tb  Tb6  1  0.517494  0.321873  0.598690  1
  Tb  Tb7  1  0.017931  0.180816  0.902062  1
  Er  Er8  1  0.366635  0.835882  0.876430  1
  Er  Er9  1  0.868465  0.661649  0.624349  1
  Er  Er10  1  0.632354  0.160952  0.375389  1
  Er  Er11  1  0.132909  0.340041  0.123107  1
  Er  Er12  1  0.635660  0.162306  0.123110  1
  Er  Er13  1  0.135163  0.337367  0.376983  1
  Er  Er14  1  0.364849  0.837332  0.623370  1
  Er  Er15  1  0.866768  0.662695  0.877245  1
  Er  Er16  1  0.198013  0.503716  0.750279  1
  Er  Er17  1  0.697389  0.996296  0.751497  1
  Er  Er18  1  0.802525  0.496149  0.248450  1
  Er  Er19  1  0.302502  0.003600  0.251271  1
  Sn  Sn20  1  0.205482  0.538540  0.958321  1
  Sn  Sn21  1  0.704899  0.961730  0.958292  1
  Sn  Sn22  1  0.205379  0.538550  0.541722  1
  Sn  Sn23  1  0.294734  0.038137  0.458498  1
  Sn  Sn24  1  0.794731  0.461107  0.041303  1
  Sn  Sn25  1  0.563915  0.620701  0.749717  1
  Sn  Sn26  1  0.063073  0.880217  0.750192  1
  Sn  Sn27  1  0.436834  0.379301  0.249742  1
  Sn  Sn28  1  0.937455  0.120878  0.249673  1
  Sn  Sn29  1  0.329854  0.147804  0.750878  1
  Sn  Sn30  1  0.829296  0.351890  0.749851  1
  Sn  Sn31  1  0.670075  0.850970  0.249838  1
  Sn  Sn32  1  0.170228  0.648139  0.249542  1
  Pb  Pb33  1  0.294486  0.039547  0.041389  1
  Pb  Pb34  1  0.792651  0.460537  0.459075  1
  Pb  Pb35  1  0.706755  0.961993  0.541162  1
