# generated using pymatgen
data_TbMn12NbP7
_symmetry_space_group_name_H-M   'P 1'
_cell_length_a   9.18286235
_cell_length_b   9.18263215
_cell_length_c   3.58015100
_cell_angle_alpha   90.00000000
_cell_angle_beta   90.00000000
_cell_angle_gamma   119.98135914
_symmetry_Int_Tables_number   1
_chemical_formula_structural   TbMn12NbP7
_chemical_formula_sum   'Tb1 Mn12 Nb1 P7'
_cell_volume   261.49222697
_cell_formula_units_Z   1
loop_
 _symmetry_equiv_pos_site_id
 _symmetry_equiv_pos_as_xyz
  1  'x, y, z'
loop_
 _atom_site_type_symbol
 _atom_site_label
 _atom_site_symmetry_multiplicity
 _atom_site_fract_x
 _atom_site_fract_y
 _atom_site_fract_z
 _atom_site_occupancy
  Tb  Tb0  1  0.666829  0.333438  0.499998  1
  Mn  Mn1  1  0.424286  0.045052  0.000000  1
  Mn  Mn2  1  0.954987  0.379130  0.000000  1
  Mn  Mn3  1  0.620906  0.575838  0.000000  1
  Mn  Mn4  1  0.158390  0.281118  0.000000  1
  Mn  Mn5  1  0.718904  0.877335  0.000000  1
  Mn  Mn6  1  0.122603  0.841341  0.000000  1
  Mn  Mn7  1  0.390957  0.441672  0.499998  1
  Mn  Mn8  1  0.558491  0.949538  0.499998  1
  Mn  Mn9  1  0.050435  0.608923  0.499998  1
  Mn  Mn10  1  0.229466  0.104755  0.499998  1
  Mn  Mn11  1  0.895324  0.124835  0.499998  1
  Mn  Mn12  1  0.875063  0.770224  0.499998  1
  Nb  Nb13  1  0.333242  0.666754  0.000000  1
  P  P14  1  0.132342  0.414928  0.499998  1
  P  P15  1  0.585242  0.717638  0.499998  1
  P  P16  1  0.282441  0.867651  0.499998  1
  P  P17  1  0.999989  0.999831  0.000000  1
  P  P18  1  0.410519  0.290827  0.000000  1
  P  P19  1  0.709361  0.119804  0.000000  1
  P  P20  1  0.880215  0.589363  0.000000  1
