# generated using pymatgen
data_Na3Sr(CeSe3)2
_symmetry_space_group_name_H-M   'P 1'
_cell_length_a   7.49179678
_cell_length_b   7.49179637
_cell_length_c   7.39300326
_cell_angle_alpha   99.75407868
_cell_angle_beta   99.75407628
_cell_angle_gamma   120.00868773
_symmetry_Int_Tables_number   1
_chemical_formula_structural   Na3Sr(CeSe3)2
_chemical_formula_sum   'Na3 Sr1 Ce2 Se6'
_cell_volume   338.06156841
_cell_formula_units_Z   1
loop_
 _symmetry_equiv_pos_site_id
 _symmetry_equiv_pos_as_xyz
  1  'x, y, z'
loop_
 _atom_site_type_symbol
 _atom_site_label
 _atom_site_symmetry_multiplicity
 _atom_site_fract_x
 _atom_site_fract_y
 _atom_site_fract_z
 _atom_site_occupancy
  Na  Na0  1  0.836791  0.163208  0.500000  1
  Na  Na1  1  0.500000  0.500000  0.500000  1
  Na  Na2  1  0.163208  0.836791  0.500000  1
  Sr  Sr3  1  0.000000  0.000000  0.000000  1
  Ce  Ce4  1  0.666935  0.333065  0.000000  1
  Ce  Ce5  1  0.333065  0.666935  0.000000  1
  Se  Se6  1  0.727855  0.727855  0.237291  1
  Se  Se7  1  0.429973  0.078589  0.234649  1
  Se  Se8  1  0.078589  0.429973  0.234649  1
  Se  Se9  1  0.921410  0.570026  0.765352  1
  Se  Se10  1  0.570026  0.921410  0.765352  1
  Se  Se11  1  0.272144  0.272144  0.762710  1
