# generated using pymatgen
data_Sc3Cu4SiP
_symmetry_space_group_name_H-M   'P 1'
_cell_length_a   6.38734400
_cell_length_b   6.38734436
_cell_length_c   3.88173000
_cell_angle_alpha   90.00000000
_cell_angle_beta   90.00000000
_cell_angle_gamma   120.00000852
_symmetry_Int_Tables_number   1
_chemical_formula_structural   Sc3Cu4SiP
_chemical_formula_sum   'Sc3 Cu4 Si1 P1'
_cell_volume   137.15023478
_cell_formula_units_Z   1
loop_
 _symmetry_equiv_pos_site_id
 _symmetry_equiv_pos_as_xyz
  1  'x, y, z'
loop_
 _atom_site_type_symbol
 _atom_site_label
 _atom_site_symmetry_multiplicity
 _atom_site_fract_x
 _atom_site_fract_y
 _atom_site_fract_z
 _atom_site_occupancy
  Sc  Sc0  1  0.999073  0.585230  0.500000  1
  Sc  Sc1  1  0.414770  0.413843  0.500000  1
  Sc  Sc2  1  0.586157  0.000927  0.500000  1
  Cu  Cu3  1  0.000000  0.000000  0.500000  1
  Cu  Cu4  1  0.246948  0.999078  0.000000  1
  Cu  Cu5  1  0.752130  0.753052  0.000000  1
  Cu  Cu6  1  0.000922  0.247870  0.000000  1
  Si  Si7  1  0.333333  0.666667  0.000000  1
  P  P8  1  0.666667  0.333333  0.000000  1
