# generated using pymatgen
data_Lu5Sc3AsP11Ir16
_symmetry_space_group_name_H-M   'P 1'
_cell_length_a   12.91079500
_cell_length_b   12.89428339
_cell_length_c   3.97001300
_cell_angle_alpha   90.00000000
_cell_angle_beta   90.00000000
_cell_angle_gamma   119.95770618
_symmetry_Int_Tables_number   1
_chemical_formula_structural   Lu5Sc3AsP11Ir16
_chemical_formula_sum   'Lu5 Sc3 As1 P11 Ir16'
_cell_volume   572.60836346
_cell_formula_units_Z   1
loop_
 _symmetry_equiv_pos_site_id
 _symmetry_equiv_pos_as_xyz
  1  'x, y, z'
loop_
 _atom_site_type_symbol
 _atom_site_label
 _atom_site_symmetry_multiplicity
 _atom_site_fract_x
 _atom_site_fract_y
 _atom_site_fract_z
 _atom_site_occupancy
  Lu  Lu0  1  0.334114  0.666779  0.500000  1
  Lu  Lu1  1  0.665886  0.332664  0.500000  1
  Lu  Lu2  1  0.000000  0.816040  0.000000  1
  Lu  Lu3  1  0.189279  0.188997  0.000000  1
  Lu  Lu4  1  0.810721  0.999720  0.000000  1
  Sc  Sc5  1  0.000000  0.441619  0.500000  1
  Sc  Sc6  1  0.553219  0.555589  0.500000  1
  Sc  Sc7  1  0.446781  0.002370  0.500000  1
  As  As8  1  0.000000  0.646024  0.500000  1
  P  P9  1  0.353810  0.353479  0.500000  1
  P  P10  1  0.646190  0.999669  0.500000  1
  P  P11  1  0.516709  0.687821  0.000000  1
  P  P12  1  0.314845  0.830877  0.000000  1
  P  P13  1  0.171113  0.481869  0.000000  1
  P  P14  1  0.483291  0.171112  0.000000  1
  P  P15  1  0.685155  0.516032  0.000000  1
  P  P16  1  0.828887  0.310756  0.000000  1
  P  P17  1  0.000000  0.174848  0.500000  1
  P  P18  1  0.823077  0.823913  0.500000  1
  P  P19  1  0.176923  0.000836  0.500000  1
  Ir  Ir20  1  0.508829  0.867139  0.000000  1
  Ir  Ir21  1  0.140074  0.642323  0.000000  1
  Ir  Ir22  1  0.358334  0.492819  0.000000  1
  Ir  Ir23  1  0.491171  0.358310  0.000000  1
  Ir  Ir24  1  0.859926  0.502249  0.000000  1
  Ir  Ir25  1  0.641666  0.134484  0.000000  1
  Ir  Ir26  1  0.000000  0.275323  0.000000  1
  Ir  Ir27  1  0.723045  0.725738  0.000000  1
  Ir  Ir28  1  0.276955  0.002693  0.000000  1
  Ir  Ir29  1  0.629030  0.809316  0.500000  1
  Ir  Ir30  1  0.201117  0.826164  0.500000  1
  Ir  Ir31  1  0.179200  0.368802  0.500000  1
  Ir  Ir32  1  0.370970  0.180286  0.500000  1
  Ir  Ir33  1  0.798883  0.625048  0.500000  1
  Ir  Ir34  1  0.820800  0.189602  0.500000  1
  Ir  Ir35  1  0.000000  0.998691  0.500000  1
