# generated using pymatgen
data_K3La(In4Au3)2
_symmetry_space_group_name_H-M   'P 1'
_cell_length_a   15.42024033
_cell_length_b   15.42024102
_cell_length_c   4.75833000
_cell_angle_alpha   90.00000000
_cell_angle_beta   90.00000000
_cell_angle_gamma   120.66969552
_symmetry_Int_Tables_number   1
_chemical_formula_structural   K3La(In4Au3)2
_chemical_formula_sum   'K6 La2 In16 Au12'
_cell_volume   973.18859611
_cell_formula_units_Z   2
loop_
 _symmetry_equiv_pos_site_id
 _symmetry_equiv_pos_as_xyz
  1  'x, y, z'
loop_
 _atom_site_type_symbol
 _atom_site_label
 _atom_site_symmetry_multiplicity
 _atom_site_fract_x
 _atom_site_fract_y
 _atom_site_fract_z
 _atom_site_occupancy
  K  K0  1  0.549306  0.549306  0.000000  1
  K  K1  1  0.332864  0.667106  0.000000  1
  K  K2  1  0.667106  0.332864  0.000000  1
  K  K3  1  0.817920  0.999904  0.500000  1
  K  K4  1  0.999904  0.817920  0.500000  1
  K  K5  1  0.183036  0.183036  0.500000  1
  La  La6  1  0.446756  0.000862  0.000000  1
  La  La7  1  0.000862  0.446756  0.000000  1
  In  In8  1  0.187336  0.385756  0.000000  1
  In  In9  1  0.622724  0.809542  0.000000  1
  In  In10  1  0.385756  0.187336  0.000000  1
  In  In11  1  0.192957  0.814010  0.000000  1
  In  In12  1  0.809542  0.622724  0.000000  1
  In  In13  1  0.814010  0.192957  0.000000  1
  In  In14  1  0.273214  0.999937  0.500000  1
  In  In15  1  0.999937  0.273214  0.500000  1
  In  In16  1  0.719350  0.719350  0.500000  1
  In  In17  1  0.348800  0.475600  0.500000  1
  In  In18  1  0.520639  0.876313  0.500000  1
  In  In19  1  0.475600  0.348800  0.500000  1
  In  In20  1  0.127911  0.651032  0.500000  1
  In  In21  1  0.876313  0.520639  0.500000  1
  In  In22  1  0.651032  0.127911  0.500000  1
  In  In23  1  0.003046  0.003046  0.000000  1
  Au  Au24  1  0.161927  0.482845  0.500000  1
  Au  Au25  1  0.514411  0.688692  0.500000  1
  Au  Au26  1  0.482845  0.161927  0.500000  1
  Au  Au27  1  0.317429  0.837721  0.500000  1
  Au  Au28  1  0.688692  0.514411  0.500000  1
  Au  Au29  1  0.837721  0.317429  0.500000  1
  Au  Au30  1  0.180674  0.999732  0.000000  1
  Au  Au31  1  0.999732  0.180674  0.000000  1
  Au  Au32  1  0.819875  0.819875  0.000000  1
  Au  Au33  1  0.642423  0.001580  0.000000  1
  Au  Au34  1  0.001580  0.642423  0.000000  1
  Au  Au35  1  0.346768  0.346768  0.000000  1
