# generated using pymatgen
data_Y3Er2Tl2(InNi)2
_symmetry_space_group_name_H-M   'P 1'
_cell_length_a   3.59504800
_cell_length_b   8.10584600
_cell_length_c   18.04835900
_cell_angle_alpha   90.00000000
_cell_angle_beta   90.00000000
_cell_angle_gamma   90.00000000
_symmetry_Int_Tables_number   1
_chemical_formula_structural   Y3Er2Tl2(InNi)2
_chemical_formula_sum   'Y6 Er4 Tl4 In4 Ni4'
_cell_volume   525.94552316
_cell_formula_units_Z   2
loop_
 _symmetry_equiv_pos_site_id
 _symmetry_equiv_pos_as_xyz
  1  'x, y, z'
loop_
 _atom_site_type_symbol
 _atom_site_label
 _atom_site_symmetry_multiplicity
 _atom_site_fract_x
 _atom_site_fract_y
 _atom_site_fract_z
 _atom_site_occupancy
  Y  Y0  1  0.000000  0.500000  0.500000  1
  Y  Y1  1  0.000000  0.000000  0.000000  1
  Y  Y2  1  0.000000  0.742178  0.281854  1
  Y  Y3  1  0.000000  0.257822  0.718146  1
  Y  Y4  1  0.000000  0.757822  0.781854  1
  Y  Y5  1  0.000000  0.242178  0.218146  1
  Er  Er6  1  0.000000  0.616069  0.090779  1
  Er  Er7  1  0.000000  0.383931  0.909221  1
  Er  Er8  1  0.000000  0.883931  0.590779  1
  Er  Er9  1  0.000000  0.116069  0.409221  1
  Tl  Tl10  1  0.500000  0.702101  0.934474  1
  Tl  Tl11  1  0.500000  0.297899  0.065526  1
  Tl  Tl12  1  0.500000  0.797899  0.434474  1
  Tl  Tl13  1  0.500000  0.202101  0.565526  1
  In  In14  1  0.500000  0.581900  0.654295  1
  In  In15  1  0.500000  0.418100  0.345705  1
  In  In16  1  0.500000  0.918100  0.154295  1
  In  In17  1  0.500000  0.081900  0.845705  1
  Ni  Ni18  1  0.500000  0.530252  0.197152  1
  Ni  Ni19  1  0.500000  0.469748  0.802848  1
  Ni  Ni20  1  0.500000  0.969748  0.697152  1
  Ni  Ni21  1  0.500000  0.030252  0.302848  1
