# generated using pymatgen
data_HoMnAl10Rh
_symmetry_space_group_name_H-M   'P 1'
_cell_length_a   6.81566197
_cell_length_b   6.81566278
_cell_length_c   9.08210856
_cell_angle_alpha   90.57282348
_cell_angle_beta   90.57281752
_cell_angle_gamma   96.68901801
_symmetry_Int_Tables_number   1
_chemical_formula_structural   HoMnAl10Rh
_chemical_formula_sum   'Ho2 Mn2 Al20 Rh2'
_cell_volume   418.97425558
_cell_formula_units_Z   2
loop_
 _symmetry_equiv_pos_site_id
 _symmetry_equiv_pos_as_xyz
  1  'x, y, z'
loop_
 _atom_site_type_symbol
 _atom_site_label
 _atom_site_symmetry_multiplicity
 _atom_site_fract_x
 _atom_site_fract_y
 _atom_site_fract_z
 _atom_site_occupancy
  Ho  Ho0  1  0.873210  0.126790  0.750000  1
  Ho  Ho1  1  0.126790  0.873210  0.250000  1
  Mn  Mn2  1  0.000000  0.500000  0.000000  1
  Mn  Mn3  1  0.500000  0.000000  0.500000  1
  Al  Al4  1  0.619824  0.372171  0.548506  1
  Al  Al5  1  0.380176  0.627829  0.451494  1
  Al  Al6  1  0.372171  0.619824  0.048506  1
  Al  Al7  1  0.627829  0.380176  0.951494  1
  Al  Al8  1  0.229534  0.221870  0.496451  1
  Al  Al9  1  0.770466  0.778130  0.503549  1
  Al  Al10  1  0.778130  0.770466  0.003549  1
  Al  Al11  1  0.221870  0.229534  0.996451  1
  Al  Al12  1  0.848582  0.161130  0.098647  1
  Al  Al13  1  0.151418  0.838870  0.901353  1
  Al  Al14  1  0.161130  0.848582  0.598647  1
  Al  Al15  1  0.838870  0.151418  0.401353  1
  Al  Al16  1  0.861904  0.587130  0.753723  1
  Al  Al17  1  0.138096  0.412870  0.246277  1
  Al  Al18  1  0.412870  0.138096  0.746277  1
  Al  Al19  1  0.587130  0.861904  0.253723  1
  Al  Al20  1  0.221579  0.478410  0.755851  1
  Al  Al21  1  0.778421  0.521590  0.244149  1
  Al  Al22  1  0.521590  0.778421  0.744149  1
  Al  Al23  1  0.478410  0.221579  0.255851  1
  Rh  Rh24  1  0.000000  0.500000  0.500000  1
  Rh  Rh25  1  0.500000  0.000000  0.000000  1
