# generated using pymatgen
data_Pa4IrRh3Pb2
_symmetry_space_group_name_H-M   'P 1'
_cell_length_a   7.82379410
_cell_length_b   7.82379410
_cell_length_c   3.58595700
_cell_angle_alpha   90.00000000
_cell_angle_beta   90.00000000
_cell_angle_gamma   90.11727491
_symmetry_Int_Tables_number   1
_chemical_formula_structural   Pa4IrRh3Pb2
_chemical_formula_sum   'Pa4 Ir1 Rh3 Pb2'
_cell_volume   219.50225821
_cell_formula_units_Z   1
loop_
 _symmetry_equiv_pos_site_id
 _symmetry_equiv_pos_as_xyz
  1  'x, y, z'
loop_
 _atom_site_type_symbol
 _atom_site_label
 _atom_site_symmetry_multiplicity
 _atom_site_fract_x
 _atom_site_fract_y
 _atom_site_fract_z
 _atom_site_occupancy
  Pa  Pa0  1  0.333609  0.170557  0.500001  1
  Pa  Pa1  1  0.829462  0.329463  0.500001  1
  Pa  Pa2  1  0.168480  0.668479  0.500001  1
  Pa  Pa3  1  0.670556  0.833608  0.500001  1
  Ir  Ir4  1  0.628280  0.128281  0.000000  1
  Rh  Rh5  1  0.131174  0.369017  0.000000  1
  Rh  Rh6  1  0.869018  0.631173  0.000000  1
  Rh  Rh7  1  0.365548  0.865549  0.000000  1
  Pb  Pb8  1  0.003766  0.000107  0.000000  1
  Pb  Pb9  1  0.500108  0.503767  0.000000  1
