# generated using pymatgen
data_PrHo2Lu2Bi3
_symmetry_space_group_name_H-M   'P 1'
_cell_length_a   8.19409900
_cell_length_b   9.44615700
_cell_length_c   11.97911600
_cell_angle_alpha   90.00000000
_cell_angle_beta   90.00000000
_cell_angle_gamma   90.00000000
_symmetry_Int_Tables_number   1
_chemical_formula_structural   PrHo2Lu2Bi3
_chemical_formula_sum   'Pr4 Ho8 Lu8 Bi12'
_cell_volume   927.21646859
_cell_formula_units_Z   4
loop_
 _symmetry_equiv_pos_site_id
 _symmetry_equiv_pos_as_xyz
  1  'x, y, z'
loop_
 _atom_site_type_symbol
 _atom_site_label
 _atom_site_symmetry_multiplicity
 _atom_site_fract_x
 _atom_site_fract_y
 _atom_site_fract_z
 _atom_site_occupancy
  Pr  Pr0  1  0.315465  0.250204  0.219564  1
  Pr  Pr1  1  0.815465  0.249796  0.280436  1
  Pr  Pr2  1  0.684535  0.750204  0.780436  1
  Pr  Pr3  1  0.184535  0.749796  0.719564  1
  Ho  Ho4  1  0.352490  0.750127  0.217804  1
  Ho  Ho5  1  0.852490  0.749873  0.282196  1
  Ho  Ho6  1  0.647510  0.250127  0.782196  1
  Ho  Ho7  1  0.147510  0.249873  0.717804  1
  Ho  Ho8  1  0.691990  0.564415  0.060084  1
  Ho  Ho9  1  0.191990  0.935585  0.439916  1
  Ho  Ho10  1  0.308010  0.064415  0.939916  1
  Ho  Ho11  1  0.808010  0.435585  0.560084  1
  Lu  Lu12  1  0.308576  0.432591  0.940006  1
  Lu  Lu13  1  0.808576  0.067409  0.559994  1
  Lu  Lu14  1  0.691424  0.932591  0.059994  1
  Lu  Lu15  1  0.191424  0.567409  0.440006  1
  Lu  Lu16  1  0.477175  0.249875  0.488999  1
  Lu  Lu17  1  0.977175  0.250125  0.011001  1
  Lu  Lu18  1  0.522825  0.749875  0.511001  1
  Lu  Lu19  1  0.022825  0.750125  0.988999  1
  Bi  Bi20  1  0.402119  0.747675  0.962289  1
  Bi  Bi21  1  0.902119  0.752325  0.537711  1
  Bi  Bi22  1  0.597881  0.247675  0.037711  1
  Bi  Bi23  1  0.097881  0.252325  0.462289  1
  Bi  Bi24  1  0.564625  0.990832  0.329098  1
  Bi  Bi25  1  0.064625  0.509168  0.170902  1
  Bi  Bi26  1  0.435375  0.490832  0.670902  1
  Bi  Bi27  1  0.935375  0.009168  0.829098  1
  Bi  Bi28  1  0.435589  0.008897  0.671144  1
  Bi  Bi29  1  0.935589  0.491103  0.828856  1
  Bi  Bi30  1  0.564411  0.508897  0.328856  1
  Bi  Bi31  1  0.064411  0.991103  0.171144  1
