# generated using pymatgen
data_TmLu3(B6Ir)2
_symmetry_space_group_name_H-M   'P 1'
_cell_length_a   3.58857300
_cell_length_b   9.08110613
_cell_length_c   11.42111900
_cell_angle_alpha   90.00881726
_cell_angle_beta   90.00000000
_cell_angle_gamma   90.00000000
_symmetry_Int_Tables_number   1
_chemical_formula_structural   TmLu3(B6Ir)2
_chemical_formula_sum   'Tm2 Lu6 B24 Ir4'
_cell_volume   372.19384600
_cell_formula_units_Z   2
loop_
 _symmetry_equiv_pos_site_id
 _symmetry_equiv_pos_as_xyz
  1  'x, y, z'
loop_
 _atom_site_type_symbol
 _atom_site_label
 _atom_site_symmetry_multiplicity
 _atom_site_fract_x
 _atom_site_fract_y
 _atom_site_fract_z
 _atom_site_occupancy
  Tm  Tm0  1  0.500000  0.321378  0.413374  1
  Tm  Tm1  1  0.500000  0.678622  0.586626  1
  Lu  Lu2  1  0.500000  0.178938  0.913548  1
  Lu  Lu3  1  0.500000  0.821062  0.086452  1
  Lu  Lu4  1  0.500000  0.444701  0.125241  1
  Lu  Lu5  1  0.500000  0.555299  0.874759  1
  Lu  Lu6  1  0.500000  0.055268  0.625580  1
  Lu  Lu7  1  0.500000  0.944732  0.374420  1
  B  B8  1  0.000000  0.107541  0.470718  1
  B  B9  1  0.000000  0.892459  0.529282  1
  B  B10  1  0.000000  0.391527  0.970478  1
  B  B11  1  0.000000  0.608473  0.029522  1
  B  B12  1  0.000000  0.132130  0.316541  1
  B  B13  1  0.000000  0.867870  0.683459  1
  B  B14  1  0.000000  0.367562  0.816957  1
  B  B15  1  0.000000  0.632438  0.183043  1
  B  B16  1  0.000000  0.053662  0.065182  1
  B  B17  1  0.000000  0.946338  0.934818  1
  B  B18  1  0.000000  0.446162  0.565683  1
  B  B19  1  0.000000  0.553838  0.434317  1
  B  B20  1  0.000000  0.481654  0.286518  1
  B  B21  1  0.000000  0.518346  0.713482  1
  B  B22  1  0.000000  0.018631  0.787053  1
  B  B23  1  0.000000  0.981369  0.212947  1
  B  B24  1  0.000000  0.250629  0.078651  1
  B  B25  1  0.000000  0.749371  0.921349  1
  B  B26  1  0.000000  0.249090  0.579163  1
  B  B27  1  0.000000  0.750910  0.420837  1
  B  B28  1  0.000000  0.294790  0.235219  1
  B  B29  1  0.000000  0.705210  0.764781  1
  B  B30  1  0.000000  0.204949  0.735897  1
  B  B31  1  0.000000  0.795051  0.264103  1
  Ir  Ir32  1  0.500000  0.138945  0.178688  1
  Ir  Ir33  1  0.500000  0.861055  0.821312  1
  Ir  Ir34  1  0.500000  0.360229  0.679636  1
  Ir  Ir35  1  0.500000  0.639771  0.320364  1
