# generated using pymatgen
data_Pr4Y3Er(SiO5)4
_symmetry_space_group_name_H-M   'P 1'
_cell_length_a   8.14756366
_cell_length_b   8.15419722
_cell_length_c   10.82932108
_cell_angle_alpha   61.04221166
_cell_angle_beta   60.99427696
_cell_angle_gamma   50.23762189
_symmetry_Int_Tables_number   1
_chemical_formula_structural   Pr4Y3Er(SiO5)4
_chemical_formula_sum   'Pr4 Y3 Er1 Si4 O20'
_cell_volume   467.20145627
_cell_formula_units_Z   1
loop_
 _symmetry_equiv_pos_site_id
 _symmetry_equiv_pos_as_xyz
  1  'x, y, z'
loop_
 _atom_site_type_symbol
 _atom_site_label
 _atom_site_symmetry_multiplicity
 _atom_site_fract_x
 _atom_site_fract_y
 _atom_site_fract_z
 _atom_site_occupancy
  Pr  Pr0  1  0.782475  0.292570  0.035422  1
  Pr  Pr1  1  0.708187  0.216542  0.464290  1
  Pr  Pr2  1  0.215912  0.708801  0.964937  1
  Pr  Pr3  1  0.291476  0.781980  0.535906  1
  Y  Y4  1  0.519318  0.764441  0.164582  1
  Y  Y5  1  0.765199  0.521626  0.662431  1
  Y  Y6  1  0.479529  0.235806  0.836347  1
  Er  Er7  1  0.238583  0.476453  0.336515  1
  Si  Si8  1  0.729217  0.902743  0.306971  1
  Si  Si9  1  0.096813  0.272070  0.193409  1
  Si  Si10  1  0.271933  0.097150  0.691593  1
  Si  Si11  1  0.902689  0.728828  0.807746  1
  O  O12  1  0.419287  0.611044  0.111265  1
  O  O13  1  0.386002  0.576835  0.391644  1
  O  O14  1  0.578036  0.389163  0.890704  1
  O  O15  1  0.612828  0.421452  0.608555  1
  O  O16  1  0.871284  0.723660  0.431260  1
  O  O17  1  0.274888  0.135057  0.066226  1
  O  O18  1  0.135981  0.276504  0.564030  1
  O  O19  1  0.724377  0.865996  0.934699  1
  O  O20  1  0.567581  0.840103  0.317981  1
  O  O21  1  0.157878  0.433014  0.185379  1
  O  O22  1  0.433829  0.157077  0.683383  1
  O  O23  1  0.841933  0.566966  0.817027  1
  O  O24  1  0.159119  0.587766  0.822697  1
  O  O25  1  0.413301  0.841251  0.676028  1
  O  O26  1  0.840468  0.413103  0.178141  1
  O  O27  1  0.585470  0.159101  0.323338  1
  O  O28  1  0.906349  0.909104  0.647474  1
  O  O29  1  0.090748  0.093409  0.851738  1
  O  O30  1  0.093468  0.090316  0.353078  1
  O  O31  1  0.905841  0.910069  0.145207  1
