# generated using pymatgen
data_LiNp2AgAs4
_symmetry_space_group_name_H-M   'P 1'
_cell_length_a   3.94954200
_cell_length_b   3.94954107
_cell_length_c   20.62679500
_cell_angle_alpha   90.00000000
_cell_angle_beta   90.00000000
_cell_angle_gamma   90.00873318
_symmetry_Int_Tables_number   1
_chemical_formula_structural   LiNp2AgAs4
_chemical_formula_sum   'Li2 Np4 Ag2 As8'
_cell_volume   321.75486173
_cell_formula_units_Z   2
loop_
 _symmetry_equiv_pos_site_id
 _symmetry_equiv_pos_as_xyz
  1  'x, y, z'
loop_
 _atom_site_type_symbol
 _atom_site_label
 _atom_site_symmetry_multiplicity
 _atom_site_fract_x
 _atom_site_fract_y
 _atom_site_fract_z
 _atom_site_occupancy
  Li  Li0  1  0.242335  0.742335  0.750000  1
  Li  Li1  1  0.257665  0.757665  0.250000  1
  Np  Np2  1  0.254239  0.254552  0.389202  1
  Np  Np3  1  0.745448  0.745761  0.610798  1
  Np  Np4  1  0.754552  0.754239  0.110798  1
  Np  Np5  1  0.245761  0.245448  0.889202  1
  Ag  Ag6  1  0.757378  0.257378  0.250000  1
  Ag  Ag7  1  0.742622  0.242622  0.750000  1
  As  As8  1  0.744844  0.744342  0.840715  1
  As  As9  1  0.255658  0.255156  0.159285  1
  As  As10  1  0.244342  0.244844  0.659285  1
  As  As11  1  0.755156  0.755658  0.340715  1
  As  As12  1  0.251504  0.748496  0.000000  1
  As  As13  1  0.248496  0.751504  0.500000  1
  As  As14  1  0.748681  0.251319  0.000000  1
  As  As15  1  0.751319  0.248681  0.500000  1
