# generated using pymatgen
data_Y9Ho3ZnCo4Sn
_symmetry_space_group_name_H-M   'P 1'
_cell_length_a   8.33779611
_cell_length_b   8.35184314
_cell_length_c   8.33779596
_cell_angle_alpha   111.85486260
_cell_angle_beta   109.17353928
_cell_angle_gamma   107.34852448
_symmetry_Int_Tables_number   1
_chemical_formula_structural   Y9Ho3ZnCo4Sn
_chemical_formula_sum   'Y9 Ho3 Zn1 Co4 Sn1'
_cell_volume   446.62985299
_cell_formula_units_Z   1
loop_
 _symmetry_equiv_pos_site_id
 _symmetry_equiv_pos_as_xyz
  1  'x, y, z'
loop_
 _atom_site_type_symbol
 _atom_site_label
 _atom_site_symmetry_multiplicity
 _atom_site_fract_x
 _atom_site_fract_y
 _atom_site_fract_z
 _atom_site_occupancy
  Y  Y0  1  0.428560  0.227740  0.199482  1
  Y  Y1  1  0.572203  0.772048  0.800890  1
  Y  Y2  1  0.028258  0.227740  0.799180  1
  Y  Y3  1  0.971158  0.772048  0.199845  1
  Y  Y4  1  0.181667  0.283181  0.465735  1
  Y  Y5  1  0.818770  0.716506  0.534757  1
  Y  Y6  1  0.181750  0.716506  0.897735  1
  Y  Y7  1  0.817445  0.283181  0.101514  1
  Y  Y8  1  0.323884  0.634621  0.310737  1
  Ho  Ho9  1  0.675487  0.362529  0.687042  1
  Ho  Ho10  1  0.324551  0.011238  0.686688  1
  Ho  Ho11  1  0.675977  0.989317  0.313340  1
  Zn  Zn12  1  0.000265  0.000509  0.000244  1
  Co  Co13  1  0.350356  0.001736  0.350816  1
  Co  Co14  1  0.650920  0.001736  0.651380  1
  Co  Co15  1  0.113294  0.614515  0.501220  1
  Co  Co16  1  0.885353  0.384958  0.499606  1
  Sn  Sn17  1  0.500102  0.499892  0.999790  1
