# generated using pymatgen
data_Th4Re3(TcB4)3
_symmetry_space_group_name_H-M   'P 1'
_cell_length_a   6.34514329
_cell_length_b   6.35688167
_cell_length_c   7.64705662
_cell_angle_alpha   90.83451100
_cell_angle_beta   90.87687582
_cell_angle_gamma   115.04098553
_symmetry_Int_Tables_number   1
_chemical_formula_structural   Th4Re3(TcB4)3
_chemical_formula_sum   'Th4 Re3 Tc3 B12'
_cell_volume   279.34604424
_cell_formula_units_Z   1
loop_
 _symmetry_equiv_pos_site_id
 _symmetry_equiv_pos_as_xyz
  1  'x, y, z'
loop_
 _atom_site_type_symbol
 _atom_site_label
 _atom_site_symmetry_multiplicity
 _atom_site_fract_x
 _atom_site_fract_y
 _atom_site_fract_z
 _atom_site_occupancy
  Th  Th0  1  0.096501  0.442965  0.325822  1
  Th  Th1  1  0.562160  0.903371  0.173399  1
  Th  Th2  1  0.903739  0.558757  0.674279  1
  Th  Th3  1  0.439925  0.096271  0.826762  1
  Re  Re4  1  0.194178  0.008346  0.413027  1
  Re  Re5  1  0.007422  0.195297  0.913143  1
  Re  Re6  1  0.805166  0.992072  0.586932  1
  Tc  Tc7  1  0.589224  0.411495  0.250424  1
  Tc  Tc8  1  0.411149  0.589022  0.749892  1
  Tc  Tc9  1  0.992162  0.804123  0.085631  1
  B  B10  1  0.242859  0.154052  0.134470  1
  B  B11  1  0.844964  0.753105  0.368057  1
  B  B12  1  0.753940  0.845850  0.865265  1
  B  B13  1  0.154871  0.245527  0.633321  1
  B  B14  1  0.583156  0.160639  0.482161  1
  B  B15  1  0.839327  0.417041  0.017741  1
  B  B16  1  0.416454  0.839542  0.517174  1
  B  B17  1  0.162157  0.582823  0.982063  1
  B  B18  1  0.443878  0.349580  0.533337  1
  B  B19  1  0.650910  0.555986  0.966832  1
  B  B20  1  0.555743  0.650331  0.466803  1
  B  B21  1  0.350116  0.443807  0.033465  1
