# generated using pymatgen
data_HfGaCu3Pd
_symmetry_space_group_name_H-M   'P 1'
_cell_length_a   4.91767459
_cell_length_b   4.91767345
_cell_length_c   4.91767389
_cell_angle_alpha   60.40972057
_cell_angle_beta   60.40971570
_cell_angle_gamma   60.40971720
_symmetry_Int_Tables_number   1
_chemical_formula_structural   HfGaCu3Pd
_chemical_formula_sum   'Hf1 Ga1 Cu3 Pd1'
_cell_volume   84.87297473
_cell_formula_units_Z   1
loop_
 _symmetry_equiv_pos_site_id
 _symmetry_equiv_pos_as_xyz
  1  'x, y, z'
loop_
 _atom_site_type_symbol
 _atom_site_label
 _atom_site_symmetry_multiplicity
 _atom_site_fract_x
 _atom_site_fract_y
 _atom_site_fract_z
 _atom_site_occupancy
  Hf  Hf0  1  0.247145  0.247145  0.247145  1
  Ga  Ga1  1  0.627681  0.627681  0.627681  1
  Cu  Cu2  1  0.625562  0.625562  0.125786  1
  Cu  Cu3  1  0.625562  0.125786  0.625562  1
  Cu  Cu4  1  0.125786  0.625562  0.625562  1
  Pd  Pd5  1  0.998264  0.998264  0.998264  1
