# generated using pymatgen
data_Ho12Co2CuNi2Hg
_symmetry_space_group_name_H-M   'P 1'
_cell_length_a   8.22257614
_cell_length_b   8.22257798
_cell_length_c   8.22257678
_cell_angle_alpha   112.15236867
_cell_angle_beta   110.29094027
_cell_angle_gamma   106.03006667
_symmetry_Int_Tables_number   1
_chemical_formula_structural   Ho12Co2CuNi2Hg
_chemical_formula_sum   'Ho12 Co2 Cu1 Ni2 Hg1'
_cell_volume   426.68972776
_cell_formula_units_Z   1
loop_
 _symmetry_equiv_pos_site_id
 _symmetry_equiv_pos_as_xyz
  1  'x, y, z'
loop_
 _atom_site_type_symbol
 _atom_site_label
 _atom_site_symmetry_multiplicity
 _atom_site_fract_x
 _atom_site_fract_y
 _atom_site_fract_z
 _atom_site_occupancy
  Ho  Ho0  1  0.958180  0.267281  0.690899  1
  Ho  Ho1  1  0.041820  0.732719  0.309101  1
  Ho  Ho2  1  0.670595  0.859272  0.188675  1
  Ho  Ho3  1  0.329405  0.518080  0.188675  1
  Ho  Ho4  1  0.329405  0.140728  0.811325  1
  Ho  Ho5  1  0.670595  0.481920  0.811325  1
  Ho  Ho6  1  0.576383  0.267281  0.309101  1
  Ho  Ho7  1  0.423617  0.732719  0.690899  1
  Ho  Ho8  1  0.179754  0.776888  0.956642  1
  Ho  Ho9  1  0.820246  0.776888  0.597136  1
  Ho  Ho10  1  0.179754  0.223112  0.402864  1
  Ho  Ho11  1  0.820246  0.223112  0.043358  1
  Co  Co12  1  0.660819  0.500000  0.160819  1
  Co  Co13  1  0.339181  0.500000  0.839181  1
  Cu  Cu14  1  0.000000  0.500000  0.500000  1
  Ni  Ni15  1  0.118326  0.118326  0.000000  1
  Ni  Ni16  1  0.881674  0.881674  0.000000  1
  Hg  Hg17  1  0.500000  0.000000  0.500000  1
