# generated using pymatgen
data_Y5Er7(Si2Ni)4
_symmetry_space_group_name_H-M   'P 1'
_cell_length_a   4.10688600
_cell_length_b   11.22852160
_cell_length_c   11.20939972
_cell_angle_alpha   90.10440913
_cell_angle_beta   90.00000000
_cell_angle_gamma   90.00000000
_symmetry_Int_Tables_number   1
_chemical_formula_structural   Y5Er7(Si2Ni)4
_chemical_formula_sum   'Y5 Er7 Si8 Ni4'
_cell_volume   516.91229397
_cell_formula_units_Z   1
loop_
 _symmetry_equiv_pos_site_id
 _symmetry_equiv_pos_as_xyz
  1  'x, y, z'
loop_
 _atom_site_type_symbol
 _atom_site_label
 _atom_site_symmetry_multiplicity
 _atom_site_fract_x
 _atom_site_fract_y
 _atom_site_fract_z
 _atom_site_occupancy
  Y  Y0  1  0.250000  0.374844  0.057209  1
  Y  Y1  1  0.750000  0.625109  0.942075  1
  Y  Y2  1  0.750000  0.874738  0.443163  1
  Y  Y3  1  0.250000  0.125190  0.556986  1
  Y  Y4  1  0.250000  0.696266  0.214950  1
  Er  Er5  1  0.750000  0.304184  0.784179  1
  Er  Er6  1  0.750000  0.195248  0.284474  1
  Er  Er7  1  0.250000  0.805276  0.715067  1
  Er  Er8  1  0.250000  0.440181  0.382979  1
  Er  Er9  1  0.750000  0.559486  0.618200  1
  Er  Er10  1  0.750000  0.941456  0.116307  1
  Er  Er11  1  0.250000  0.059900  0.882526  1
  Si  Si12  1  0.250000  0.685118  0.477213  1
  Si  Si13  1  0.750000  0.314777  0.523719  1
  Si  Si14  1  0.750000  0.185626  0.023806  1
  Si  Si15  1  0.250000  0.815061  0.974916  1
  Si  Si16  1  0.250000  0.003595  0.302254  1
  Si  Si17  1  0.750000  0.996465  0.697150  1
  Si  Si18  1  0.750000  0.503424  0.198083  1
  Si  Si19  1  0.250000  0.494957  0.802982  1
  Ni  Ni20  1  0.250000  0.132986  0.129880  1
  Ni  Ni21  1  0.750000  0.867509  0.869176  1
  Ni  Ni22  1  0.750000  0.631089  0.373009  1
  Ni  Ni23  1  0.250000  0.367517  0.629694  1
