# generated using pymatgen
data_Nd2YTm(NiAs)4
_symmetry_space_group_name_H-M   'P 1'
_cell_length_a   4.07732700
_cell_length_b   4.07732659
_cell_length_c   15.91463500
_cell_angle_alpha   90.00000000
_cell_angle_beta   90.00000000
_cell_angle_gamma   120.00001144
_symmetry_Int_Tables_number   1
_chemical_formula_structural   Nd2YTm(NiAs)4
_chemical_formula_sum   'Nd2 Y1 Tm1 Ni4 As4'
_cell_volume   229.12807520
_cell_formula_units_Z   1
loop_
 _symmetry_equiv_pos_site_id
 _symmetry_equiv_pos_as_xyz
  1  'x, y, z'
loop_
 _atom_site_type_symbol
 _atom_site_label
 _atom_site_symmetry_multiplicity
 _atom_site_fract_x
 _atom_site_fract_y
 _atom_site_fract_z
 _atom_site_occupancy
  Nd  Nd0  1  0.000000  0.000000  0.001727  1
  Nd  Nd1  1  0.000000  0.000000  0.498273  1
  Y  Y2  1  0.000000  0.000000  0.750000  1
  Tm  Tm3  1  0.000000  0.000000  0.250000  1
  Ni  Ni4  1  0.333333  0.666667  0.140974  1
  Ni  Ni5  1  0.666667  0.333333  0.865129  1
  Ni  Ni6  1  0.666667  0.333333  0.634871  1
  Ni  Ni7  1  0.333333  0.666667  0.359026  1
  As  As8  1  0.333333  0.666667  0.624771  1
  As  As9  1  0.666667  0.333333  0.373406  1
  As  As10  1  0.666667  0.333333  0.126594  1
  As  As11  1  0.333333  0.666667  0.875229  1
