# generated using pymatgen
data_Ba6PrNd(Ir2O9)2
_symmetry_space_group_name_H-M   'P 1'
_cell_length_a   6.02078420
_cell_length_b   6.02116312
_cell_length_c   14.99999726
_cell_angle_alpha   89.03385005
_cell_angle_beta   89.02370589
_cell_angle_gamma   119.80994655
_symmetry_Int_Tables_number   1
_chemical_formula_structural   Ba6PrNd(Ir2O9)2
_chemical_formula_sum   'Ba6 Pr1 Nd1 Ir4 O18'
_cell_volume   471.55845040
_cell_formula_units_Z   1
loop_
 _symmetry_equiv_pos_site_id
 _symmetry_equiv_pos_as_xyz
  1  'x, y, z'
loop_
 _atom_site_type_symbol
 _atom_site_label
 _atom_site_symmetry_multiplicity
 _atom_site_fract_x
 _atom_site_fract_y
 _atom_site_fract_z
 _atom_site_occupancy
  Ba  Ba0  1  0.327056  0.659053  0.595032  1
  Ba  Ba1  1  0.996193  0.003919  0.749641  1
  Ba  Ba2  1  0.341044  0.673020  0.904611  1
  Ba  Ba3  1  0.672944  0.340947  0.404968  1
  Ba  Ba4  1  0.003807  0.996081  0.250359  1
  Ba  Ba5  1  0.658956  0.326980  0.095389  1
  Pr  Pr6  1  0.000000  0.000000  0.000000  1
  Nd  Nd7  1  0.000000  0.000000  0.500000  1
  Ir  Ir8  1  0.681122  0.348905  0.833426  1
  Ir  Ir9  1  0.348855  0.681084  0.334235  1
  Ir  Ir10  1  0.318878  0.651095  0.166574  1
  Ir  Ir11  1  0.651145  0.318916  0.665765  1
  O  O12  1  0.148756  0.330270  0.100138  1
  O  O13  1  0.671013  0.851687  0.400564  1
  O  O14  1  0.851244  0.669730  0.899862  1
  O  O15  1  0.328987  0.148313  0.599436  1
  O  O16  1  0.793931  0.147876  0.591734  1
  O  O17  1  0.851723  0.207193  0.907641  1
  O  O18  1  0.206069  0.852124  0.408266  1
  O  O19  1  0.148277  0.792807  0.092359  1
  O  O20  1  0.792006  0.609001  0.577949  1
  O  O21  1  0.393038  0.209161  0.921632  1
  O  O22  1  0.207994  0.390999  0.422051  1
  O  O23  1  0.606962  0.790839  0.078368  1
  O  O24  1  0.023101  0.507623  0.260574  1
  O  O25  1  0.492591  0.977089  0.239967  1
  O  O26  1  0.976899  0.492377  0.739426  1
  O  O27  1  0.507409  0.022911  0.760033  1
  O  O28  1  0.491208  0.509037  0.250246  1
  O  O29  1  0.508792  0.490963  0.749754  1
