# generated using pymatgen
data_Sc2B4Os3W2
_symmetry_space_group_name_H-M   'P 1'
_cell_length_a   8.75764506
_cell_length_b   3.07425200
_cell_length_c   10.03453804
_cell_angle_alpha   90.00000000
_cell_angle_beta   90.00176512
_cell_angle_gamma   90.00000000
_symmetry_Int_Tables_number   1
_chemical_formula_structural   Sc2B4Os3W2
_chemical_formula_sum   'Sc4 B8 Os6 W4'
_cell_volume   270.16195298
_cell_formula_units_Z   2
loop_
 _symmetry_equiv_pos_site_id
 _symmetry_equiv_pos_as_xyz
  1  'x, y, z'
loop_
 _atom_site_type_symbol
 _atom_site_label
 _atom_site_symmetry_multiplicity
 _atom_site_fract_x
 _atom_site_fract_y
 _atom_site_fract_z
 _atom_site_occupancy
  Sc  Sc0  1  0.163609  0.500000  0.680918  1
  Sc  Sc1  1  0.836391  0.500000  0.319082  1
  Sc  Sc2  1  0.663584  0.500000  0.819066  1
  Sc  Sc3  1  0.336416  0.500000  0.180934  1
  B  B4  1  0.353891  0.500000  0.898674  1
  B  B5  1  0.646109  0.500000  0.101326  1
  B  B6  1  0.466300  0.500000  0.586614  1
  B  B7  1  0.533700  0.500000  0.413386  1
  B  B8  1  0.853892  0.500000  0.601325  1
  B  B9  1  0.146108  0.500000  0.398675  1
  B  B10  1  0.966303  0.500000  0.913363  1
  B  B11  1  0.033697  0.500000  0.086637  1
  Os  Os12  1  0.410739  0.000000  0.738803  1
  Os  Os13  1  0.589261  0.000000  0.261197  1
  Os  Os14  1  0.910734  0.000000  0.761200  1
  Os  Os15  1  0.089266  0.000000  0.238800  1
  Os  Os16  1  0.500000  0.000000  0.000000  1
  Os  Os17  1  0.000000  0.000000  0.500000  1
  W  W18  1  0.163885  0.000000  0.952407  1
  W  W19  1  0.836115  0.000000  0.047593  1
  W  W20  1  0.663874  0.000000  0.547587  1
  W  W21  1  0.336126  0.000000  0.452413  1
