# generated using pymatgen
data_Li2Ca4(CdP2)3
_symmetry_space_group_name_H-M   'P 1'
_cell_length_a   9.78957830
_cell_length_b   9.78957810
_cell_length_c   15.34478900
_cell_angle_alpha   90.00000000
_cell_angle_beta   90.00000000
_cell_angle_gamma   154.60609857
_symmetry_Int_Tables_number   1
_chemical_formula_structural   Li2Ca4(CdP2)3
_chemical_formula_sum   'Li4 Ca8 Cd6 P12'
_cell_volume   630.64235507
_cell_formula_units_Z   2
loop_
 _symmetry_equiv_pos_site_id
 _symmetry_equiv_pos_as_xyz
  1  'x, y, z'
loop_
 _atom_site_type_symbol
 _atom_site_label
 _atom_site_symmetry_multiplicity
 _atom_site_fract_x
 _atom_site_fract_y
 _atom_site_fract_z
 _atom_site_occupancy
  Li  Li0  1  0.851120  0.148880  0.250000  1
  Li  Li1  1  0.148880  0.851120  0.750000  1
  Li  Li2  1  0.561534  0.438466  0.250000  1
  Li  Li3  1  0.438466  0.561534  0.750000  1
  Ca  Ca4  1  0.988708  0.011292  0.376594  1
  Ca  Ca5  1  0.011292  0.988708  0.623406  1
  Ca  Ca6  1  0.988708  0.011292  0.123406  1
  Ca  Ca7  1  0.011292  0.988708  0.876594  1
  Ca  Ca8  1  0.828141  0.171859  0.929559  1
  Ca  Ca9  1  0.171859  0.828141  0.070441  1
  Ca  Ca10  1  0.828141  0.171859  0.570441  1
  Ca  Ca11  1  0.171859  0.828141  0.429559  1
  Cd  Cd12  1  0.351536  0.648464  0.385807  1
  Cd  Cd13  1  0.648464  0.351536  0.614193  1
  Cd  Cd14  1  0.351536  0.648464  0.114193  1
  Cd  Cd15  1  0.648464  0.351536  0.885807  1
  Cd  Cd16  1  0.701385  0.298615  0.250000  1
  Cd  Cd17  1  0.298615  0.701385  0.750000  1
  P  P18  1  0.773683  0.226317  0.393119  1
  P  P19  1  0.226317  0.773683  0.606881  1
  P  P20  1  0.773683  0.226317  0.106881  1
  P  P21  1  0.226317  0.773683  0.893119  1
  P  P22  1  0.556834  0.443166  0.476837  1
  P  P23  1  0.443166  0.556834  0.523163  1
  P  P24  1  0.556834  0.443166  0.023163  1
  P  P25  1  0.443166  0.556834  0.976837  1
  P  P26  1  0.435303  0.564697  0.250000  1
  P  P27  1  0.564697  0.435303  0.750000  1
  P  P28  1  0.115118  0.884882  0.250000  1
  P  P29  1  0.884882  0.115118  0.750000  1
