# generated using pymatgen
data_ErLu19Ir7Pt5
_symmetry_space_group_name_H-M   'P 1'
_cell_length_a   10.79444325
_cell_length_b   10.79578665
_cell_length_c   6.25159900
_cell_angle_alpha   89.99859889
_cell_angle_beta   90.01233024
_cell_angle_gamma   89.83337942
_symmetry_Int_Tables_number   1
_chemical_formula_structural   ErLu19Ir7Pt5
_chemical_formula_sum   'Er1 Lu19 Ir7 Pt5'
_cell_volume   728.52390580
_cell_formula_units_Z   1
loop_
 _symmetry_equiv_pos_site_id
 _symmetry_equiv_pos_as_xyz
  1  'x, y, z'
loop_
 _atom_site_type_symbol
 _atom_site_label
 _atom_site_symmetry_multiplicity
 _atom_site_fract_x
 _atom_site_fract_y
 _atom_site_fract_z
 _atom_site_occupancy
  Er  Er0  1  0.090292  0.294733  0.127016  1
  Lu  Lu1  1  0.296331  0.088252  0.374698  1
  Lu  Lu2  1  0.295766  0.910606  0.874187  1
  Lu  Lu3  1  0.704345  0.085580  0.873698  1
  Lu  Lu4  1  0.704104  0.910239  0.373999  1
  Lu  Lu5  1  0.584711  0.790597  0.878221  1
  Lu  Lu6  1  0.583149  0.206731  0.374789  1
  Lu  Lu7  1  0.415292  0.791640  0.377293  1
  Lu  Lu8  1  0.412276  0.207210  0.879429  1
  Lu  Lu9  1  0.209584  0.415851  0.621896  1
  Lu  Lu10  1  0.208247  0.585740  0.122539  1
  Lu  Lu11  1  0.792969  0.417270  0.125528  1
  Lu  Lu12  1  0.792531  0.588015  0.620611  1
  Lu  Lu13  1  0.910637  0.704449  0.125736  1
  Lu  Lu14  1  0.913798  0.295962  0.625838  1
  Lu  Lu15  1  0.089454  0.704550  0.626139  1
  Lu  Lu16  1  0.999586  0.999741  0.499143  1
  Lu  Lu17  1  0.999649  0.999251  0.999777  1
  Lu  Lu18  1  0.498134  0.501507  0.000644  1
  Lu  Lu19  1  0.498954  0.502079  0.499215  1
  Ir  Ir20  1  0.654253  0.652775  0.249478  1
  Ir  Ir21  1  0.348702  0.345733  0.251511  1
  Ir  Ir22  1  0.345329  0.654852  0.749950  1
  Ir  Ir23  1  0.500469  0.999909  0.121477  1
  Ir  Ir24  1  0.500154  0.999762  0.623265  1
  Ir  Ir25  1  0.999950  0.500578  0.876748  1
  Ir  Ir26  1  0.999630  0.500492  0.378662  1
  Pt  Pt27  1  0.844392  0.154027  0.250295  1
  Pt  Pt28  1  0.846071  0.847301  0.750458  1
  Pt  Pt29  1  0.152858  0.152771  0.747495  1
  Pt  Pt30  1  0.153619  0.846435  0.249883  1
  Pt  Pt31  1  0.654766  0.345362  0.750382  1
