# generated using pymatgen
data_Zr6SnGeBi
_symmetry_space_group_name_H-M   'P 1'
_cell_length_a   7.71827000
_cell_length_b   7.71826923
_cell_length_c   3.93637700
_cell_angle_alpha   90.00000000
_cell_angle_beta   90.00000000
_cell_angle_gamma   120.00000332
_symmetry_Int_Tables_number   1
_chemical_formula_structural   Zr6SnGeBi
_chemical_formula_sum   'Zr6 Sn1 Ge1 Bi1'
_cell_volume   203.08001797
_cell_formula_units_Z   1
loop_
 _symmetry_equiv_pos_site_id
 _symmetry_equiv_pos_as_xyz
  1  'x, y, z'
loop_
 _atom_site_type_symbol
 _atom_site_label
 _atom_site_symmetry_multiplicity
 _atom_site_fract_x
 _atom_site_fract_y
 _atom_site_fract_z
 _atom_site_occupancy
  Zr  Zr0  1  0.246740  0.003752  0.500000  1
  Zr  Zr1  1  0.996248  0.242988  0.500000  1
  Zr  Zr2  1  0.757012  0.753260  0.500000  1
  Zr  Zr3  1  0.609573  0.004018  0.000000  1
  Zr  Zr4  1  0.995982  0.605555  0.000000  1
  Zr  Zr5  1  0.394445  0.390427  0.000000  1
  Sn  Sn6  1  0.666667  0.333333  0.500000  1
  Ge  Ge7  1  0.000000  0.000000  0.000000  1
  Bi  Bi8  1  0.333333  0.666667  0.500000  1
