# generated using pymatgen
data_LiLa2Si4Ag
_symmetry_space_group_name_H-M   'P 1'
_cell_length_a   9.16075382
_cell_length_b   9.16075440
_cell_length_c   4.23060200
_cell_angle_alpha   90.00000000
_cell_angle_beta   90.00000000
_cell_angle_gamma   152.79271908
_symmetry_Int_Tables_number   1
_chemical_formula_structural   LiLa2Si4Ag
_chemical_formula_sum   'Li1 La2 Si4 Ag1'
_cell_volume   162.32344172
_cell_formula_units_Z   1
loop_
 _symmetry_equiv_pos_site_id
 _symmetry_equiv_pos_as_xyz
  1  'x, y, z'
loop_
 _atom_site_type_symbol
 _atom_site_label
 _atom_site_symmetry_multiplicity
 _atom_site_fract_x
 _atom_site_fract_y
 _atom_site_fract_z
 _atom_site_occupancy
  Li  Li0  1  0.250883  0.749117  0.250000  1
  La  La1  1  0.598293  0.401707  0.250000  1
  La  La2  1  0.401645  0.598355  0.750000  1
  Si  Si3  1  0.966887  0.033113  0.250000  1
  Si  Si4  1  0.033922  0.966078  0.750000  1
  Si  Si5  1  0.834762  0.165238  0.250000  1
  Si  Si6  1  0.165115  0.834885  0.750000  1
  Ag  Ag7  1  0.748493  0.251507  0.750000  1
