# generated using pymatgen
data_Al2SnI8
_symmetry_space_group_name_H-M   'P 1'
_cell_length_a   8.30408400
_cell_length_b   8.51557000
_cell_length_c   15.61026405
_cell_angle_alpha   87.34773198
_cell_angle_beta   90.00000000
_cell_angle_gamma   90.00000000
_symmetry_Int_Tables_number   1
_chemical_formula_structural   Al2SnI8
_chemical_formula_sum   'Al4 Sn2 I16'
_cell_volume   1102.68185539
_cell_formula_units_Z   2
loop_
 _symmetry_equiv_pos_site_id
 _symmetry_equiv_pos_as_xyz
  1  'x, y, z'
loop_
 _atom_site_type_symbol
 _atom_site_label
 _atom_site_symmetry_multiplicity
 _atom_site_fract_x
 _atom_site_fract_y
 _atom_site_fract_z
 _atom_site_occupancy
  Al  Al0  1  0.932786  0.221075  0.579640  1
  Al  Al1  1  0.067214  0.221075  0.079640  1
  Al  Al2  1  0.571341  0.641740  0.777456  1
  Al  Al3  1  0.428659  0.641740  0.277456  1
  Sn  Sn4  1  0.754199  0.073692  0.810476  1
  Sn  Sn5  1  0.245801  0.073692  0.310476  1
  I  I6  1  0.421516  0.615184  0.640067  1
  I  I7  1  0.578484  0.615184  0.140067  1
  I  I8  1  0.870094  0.731448  0.760448  1
  I  I9  1  0.129906  0.731448  0.260448  1
  I  I10  1  0.938445  0.478159  0.496135  1
  I  I11  1  0.061555  0.478159  0.996135  1
  I  I12  1  0.920914  0.000004  0.001738  1
  I  I13  1  0.079086  0.000004  0.501738  1
  I  I14  1  0.640679  0.127756  0.616807  1
  I  I15  1  0.359321  0.127756  0.116807  1
  I  I16  1  0.560915  0.385370  0.873611  1
  I  I17  1  0.439085  0.385370  0.373611  1
  I  I18  1  0.443449  0.860985  0.866282  1
  I  I19  1  0.556551  0.860985  0.366282  1
  I  I20  1  0.930422  0.231987  0.229541  1
  I  I21  1  0.069578  0.231987  0.729541  1
