# generated using pymatgen
data_Y4Ga24NiPt8
_symmetry_space_group_name_H-M   'P 1'
_cell_length_a   7.50665676
_cell_length_b   7.54839903
_cell_length_c   13.35540999
_cell_angle_alpha   84.50640769
_cell_angle_beta   79.40405512
_cell_angle_gamma   60.36350543
_symmetry_Int_Tables_number   1
_chemical_formula_structural   Y4Ga24NiPt8
_chemical_formula_sum   'Y4 Ga24 Ni1 Pt8'
_cell_volume   646.53532748
_cell_formula_units_Z   1
loop_
 _symmetry_equiv_pos_site_id
 _symmetry_equiv_pos_as_xyz
  1  'x, y, z'
loop_
 _atom_site_type_symbol
 _atom_site_label
 _atom_site_symmetry_multiplicity
 _atom_site_fract_x
 _atom_site_fract_y
 _atom_site_fract_z
 _atom_site_occupancy
  Y  Y0  1  0.397316  0.164486  0.811642  1
  Y  Y1  1  0.602684  0.835514  0.188358  1
  Y  Y2  1  0.728701  0.496950  0.812278  1
  Y  Y3  1  0.271299  0.503050  0.187722  1
  Ga  Ga4  1  0.693695  0.824175  0.942021  1
  Ga  Ga5  1  0.306305  0.175825  0.057979  1
  Ga  Ga6  1  0.146077  0.833477  0.558896  1
  Ga  Ga7  1  0.853923  0.166523  0.441104  1
  Ga  Ga8  1  0.478377  0.167969  0.555976  1
  Ga  Ga9  1  0.521623  0.832031  0.444024  1
  Ga  Ga10  1  0.219245  0.166048  0.323725  1
  Ga  Ga11  1  0.780755  0.833952  0.676275  1
  Ga  Ga12  1  0.436045  0.504407  0.675387  1
  Ga  Ga13  1  0.563955  0.495593  0.324613  1
  Ga  Ga14  1  0.106653  0.163742  0.675179  1
  Ga  Ga15  1  0.893347  0.836258  0.324821  1
  Ga  Ga16  1  0.346737  0.497793  0.942556  1
  Ga  Ga17  1  0.653263  0.502207  0.057444  1
  Ga  Ga18  1  0.018966  0.179594  0.945605  1
  Ga  Ga19  1  0.981034  0.820406  0.054395  1
  Ga  Ga20  1  0.186585  0.498014  0.443352  1
  Ga  Ga21  1  0.813415  0.501986  0.556648  1
  Ga  Ga22  1  0.737950  0.165544  0.181075  1
  Ga  Ga23  1  0.262050  0.834456  0.818925  1
  Ga  Ga24  1  0.059058  0.620748  0.821986  1
  Ga  Ga25  1  0.940942  0.379252  0.178014  1
  Ga  Ga26  1  0.859053  0.035902  0.818275  1
  Ga  Ga27  1  0.140947  0.964098  0.181725  1
  Ni  Ni28  1  0.000000  0.500000  0.000000  1
  Pt  Pt29  1  0.117237  0.497260  0.639117  1
  Pt  Pt30  1  0.882763  0.502740  0.360883  1
  Pt  Pt31  1  0.660205  0.169613  0.999482  1
  Pt  Pt32  1  0.339795  0.830387  0.000518  1
  Pt  Pt33  1  0.541333  0.165306  0.359938  1
  Pt  Pt34  1  0.458667  0.834694  0.640062  1
  Pt  Pt35  1  0.779487  0.173310  0.637642  1
  Pt  Pt36  1  0.220513  0.826690  0.362358  1
