# generated using pymatgen
data_Li4Pr3NpSi8
_symmetry_space_group_name_H-M   'P 1'
_cell_length_a   3.85156100
_cell_length_b   7.69322150
_cell_length_c   10.45043882
_cell_angle_alpha   90.19428279
_cell_angle_beta   90.00000000
_cell_angle_gamma   90.00000000
_symmetry_Int_Tables_number   1
_chemical_formula_structural   Li4Pr3NpSi8
_chemical_formula_sum   'Li4 Pr3 Np1 Si8'
_cell_volume   309.65425162
_cell_formula_units_Z   1
loop_
 _symmetry_equiv_pos_site_id
 _symmetry_equiv_pos_as_xyz
  1  'x, y, z'
loop_
 _atom_site_type_symbol
 _atom_site_label
 _atom_site_symmetry_multiplicity
 _atom_site_fract_x
 _atom_site_fract_y
 _atom_site_fract_z
 _atom_site_occupancy
  Li  Li0  1  0.250000  0.988482  0.391384  1
  Li  Li1  1  0.250000  0.495612  0.107763  1
  Li  Li2  1  0.750000  0.005835  0.607053  1
  Li  Li3  1  0.750000  0.505338  0.890527  1
  Pr  Pr4  1  0.250000  0.141574  0.865354  1
  Pr  Pr5  1  0.250000  0.636594  0.634060  1
  Pr  Pr6  1  0.750000  0.865133  0.136552  1
  Np  Np7  1  0.750000  0.363905  0.364477  1
  Si  Si8  1  0.250000  0.236234  0.558564  1
  Si  Si9  1  0.250000  0.729520  0.930317  1
  Si  Si10  1  0.750000  0.764385  0.427447  1
  Si  Si11  1  0.750000  0.276001  0.078265  1
  Si  Si12  1  0.250000  0.648146  0.322579  1
  Si  Si13  1  0.250000  0.174134  0.190934  1
  Si  Si14  1  0.750000  0.332701  0.674076  1
  Si  Si15  1  0.750000  0.836407  0.820647  1
