# generated using pymatgen
data_Hf6MnAuN2
_symmetry_space_group_name_H-M   'P 1'
_cell_length_a   5.93592960
_cell_length_b   5.93593029
_cell_length_c   8.74458200
_cell_angle_alpha   90.00000000
_cell_angle_beta   90.00000000
_cell_angle_gamma   147.87977240
_symmetry_Int_Tables_number   1
_chemical_formula_structural   Hf6MnAuN2
_chemical_formula_sum   'Hf6 Mn1 Au1 N2'
_cell_volume   163.82542329
_cell_formula_units_Z   1
loop_
 _symmetry_equiv_pos_site_id
 _symmetry_equiv_pos_as_xyz
  1  'x, y, z'
loop_
 _atom_site_type_symbol
 _atom_site_label
 _atom_site_symmetry_multiplicity
 _atom_site_fract_x
 _atom_site_fract_y
 _atom_site_fract_z
 _atom_site_occupancy
  Hf  Hf0  1  0.630230  0.369770  0.960923  1
  Hf  Hf1  1  0.365745  0.634255  0.434123  1
  Hf  Hf2  1  0.365745  0.634255  0.065877  1
  Hf  Hf3  1  0.630230  0.369770  0.539077  1
  Hf  Hf4  1  0.956889  0.043111  0.750000  1
  Hf  Hf5  1  0.057099  0.942901  0.250000  1
  Mn  Mn6  1  0.740577  0.259423  0.250000  1
  Au  Au7  1  0.253524  0.746476  0.750000  1
  N  N8  1  0.999981  0.000019  0.000415  1
  N  N9  1  0.999981  0.000019  0.499585  1
