# generated using pymatgen
data_Er4InPt
_symmetry_space_group_name_H-M   'P 1'
_cell_length_a   9.63785179
_cell_length_b   9.63785156
_cell_length_c   9.63785100
_cell_angle_alpha   60.00000534
_cell_angle_beta   60.00000613
_cell_angle_gamma   59.99999934
_symmetry_Int_Tables_number   1
_chemical_formula_structural   Er4InPt
_chemical_formula_sum   'Er16 In4 Pt4'
_cell_volume   633.03208372
_cell_formula_units_Z   4
loop_
 _symmetry_equiv_pos_site_id
 _symmetry_equiv_pos_as_xyz
  1  'x, y, z'
loop_
 _atom_site_type_symbol
 _atom_site_label
 _atom_site_symmetry_multiplicity
 _atom_site_fract_x
 _atom_site_fract_y
 _atom_site_fract_z
 _atom_site_occupancy
  Er  Er0  1  0.351273  0.351273  0.351273  1
  Er  Er1  1  0.351273  0.351273  0.946182  1
  Er  Er2  1  0.351273  0.946182  0.351273  1
  Er  Er3  1  0.946182  0.351273  0.351273  1
  Er  Er4  1  0.810567  0.189433  0.189433  1
  Er  Er5  1  0.189433  0.810567  0.810567  1
  Er  Er6  1  0.189433  0.810567  0.189433  1
  Er  Er7  1  0.810567  0.189433  0.810567  1
  Er  Er8  1  0.189433  0.189433  0.810567  1
  Er  Er9  1  0.810567  0.810567  0.189433  1
  Er  Er10  1  0.937370  0.562630  0.562630  1
  Er  Er11  1  0.562630  0.937370  0.937370  1
  Er  Er12  1  0.562630  0.937370  0.562630  1
  Er  Er13  1  0.937370  0.562630  0.937370  1
  Er  Er14  1  0.562630  0.562630  0.937370  1
  Er  Er15  1  0.937370  0.937370  0.562630  1
  In  In16  1  0.583508  0.583508  0.583508  1
  In  In17  1  0.583508  0.583508  0.249475  1
  In  In18  1  0.583508  0.249475  0.583508  1
  In  In19  1  0.249475  0.583508  0.583508  1
  Pt  Pt20  1  0.143018  0.143018  0.143018  1
  Pt  Pt21  1  0.143018  0.143018  0.570945  1
  Pt  Pt22  1  0.143018  0.570945  0.143018  1
  Pt  Pt23  1  0.570945  0.143018  0.143018  1
