# generated using pymatgen
data_DyY5Co16(P6W)2
_symmetry_space_group_name_H-M   'P 1'
_cell_length_a   3.72741500
_cell_length_b   10.56798907
_cell_length_c   12.26557209
_cell_angle_alpha   90.01361169
_cell_angle_beta   90.00000000
_cell_angle_gamma   90.00000000
_symmetry_Int_Tables_number   1
_chemical_formula_structural   DyY5Co16(P6W)2
_chemical_formula_sum   'Dy1 Y5 Co16 P12 W2'
_cell_volume   483.15658301
_cell_formula_units_Z   1
loop_
 _symmetry_equiv_pos_site_id
 _symmetry_equiv_pos_as_xyz
  1  'x, y, z'
loop_
 _atom_site_type_symbol
 _atom_site_label
 _atom_site_symmetry_multiplicity
 _atom_site_fract_x
 _atom_site_fract_y
 _atom_site_fract_z
 _atom_site_occupancy
  Dy  Dy0  1  0.500000  0.819485  0.205108  1
  Y  Y1  1  0.000000  0.499974  0.524070  1
  Y  Y2  1  0.500000  0.999969  0.475992  1
  Y  Y3  1  0.500000  0.180720  0.204992  1
  Y  Y4  1  0.000000  0.680637  0.794890  1
  Y  Y5  1  0.000000  0.319278  0.795002  1
  Co  Co6  1  0.500000  0.500003  0.701352  1
  Co  Co7  1  0.000000  0.999703  0.298551  1
  Co  Co8  1  0.000000  0.500015  0.987273  1
  Co  Co9  1  0.500000  0.000030  0.012896  1
  Co  Co10  1  0.500000  0.332731  0.990458  1
  Co  Co11  1  0.500000  0.667205  0.990605  1
  Co  Co12  1  0.000000  0.167290  0.009630  1
  Co  Co13  1  0.000000  0.832775  0.009623  1
  Co  Co14  1  0.500000  0.295866  0.431352  1
  Co  Co15  1  0.500000  0.704163  0.431265  1
  Co  Co16  1  0.000000  0.204069  0.568628  1
  Co  Co17  1  0.000000  0.795964  0.568595  1
  Co  Co18  1  0.500000  0.878465  0.707580  1
  Co  Co19  1  0.500000  0.121478  0.707550  1
  Co  Co20  1  0.000000  0.621703  0.292245  1
  Co  Co21  1  0.000000  0.378478  0.292391  1
  P  P22  1  0.500000  0.500013  0.880733  1
  P  P23  1  0.000000  0.999844  0.119356  1
  P  P24  1  0.500000  0.500019  0.349652  1
  P  P25  1  0.000000  0.999985  0.650291  1
  P  P26  1  0.500000  0.311107  0.615813  1
  P  P27  1  0.500000  0.688907  0.615742  1
  P  P28  1  0.000000  0.188812  0.384173  1
  P  P29  1  0.000000  0.811033  0.384041  1
  P  P30  1  0.500000  0.844350  0.892889  1
  P  P31  1  0.500000  0.155608  0.892816  1
  P  P32  1  0.000000  0.655778  0.107290  1
  P  P33  1  0.000000  0.344470  0.107204  1
  W  W34  1  0.500000  0.500032  0.156118  1
  W  W35  1  0.000000  0.000042  0.843834  1
