# generated using pymatgen
data_Ta12Ga8Co3Pt(CN)2
_symmetry_space_group_name_H-M   'P 1'
_cell_length_a   8.22660893
_cell_length_b   8.20993598
_cell_length_c   8.20993700
_cell_angle_alpha   60.02457521
_cell_angle_beta   60.04794738
_cell_angle_gamma   60.04795319
_symmetry_Int_Tables_number   1
_chemical_formula_structural   Ta12Ga8Co3Pt(CN)2
_chemical_formula_sum   'Ta12 Ga8 Co3 Pt1 C2 N2'
_cell_volume   392.44657667
_cell_formula_units_Z   1
loop_
 _symmetry_equiv_pos_site_id
 _symmetry_equiv_pos_as_xyz
  1  'x, y, z'
loop_
 _atom_site_type_symbol
 _atom_site_label
 _atom_site_symmetry_multiplicity
 _atom_site_fract_x
 _atom_site_fract_y
 _atom_site_fract_z
 _atom_site_occupancy
  Ta  Ta0  1  0.186450  0.811281  0.191079  1
  Ta  Ta1  1  0.814010  0.186526  0.813530  1
  Ta  Ta2  1  0.063550  0.438719  0.058921  1
  Ta  Ta3  1  0.066316  0.435973  0.435973  1
  Ta  Ta4  1  0.438315  0.061431  0.061431  1
  Ta  Ta5  1  0.435990  0.063474  0.436470  1
  Ta  Ta6  1  0.814010  0.813530  0.186526  1
  Ta  Ta7  1  0.063550  0.058921  0.438719  1
  Ta  Ta8  1  0.186450  0.191079  0.811281  1
  Ta  Ta9  1  0.183684  0.814027  0.814027  1
  Ta  Ta10  1  0.435990  0.436470  0.063474  1
  Ta  Ta11  1  0.811685  0.188569  0.188569  1
  Ga  Ga12  1  0.839176  0.839921  0.498402  1
  Ga  Ga13  1  0.495994  0.840454  0.840454  1
  Ga  Ga14  1  0.410824  0.751598  0.410079  1
  Ga  Ga15  1  0.754006  0.409546  0.409546  1
  Ga  Ga16  1  0.417339  0.416058  0.416058  1
  Ga  Ga17  1  0.410824  0.410079  0.751598  1
  Ga  Ga18  1  0.839176  0.498402  0.839921  1
  Ga  Ga19  1  0.832661  0.833942  0.833942  1
  Co  Co20  1  0.125000  0.625000  0.625000  1
  Co  Co21  1  0.625000  0.625000  0.125000  1
  Co  Co22  1  0.625000  0.125000  0.625000  1
  Pt  Pt23  1  0.625000  0.625000  0.625000  1
  C  C24  1  0.125000  0.125000  0.125000  1
  C  C25  1  0.625000  0.125000  0.125000  1
  N  N26  1  0.125000  0.125000  0.625000  1
  N  N27  1  0.125000  0.625000  0.125000  1
