# generated using pymatgen
data_Tb9Tm3(AlAu5)4
_symmetry_space_group_name_H-M   'P 1'
_cell_length_a   8.47467249
_cell_length_b   8.47467255
_cell_length_c   13.54407194
_cell_angle_alpha   90.03846802
_cell_angle_beta   89.96153181
_cell_angle_gamma   128.32159477
_symmetry_Int_Tables_number   1
_chemical_formula_structural   Tb9Tm3(AlAu5)4
_chemical_formula_sum   'Tb9 Tm3 Al4 Au20'
_cell_volume   763.15293416
_cell_formula_units_Z   1
loop_
 _symmetry_equiv_pos_site_id
 _symmetry_equiv_pos_as_xyz
  1  'x, y, z'
loop_
 _atom_site_type_symbol
 _atom_site_label
 _atom_site_symmetry_multiplicity
 _atom_site_fract_x
 _atom_site_fract_y
 _atom_site_fract_z
 _atom_site_occupancy
  Tb  Tb0  1  0.927573  0.072427  0.250121  1
  Tb  Tb1  1  0.072131  0.927869  0.749819  1
  Tb  Tb2  1  0.320650  0.679350  0.250211  1
  Tb  Tb3  1  0.679261  0.320739  0.749835  1
  Tb  Tb4  1  0.369300  0.630700  0.964711  1
  Tb  Tb5  1  0.881374  0.118626  0.951189  1
  Tb  Tb6  1  0.118426  0.881574  0.048886  1
  Tb  Tb7  1  0.881353  0.118647  0.548765  1
  Tb  Tb8  1  0.118613  0.881387  0.451183  1
  Tm  Tm9  1  0.630559  0.369441  0.465141  1
  Tm  Tm10  1  0.369428  0.630572  0.534716  1
  Tm  Tm11  1  0.630738  0.369262  0.034845  1
  Al  Al12  1  0.719796  0.280204  0.250293  1
  Al  Al13  1  0.279831  0.720169  0.749431  1
  Al  Al14  1  0.532956  0.467044  0.250086  1
  Al  Al15  1  0.467237  0.532763  0.749625  1
  Au  Au16  1  0.323113  0.069340  0.250125  1
  Au  Au17  1  0.069471  0.323034  0.750055  1
  Au  Au18  1  0.676966  0.930529  0.750055  1
  Au  Au19  1  0.930660  0.676887  0.250125  1
  Au  Au20  1  0.570416  0.005074  0.397403  1
  Au  Au21  1  0.005075  0.570329  0.602581  1
  Au  Au22  1  0.571038  0.006220  0.103073  1
  Au  Au23  1  0.003043  0.569979  0.896927  1
  Au  Au24  1  0.429671  0.994925  0.602581  1
  Au  Au25  1  0.994926  0.429584  0.397403  1
  Au  Au26  1  0.430021  0.996957  0.896927  1
  Au  Au27  1  0.993780  0.428962  0.103073  1
  Au  Au28  1  0.683842  0.738766  0.395767  1
  Au  Au29  1  0.738698  0.683717  0.604202  1
  Au  Au30  1  0.685779  0.739573  0.105041  1
  Au  Au31  1  0.740337  0.684004  0.895399  1
  Au  Au32  1  0.316283  0.261302  0.604202  1
  Au  Au33  1  0.261234  0.316158  0.395767  1
  Au  Au34  1  0.315996  0.259663  0.895399  1
  Au  Au35  1  0.260427  0.314221  0.105041  1
