# generated using pymatgen
data_Dy3Y2SiPb3
_symmetry_space_group_name_H-M   'P 1'
_cell_length_a   9.35490600
_cell_length_b   9.35331037
_cell_length_c   6.53760200
_cell_angle_alpha   90.00014962
_cell_angle_beta   90.00033188
_cell_angle_gamma   120.00531534
_symmetry_Int_Tables_number   1
_chemical_formula_structural   Dy3Y2SiPb3
_chemical_formula_sum   'Dy6 Y4 Si2 Pb6'
_cell_volume   495.37104670
_cell_formula_units_Z   2
loop_
 _symmetry_equiv_pos_site_id
 _symmetry_equiv_pos_as_xyz
  1  'x, y, z'
loop_
 _atom_site_type_symbol
 _atom_site_label
 _atom_site_symmetry_multiplicity
 _atom_site_fract_x
 _atom_site_fract_y
 _atom_site_fract_z
 _atom_site_occupancy
  Dy  Dy0  1  0.999974  0.751485  0.750064  1
  Dy  Dy1  1  0.000012  0.248484  0.249937  1
  Dy  Dy2  1  0.751531  0.999997  0.750063  1
  Dy  Dy3  1  0.248487  0.248516  0.750064  1
  Dy  Dy4  1  0.666687  0.333347  0.999981  1
  Dy  Dy5  1  0.751523  0.751518  0.249936  1
  Y  Y6  1  0.248553  0.999997  0.249936  1
  Y  Y7  1  0.333338  0.666660  0.500017  1
  Y  Y8  1  0.666681  0.333343  0.500019  1
  Y  Y9  1  0.333337  0.666660  0.999984  1
  Si  Si10  1  0.999877  0.999999  0.999918  1
  Si  Si11  1  0.999877  0.999999  0.500082  1
  Pb  Pb12  1  0.607864  0.000067  0.249883  1
  Pb  Pb13  1  0.392346  0.000065  0.750117  1
  Pb  Pb14  1  0.999864  0.607621  0.249882  1
  Pb  Pb15  1  0.607803  0.607726  0.750118  1
  Pb  Pb16  1  0.392308  0.392312  0.249882  1
  Pb  Pb17  1  0.999938  0.392202  0.750118  1
