# generated using pymatgen
data_Er4Ga16Si2Ir5Rh
_symmetry_space_group_name_H-M   'P 1'
_cell_length_a   7.55900321
_cell_length_b   7.51090935
_cell_length_c   9.43961414
_cell_angle_alpha   89.99718511
_cell_angle_beta   89.76417307
_cell_angle_gamma   119.85562086
_symmetry_Int_Tables_number   1
_chemical_formula_structural   Er4Ga16Si2Ir5Rh
_chemical_formula_sum   'Er4 Ga16 Si2 Ir5 Rh1'
_cell_volume   464.80091613
_cell_formula_units_Z   1
loop_
 _symmetry_equiv_pos_site_id
 _symmetry_equiv_pos_as_xyz
  1  'x, y, z'
loop_
 _atom_site_type_symbol
 _atom_site_label
 _atom_site_symmetry_multiplicity
 _atom_site_fract_x
 _atom_site_fract_y
 _atom_site_fract_z
 _atom_site_occupancy
  Er  Er0  1  0.996510  0.666196  0.746912  1
  Er  Er1  1  0.003490  0.333804  0.253088  1
  Er  Er2  1  0.674112  0.002558  0.748044  1
  Er  Er3  1  0.325888  0.997442  0.251956  1
  Ga  Ga4  1  0.128806  0.128065  0.750708  1
  Ga  Ga5  1  0.871194  0.871935  0.249292  1
  Ga  Ga6  1  0.000555  0.665512  0.079129  1
  Ga  Ga7  1  0.334214  0.998715  0.919131  1
  Ga  Ga8  1  0.999445  0.334488  0.920871  1
  Ga  Ga9  1  0.665786  0.001285  0.080869  1
  Ga  Ga10  1  0.661092  0.998215  0.416908  1
  Ga  Ga11  1  0.338908  0.001785  0.583092  1
  Ga  Ga12  1  0.331254  0.330146  0.067791  1
  Ga  Ga13  1  0.668746  0.669854  0.932209  1
  Ga  Ga14  1  0.663056  0.668239  0.570284  1
  Ga  Ga15  1  0.336944  0.331761  0.429716  1
  Ga  Ga16  1  0.338971  0.546797  0.750084  1
  Ga  Ga17  1  0.661029  0.453203  0.249916  1
  Ga  Ga18  1  0.548532  0.339713  0.749808  1
  Ga  Ga19  1  0.451468  0.660287  0.250192  1
  Si  Si20  1  0.000551  0.329424  0.574212  1
  Si  Si21  1  0.999449  0.670576  0.425788  1
  Ir  Ir22  1  0.696706  0.342811  0.501469  1
  Ir  Ir23  1  0.303294  0.657189  0.498531  1
  Ir  Ir24  1  0.327851  0.671223  0.000214  1
  Ir  Ir25  1  0.672149  0.328777  0.999786  1
  Ir  Ir26  1  0.000000  0.000000  0.500000  1
  Rh  Rh27  1  0.000000  0.000000  0.000000  1
