# generated using pymatgen
data_Yb2LuPa(Al8Pt3)3
_symmetry_space_group_name_H-M   'P 1'
_cell_length_a   7.53686021
_cell_length_b   7.55271335
_cell_length_c   13.17336720
_cell_angle_alpha   84.55211180
_cell_angle_beta   79.05641878
_cell_angle_gamma   59.96909985
_symmetry_Int_Tables_number   1
_chemical_formula_structural   Yb2LuPa(Al8Pt3)3
_chemical_formula_sum   'Yb2 Lu1 Pa1 Al24 Pt9'
_cell_volume   637.40440906
_cell_formula_units_Z   1
loop_
 _symmetry_equiv_pos_site_id
 _symmetry_equiv_pos_as_xyz
  1  'x, y, z'
loop_
 _atom_site_type_symbol
 _atom_site_label
 _atom_site_symmetry_multiplicity
 _atom_site_fract_x
 _atom_site_fract_y
 _atom_site_fract_z
 _atom_site_occupancy
  Yb  Yb0  1  0.605835  0.831290  0.192603  1
  Yb  Yb1  1  0.733741  0.499251  0.807848  1
  Lu  Lu2  1  0.266005  0.501151  0.193436  1
  Pa  Pa3  1  0.395435  0.167561  0.805117  1
  Al  Al4  1  0.684390  0.832858  0.945680  1
  Al  Al5  1  0.315637  0.166930  0.055964  1
  Al  Al6  1  0.147100  0.832071  0.560673  1
  Al  Al7  1  0.854133  0.167767  0.438678  1
  Al  Al8  1  0.479991  0.166521  0.557734  1
  Al  Al9  1  0.520878  0.831754  0.441052  1
  Al  Al10  1  0.218069  0.164864  0.328876  1
  Al  Al11  1  0.786138  0.830731  0.670517  1
  Al  Al12  1  0.438038  0.509708  0.670680  1
  Al  Al13  1  0.562999  0.494131  0.328064  1
  Al  Al14  1  0.105785  0.160347  0.668919  1
  Al  Al15  1  0.890312  0.840021  0.329490  1
  Al  Al16  1  0.353155  0.499634  0.945042  1
  Al  Al17  1  0.646502  0.500790  0.055321  1
  Al  Al18  1  0.014828  0.168180  0.953589  1
  Al  Al19  1  0.984437  0.831716  0.047818  1
  Al  Al20  1  0.185690  0.500295  0.441720  1
  Al  Al21  1  0.813191  0.501068  0.558699  1
  Al  Al22  1  0.731922  0.166993  0.183085  1
  Al  Al23  1  0.261800  0.839861  0.817688  1
  Al  Al24  1  0.064476  0.630733  0.816396  1
  Al  Al25  1  0.940967  0.368838  0.183830  1
  Al  Al26  1  0.854282  0.038917  0.817125  1
  Al  Al27  1  0.143771  0.956421  0.183164  1
  Pt  Pt28  1  0.121354  0.490866  0.639933  1
  Pt  Pt29  1  0.881733  0.507083  0.361180  1
  Pt  Pt30  1  0.657356  0.171704  0.999305  1
  Pt  Pt31  1  0.342718  0.828471  0.999337  1
  Pt  Pt32  1  0.537237  0.167554  0.361825  1
  Pt  Pt33  1  0.461337  0.834708  0.639617  1
  Pt  Pt34  1  0.777466  0.174470  0.638136  1
  Pt  Pt35  1  0.220535  0.824924  0.362698  1
  Pt  Pt36  1  0.000757  0.499813  0.999162  1
