# generated using pymatgen
data_K7Mn8F24
_symmetry_space_group_name_H-M   'P 1'
_cell_length_a   10.32836366
_cell_length_b   10.32836423
_cell_length_c   8.37805600
_cell_angle_alpha   66.04092016
_cell_angle_beta   66.04091643
_cell_angle_gamma   109.50386317
_symmetry_Int_Tables_number   1
_chemical_formula_structural   K7Mn8F24
_chemical_formula_sum   'K7 Mn8 F24'
_cell_volume   598.60468083
_cell_formula_units_Z   1
loop_
 _symmetry_equiv_pos_site_id
 _symmetry_equiv_pos_as_xyz
  1  'x, y, z'
loop_
 _atom_site_type_symbol
 _atom_site_label
 _atom_site_symmetry_multiplicity
 _atom_site_fract_x
 _atom_site_fract_y
 _atom_site_fract_z
 _atom_site_occupancy
  K  K0  1  0.377119  0.878505  0.995546  1
  K  K1  1  0.124582  0.124582  0.500919  1
  K  K2  1  0.377610  0.879123  0.496252  1
  K  K3  1  0.878505  0.377119  0.995546  1
  K  K4  1  0.625438  0.625438  0.500275  1
  K  K5  1  0.879123  0.377610  0.496252  1
  K  K6  1  0.623092  0.623092  0.000540  1
  Mn  Mn7  1  0.753780  0.002124  0.998119  1
  Mn  Mn8  1  0.498422  0.250307  0.502327  1
  Mn  Mn9  1  0.754421  0.002333  0.493896  1
  Mn  Mn10  1  0.250153  0.498218  0.998391  1
  Mn  Mn11  1  0.002124  0.753780  0.998119  1
  Mn  Mn12  1  0.002333  0.754421  0.493896  1
  Mn  Mn13  1  0.250307  0.498422  0.502327  1
  Mn  Mn14  1  0.498218  0.250153  0.998391  1
  F  F15  1  0.753135  0.014842  0.740304  1
  F  F16  1  0.617827  0.117837  0.497001  1
  F  F17  1  0.252190  0.000200  0.746590  1
  F  F18  1  0.000200  0.252190  0.746590  1
  F  F19  1  0.487871  0.247223  0.256971  1
  F  F20  1  0.634618  0.135086  0.000382  1
  F  F21  1  0.859359  0.859359  0.996549  1
  F  F22  1  0.259874  0.526849  0.731209  1
  F  F23  1  0.014842  0.753135  0.740304  1
  F  F24  1  0.495490  0.756987  0.236623  1
  F  F25  1  0.260680  0.991725  0.248323  1
  F  F26  1  0.875816  0.875816  0.518695  1
  F  F27  1  0.117837  0.617827  0.497001  1
  F  F28  1  0.748311  0.504167  0.759152  1
  F  F29  1  0.504167  0.748311  0.759152  1
  F  F30  1  0.980389  0.732463  0.267876  1
  F  F31  1  0.732463  0.980389  0.267876  1
  F  F32  1  0.135086  0.634618  0.000382  1
  F  F33  1  0.379429  0.379429  0.994832  1
  F  F34  1  0.526849  0.259874  0.731209  1
  F  F35  1  0.991725  0.260680  0.248323  1
  F  F36  1  0.756987  0.495490  0.236623  1
  F  F37  1  0.396769  0.396769  0.478970  1
  F  F38  1  0.247223  0.487871  0.256971  1
