# generated using pymatgen
data_Er6Zn22SiPd
_symmetry_space_group_name_H-M   'P 1'
_cell_length_a   9.02469550
_cell_length_b   9.02469534
_cell_length_c   9.02469600
_cell_angle_alpha   60.00000492
_cell_angle_beta   60.00000551
_cell_angle_gamma   59.99999886
_symmetry_Int_Tables_number   1
_chemical_formula_structural   Er6Zn22SiPd
_chemical_formula_sum   'Er6 Zn22 Si1 Pd1'
_cell_volume   519.73590642
_cell_formula_units_Z   1
loop_
 _symmetry_equiv_pos_site_id
 _symmetry_equiv_pos_as_xyz
  1  'x, y, z'
loop_
 _atom_site_type_symbol
 _atom_site_label
 _atom_site_symmetry_multiplicity
 _atom_site_fract_x
 _atom_site_fract_y
 _atom_site_fract_z
 _atom_site_occupancy
  Er  Er0  1  0.715990  0.284010  0.284010  1
  Er  Er1  1  0.284010  0.715990  0.715990  1
  Er  Er2  1  0.284010  0.715990  0.284010  1
  Er  Er3  1  0.715990  0.284010  0.715990  1
  Er  Er4  1  0.284010  0.284010  0.715990  1
  Er  Er5  1  0.715990  0.715990  0.284010  1
  Zn  Zn6  1  0.122738  0.122738  0.122738  1
  Zn  Zn7  1  0.877262  0.877262  0.877262  1
  Zn  Zn8  1  0.122738  0.122738  0.631786  1
  Zn  Zn9  1  0.122738  0.631786  0.122738  1
  Zn  Zn10  1  0.877262  0.877262  0.368214  1
  Zn  Zn11  1  0.877262  0.368214  0.877262  1
  Zn  Zn12  1  0.631786  0.122738  0.122738  1
  Zn  Zn13  1  0.368214  0.877262  0.877262  1
  Zn  Zn14  1  0.500000  0.000000  0.000000  1
  Zn  Zn15  1  0.000000  0.500000  0.500000  1
  Zn  Zn16  1  0.000000  0.500000  0.000000  1
  Zn  Zn17  1  0.500000  0.000000  0.500000  1
  Zn  Zn18  1  0.000000  0.000000  0.500000  1
  Zn  Zn19  1  0.500000  0.500000  0.000000  1
  Zn  Zn20  1  0.333955  0.333955  0.333955  1
  Zn  Zn21  1  0.666045  0.666045  0.666045  1
  Zn  Zn22  1  0.333955  0.333955  0.998136  1
  Zn  Zn23  1  0.333955  0.998136  0.333955  1
  Zn  Zn24  1  0.666045  0.666045  0.001864  1
  Zn  Zn25  1  0.666045  0.001864  0.666045  1
  Zn  Zn26  1  0.998136  0.333955  0.333955  1
  Zn  Zn27  1  0.001864  0.666045  0.666045  1
  Si  Si28  1  0.500000  0.500000  0.500000  1
  Pd  Pd29  1  0.000000  0.000000  0.000000  1
