# generated using pymatgen
data_Sr5CaNd2(Si3Pd)4
_symmetry_space_group_name_H-M   'P 1'
_cell_length_a   8.35790000
_cell_length_b   8.36856848
_cell_length_c   8.77765900
_cell_angle_alpha   90.00000000
_cell_angle_beta   90.00000000
_cell_angle_gamma   119.95783802
_symmetry_Int_Tables_number   1
_chemical_formula_structural   Sr5CaNd2(Si3Pd)4
_chemical_formula_sum   'Sr5 Ca1 Nd2 Si12 Pd4'
_cell_volume   531.91475265
_cell_formula_units_Z   1
loop_
 _symmetry_equiv_pos_site_id
 _symmetry_equiv_pos_as_xyz
  1  'x, y, z'
loop_
 _atom_site_type_symbol
 _atom_site_label
 _atom_site_symmetry_multiplicity
 _atom_site_fract_x
 _atom_site_fract_y
 _atom_site_fract_z
 _atom_site_occupancy
  Sr  Sr0  1  0.498829  0.501071  0.750000  1
  Sr  Sr1  1  0.501327  0.498712  0.250000  1
  Sr  Sr2  1  0.002243  0.501071  0.750000  1
  Sr  Sr3  1  0.997385  0.498712  0.250000  1
  Sr  Sr4  1  0.498911  0.997823  0.750000  1
  Ca  Ca5  1  0.500916  0.001833  0.250000  1
  Nd  Nd6  1  0.000061  0.000121  0.750000  1
  Nd  Nd7  1  0.000018  0.000036  0.250000  1
  Si  Si8  1  0.835062  0.162829  0.002842  1
  Si  Si9  1  0.164915  0.837157  0.004023  1
  Si  Si10  1  0.327767  0.162829  0.002842  1
  Si  Si11  1  0.164915  0.837157  0.495977  1
  Si  Si12  1  0.672242  0.837157  0.004023  1
  Si  Si13  1  0.835062  0.162829  0.497158  1
  Si  Si14  1  0.836530  0.673062  0.000079  1
  Si  Si15  1  0.672242  0.837157  0.495977  1
  Si  Si16  1  0.163587  0.327175  0.001858  1
  Si  Si17  1  0.327767  0.162829  0.497158  1
  Si  Si18  1  0.163587  0.327175  0.498142  1
  Si  Si19  1  0.836530  0.673062  0.499921  1
  Pd  Pd20  1  0.665646  0.331290  0.001878  1
  Pd  Pd21  1  0.334405  0.668810  0.007176  1
  Pd  Pd22  1  0.334405  0.668810  0.492824  1
  Pd  Pd23  1  0.665646  0.331290  0.498122  1
