# generated using pymatgen
data_LuVCo4As3
_symmetry_space_group_name_H-M   'P 1'
_cell_length_a   3.75391800
_cell_length_b   10.70092000
_cell_length_c   12.22726400
_cell_angle_alpha   90.00000000
_cell_angle_beta   90.00000000
_cell_angle_gamma   90.00000000
_symmetry_Int_Tables_number   1
_chemical_formula_structural   LuVCo4As3
_chemical_formula_sum   'Lu4 V4 Co16 As12'
_cell_volume   491.17379483
_cell_formula_units_Z   4
loop_
 _symmetry_equiv_pos_site_id
 _symmetry_equiv_pos_as_xyz
  1  'x, y, z'
loop_
 _atom_site_type_symbol
 _atom_site_label
 _atom_site_symmetry_multiplicity
 _atom_site_fract_x
 _atom_site_fract_y
 _atom_site_fract_z
 _atom_site_occupancy
  Lu  Lu0  1  0.250000  0.578812  0.704311  1
  Lu  Lu1  1  0.250000  0.921188  0.204311  1
  Lu  Lu2  1  0.750000  0.421188  0.295689  1
  Lu  Lu3  1  0.750000  0.078812  0.795689  1
  V  V4  1  0.250000  0.702634  0.990010  1
  V  V5  1  0.250000  0.797366  0.490010  1
  V  V6  1  0.750000  0.297366  0.009990  1
  V  V7  1  0.750000  0.202634  0.509990  1
  Co  Co8  1  0.250000  0.405931  0.488284  1
  Co  Co9  1  0.250000  0.094069  0.988284  1
  Co  Co10  1  0.750000  0.594069  0.511716  1
  Co  Co11  1  0.750000  0.905931  0.011716  1
  Co  Co12  1  0.250000  0.217472  0.176903  1
  Co  Co13  1  0.250000  0.282528  0.676903  1
  Co  Co14  1  0.750000  0.782528  0.823097  1
  Co  Co15  1  0.750000  0.717472  0.323097  1
  Co  Co16  1  0.250000  0.884776  0.697837  1
  Co  Co17  1  0.250000  0.615224  0.197837  1
  Co  Co18  1  0.750000  0.115224  0.302163  1
  Co  Co19  1  0.750000  0.384776  0.802163  1
  Co  Co20  1  0.250000  0.465976  0.933497  1
  Co  Co21  1  0.250000  0.034024  0.433497  1
  Co  Co22  1  0.750000  0.534024  0.066503  1
  Co  Co23  1  0.750000  0.965976  0.566503  1
  As  As24  1  0.250000  0.417265  0.117474  1
  As  As25  1  0.250000  0.082735  0.617474  1
  As  As26  1  0.750000  0.582735  0.882526  1
  As  As27  1  0.750000  0.917265  0.382526  1
  As  As28  1  0.250000  0.264386  0.866334  1
  As  As29  1  0.250000  0.235614  0.366334  1
  As  As30  1  0.750000  0.735614  0.133666  1
  As  As31  1  0.750000  0.764386  0.633666  1
  As  As32  1  0.250000  0.596471  0.390237  1
  As  As33  1  0.250000  0.903529  0.890237  1
  As  As34  1  0.750000  0.403529  0.609763  1
  As  As35  1  0.750000  0.096471  0.109763  1
