# generated using pymatgen
data_TbY4P12Ru19
_symmetry_space_group_name_H-M   'P 1'
_cell_length_a   12.54068005
_cell_length_b   12.53872529
_cell_length_c   3.98002200
_cell_angle_alpha   90.00000000
_cell_angle_beta   90.00000000
_cell_angle_gamma   119.99483844
_symmetry_Int_Tables_number   1
_chemical_formula_structural   TbY4P12Ru19
_chemical_formula_sum   'Tb1 Y4 P12 Ru19'
_cell_volume   542.01732131
_cell_formula_units_Z   1
loop_
 _symmetry_equiv_pos_site_id
 _symmetry_equiv_pos_as_xyz
  1  'x, y, z'
loop_
 _atom_site_type_symbol
 _atom_site_label
 _atom_site_symmetry_multiplicity
 _atom_site_fract_x
 _atom_site_fract_y
 _atom_site_fract_z
 _atom_site_occupancy
  Tb  Tb0  1  0.000000  0.183758  0.500000  1
  Y  Y1  1  0.816167  0.816173  0.500000  1
  Y  Y2  1  0.183833  0.000006  0.500000  1
  Y  Y3  1  0.666676  0.333328  0.000000  1
  Y  Y4  1  0.333324  0.666653  0.000000  1
  P  P5  1  0.000000  0.815471  0.000000  1
  P  P6  1  0.184543  0.184541  0.000000  1
  P  P7  1  0.815457  0.999998  0.000000  1
  P  P8  1  0.693478  0.171126  0.500000  1
  P  P9  1  0.828906  0.522389  0.500000  1
  P  P10  1  0.477716  0.306543  0.500000  1
  P  P11  1  0.171094  0.693482  0.500000  1
  P  P12  1  0.522284  0.828827  0.500000  1
  P  P13  1  0.306522  0.477648  0.500000  1
  P  P14  1  0.000000  0.372901  0.000000  1
  P  P15  1  0.627025  0.627033  0.000000  1
  P  P16  1  0.372975  0.000008  0.000000  1
  Ru  Ru17  1  0.000000  0.554650  0.000000  1
  Ru  Ru18  1  0.445310  0.445328  0.000000  1
  Ru  Ru19  1  0.554690  0.000018  0.000000  1
  Ru  Ru20  1  0.000000  0.716791  0.500000  1
  Ru  Ru21  1  0.283324  0.283265  0.500000  1
  Ru  Ru22  1  0.716676  0.999941  0.500000  1
  Ru  Ru23  1  0.807521  0.184776  0.000000  1
  Ru  Ru24  1  0.815161  0.622846  0.000000  1
  Ru  Ru25  1  0.377150  0.192324  0.000000  1
  Ru  Ru26  1  0.184839  0.807684  0.000000  1
  Ru  Ru27  1  0.622850  0.815172  0.000000  1
  Ru  Ru28  1  0.192479  0.377254  0.000000  1
  Ru  Ru29  1  0.874144  0.365912  0.500000  1
  Ru  Ru30  1  0.634105  0.508278  0.500000  1
  Ru  Ru31  1  0.491753  0.125871  0.500000  1
  Ru  Ru32  1  0.365895  0.874173  0.500000  1
  Ru  Ru33  1  0.508247  0.634118  0.500000  1
  Ru  Ru34  1  0.125856  0.491768  0.500000  1
  Ru  Ru35  1  0.000000  0.999947  0.000000  1
