# generated using pymatgen
data_Dy5Zr2Si12Ir17
_symmetry_space_group_name_H-M   'P 1'
_cell_length_a   12.94534300
_cell_length_b   12.99626630
_cell_length_c   4.01204800
_cell_angle_alpha   90.00000000
_cell_angle_beta   90.00000000
_cell_angle_gamma   119.87046548
_symmetry_Int_Tables_number   1
_chemical_formula_structural   Dy5Zr2Si12Ir17
_chemical_formula_sum   'Dy5 Zr2 Si12 Ir17'
_cell_volume   585.32127664
_cell_formula_units_Z   1
loop_
 _symmetry_equiv_pos_site_id
 _symmetry_equiv_pos_as_xyz
  1  'x, y, z'
loop_
 _atom_site_type_symbol
 _atom_site_label
 _atom_site_symmetry_multiplicity
 _atom_site_fract_x
 _atom_site_fract_y
 _atom_site_fract_z
 _atom_site_occupancy
  Dy  Dy0  1  0.330990  0.665863  0.500000  1
  Dy  Dy1  1  0.665128  0.334137  0.500000  1
  Dy  Dy2  1  0.004801  0.818050  0.000000  1
  Dy  Dy3  1  0.186751  0.181950  0.000000  1
  Dy  Dy4  1  0.815245  0.000000  0.000000  1
  Zr  Zr5  1  0.997592  0.439240  0.500000  1
  Zr  Zr6  1  0.558353  0.560760  0.500000  1
  Si  Si7  1  0.004230  0.646608  0.500000  1
  Si  Si8  1  0.357622  0.353392  0.500000  1
  Si  Si9  1  0.625937  0.000000  0.500000  1
  Si  Si10  1  0.517794  0.694395  0.000000  1
  Si  Si11  1  0.310805  0.831455  0.000000  1
  Si  Si12  1  0.175723  0.478350  0.000000  1
  Si  Si13  1  0.479349  0.168545  0.000000  1
  Si  Si14  1  0.697373  0.521650  0.000000  1
  Si  Si15  1  0.823399  0.305605  0.000000  1
  Si  Si16  1  0.998030  0.180235  0.500000  1
  Si  Si17  1  0.817795  0.819765  0.500000  1
  Si  Si18  1  0.180671  0.000000  0.500000  1
  Ir  Ir19  1  0.511125  0.876525  0.000000  1
  Ir  Ir20  1  0.131421  0.638221  0.000000  1
  Ir  Ir21  1  0.366396  0.487678  0.000000  1
  Ir  Ir22  1  0.493200  0.361779  0.000000  1
  Ir  Ir23  1  0.878720  0.512322  0.000000  1
  Ir  Ir24  1  0.634601  0.123475  0.000000  1
  Ir  Ir25  1  0.443737  0.000000  0.500000  1
  Ir  Ir26  1  0.996970  0.275442  0.000000  1
  Ir  Ir27  1  0.721527  0.724558  0.000000  1
  Ir  Ir28  1  0.282998  0.000000  0.000000  1
  Ir  Ir29  1  0.622496  0.809972  0.500000  1
  Ir  Ir30  1  0.195661  0.822415  0.500000  1
  Ir  Ir31  1  0.180132  0.370328  0.500000  1
  Ir  Ir32  1  0.373247  0.177585  0.500000  1
  Ir  Ir33  1  0.809804  0.629672  0.500000  1
  Ir  Ir34  1  0.812525  0.190028  0.500000  1
  Ir  Ir35  1  0.997854  0.000000  0.500000  1
