# generated using pymatgen
data_TbDy7(Si4Tc3)4
_symmetry_space_group_name_H-M   'P 1'
_cell_length_a   6.78286341
_cell_length_b   6.77887579
_cell_length_c   12.71966400
_cell_angle_alpha   89.86387025
_cell_angle_beta   90.14056896
_cell_angle_gamma   90.20831479
_symmetry_Int_Tables_number   1
_chemical_formula_structural   TbDy7(Si4Tc3)4
_chemical_formula_sum   'Tb1 Dy7 Si16 Tc12'
_cell_volume   584.84528573
_cell_formula_units_Z   1
loop_
 _symmetry_equiv_pos_site_id
 _symmetry_equiv_pos_as_xyz
  1  'x, y, z'
loop_
 _atom_site_type_symbol
 _atom_site_label
 _atom_site_symmetry_multiplicity
 _atom_site_fract_x
 _atom_site_fract_y
 _atom_site_fract_z
 _atom_site_occupancy
  Tb  Tb0  1  0.337214  0.994853  0.468999  1
  Dy  Dy1  1  0.005112  0.662958  0.030791  1
  Dy  Dy2  1  0.994374  0.337830  0.531121  1
  Dy  Dy3  1  0.662081  0.005613  0.968861  1
  Dy  Dy4  1  0.162139  0.493421  0.781404  1
  Dy  Dy5  1  0.836358  0.505696  0.280791  1
  Dy  Dy6  1  0.493508  0.162619  0.218475  1
  Dy  Dy7  1  0.505174  0.836262  0.719246  1
  Si  Si8  1  0.020393  0.724147  0.437110  1
  Si  Si9  1  0.982283  0.271300  0.938905  1
  Si  Si10  1  0.724516  0.020217  0.562808  1
  Si  Si11  1  0.223992  0.480246  0.188014  1
  Si  Si12  1  0.773409  0.518825  0.687912  1
  Si  Si13  1  0.481593  0.226474  0.811067  1
  Si  Si14  1  0.520969  0.776128  0.312702  1
  Si  Si15  1  0.271563  0.981838  0.061441  1
  Si  Si16  1  0.886230  0.805578  0.813813  1
  Si  Si17  1  0.115356  0.195500  0.314005  1
  Si  Si18  1  0.805305  0.885864  0.186327  1
  Si  Si19  1  0.305811  0.614380  0.563652  1
  Si  Si20  1  0.693921  0.385994  0.063891  1
  Si  Si21  1  0.615361  0.305785  0.436228  1
  Si  Si22  1  0.386459  0.693299  0.936284  1
  Si  Si23  1  0.194863  0.114730  0.685882  1
  Tc  Tc24  1  0.317657  0.483275  0.379135  1
  Tc  Tc25  1  0.817921  0.018117  0.371479  1
  Tc  Tc26  1  0.980318  0.186816  0.130910  1
  Tc  Tc27  1  0.017531  0.816788  0.628566  1
  Tc  Tc28  1  0.685664  0.517077  0.879588  1
  Tc  Tc29  1  0.481210  0.315178  0.619528  1
  Tc  Tc30  1  0.516084  0.683309  0.121872  1
  Tc  Tc31  1  0.187142  0.980609  0.869394  1
  Tc  Tc32  1  0.664461  0.664537  0.500021  1
  Tc  Tc33  1  0.835344  0.163671  0.749583  1
  Tc  Tc34  1  0.163600  0.835708  0.250081  1
  Tc  Tc35  1  0.335080  0.335359  0.000113  1
