# generated using pymatgen
data_Y6Al24Cu3Tc5
_symmetry_space_group_name_H-M   'P 1'
_cell_length_a   8.87494426
_cell_length_b   8.83215643
_cell_length_c   9.57697200
_cell_angle_alpha   90.37034265
_cell_angle_beta   90.04909715
_cell_angle_gamma   119.22716354
_symmetry_Int_Tables_number   1
_chemical_formula_structural   Y6Al24Cu3Tc5
_chemical_formula_sum   'Y6 Al24 Cu3 Tc5'
_cell_volume   655.09952119
_cell_formula_units_Z   1
loop_
 _symmetry_equiv_pos_site_id
 _symmetry_equiv_pos_as_xyz
  1  'x, y, z'
loop_
 _atom_site_type_symbol
 _atom_site_label
 _atom_site_symmetry_multiplicity
 _atom_site_fract_x
 _atom_site_fract_y
 _atom_site_fract_z
 _atom_site_occupancy
  Y  Y0  1  0.381801  0.187324  0.251218  1
  Y  Y1  1  0.808377  0.197864  0.249124  1
  Y  Y2  1  0.812538  0.612997  0.248169  1
  Y  Y3  1  0.618199  0.812676  0.748782  1
  Y  Y4  1  0.191623  0.802136  0.750876  1
  Y  Y5  1  0.187462  0.387003  0.751831  1
  Al  Al6  1  0.438444  0.874668  0.249087  1
  Al  Al7  1  0.124662  0.560097  0.251048  1
  Al  Al8  1  0.438998  0.560159  0.251330  1
  Al  Al9  1  0.561556  0.125332  0.750913  1
  Al  Al10  1  0.875338  0.439903  0.748952  1
  Al  Al11  1  0.561002  0.439841  0.748670  1
  Al  Al12  1  0.156631  0.830641  0.421639  1
  Al  Al13  1  0.157407  0.323184  0.423238  1
  Al  Al14  1  0.678211  0.836495  0.419668  1
  Al  Al15  1  0.843369  0.169359  0.578361  1
  Al  Al16  1  0.842593  0.676816  0.576762  1
  Al  Al17  1  0.321789  0.163505  0.580332  1
  Al  Al18  1  0.835661  0.162909  0.923754  1
  Al  Al19  1  0.841144  0.675585  0.923462  1
  Al  Al20  1  0.322873  0.157908  0.923901  1
  Al  Al21  1  0.164339  0.837091  0.076246  1
  Al  Al22  1  0.158856  0.324415  0.076538  1
  Al  Al23  1  0.677127  0.842092  0.076099  1
  Al  Al24  1  0.330231  0.664232  0.518596  1
  Al  Al25  1  0.669769  0.335768  0.481404  1
  Al  Al26  1  0.667133  0.330746  0.020006  1
  Al  Al27  1  0.332867  0.669254  0.979994  1
  Al  Al28  1  0.002507  0.999100  0.250183  1
  Al  Al29  1  0.997493  0.000900  0.749817  1
  Cu  Cu30  1  0.500000  0.000000  0.500000  1
  Cu  Cu31  1  0.500000  0.500000  0.500000  1
  Cu  Cu32  1  0.500000  0.500000  0.000000  1
  Tc  Tc33  1  0.000000  0.000000  0.500000  1
  Tc  Tc34  1  0.000000  0.000000  0.000000  1
  Tc  Tc35  1  0.000000  0.500000  0.500000  1
  Tc  Tc36  1  0.500000  0.000000  0.000000  1
  Tc  Tc37  1  0.000000  0.500000  0.000000  1
