# generated using pymatgen
data_TbNd19Si15Ir
_symmetry_space_group_name_H-M   'P 1'
_cell_length_a   7.78273397
_cell_length_b   7.92974423
_cell_length_c   15.12632300
_cell_angle_alpha   89.75046913
_cell_angle_beta   89.65149980
_cell_angle_gamma   90.00356885
_symmetry_Int_Tables_number   1
_chemical_formula_structural   TbNd19Si15Ir
_chemical_formula_sum   'Tb1 Nd19 Si15 Ir1'
_cell_volume   933.49625705
_cell_formula_units_Z   1
loop_
 _symmetry_equiv_pos_site_id
 _symmetry_equiv_pos_as_xyz
  1  'x, y, z'
loop_
 _atom_site_type_symbol
 _atom_site_label
 _atom_site_symmetry_multiplicity
 _atom_site_fract_x
 _atom_site_fract_y
 _atom_site_fract_z
 _atom_site_occupancy
  Tb  Tb0  1  0.136657  0.511838  0.748110  1
  Nd  Nd1  1  0.812599  0.331619  0.615597  1
  Nd  Nd2  1  0.457641  0.686032  0.898325  1
  Nd  Nd3  1  0.958310  0.814225  0.898274  1
  Nd  Nd4  1  0.185352  0.683156  0.120735  1
  Nd  Nd5  1  0.690744  0.818641  0.120998  1
  Nd  Nd6  1  0.307945  0.179301  0.877819  1
  Nd  Nd7  1  0.185803  0.678054  0.380091  1
  Nd  Nd8  1  0.042663  0.188211  0.102877  1
  Nd  Nd9  1  0.312095  0.179884  0.622173  1
  Nd  Nd10  1  0.857726  0.490637  0.259819  1
  Nd  Nd11  1  0.364286  0.008238  0.253455  1
  Nd  Nd12  1  0.538966  0.318023  0.398881  1
  Nd  Nd13  1  0.810923  0.317378  0.878149  1
  Nd  Nd14  1  0.963480  0.813038  0.598751  1
  Nd  Nd15  1  0.460741  0.685606  0.602203  1
  Nd  Nd16  1  0.040925  0.187555  0.400025  1
  Nd  Nd17  1  0.693518  0.812209  0.384271  1
  Nd  Nd18  1  0.639006  0.993221  0.748322  1
  Nd  Nd19  1  0.543192  0.312563  0.102472  1
  Si  Si20  1  0.478321  0.603072  0.245678  1
  Si  Si21  1  0.252045  0.378788  0.247190  1
  Si  Si22  1  0.513931  0.402370  0.750984  1
  Si  Si23  1  0.631726  0.025714  0.958710  1
  Si  Si24  1  0.016628  0.102536  0.748907  1
  Si  Si25  1  0.750294  0.621165  0.750757  1
  Si  Si26  1  0.750441  0.119994  0.248114  1
  Si  Si27  1  0.365254  0.970099  0.461179  1
  Si  Si28  1  0.981900  0.902376  0.248370  1
  Si  Si29  1  0.364928  0.974936  0.041197  1
  Si  Si30  1  0.634113  0.024318  0.542523  1
  Si  Si31  1  0.134411  0.474999  0.957208  1
  Si  Si32  1  0.145003  0.475740  0.543217  1
  Si  Si33  1  0.866159  0.525756  0.039120  1
  Si  Si34  1  0.245859  0.873389  0.750757  1
  Ir  Ir35  1  0.866418  0.515319  0.454740  1
