# generated using pymatgen
data_LiCa2NiIr2
_symmetry_space_group_name_H-M   'P 1'
_cell_length_a   5.30986773
_cell_length_b   5.32727399
_cell_length_c   5.32727350
_cell_angle_alpha   58.03809830
_cell_angle_beta   60.21914834
_cell_angle_gamma   60.21914702
_symmetry_Int_Tables_number   1
_chemical_formula_structural   LiCa2NiIr2
_chemical_formula_sum   'Li1 Ca2 Ni1 Ir2'
_cell_volume   105.22355346
_cell_formula_units_Z   1
loop_
 _symmetry_equiv_pos_site_id
 _symmetry_equiv_pos_as_xyz
  1  'x, y, z'
loop_
 _atom_site_type_symbol
 _atom_site_label
 _atom_site_symmetry_multiplicity
 _atom_site_fract_x
 _atom_site_fract_y
 _atom_site_fract_z
 _atom_site_occupancy
  Li  Li0  1  0.125000  0.625000  0.625000  1
  Ca  Ca1  1  0.265220  0.243292  0.243292  1
  Ca  Ca2  1  0.984780  0.006708  0.006708  1
  Ni  Ni3  1  0.625000  0.625000  0.625000  1
  Ir  Ir4  1  0.625000  0.125000  0.625000  1
  Ir  Ir5  1  0.625000  0.625000  0.125000  1
