# generated using pymatgen
data_LaTh3(WN3)4
_symmetry_space_group_name_H-M   'P 1'
_cell_length_a   5.61775000
_cell_length_b   5.66658524
_cell_length_c   7.99509700
_cell_angle_alpha   90.00000000
_cell_angle_beta   90.00000000
_cell_angle_gamma   90.39585527
_symmetry_Int_Tables_number   1
_chemical_formula_structural   LaTh3(WN3)4
_chemical_formula_sum   'La1 Th3 W4 N12'
_cell_volume   254.50552017
_cell_formula_units_Z   1
loop_
 _symmetry_equiv_pos_site_id
 _symmetry_equiv_pos_as_xyz
  1  'x, y, z'
loop_
 _atom_site_type_symbol
 _atom_site_label
 _atom_site_symmetry_multiplicity
 _atom_site_fract_x
 _atom_site_fract_y
 _atom_site_fract_z
 _atom_site_occupancy
  La  La0  1  0.503379  0.532458  0.250000  1
  Th  Th1  1  0.000170  0.039815  0.250000  1
  Th  Th2  1  0.496383  0.457561  0.750000  1
  Th  Th3  1  0.999409  0.959706  0.750000  1
  W  W4  1  0.998095  0.501298  0.001116  1
  W  W5  1  0.501245  0.999003  0.499259  1
  W  W6  1  0.998095  0.501298  0.498884  1
  W  W7  1  0.501245  0.999003  0.000741  1
  N  N8  1  0.431787  0.990228  0.250000  1
  N  N9  1  0.057627  0.488594  0.250000  1
  N  N10  1  0.570316  0.015553  0.750000  1
  N  N11  1  0.924950  0.518930  0.750000  1
  N  N12  1  0.798989  0.798087  0.032874  1
  N  N13  1  0.709920  0.289232  0.470805  1
  N  N14  1  0.205183  0.205121  0.536094  1
  N  N15  1  0.294558  0.705837  0.959719  1
  N  N16  1  0.205183  0.205121  0.963906  1
  N  N17  1  0.294558  0.705837  0.540281  1
  N  N18  1  0.798989  0.798087  0.467126  1
  N  N19  1  0.709920  0.289232  0.029195  1
