# generated using pymatgen
data_U2NiB8Ir
_symmetry_space_group_name_H-M   'P 1'
_cell_length_a   6.86879389
_cell_length_b   6.86879446
_cell_length_c   6.86879534
_cell_angle_alpha   111.29174252
_cell_angle_beta   113.83192974
_cell_angle_gamma   103.46362586
_symmetry_Int_Tables_number   1
_chemical_formula_structural   U2NiB8Ir
_chemical_formula_sum   'U4 Ni2 B16 Ir2'
_cell_volume   247.30667601
_cell_formula_units_Z   2
loop_
 _symmetry_equiv_pos_site_id
 _symmetry_equiv_pos_as_xyz
  1  'x, y, z'
loop_
 _atom_site_type_symbol
 _atom_site_label
 _atom_site_symmetry_multiplicity
 _atom_site_fract_x
 _atom_site_fract_y
 _atom_site_fract_z
 _atom_site_occupancy
  U  U0  1  0.801690  0.801690  0.000000  1
  U  U1  1  0.198310  0.198310  0.000000  1
  U  U2  1  0.753663  0.253663  0.500000  1
  U  U3  1  0.246337  0.746337  0.500000  1
  Ni  Ni4  1  0.500000  0.743552  0.243552  1
  Ni  Ni5  1  0.500000  0.256448  0.756448  1
  B  B6  1  0.272358  0.106602  0.378960  1
  B  B7  1  0.727642  0.893398  0.621040  1
  B  B8  1  0.272358  0.893398  0.165755  1
  B  B9  1  0.727642  0.106602  0.834245  1
  B  B10  1  0.109794  0.734279  0.844075  1
  B  B11  1  0.890206  0.265721  0.155925  1
  B  B12  1  0.109794  0.265721  0.375515  1
  B  B13  1  0.890206  0.734279  0.624485  1
  B  B14  1  0.115463  0.107322  0.531547  1
  B  B15  1  0.575774  0.583915  0.468453  1
  B  B16  1  0.115463  0.583915  0.008141  1
  B  B17  1  0.575774  0.107322  0.991859  1
  B  B18  1  0.884537  0.892678  0.468453  1
  B  B19  1  0.424226  0.416085  0.531547  1
  B  B20  1  0.884538  0.416085  0.991859  1
  B  B21  1  0.424226  0.892679  0.008141  1
  Ir  Ir22  1  0.276966  0.500000  0.776966  1
  Ir  Ir23  1  0.723034  0.500000  0.223034  1
