# generated using pymatgen
data_AcAlGaH
_symmetry_space_group_name_H-M   'P 1'
_cell_length_a   4.43442800
_cell_length_b   4.43442774
_cell_length_c   4.66728700
_cell_angle_alpha   90.00000000
_cell_angle_beta   90.00000000
_cell_angle_gamma   120.00000193
_symmetry_Int_Tables_number   1
_chemical_formula_structural   AcAlGaH
_chemical_formula_sum   'Ac1 Al1 Ga1 H1'
_cell_volume   79.48228076
_cell_formula_units_Z   1
loop_
 _symmetry_equiv_pos_site_id
 _symmetry_equiv_pos_as_xyz
  1  'x, y, z'
loop_
 _atom_site_type_symbol
 _atom_site_label
 _atom_site_symmetry_multiplicity
 _atom_site_fract_x
 _atom_site_fract_y
 _atom_site_fract_z
 _atom_site_occupancy
  Ac  Ac0  1  0.000000  0.000000  0.000695  1
  Al  Al1  1  0.666667  0.333333  0.515013  1
  Ga  Ga2  1  0.333333  0.666667  0.472744  1
  H  H3  1  0.666667  0.333333  0.904849  1
