# generated using pymatgen
data_Hf4MnNbSb2
_symmetry_space_group_name_H-M   'P 1'
_cell_length_a   5.52029274
_cell_length_b   8.16562870
_cell_length_c   8.16562919
_cell_angle_alpha   83.43919713
_cell_angle_beta   70.24371325
_cell_angle_gamma   70.24371175
_symmetry_Int_Tables_number   1
_chemical_formula_structural   Hf4MnNbSb2
_chemical_formula_sum   'Hf8 Mn2 Nb2 Sb4'
_cell_volume   326.02347022
_cell_formula_units_Z   2
loop_
 _symmetry_equiv_pos_site_id
 _symmetry_equiv_pos_as_xyz
  1  'x, y, z'
loop_
 _atom_site_type_symbol
 _atom_site_label
 _atom_site_symmetry_multiplicity
 _atom_site_fract_x
 _atom_site_fract_y
 _atom_site_fract_z
 _atom_site_occupancy
  Hf  Hf0  1  0.071788  0.130077  0.726347  1
  Hf  Hf1  1  0.928212  0.869923  0.273653  1
  Hf  Hf2  1  0.798135  0.273653  0.130077  1
  Hf  Hf3  1  0.428212  0.273653  0.869923  1
  Hf  Hf4  1  0.201865  0.726347  0.869923  1
  Hf  Hf5  1  0.571788  0.726347  0.130077  1
  Hf  Hf6  1  0.701865  0.869923  0.726347  1
  Hf  Hf7  1  0.298135  0.130077  0.273653  1
  Mn  Mn8  1  0.250000  0.000000  0.000000  1
  Mn  Mn9  1  0.750000  0.000000  0.000000  1
  Nb  Nb10  1  0.250000  0.500000  0.500000  1
  Nb  Nb11  1  0.750000  0.500000  0.500000  1
  Sb  Sb12  1  0.161015  0.500000  0.177971  1
  Sb  Sb13  1  0.838985  0.500000  0.822029  1
  Sb  Sb14  1  0.338985  0.822029  0.500000  1
  Sb  Sb15  1  0.661015  0.177971  0.500000  1
