# generated using pymatgen
data_LuPuB6Mo
_symmetry_space_group_name_H-M   'P 1'
_cell_length_a   3.67339000
_cell_length_b   9.15078700
_cell_length_c   11.49712600
_cell_angle_alpha   90.00000000
_cell_angle_beta   90.00000000
_cell_angle_gamma   90.00000000
_symmetry_Int_Tables_number   1
_chemical_formula_structural   LuPuB6Mo
_chemical_formula_sum   'Lu4 Pu4 B24 Mo4'
_cell_volume   386.46910095
_cell_formula_units_Z   4
loop_
 _symmetry_equiv_pos_site_id
 _symmetry_equiv_pos_as_xyz
  1  'x, y, z'
loop_
 _atom_site_type_symbol
 _atom_site_label
 _atom_site_symmetry_multiplicity
 _atom_site_fract_x
 _atom_site_fract_y
 _atom_site_fract_z
 _atom_site_occupancy
  Lu  Lu0  1  0.000000  0.944005  0.371617  1
  Lu  Lu1  1  0.000000  0.055995  0.628383  1
  Lu  Lu2  1  0.000000  0.444005  0.128383  1
  Lu  Lu3  1  0.000000  0.555995  0.871617  1
  Pu  Pu4  1  0.000000  0.321055  0.413395  1
  Pu  Pu5  1  0.000000  0.678945  0.586605  1
  Pu  Pu6  1  0.000000  0.821055  0.086605  1
  Pu  Pu7  1  0.000000  0.178945  0.913395  1
  B  B8  1  0.500000  0.552001  0.434503  1
  B  B9  1  0.500000  0.447999  0.565497  1
  B  B10  1  0.500000  0.052001  0.065497  1
  B  B11  1  0.500000  0.947999  0.934503  1
  B  B12  1  0.500000  0.751082  0.420852  1
  B  B13  1  0.500000  0.248918  0.579148  1
  B  B14  1  0.500000  0.251082  0.079148  1
  B  B15  1  0.500000  0.748918  0.920852  1
  B  B16  1  0.500000  0.794801  0.263650  1
  B  B17  1  0.500000  0.205199  0.736350  1
  B  B18  1  0.500000  0.294801  0.236350  1
  B  B19  1  0.500000  0.705199  0.763650  1
  B  B20  1  0.500000  0.631957  0.183001  1
  B  B21  1  0.500000  0.368043  0.816999  1
  B  B22  1  0.500000  0.131957  0.316999  1
  B  B23  1  0.500000  0.868043  0.683001  1
  B  B24  1  0.500000  0.979821  0.212206  1
  B  B25  1  0.500000  0.020179  0.787794  1
  B  B26  1  0.500000  0.479821  0.287794  1
  B  B27  1  0.500000  0.520179  0.712206  1
  B  B28  1  0.500000  0.603032  0.028759  1
  B  B29  1  0.500000  0.396968  0.971241  1
  B  B30  1  0.500000  0.103032  0.471241  1
  B  B31  1  0.500000  0.896968  0.528759  1
  Mo  Mo32  1  0.000000  0.639028  0.321225  1
  Mo  Mo33  1  0.000000  0.360972  0.678775  1
  Mo  Mo34  1  0.000000  0.139028  0.178775  1
  Mo  Mo35  1  0.000000  0.860972  0.821225  1
