# generated using pymatgen
data_LiEu2AgSb2
_symmetry_space_group_name_H-M   'P 1'
_cell_length_a   4.77969900
_cell_length_b   7.87595300
_cell_length_c   8.44686500
_cell_angle_alpha   90.00000000
_cell_angle_beta   90.00000000
_cell_angle_gamma   90.00000000
_symmetry_Int_Tables_number   1
_chemical_formula_structural   LiEu2AgSb2
_chemical_formula_sum   'Li2 Eu4 Ag2 Sb4'
_cell_volume   317.97956944
_cell_formula_units_Z   2
loop_
 _symmetry_equiv_pos_site_id
 _symmetry_equiv_pos_as_xyz
  1  'x, y, z'
loop_
 _atom_site_type_symbol
 _atom_site_label
 _atom_site_symmetry_multiplicity
 _atom_site_fract_x
 _atom_site_fract_y
 _atom_site_fract_z
 _atom_site_occupancy
  Li  Li0  1  0.750000  0.836495  0.073754  1
  Li  Li1  1  0.750000  0.336495  0.426246  1
  Eu  Eu2  1  0.250000  0.005791  0.290959  1
  Eu  Eu3  1  0.250000  0.505791  0.209041  1
  Eu  Eu4  1  0.750000  0.990433  0.707629  1
  Eu  Eu5  1  0.750000  0.490433  0.792371  1
  Ag  Ag6  1  0.250000  0.166272  0.923093  1
  Ag  Ag7  1  0.250000  0.666272  0.576907  1
  Sb  Sb8  1  0.250000  0.271525  0.591761  1
  Sb  Sb9  1  0.250000  0.771525  0.908239  1
  Sb  Sb10  1  0.750000  0.729484  0.397203  1
  Sb  Sb11  1  0.750000  0.229484  0.102797  1
