# generated using pymatgen
data_Sc12Re3Si12Ir
_symmetry_space_group_name_H-M   'P 1'
_cell_length_a   11.76086297
_cell_length_b   3.99515200
_cell_length_c   10.43100971
_cell_angle_alpha   90.00000000
_cell_angle_beta   90.06596073
_cell_angle_gamma   90.00000000
_symmetry_Int_Tables_number   1
_chemical_formula_structural   Sc12Re3Si12Ir
_chemical_formula_sum   'Sc12 Re3 Si12 Ir1'
_cell_volume   490.11563715
_cell_formula_units_Z   1
loop_
 _symmetry_equiv_pos_site_id
 _symmetry_equiv_pos_as_xyz
  1  'x, y, z'
loop_
 _atom_site_type_symbol
 _atom_site_label
 _atom_site_symmetry_multiplicity
 _atom_site_fract_x
 _atom_site_fract_y
 _atom_site_fract_z
 _atom_site_occupancy
  Sc  Sc0  1  0.518348  0.249999  0.624908  1
  Sc  Sc1  1  0.984204  0.750001  0.124595  1
  Sc  Sc2  1  0.020070  0.249999  0.876706  1
  Sc  Sc3  1  0.483348  0.750001  0.377193  1
  Sc  Sc4  1  0.297574  0.249999  0.837814  1
  Sc  Sc5  1  0.202164  0.750001  0.338688  1
  Sc  Sc6  1  0.797136  0.249999  0.662354  1
  Sc  Sc7  1  0.702440  0.750001  0.155962  1
  Sc  Sc8  1  0.105797  0.249999  0.577642  1
  Sc  Sc9  1  0.393197  0.750001  0.077324  1
  Sc  Sc10  1  0.604673  0.249999  0.923066  1
  Sc  Sc11  1  0.891837  0.750001  0.422108  1
  Re  Re12  1  0.175598  0.249999  0.110149  1
  Re  Re13  1  0.322656  0.750001  0.611080  1
  Re  Re14  1  0.677931  0.249999  0.391148  1
  Si  Si15  1  0.044359  0.249999  0.306956  1
  Si  Si16  1  0.455129  0.750001  0.808079  1
  Si  Si17  1  0.545927  0.249999  0.193873  1
  Si  Si18  1  0.953106  0.750001  0.694656  1
  Si  Si19  1  0.345418  0.249999  0.246990  1
  Si  Si20  1  0.154002  0.750001  0.747781  1
  Si  Si21  1  0.843737  0.249999  0.249543  1
  Si  Si22  1  0.656185  0.750001  0.753907  1
  Si  Si23  1  0.323131  0.249999  0.481754  1
  Si  Si24  1  0.177553  0.750001  0.981350  1
  Si  Si25  1  0.824062  0.249999  0.015249  1
  Si  Si26  1  0.677840  0.750001  0.520294  1
  Ir  Ir27  1  0.822576  0.750001  0.888835  1
