# generated using pymatgen
data_Ce5MnReB6
_symmetry_space_group_name_H-M   'P 1'
_cell_length_a   5.42349371
_cell_length_b   5.42349526
_cell_length_c   8.37700830
_cell_angle_alpha   71.11152889
_cell_angle_beta   71.11153270
_cell_angle_gamma   59.99896851
_symmetry_Int_Tables_number   1
_chemical_formula_structural   Ce5MnReB6
_chemical_formula_sum   'Ce5 Mn1 Re1 B6'
_cell_volume   197.92044562
_cell_formula_units_Z   1
loop_
 _symmetry_equiv_pos_site_id
 _symmetry_equiv_pos_as_xyz
  1  'x, y, z'
loop_
 _atom_site_type_symbol
 _atom_site_label
 _atom_site_symmetry_multiplicity
 _atom_site_fract_x
 _atom_site_fract_y
 _atom_site_fract_z
 _atom_site_occupancy
  Ce  Ce0  1  0.010848  0.010848  0.967422  1
  Ce  Ce1  1  0.746584  0.746584  0.760162  1
  Ce  Ce2  1  0.254165  0.254165  0.237345  1
  Ce  Ce3  1  0.586670  0.586670  0.240099  1
  Ce  Ce4  1  0.412609  0.412609  0.762241  1
  Mn  Mn5  1  0.109251  0.109251  0.672290  1
  Re  Re6  1  0.890168  0.890168  0.329481  1
  B  B7  1  0.494882  0.168649  0.505154  1
  B  B8  1  0.831331  0.494885  0.505152  1
  B  B9  1  0.168659  0.831298  0.505174  1
  B  B10  1  0.168649  0.494882  0.505154  1
  B  B11  1  0.831298  0.168659  0.505174  1
  B  B12  1  0.494885  0.831331  0.505152  1
