# generated using pymatgen
data_Tb3YbTm4(B6Ru)4
_symmetry_space_group_name_H-M   'P 1'
_cell_length_a   3.64252100
_cell_length_b   9.10998670
_cell_length_c   11.50496000
_cell_angle_alpha   89.92566319
_cell_angle_beta   90.00000000
_cell_angle_gamma   90.00000000
_symmetry_Int_Tables_number   1
_chemical_formula_structural   Tb3YbTm4(B6Ru)4
_chemical_formula_sum   'Tb3 Yb1 Tm4 B24 Ru4'
_cell_volume   381.77242357
_cell_formula_units_Z   1
loop_
 _symmetry_equiv_pos_site_id
 _symmetry_equiv_pos_as_xyz
  1  'x, y, z'
loop_
 _atom_site_type_symbol
 _atom_site_label
 _atom_site_symmetry_multiplicity
 _atom_site_fract_x
 _atom_site_fract_y
 _atom_site_fract_z
 _atom_site_occupancy
  Tb  Tb0  1  0.000000  0.676087  0.584950  1
  Tb  Tb1  1  0.000000  0.822406  0.086427  1
  Tb  Tb2  1  0.000000  0.178099  0.914500  1
  Yb  Yb3  1  0.000000  0.323130  0.413780  1
  Tm  Tm4  1  0.000000  0.944313  0.371391  1
  Tm  Tm5  1  0.000000  0.057961  0.627683  1
  Tm  Tm6  1  0.000000  0.443038  0.129630  1
  Tm  Tm7  1  0.000000  0.555969  0.872055  1
  B  B8  1  0.500000  0.553978  0.432080  1
  B  B9  1  0.500000  0.445131  0.567475  1
  B  B10  1  0.500000  0.053950  0.067263  1
  B  B11  1  0.500000  0.945431  0.932086  1
  B  B12  1  0.500000  0.749087  0.418684  1
  B  B13  1  0.500000  0.251282  0.580883  1
  B  B14  1  0.500000  0.248728  0.081257  1
  B  B15  1  0.500000  0.750651  0.919046  1
  B  B16  1  0.500000  0.791679  0.266230  1
  B  B17  1  0.500000  0.209327  0.733878  1
  B  B18  1  0.500000  0.290596  0.234100  1
  B  B19  1  0.500000  0.708874  0.766206  1
  B  B20  1  0.500000  0.631002  0.185625  1
  B  B21  1  0.500000  0.369219  0.815401  1
  B  B22  1  0.500000  0.131016  0.314734  1
  B  B23  1  0.500000  0.869279  0.684747  1
  B  B24  1  0.500000  0.983544  0.212626  1
  B  B25  1  0.500000  0.016671  0.786630  1
  B  B26  1  0.500000  0.483176  0.287454  1
  B  B27  1  0.500000  0.516356  0.713088  1
  B  B28  1  0.500000  0.604984  0.029158  1
  B  B29  1  0.500000  0.395092  0.971505  1
  B  B30  1  0.500000  0.103043  0.471536  1
  B  B31  1  0.500000  0.896630  0.528433  1
  Ru  Ru32  1  0.000000  0.639625  0.319922  1
  Ru  Ru33  1  0.000000  0.361432  0.680566  1
  Ru  Ru34  1  0.000000  0.137607  0.178770  1
  Ru  Ru35  1  0.000000  0.861609  0.820199  1
