# generated using pymatgen
data_Lu5(TcTe)2
_symmetry_space_group_name_H-M   'P 1'
_cell_length_a   8.85938010
_cell_length_b   8.85937910
_cell_length_c   7.46938900
_cell_angle_alpha   90.00001393
_cell_angle_beta   90.00001359
_cell_angle_gamma   129.67132102
_symmetry_Int_Tables_number   1
_chemical_formula_structural   Lu5(TcTe)2
_chemical_formula_sum   'Lu10 Tc4 Te4'
_cell_volume   451.25706273
_cell_formula_units_Z   2
loop_
 _symmetry_equiv_pos_site_id
 _symmetry_equiv_pos_as_xyz
  1  'x, y, z'
loop_
 _atom_site_type_symbol
 _atom_site_label
 _atom_site_symmetry_multiplicity
 _atom_site_fract_x
 _atom_site_fract_y
 _atom_site_fract_z
 _atom_site_occupancy
  Lu  Lu0  1  0.000000  0.000000  0.000000  1
  Lu  Lu1  1  0.500000  0.500000  0.500000  1
  Lu  Lu2  1  0.792044  0.549758  0.168749  1
  Lu  Lu3  1  0.450242  0.207956  0.831251  1
  Lu  Lu4  1  0.950239  0.707956  0.668763  1
  Lu  Lu5  1  0.292044  0.049761  0.331237  1
  Lu  Lu6  1  0.207956  0.450242  0.831251  1
  Lu  Lu7  1  0.549758  0.792044  0.168749  1
  Lu  Lu8  1  0.049761  0.292044  0.331237  1
  Lu  Lu9  1  0.707956  0.950239  0.668763  1
  Tc  Tc10  1  0.880537  0.880537  0.384698  1
  Tc  Tc11  1  0.119463  0.119463  0.615302  1
  Tc  Tc12  1  0.619453  0.619453  0.884697  1
  Tc  Tc13  1  0.380547  0.380547  0.115303  1
  Te  Te14  1  0.213305  0.786695  0.000000  1
  Te  Te15  1  0.713308  0.286692  0.500000  1
  Te  Te16  1  0.786695  0.213305  0.000000  1
  Te  Te17  1  0.286692  0.713308  0.500000  1
