# generated using pymatgen
data_Dy2Y18Cd5InNi2
_symmetry_space_group_name_H-M   'P 1'
_cell_length_a   9.67885226
_cell_length_b   9.67885247
_cell_length_c   9.80670100
_cell_angle_alpha   90.00000000
_cell_angle_beta   90.00000000
_cell_angle_gamma   120.12769833
_symmetry_Int_Tables_number   1
_chemical_formula_structural   Dy2Y18Cd5InNi2
_chemical_formula_sum   'Dy2 Y18 Cd5 In1 Ni2'
_cell_volume   794.58620134
_cell_formula_units_Z   1
loop_
 _symmetry_equiv_pos_site_id
 _symmetry_equiv_pos_as_xyz
  1  'x, y, z'
loop_
 _atom_site_type_symbol
 _atom_site_label
 _atom_site_symmetry_multiplicity
 _atom_site_fract_x
 _atom_site_fract_y
 _atom_site_fract_z
 _atom_site_occupancy
  Dy  Dy0  1  0.001830  0.998170  0.501554  1
  Dy  Dy1  1  0.001830  0.998170  0.998446  1
  Y  Y2  1  0.542862  0.457138  0.250000  1
  Y  Y3  1  0.540453  0.087649  0.250000  1
  Y  Y4  1  0.912351  0.459547  0.250000  1
  Y  Y5  1  0.455953  0.544047  0.750000  1
  Y  Y6  1  0.456712  0.912670  0.750000  1
  Y  Y7  1  0.087330  0.543288  0.750000  1
  Y  Y8  1  0.210192  0.789808  0.437343  1
  Y  Y9  1  0.209391  0.419419  0.436385  1
  Y  Y10  1  0.580581  0.790609  0.436385  1
  Y  Y11  1  0.790166  0.209834  0.562403  1
  Y  Y12  1  0.789543  0.579655  0.564027  1
  Y  Y13  1  0.420345  0.210457  0.564027  1
  Y  Y14  1  0.790166  0.209834  0.937597  1
  Y  Y15  1  0.789543  0.579655  0.935973  1
  Y  Y16  1  0.420345  0.210457  0.935973  1
  Y  Y17  1  0.210192  0.789808  0.062657  1
  Y  Y18  1  0.209391  0.419419  0.063615  1
  Y  Y19  1  0.580581  0.790609  0.063615  1
  Cd  Cd20  1  0.884976  0.769282  0.250000  1
  Cd  Cd21  1  0.230718  0.115024  0.250000  1
  Cd  Cd22  1  0.116694  0.883306  0.750000  1
  Cd  Cd23  1  0.115018  0.231054  0.750000  1
  Cd  Cd24  1  0.768946  0.884982  0.750000  1
  In  In25  1  0.883981  0.116019  0.250000  1
  Ni  Ni26  1  0.332850  0.667150  0.250000  1
  Ni  Ni27  1  0.667063  0.332937  0.750000  1
