# generated using pymatgen
data_Lu19MgIr12
_symmetry_space_group_name_H-M   'P 1'
_cell_length_a   10.62459900
_cell_length_b   10.62459900
_cell_length_c   6.20565200
_cell_angle_alpha   90.00000000
_cell_angle_beta   90.00000000
_cell_angle_gamma   90.00000000
_symmetry_Int_Tables_number   1
_chemical_formula_structural   Lu19MgIr12
_chemical_formula_sum   'Lu19 Mg1 Ir12'
_cell_volume   700.50705390
_cell_formula_units_Z   1
loop_
 _symmetry_equiv_pos_site_id
 _symmetry_equiv_pos_as_xyz
  1  'x, y, z'
loop_
 _atom_site_type_symbol
 _atom_site_label
 _atom_site_symmetry_multiplicity
 _atom_site_fract_x
 _atom_site_fract_y
 _atom_site_fract_z
 _atom_site_occupancy
  Lu  Lu0  1  0.283116  0.082979  0.377469  1
  Lu  Lu1  1  0.291737  0.912478  0.879140  1
  Lu  Lu2  1  0.708263  0.087522  0.879140  1
  Lu  Lu3  1  0.716884  0.917021  0.377469  1
  Lu  Lu4  1  0.588590  0.792308  0.877507  1
  Lu  Lu5  1  0.585864  0.208381  0.376017  1
  Lu  Lu6  1  0.414136  0.791619  0.376017  1
  Lu  Lu7  1  0.411410  0.207692  0.877507  1
  Lu  Lu8  1  0.208381  0.414136  0.623983  1
  Lu  Lu9  1  0.207692  0.588590  0.122493  1
  Lu  Lu10  1  0.792308  0.411410  0.122493  1
  Lu  Lu11  1  0.791619  0.585864  0.623983  1
  Lu  Lu12  1  0.912478  0.708263  0.120860  1
  Lu  Lu13  1  0.917021  0.283116  0.622531  1
  Lu  Lu14  1  0.082979  0.716884  0.622531  1
  Lu  Lu15  1  0.087522  0.291737  0.120860  1
  Lu  Lu16  1  0.000000  0.000000  0.000000  1
  Lu  Lu17  1  0.500000  0.500000  0.000000  1
  Lu  Lu18  1  0.500000  0.500000  0.500000  1
  Mg  Mg19  1  0.000000  0.000000  0.500000  1
  Ir  Ir20  1  0.846004  0.155258  0.246129  1
  Ir  Ir21  1  0.844742  0.846004  0.753871  1
  Ir  Ir22  1  0.155258  0.153996  0.753871  1
  Ir  Ir23  1  0.153996  0.844742  0.246129  1
  Ir  Ir24  1  0.654555  0.345826  0.748266  1
  Ir  Ir25  1  0.654174  0.654555  0.251734  1
  Ir  Ir26  1  0.345826  0.345445  0.251734  1
  Ir  Ir27  1  0.345445  0.654174  0.748266  1
  Ir  Ir28  1  0.500000  0.000000  0.127621  1
  Ir  Ir29  1  0.500000  0.000000  0.620728  1
  Ir  Ir30  1  0.000000  0.500000  0.872379  1
  Ir  Ir31  1  0.000000  0.500000  0.379272  1
