# generated using pymatgen
data_TbTmThGa2
_symmetry_space_group_name_H-M   'P 1'
_cell_length_a   7.66752800
_cell_length_b   7.67499400
_cell_length_c   4.40352400
_cell_angle_alpha   90.00000000
_cell_angle_beta   90.00000000
_cell_angle_gamma   90.00000000
_symmetry_Int_Tables_number   1
_chemical_formula_structural   TbTmThGa2
_chemical_formula_sum   'Tb2 Tm2 Th2 Ga4'
_cell_volume   259.13959930
_cell_formula_units_Z   2
loop_
 _symmetry_equiv_pos_site_id
 _symmetry_equiv_pos_as_xyz
  1  'x, y, z'
loop_
 _atom_site_type_symbol
 _atom_site_label
 _atom_site_symmetry_multiplicity
 _atom_site_fract_x
 _atom_site_fract_y
 _atom_site_fract_z
 _atom_site_occupancy
  Tb  Tb0  1  0.675930  0.175331  0.500000  1
  Tb  Tb1  1  0.175930  0.324669  0.500000  1
  Tm  Tm2  1  0.000101  0.003764  0.000000  1
  Tm  Tm3  1  0.500101  0.496236  0.000000  1
  Th  Th4  1  0.825350  0.673693  0.500000  1
  Th  Th5  1  0.325350  0.826307  0.500000  1
  Ga  Ga6  1  0.877937  0.377023  0.000000  1
  Ga  Ga7  1  0.377937  0.122977  0.000000  1
  Ga  Ga8  1  0.620682  0.881615  0.000000  1
  Ga  Ga9  1  0.120682  0.618385  0.000000  1
