# generated using pymatgen
data_BaSr2(Cd3Pd2)3
_symmetry_space_group_name_H-M   'P 1'
_cell_length_a   4.64094700
_cell_length_b   10.07236605
_cell_length_c   10.07688400
_cell_angle_alpha   119.98518261
_cell_angle_beta   90.00000000
_cell_angle_gamma   90.00000000
_symmetry_Int_Tables_number   1
_chemical_formula_structural   BaSr2(Cd3Pd2)3
_chemical_formula_sum   'Ba1 Sr2 Cd9 Pd6'
_cell_volume   407.99968253
_cell_formula_units_Z   1
loop_
 _symmetry_equiv_pos_site_id
 _symmetry_equiv_pos_as_xyz
  1  'x, y, z'
loop_
 _atom_site_type_symbol
 _atom_site_label
 _atom_site_symmetry_multiplicity
 _atom_site_fract_x
 _atom_site_fract_y
 _atom_site_fract_z
 _atom_site_occupancy
  Ba  Ba0  1  0.000000  0.999966  0.000000  1
  Sr  Sr1  1  0.500000  0.333349  0.666492  1
  Sr  Sr2  1  0.500000  0.666858  0.333508  1
  Cd  Cd3  1  0.500000  0.300434  0.000000  1
  Cd  Cd4  1  0.500000  0.699418  0.699453  1
  Cd  Cd5  1  0.500000  0.999965  0.300547  1
  Cd  Cd6  1  0.500000  0.699546  0.000000  1
  Cd  Cd7  1  0.500000  0.300577  0.300513  1
  Cd  Cd8  1  0.500000  0.000065  0.699487  1
  Cd  Cd9  1  0.000000  0.499970  0.000000  1
  Cd  Cd10  1  0.000000  0.499955  0.500008  1
  Cd  Cd11  1  0.000000  0.999946  0.499992  1
  Pd  Pd12  1  0.000000  0.182720  0.365505  1
  Pd  Pd13  1  0.000000  0.182831  0.817164  1
  Pd  Pd14  1  0.000000  0.634295  0.817178  1
  Pd  Pd15  1  0.000000  0.817216  0.634495  1
  Pd  Pd16  1  0.000000  0.365667  0.182836  1
  Pd  Pd17  1  0.000000  0.817120  0.182822  1
