# generated using pymatgen
data_Ti4Ir2O
_symmetry_space_group_name_H-M   'P 1'
_cell_length_a   8.25208852
_cell_length_b   8.25442704
_cell_length_c   8.25419197
_cell_angle_alpha   60.01294124
_cell_angle_beta   60.01068873
_cell_angle_gamma   60.00772708
_symmetry_Int_Tables_number   1
_chemical_formula_structural   Ti4Ir2O
_chemical_formula_sum   'Ti16 Ir8 O4'
_cell_volume   397.66125334
_cell_formula_units_Z   4
loop_
 _symmetry_equiv_pos_site_id
 _symmetry_equiv_pos_as_xyz
  1  'x, y, z'
loop_
 _atom_site_type_symbol
 _atom_site_label
 _atom_site_symmetry_multiplicity
 _atom_site_fract_x
 _atom_site_fract_y
 _atom_site_fract_z
 _atom_site_occupancy
  Ti  Ti0  1  0.816976  0.182631  0.817010  1
  Ti  Ti1  1  0.183471  0.816736  0.182894  1
  Ti  Ti2  1  0.433095  0.067118  0.433252  1
  Ti  Ti3  1  0.432548  0.067945  0.066970  1
  Ti  Ti4  1  0.066814  0.432584  0.433774  1
  Ti  Ti5  1  0.066613  0.432991  0.067368  1
  Ti  Ti6  1  0.183349  0.182609  0.817046  1
  Ti  Ti7  1  0.433014  0.432976  0.067375  1
  Ti  Ti8  1  0.124999  0.625435  0.624588  1
  Ti  Ti9  1  0.624718  0.625129  0.125424  1
  Ti  Ti10  1  0.624988  0.625401  0.624606  1
  Ti  Ti11  1  0.625316  0.124583  0.624828  1
  Ti  Ti12  1  0.183186  0.816210  0.817406  1
  Ti  Ti13  1  0.817449  0.183042  0.182060  1
  Ti  Ti14  1  0.066540  0.067134  0.433247  1
  Ti  Ti15  1  0.816937  0.816773  0.182851  1
  Ir  Ir16  1  0.841114  0.840646  0.841267  1
  Ir  Ir17  1  0.476982  0.840614  0.841293  1
  Ir  Ir18  1  0.408910  0.408717  0.409351  1
  Ir  Ir19  1  0.408724  0.408858  0.773699  1
  Ir  Ir20  1  0.841249  0.476301  0.841173  1
  Ir  Ir21  1  0.773034  0.408698  0.409354  1
  Ir  Ir22  1  0.408122  0.775484  0.408250  1
  Ir  Ir23  1  0.841864  0.841779  0.474517  1
  O  O24  1  0.124913  0.124523  0.625608  1
  O  O25  1  0.625004  0.125358  0.124659  1
  O  O26  1  0.124974  0.125334  0.124695  1
  O  O27  1  0.125097  0.624390  0.125436  1
