# generated using pymatgen
data_Nd4HgIr
_symmetry_space_group_name_H-M   'P 1'
_cell_length_a   9.92540399
_cell_length_b   9.92540437
_cell_length_c   9.92540400
_cell_angle_alpha   60.00000123
_cell_angle_beta   59.99999998
_cell_angle_gamma   60.00000316
_symmetry_Int_Tables_number   1
_chemical_formula_structural   Nd4HgIr
_chemical_formula_sum   'Nd16 Hg4 Ir4'
_cell_volume   691.40037670
_cell_formula_units_Z   4
loop_
 _symmetry_equiv_pos_site_id
 _symmetry_equiv_pos_as_xyz
  1  'x, y, z'
loop_
 _atom_site_type_symbol
 _atom_site_label
 _atom_site_symmetry_multiplicity
 _atom_site_fract_x
 _atom_site_fract_y
 _atom_site_fract_z
 _atom_site_occupancy
  Nd  Nd0  1  0.599968  0.599968  0.599968  1
  Nd  Nd1  1  0.599968  0.599968  0.200097  1
  Nd  Nd2  1  0.599968  0.200097  0.599968  1
  Nd  Nd3  1  0.200097  0.599968  0.599968  1
  Nd  Nd4  1  0.058575  0.441425  0.441425  1
  Nd  Nd5  1  0.441425  0.058575  0.058575  1
  Nd  Nd6  1  0.441425  0.058575  0.441425  1
  Nd  Nd7  1  0.058575  0.441425  0.058575  1
  Nd  Nd8  1  0.441425  0.441425  0.058575  1
  Nd  Nd9  1  0.058575  0.058575  0.441425  1
  Nd  Nd10  1  0.189375  0.810625  0.810625  1
  Nd  Nd11  1  0.810625  0.189375  0.189375  1
  Nd  Nd12  1  0.810625  0.189375  0.810625  1
  Nd  Nd13  1  0.189375  0.810625  0.189375  1
  Nd  Nd14  1  0.810625  0.810625  0.189375  1
  Nd  Nd15  1  0.189375  0.189375  0.810625  1
  Hg  Hg16  1  0.834041  0.834041  0.834041  1
  Hg  Hg17  1  0.834041  0.834041  0.497876  1
  Hg  Hg18  1  0.834041  0.497876  0.834041  1
  Hg  Hg19  1  0.497876  0.834041  0.834041  1
  Ir  Ir20  1  0.391707  0.391707  0.391707  1
  Ir  Ir21  1  0.391707  0.391707  0.824878  1
  Ir  Ir22  1  0.391707  0.824878  0.391707  1
  Ir  Ir23  1  0.824878  0.391707  0.391707  1
