# generated using pymatgen
data_TlCr12Si8IO28
_symmetry_space_group_name_H-M   'P 1'
_cell_length_a   10.02762331
_cell_length_b   10.02762380
_cell_length_c   10.02762397
_cell_angle_alpha   115.61429414
_cell_angle_beta   115.61429855
_cell_angle_gamma   97.78050499
_symmetry_Int_Tables_number   1
_chemical_formula_structural   TlCr12Si8IO28
_chemical_formula_sum   'Tl1 Cr12 Si8 I1 O28'
_cell_volume   752.71881180
_cell_formula_units_Z   1
loop_
 _symmetry_equiv_pos_site_id
 _symmetry_equiv_pos_as_xyz
  1  'x, y, z'
loop_
 _atom_site_type_symbol
 _atom_site_label
 _atom_site_symmetry_multiplicity
 _atom_site_fract_x
 _atom_site_fract_y
 _atom_site_fract_z
 _atom_site_occupancy
  Tl  Tl0  1  0.027043  0.027043  0.000000  1
  Cr  Cr1  1  0.277639  0.049131  0.771493  1
  Cr  Cr2  1  0.277639  0.506145  0.228507  1
  Cr  Cr3  1  0.506145  0.277639  0.228507  1
  Cr  Cr4  1  0.049131  0.277639  0.771493  1
  Cr  Cr5  1  0.722317  0.951236  0.228918  1
  Cr  Cr6  1  0.722317  0.493399  0.771082  1
  Cr  Cr7  1  0.493399  0.722317  0.771082  1
  Cr  Cr8  1  0.951236  0.722317  0.228918  1
  Cr  Cr9  1  0.499059  0.186890  0.687831  1
  Cr  Cr10  1  0.499059  0.811228  0.312169  1
  Cr  Cr11  1  0.811228  0.499059  0.312169  1
  Cr  Cr12  1  0.186890  0.499059  0.687831  1
  Si  Si13  1  0.886348  0.886348  0.547175  1
  Si  Si14  1  0.339173  0.339173  0.452825  1
  Si  Si15  1  0.339173  0.886348  0.000000  1
  Si  Si16  1  0.886348  0.339173  0.000000  1
  Si  Si17  1  0.111329  0.111329  0.450803  1
  Si  Si18  1  0.660526  0.660526  0.549197  1
  Si  Si19  1  0.660526  0.111329  0.000000  1
  Si  Si20  1  0.111329  0.660526  0.000000  1
  I  I21  1  0.482748  0.482748  0.000000  1
  O  O22  1  0.254339  0.072124  0.569291  1
  O  O23  1  0.502832  0.685048  0.430709  1
  O  O24  1  0.502832  0.072124  0.817784  1
  O  O25  1  0.254340  0.685048  0.182216  1
  O  O26  1  0.685048  0.254340  0.182216  1
  O  O27  1  0.072124  0.502832  0.817784  1
  O  O28  1  0.072124  0.254340  0.569291  1
  O  O29  1  0.685048  0.502832  0.430709  1
  O  O30  1  0.743462  0.925164  0.428623  1
  O  O31  1  0.496541  0.314840  0.571377  1
  O  O32  1  0.496541  0.925164  0.181702  1
  O  O33  1  0.743462  0.314840  0.818298  1
  O  O34  1  0.314840  0.743462  0.818298  1
  O  O35  1  0.925164  0.496541  0.181702  1
  O  O36  1  0.925164  0.743462  0.428623  1
  O  O37  1  0.314840  0.496541  0.571377  1
  O  O38  1  0.050968  0.050968  0.707055  1
  O  O39  1  0.343913  0.343913  0.292945  1
  O  O40  1  0.343913  0.050968  0.000000  1
  O  O41  1  0.050968  0.343913  0.000000  1
  O  O42  1  0.947111  0.947111  0.292654  1
  O  O43  1  0.654457  0.654457  0.707346  1
  O  O44  1  0.654457  0.947111  0.000000  1
  O  O45  1  0.947111  0.654457  0.000000  1
  O  O46  1  0.820598  0.820598  0.641996  1
  O  O47  1  0.178603  0.178603  0.358004  1
  O  O48  1  0.178603  0.820598  0.000000  1
  O  O49  1  0.820598  0.178603  0.000000  1
