# generated using pymatgen
data_Tb3Ho2(In2Pd)2
_symmetry_space_group_name_H-M   'P 1'
_cell_length_a   3.63560500
_cell_length_b   8.16814500
_cell_length_c   18.29987800
_cell_angle_alpha   90.00000000
_cell_angle_beta   90.00000000
_cell_angle_gamma   90.00000000
_symmetry_Int_Tables_number   1
_chemical_formula_structural   Tb3Ho2(In2Pd)2
_chemical_formula_sum   'Tb6 Ho4 In8 Pd4'
_cell_volume   543.43590016
_cell_formula_units_Z   2
loop_
 _symmetry_equiv_pos_site_id
 _symmetry_equiv_pos_as_xyz
  1  'x, y, z'
loop_
 _atom_site_type_symbol
 _atom_site_label
 _atom_site_symmetry_multiplicity
 _atom_site_fract_x
 _atom_site_fract_y
 _atom_site_fract_z
 _atom_site_occupancy
  Tb  Tb0  1  0.000000  0.500000  0.500000  1
  Tb  Tb1  1  0.000000  0.000000  0.000000  1
  Tb  Tb2  1  0.000000  0.738978  0.281191  1
  Tb  Tb3  1  0.000000  0.261022  0.718809  1
  Tb  Tb4  1  0.000000  0.761022  0.781191  1
  Tb  Tb5  1  0.000000  0.238978  0.218809  1
  Ho  Ho6  1  0.000000  0.617249  0.083386  1
  Ho  Ho7  1  0.000000  0.382751  0.916614  1
  Ho  Ho8  1  0.000000  0.882751  0.583386  1
  Ho  Ho9  1  0.000000  0.117249  0.416614  1
  In  In10  1  0.500000  0.707502  0.932728  1
  In  In11  1  0.500000  0.292498  0.067272  1
  In  In12  1  0.500000  0.792498  0.432728  1
  In  In13  1  0.500000  0.207502  0.567272  1
  In  In14  1  0.500000  0.581406  0.650325  1
  In  In15  1  0.500000  0.418594  0.349675  1
  In  In16  1  0.500000  0.918594  0.150325  1
  In  In17  1  0.500000  0.081406  0.849675  1
  Pd  Pd18  1  0.500000  0.523809  0.195050  1
  Pd  Pd19  1  0.500000  0.476191  0.804950  1
  Pd  Pd20  1  0.500000  0.976191  0.695050  1
  Pd  Pd21  1  0.500000  0.023809  0.304950  1
