# generated using pymatgen
data_Tb3Sm3PtBr10
_symmetry_space_group_name_H-M   'P 1'
_cell_length_a   7.44964011
_cell_length_b   9.38992515
_cell_length_c   9.45664488
_cell_angle_alpha   108.20451825
_cell_angle_beta   96.31508539
_cell_angle_gamma   105.63871984
_symmetry_Int_Tables_number   1
_chemical_formula_structural   Tb3Sm3PtBr10
_chemical_formula_sum   'Tb3 Sm3 Pt1 Br10'
_cell_volume   591.33912098
_cell_formula_units_Z   1
loop_
 _symmetry_equiv_pos_site_id
 _symmetry_equiv_pos_as_xyz
  1  'x, y, z'
loop_
 _atom_site_type_symbol
 _atom_site_label
 _atom_site_symmetry_multiplicity
 _atom_site_fract_x
 _atom_site_fract_y
 _atom_site_fract_z
 _atom_site_occupancy
  Tb  Tb0  1  0.028045  0.700666  0.903833  1
  Tb  Tb1  1  0.361222  0.134014  0.177808  1
  Tb  Tb2  1  0.638651  0.863569  0.821698  1
  Sm  Sm3  1  0.129471  0.048261  0.750565  1
  Sm  Sm4  1  0.869322  0.952108  0.249148  1
  Sm  Sm5  1  0.972414  0.304068  0.097806  1
  Pt  Pt6  1  0.999729  0.000029  0.999862  1
  Br  Br7  1  0.548537  0.172846  0.917024  1
  Br  Br8  1  0.447918  0.823311  0.080474  1
  Br  Br9  1  0.359888  0.450241  0.272809  1
  Br  Br10  1  0.648937  0.549394  0.728692  1
  Br  Br11  1  0.253622  0.083143  0.452082  1
  Br  Br12  1  0.745025  0.915309  0.547792  1
  Br  Br13  1  0.778395  0.254604  0.346635  1
  Br  Br14  1  0.217892  0.742552  0.656560  1
  Br  Br15  1  0.087101  0.374135  0.829356  1
  Br  Br16  1  0.913832  0.631748  0.167855  1
