# generated using pymatgen
data_Gd3YEr2Ta2O14
_symmetry_space_group_name_H-M   'P 1'
_cell_length_a   6.50267652
_cell_length_b   6.49480932
_cell_length_c   7.52895841
_cell_angle_alpha   89.93992997
_cell_angle_beta   89.95183398
_cell_angle_gamma   108.88830260
_symmetry_Int_Tables_number   1
_chemical_formula_structural   Gd3YEr2Ta2O14
_chemical_formula_sum   'Gd3 Y1 Er2 Ta2 O14'
_cell_volume   300.85244542
_cell_formula_units_Z   1
loop_
 _symmetry_equiv_pos_site_id
 _symmetry_equiv_pos_as_xyz
  1  'x, y, z'
loop_
 _atom_site_type_symbol
 _atom_site_label
 _atom_site_symmetry_multiplicity
 _atom_site_fract_x
 _atom_site_fract_y
 _atom_site_fract_z
 _atom_site_occupancy
  Gd  Gd0  1  0.533302  0.999847  0.755370  1
  Gd  Gd1  1  0.527487  0.525853  0.497956  1
  Gd  Gd2  1  0.472946  0.472164  0.002061  1
  Y  Y3  1  0.999746  0.467130  0.744798  1
  Er  Er4  1  0.464527  0.999558  0.255866  1
  Er  Er5  1  0.000664  0.534954  0.244256  1
  Ta  Ta6  1  0.002142  0.003189  0.497845  1
  Ta  Ta7  1  0.996627  0.997477  0.002177  1
  O  O8  1  0.068993  0.930234  0.250001  1
  O  O9  1  0.052646  0.311279  0.457099  1
  O  O10  1  0.076052  0.325014  0.029914  1
  O  O11  1  0.357316  0.642391  0.249926  1
  O  O12  1  0.366357  0.627043  0.749573  1
  O  O13  1  0.326728  0.080826  0.977729  1
  O  O14  1  0.313906  0.059557  0.534220  1
  O  O15  1  0.689734  0.946539  0.044974  1
  O  O16  1  0.675855  0.922830  0.468071  1
  O  O17  1  0.632774  0.367462  0.250059  1
  O  O18  1  0.640229  0.362505  0.750162  1
  O  O19  1  0.921160  0.673611  0.524672  1
  O  O20  1  0.942334  0.686714  0.963285  1
  O  O21  1  0.938474  0.063822  0.749986  1
