# generated using pymatgen
data_Eu2Ga2(GePd)3
_symmetry_space_group_name_H-M   'P 1'
_cell_length_a   8.65416756
_cell_length_b   8.65416870
_cell_length_c   8.65416797
_cell_angle_alpha   138.48178148
_cell_angle_beta   105.93820733
_cell_angle_gamma   88.66227690
_symmetry_Int_Tables_number   1
_chemical_formula_structural   Eu2Ga2(GePd)3
_chemical_formula_sum   'Eu4 Ga4 Ge6 Pd6'
_cell_volume   395.86592826
_cell_formula_units_Z   2
loop_
 _symmetry_equiv_pos_site_id
 _symmetry_equiv_pos_as_xyz
  1  'x, y, z'
loop_
 _atom_site_type_symbol
 _atom_site_label
 _atom_site_symmetry_multiplicity
 _atom_site_fract_x
 _atom_site_fract_y
 _atom_site_fract_z
 _atom_site_occupancy
  Eu  Eu0  1  0.636072  0.870667  0.765405  1
  Eu  Eu1  1  0.363928  0.129333  0.234595  1
  Eu  Eu2  1  0.105263  0.370667  0.734595  1
  Eu  Eu3  1  0.894737  0.629333  0.265405  1
  Ga  Ga4  1  0.271592  0.021592  0.750000  1
  Ga  Ga5  1  0.728408  0.978408  0.250000  1
  Ga  Ga6  1  0.728408  0.478408  0.750000  1
  Ga  Ga7  1  0.271592  0.521592  0.250000  1
  Ge  Ge8  1  0.458008  0.609864  0.848144  1
  Ge  Ge9  1  0.541992  0.390136  0.151856  1
  Ge  Ge10  1  0.761720  0.109864  0.651856  1
  Ge  Ge11  1  0.238280  0.890136  0.348144  1
  Ge  Ge12  1  0.000000  0.750000  0.750000  1
  Ge  Ge13  1  0.000000  0.250000  0.250000  1
  Pd  Pd14  1  0.247202  0.634954  0.612251  1
  Pd  Pd15  1  0.752798  0.365046  0.387749  1
  Pd  Pd16  1  0.022703  0.134954  0.887749  1
  Pd  Pd17  1  0.977297  0.865046  0.112251  1
  Pd  Pd18  1  0.500000  0.750000  0.250000  1
  Pd  Pd19  1  0.500000  0.250000  0.750000  1
