# generated using pymatgen
data_Zr2Co12SiGeP5
_symmetry_space_group_name_H-M   'P 1'
_cell_length_a   9.01851895
_cell_length_b   9.02303139
_cell_length_c   3.55635800
_cell_angle_alpha   90.00000000
_cell_angle_beta   90.00000000
_cell_angle_gamma   120.20124289
_symmetry_Int_Tables_number   1
_chemical_formula_structural   Zr2Co12SiGeP5
_chemical_formula_sum   'Zr2 Co12 Si1 Ge1 P5'
_cell_volume   250.11488065
_cell_formula_units_Z   1
loop_
 _symmetry_equiv_pos_site_id
 _symmetry_equiv_pos_as_xyz
  1  'x, y, z'
loop_
 _atom_site_type_symbol
 _atom_site_label
 _atom_site_symmetry_multiplicity
 _atom_site_fract_x
 _atom_site_fract_y
 _atom_site_fract_z
 _atom_site_occupancy
  Zr  Zr0  1  0.334226  0.666201  0.000000  1
  Zr  Zr1  1  0.667511  0.333052  0.500000  1
  Co  Co2  1  0.439251  0.057040  0.000000  1
  Co  Co3  1  0.934426  0.376470  0.000000  1
  Co  Co4  1  0.628307  0.565500  0.000000  1
  Co  Co5  1  0.385855  0.444495  0.500000  1
  Co  Co6  1  0.559348  0.944239  0.500000  1
  Co  Co7  1  0.054030  0.612526  0.500000  1
  Co  Co8  1  0.157971  0.290615  0.000000  1
  Co  Co9  1  0.711994  0.875706  0.000000  1
  Co  Co10  1  0.126513  0.834742  0.000000  1
  Co  Co11  1  0.245701  0.105480  0.500000  1
  Co  Co12  1  0.889023  0.141212  0.500000  1
  Co  Co13  1  0.863109  0.753270  0.500000  1
  Si  Si14  1  0.407021  0.290359  0.000000  1
  Ge  Ge15  1  0.002462  0.000815  0.000000  1
  P  P16  1  0.115889  0.407482  0.500000  1
  P  P17  1  0.595516  0.709960  0.500000  1
  P  P18  1  0.291111  0.883468  0.500000  1
  P  P19  1  0.707254  0.116155  0.000000  1
  P  P20  1  0.883480  0.591212  0.000000  1
