# generated using pymatgen
data_Ho5Tm7Tc3Ir
_symmetry_space_group_name_H-M   'P 1'
_cell_length_a   6.23988149
_cell_length_b   7.35436200
_cell_length_c   9.01184724
_cell_angle_alpha   89.98206363
_cell_angle_beta   90.08144438
_cell_angle_gamma   89.98739283
_symmetry_Int_Tables_number   1
_chemical_formula_structural   Ho5Tm7Tc3Ir
_chemical_formula_sum   'Ho5 Tm7 Tc3 Ir1'
_cell_volume   413.55635186
_cell_formula_units_Z   1
loop_
 _symmetry_equiv_pos_site_id
 _symmetry_equiv_pos_as_xyz
  1  'x, y, z'
loop_
 _atom_site_type_symbol
 _atom_site_label
 _atom_site_symmetry_multiplicity
 _atom_site_fract_x
 _atom_site_fract_y
 _atom_site_fract_z
 _atom_site_occupancy
  Ho  Ho0  1  0.333820  0.676273  0.063742  1
  Ho  Ho1  1  0.876022  0.539203  0.250617  1
  Ho  Ho2  1  0.623434  0.037692  0.250352  1
  Ho  Ho3  1  0.128118  0.458287  0.749497  1
  Ho  Ho4  1  0.374497  0.961224  0.749551  1
  Tm  Tm5  1  0.161137  0.175570  0.437236  1
  Tm  Tm6  1  0.662717  0.322898  0.561389  1
  Tm  Tm7  1  0.837223  0.825682  0.938094  1
  Tm  Tm8  1  0.663056  0.322803  0.938136  1
  Tm  Tm9  1  0.838065  0.825604  0.561693  1
  Tm  Tm10  1  0.334718  0.675866  0.436985  1
  Tm  Tm11  1  0.160907  0.175317  0.062847  1
  Tc  Tc12  1  0.040447  0.884175  0.250769  1
  Tc  Tc13  1  0.461581  0.385792  0.250268  1
  Tc  Tc14  1  0.958733  0.116926  0.750334  1
  Ir  Ir15  1  0.545528  0.616688  0.748488  1
