# generated using pymatgen
data_Lu3Zr7Pb6
_symmetry_space_group_name_H-M   'P 1'
_cell_length_a   8.74135500
_cell_length_b   8.75192332
_cell_length_c   5.99527900
_cell_angle_alpha   90.00000000
_cell_angle_beta   90.00000000
_cell_angle_gamma   119.96006661
_symmetry_Int_Tables_number   1
_chemical_formula_structural   Lu3Zr7Pb6
_chemical_formula_sum   'Lu3 Zr7 Pb6'
_cell_volume   397.37167755
_cell_formula_units_Z   1
loop_
 _symmetry_equiv_pos_site_id
 _symmetry_equiv_pos_as_xyz
  1  'x, y, z'
loop_
 _atom_site_type_symbol
 _atom_site_label
 _atom_site_symmetry_multiplicity
 _atom_site_fract_x
 _atom_site_fract_y
 _atom_site_fract_z
 _atom_site_occupancy
  Lu  Lu0  1  0.762811  0.759589  0.250000  1
  Lu  Lu1  1  0.003223  0.240411  0.250000  1
  Lu  Lu2  1  0.762140  0.000000  0.750000  1
  Zr  Zr3  1  0.329991  0.667229  0.501617  1
  Zr  Zr4  1  0.244089  0.000000  0.250000  1
  Zr  Zr5  1  0.662763  0.332771  0.501617  1
  Zr  Zr6  1  0.001782  0.755445  0.750000  1
  Zr  Zr7  1  0.329991  0.667229  0.998383  1
  Zr  Zr8  1  0.246337  0.244555  0.750000  1
  Zr  Zr9  1  0.662763  0.332771  0.998383  1
  Pb  Pb10  1  0.607542  0.607676  0.750000  1
  Pb  Pb11  1  0.389317  0.000000  0.750000  1
  Pb  Pb12  1  0.603986  0.000000  0.250000  1
  Pb  Pb13  1  0.999866  0.392324  0.750000  1
  Pb  Pb14  1  0.393578  0.393757  0.250000  1
  Pb  Pb15  1  0.999822  0.606243  0.250000  1
