# generated using pymatgen
data_ZrSc7Tc4
_symmetry_space_group_name_H-M   'P 1'
_cell_length_a   4.68664400
_cell_length_b   11.09079400
_cell_length_c   4.68772500
_cell_angle_alpha   90.00000000
_cell_angle_beta   90.00000000
_cell_angle_gamma   90.00019974
_symmetry_Int_Tables_number   1
_chemical_formula_structural   ZrSc7Tc4
_chemical_formula_sum   'Zr1 Sc7 Tc4'
_cell_volume   243.66139748
_cell_formula_units_Z   1
loop_
 _symmetry_equiv_pos_site_id
 _symmetry_equiv_pos_as_xyz
  1  'x, y, z'
loop_
 _atom_site_type_symbol
 _atom_site_label
 _atom_site_symmetry_multiplicity
 _atom_site_fract_x
 _atom_site_fract_y
 _atom_site_fract_z
 _atom_site_occupancy
  Zr  Zr0  1  0.916656  0.864810  0.500000  1
  Sc  Sc1  1  0.416655  0.134855  0.000000  1
  Sc  Sc2  1  0.916673  0.365966  0.000000  1
  Sc  Sc3  1  0.916659  0.635583  0.000000  1
  Sc  Sc4  1  0.416653  0.863462  0.000000  1
  Sc  Sc5  1  0.916664  0.138388  0.500000  1
  Sc  Sc6  1  0.416669  0.365959  0.500000  1
  Sc  Sc7  1  0.416661  0.635576  0.500000  1
  Tc  Tc8  1  0.916651  0.996979  0.000000  1
  Tc  Tc9  1  0.416674  0.499869  0.000000  1
  Tc  Tc10  1  0.416655  0.996992  0.500000  1
  Tc  Tc11  1  0.916670  0.501558  0.500000  1
