# generated using pymatgen
data_EuAl5SiPt
_symmetry_space_group_name_H-M   'P 1'
_cell_length_a   4.34521000
_cell_length_b   4.34521000
_cell_length_c   8.42164700
_cell_angle_alpha   90.00000000
_cell_angle_beta   90.00000000
_cell_angle_gamma   90.00000000
_symmetry_Int_Tables_number   1
_chemical_formula_structural   EuAl5SiPt
_chemical_formula_sum   'Eu1 Al5 Si1 Pt1'
_cell_volume   159.00785329
_cell_formula_units_Z   1
loop_
 _symmetry_equiv_pos_site_id
 _symmetry_equiv_pos_as_xyz
  1  'x, y, z'
loop_
 _atom_site_type_symbol
 _atom_site_label
 _atom_site_symmetry_multiplicity
 _atom_site_fract_x
 _atom_site_fract_y
 _atom_site_fract_z
 _atom_site_occupancy
  Eu  Eu0  1  0.000000  0.000000  0.004522  1
  Al  Al1  1  0.499999  0.000000  0.330175  1
  Al  Al2  1  0.000000  0.499999  0.330175  1
  Al  Al3  1  0.499999  0.000000  0.666941  1
  Al  Al4  1  0.000000  0.499999  0.666941  1
  Al  Al5  1  0.499999  0.499999  0.856689  1
  Si  Si6  1  0.499999  0.499999  0.151427  1
  Pt  Pt7  1  0.000000  0.000000  0.493128  1
