# generated using pymatgen
data_EuCr4(CuO4)3
_symmetry_space_group_name_H-M   'P 1'
_cell_length_a   6.44054757
_cell_length_b   6.44043485
_cell_length_c   6.44075442
_cell_angle_alpha   70.51557153
_cell_angle_beta   70.54528283
_cell_angle_gamma   109.47476786
_symmetry_Int_Tables_number   1
_chemical_formula_structural   EuCr4(CuO4)3
_chemical_formula_sum   'Eu1 Cr4 Cu3 O12'
_cell_volume   205.66077197
_cell_formula_units_Z   1
loop_
 _symmetry_equiv_pos_site_id
 _symmetry_equiv_pos_as_xyz
  1  'x, y, z'
loop_
 _atom_site_type_symbol
 _atom_site_label
 _atom_site_symmetry_multiplicity
 _atom_site_fract_x
 _atom_site_fract_y
 _atom_site_fract_z
 _atom_site_occupancy
  Eu  Eu0  1  0.999996  0.999995  0.000006  1
  Cr  Cr1  1  0.999997  0.500004  0.999993  1
  Cr  Cr2  1  0.500010  0.500002  0.499993  1
  Cr  Cr3  1  0.499998  0.999993  0.000010  1
  Cr  Cr4  1  0.000000  0.000007  0.499998  1
  Cu  Cu5  1  0.500059  0.000011  0.499936  1
  Cu  Cu6  1  0.499962  0.499994  0.000023  1
  Cu  Cu7  1  0.000018  0.500030  0.500009  1
  O  O8  1  0.858044  0.690042  0.832000  1
  O  O9  1  0.477965  0.309960  0.831995  1
  O  O10  1  0.522029  0.690038  0.168008  1
  O  O11  1  0.141952  0.309950  0.168009  1
  O  O12  1  0.832130  0.141842  0.690297  1
  O  O13  1  0.832131  0.522436  0.309708  1
  O  O14  1  0.167858  0.477555  0.690302  1
  O  O15  1  0.167863  0.858154  0.309706  1
  O  O16  1  0.310080  0.168054  0.521860  1
  O  O17  1  0.689907  0.168059  0.142026  1
  O  O18  1  0.310090  0.831938  0.857976  1
  O  O19  1  0.689909  0.831935  0.478147  1
