# generated using pymatgen
data_Lu4TlCu4Pb
_symmetry_space_group_name_H-M   'P 1'
_cell_length_a   7.54677700
_cell_length_b   7.54677700
_cell_length_c   3.56741600
_cell_angle_alpha   90.00000000
_cell_angle_beta   90.00000000
_cell_angle_gamma   90.00000000
_symmetry_Int_Tables_number   1
_chemical_formula_structural   Lu4TlCu4Pb
_chemical_formula_sum   'Lu4 Tl1 Cu4 Pb1'
_cell_volume   203.17805109
_cell_formula_units_Z   1
loop_
 _symmetry_equiv_pos_site_id
 _symmetry_equiv_pos_as_xyz
  1  'x, y, z'
loop_
 _atom_site_type_symbol
 _atom_site_label
 _atom_site_symmetry_multiplicity
 _atom_site_fract_x
 _atom_site_fract_y
 _atom_site_fract_z
 _atom_site_occupancy
  Lu  Lu0  1  0.172049  0.336382  0.000000  1
  Lu  Lu1  1  0.827951  0.663618  0.000000  1
  Lu  Lu2  1  0.663618  0.172049  0.000000  1
  Lu  Lu3  1  0.336382  0.827951  0.000000  1
  Tl  Tl4  1  0.500000  0.500000  0.500000  1
  Cu  Cu5  1  0.379642  0.121893  0.500000  1
  Cu  Cu6  1  0.620358  0.878107  0.500000  1
  Cu  Cu7  1  0.878107  0.379642  0.500000  1
  Cu  Cu8  1  0.121893  0.620358  0.500000  1
  Pb  Pb9  1  0.000000  0.000000  0.500000  1
