# generated using pymatgen
data_Dy4Tm3LuSb20
_symmetry_space_group_name_H-M   'P 1'
_cell_length_a   4.20950500
_cell_length_b   13.17574794
_cell_length_c   14.57649696
_cell_angle_alpha   78.32508177
_cell_angle_beta   90.00000000
_cell_angle_gamma   90.00000000
_symmetry_Int_Tables_number   1
_chemical_formula_structural   Dy4Tm3LuSb20
_chemical_formula_sum   'Dy4 Tm3 Lu1 Sb20'
_cell_volume   791.73587417
_cell_formula_units_Z   1
loop_
 _symmetry_equiv_pos_site_id
 _symmetry_equiv_pos_as_xyz
  1  'x, y, z'
loop_
 _atom_site_type_symbol
 _atom_site_label
 _atom_site_symmetry_multiplicity
 _atom_site_fract_x
 _atom_site_fract_y
 _atom_site_fract_z
 _atom_site_occupancy
  Dy  Dy0  1  0.250000  0.668796  0.576307  1
  Dy  Dy1  1  0.750000  0.331139  0.423802  1
  Dy  Dy2  1  0.250000  0.953141  0.358571  1
  Dy  Dy3  1  0.750000  0.046916  0.641452  1
  Tm  Tm4  1  0.750000  0.604831  0.228734  1
  Tm  Tm5  1  0.250000  0.661404  0.856544  1
  Tm  Tm6  1  0.750000  0.338488  0.143347  1
  Lu  Lu7  1  0.250000  0.395607  0.771092  1
  Sb  Sb8  1  0.250000  0.145237  0.779120  1
  Sb  Sb9  1  0.750000  0.855148  0.221002  1
  Sb  Sb10  1  0.250000  0.143502  0.482527  1
  Sb  Sb11  1  0.750000  0.856515  0.517522  1
  Sb  Sb12  1  0.250000  0.153825  0.170226  1
  Sb  Sb13  1  0.750000  0.846067  0.829776  1
  Sb  Sb14  1  0.250000  0.420731  0.974790  1
  Sb  Sb15  1  0.750000  0.579269  0.024562  1
  Sb  Sb16  1  0.750000  0.028566  0.909699  1
  Sb  Sb17  1  0.250000  0.971430  0.090258  1
  Sb  Sb18  1  0.750000  0.139893  0.321526  1
  Sb  Sb19  1  0.250000  0.860116  0.678501  1
  Sb  Sb20  1  0.750000  0.279681  0.936356  1
  Sb  Sb21  1  0.250000  0.720403  0.063267  1
  Sb  Sb22  1  0.750000  0.286188  0.654055  1
  Sb  Sb23  1  0.250000  0.713977  0.346291  1
  Sb  Sb24  1  0.750000  0.574646  0.736410  1
  Sb  Sb25  1  0.250000  0.424441  0.263787  1
  Sb  Sb26  1  0.750000  0.571765  0.446485  1
  Sb  Sb27  1  0.250000  0.428278  0.553996  1
