# generated using pymatgen
data_Th3Ga3GeOs2
_symmetry_space_group_name_H-M   'P 1'
_cell_length_a   7.26024900
_cell_length_b   7.26052549
_cell_length_c   4.22267500
_cell_angle_alpha   90.00000000
_cell_angle_beta   90.00000000
_cell_angle_gamma   119.99887178
_symmetry_Int_Tables_number   1
_chemical_formula_structural   Th3Ga3GeOs2
_chemical_formula_sum   'Th3 Ga3 Ge1 Os2'
_cell_volume   192.77148636
_cell_formula_units_Z   1
loop_
 _symmetry_equiv_pos_site_id
 _symmetry_equiv_pos_as_xyz
  1  'x, y, z'
loop_
 _atom_site_type_symbol
 _atom_site_label
 _atom_site_symmetry_multiplicity
 _atom_site_fract_x
 _atom_site_fract_y
 _atom_site_fract_z
 _atom_site_occupancy
  Th  Th0  1  0.400983  0.412652  0.500000  1
  Th  Th1  1  0.587354  0.988332  0.500000  1
  Th  Th2  1  0.011672  0.599030  0.500000  1
  Ga  Ga3  1  0.758556  0.777215  0.000000  1
  Ga  Ga4  1  0.222784  0.981330  0.000000  1
  Ga  Ga5  1  0.018658  0.241448  0.000000  1
  Ge  Ge6  1  0.666663  0.333324  0.000000  1
  Os  Os7  1  0.333332  0.666668  0.000000  1
  Os  Os8  1  0.999999  0.000000  0.500000  1
