# generated using pymatgen
data_PrRe3Si2Tc
_symmetry_space_group_name_H-M   'P 1'
_cell_length_a   7.36997244
_cell_length_b   7.36997263
_cell_length_c   4.11974100
_cell_angle_alpha   90.00000000
_cell_angle_beta   90.00000000
_cell_angle_gamma   147.22152008
_symmetry_Int_Tables_number   1
_chemical_formula_structural   PrRe3Si2Tc
_chemical_formula_sum   'Pr1 Re3 Si2 Tc1'
_cell_volume   121.14733198
_cell_formula_units_Z   1
loop_
 _symmetry_equiv_pos_site_id
 _symmetry_equiv_pos_as_xyz
  1  'x, y, z'
loop_
 _atom_site_type_symbol
 _atom_site_label
 _atom_site_symmetry_multiplicity
 _atom_site_fract_x
 _atom_site_fract_y
 _atom_site_fract_z
 _atom_site_occupancy
  Pr  Pr0  1  0.999386  0.000614  0.000000  1
  Re  Re1  1  0.188702  0.811298  0.500000  1
  Re  Re2  1  0.696051  0.303949  0.000000  1
  Re  Re3  1  0.303491  0.696509  0.000000  1
  Si  Si4  1  0.589571  0.410429  0.500000  1
  Si  Si5  1  0.410261  0.589739  0.500000  1
  Tc  Tc6  1  0.812538  0.187462  0.500000  1
