# generated using pymatgen
data_Hf12Zn11AgC4
_symmetry_space_group_name_H-M   'P 1'
_cell_length_a   8.59251675
_cell_length_b   8.60394925
_cell_length_c   8.59251800
_cell_angle_alpha   60.04394786
_cell_angle_beta   60.00000287
_cell_angle_gamma   60.04394691
_symmetry_Int_Tables_number   1
_chemical_formula_structural   Hf12Zn11AgC4
_chemical_formula_sum   'Hf12 Zn11 Ag1 C4'
_cell_volume   449.48153645
_cell_formula_units_Z   1
loop_
 _symmetry_equiv_pos_site_id
 _symmetry_equiv_pos_as_xyz
  1  'x, y, z'
loop_
 _atom_site_type_symbol
 _atom_site_label
 _atom_site_symmetry_multiplicity
 _atom_site_fract_x
 _atom_site_fract_y
 _atom_site_fract_z
 _atom_site_occupancy
  Hf  Hf0  1  0.439282  0.438490  0.061114  1
  Hf  Hf1  1  0.061114  0.438490  0.061114  1
  Hf  Hf2  1  0.438126  0.062896  0.060851  1
  Hf  Hf3  1  0.060851  0.062896  0.438126  1
  Hf  Hf4  1  0.438126  0.062896  0.438126  1
  Hf  Hf5  1  0.061114  0.438490  0.439282  1
  Hf  Hf6  1  0.810718  0.811510  0.188886  1
  Hf  Hf7  1  0.188886  0.811510  0.188886  1
  Hf  Hf8  1  0.811874  0.187104  0.189149  1
  Hf  Hf9  1  0.189149  0.187104  0.811874  1
  Hf  Hf10  1  0.811874  0.187104  0.811874  1
  Hf  Hf11  1  0.188886  0.811510  0.810718  1
  Zn  Zn12  1  0.834765  0.828205  0.502264  1
  Zn  Zn13  1  0.831992  0.504023  0.831992  1
  Zn  Zn14  1  0.502264  0.828205  0.834765  1
  Zn  Zn15  1  0.834765  0.828205  0.834765  1
  Zn  Zn16  1  0.415235  0.421795  0.747736  1
  Zn  Zn17  1  0.418008  0.745977  0.418008  1
  Zn  Zn18  1  0.747736  0.421795  0.415235  1
  Zn  Zn19  1  0.415235  0.421795  0.415235  1
  Zn  Zn20  1  0.625000  0.625000  0.125000  1
  Zn  Zn21  1  0.125000  0.625000  0.625000  1
  Zn  Zn22  1  0.625000  0.625000  0.625000  1
  Ag  Ag23  1  0.625000  0.125000  0.625000  1
  C  C24  1  0.125000  0.125000  0.625000  1
  C  C25  1  0.125000  0.625000  0.125000  1
  C  C26  1  0.625000  0.125000  0.125000  1
  C  C27  1  0.125000  0.125000  0.125000  1
