# generated using pymatgen
data_YbEr3(MnB4)4
_symmetry_space_group_name_H-M   'P 1'
_cell_length_a   3.37618000
_cell_length_b   5.89096805
_cell_length_c   11.39066110
_cell_angle_alpha   89.98468985
_cell_angle_beta   90.00000000
_cell_angle_gamma   90.00000000
_symmetry_Int_Tables_number   1
_chemical_formula_structural   YbEr3(MnB4)4
_chemical_formula_sum   'Yb1 Er3 Mn4 B16'
_cell_volume   226.54849198
_cell_formula_units_Z   1
loop_
 _symmetry_equiv_pos_site_id
 _symmetry_equiv_pos_as_xyz
  1  'x, y, z'
loop_
 _atom_site_type_symbol
 _atom_site_label
 _atom_site_symmetry_multiplicity
 _atom_site_fract_x
 _atom_site_fract_y
 _atom_site_fract_z
 _atom_site_occupancy
  Yb  Yb0  1  0.000000  0.625671  0.349706  1
  Er  Er1  1  0.000000  0.374411  0.650033  1
  Er  Er2  1  0.000000  0.126705  0.151175  1
  Er  Er3  1  0.000000  0.874134  0.849048  1
  Mn  Mn4  1  0.000000  0.627364  0.082590  1
  Mn  Mn5  1  0.000000  0.373155  0.916256  1
  Mn  Mn6  1  0.000000  0.126144  0.418126  1
  Mn  Mn7  1  0.000000  0.874582  0.583577  1
  B  B8  1  0.500000  0.781046  0.183861  1
  B  B9  1  0.500000  0.218768  0.815965  1
  B  B10  1  0.500000  0.281051  0.316444  1
  B  B11  1  0.500000  0.718343  0.683496  1
  B  B12  1  0.500000  0.862660  0.031901  1
  B  B13  1  0.500000  0.137870  0.967528  1
  B  B14  1  0.500000  0.362275  0.467792  1
  B  B15  1  0.500000  0.637634  0.532639  1
  B  B16  1  0.500000  0.886445  0.453788  1
  B  B17  1  0.500000  0.112019  0.546793  1
  B  B18  1  0.500000  0.387284  0.046251  1
  B  B19  1  0.500000  0.612154  0.952863  1
  B  B20  1  0.500000  0.975796  0.309116  1
  B  B21  1  0.500000  0.024781  0.691396  1
  B  B22  1  0.500000  0.474956  0.191214  1
  B  B23  1  0.500000  0.524751  0.808443  1
