# generated using pymatgen
data_Sm5P12Ru10Rh9
_symmetry_space_group_name_H-M   'P 1'
_cell_length_a   12.67991263
_cell_length_b   12.65350843
_cell_length_c   3.95768300
_cell_angle_alpha   90.00000000
_cell_angle_beta   90.00000000
_cell_angle_gamma   119.87361084
_symmetry_Int_Tables_number   1
_chemical_formula_structural   Sm5P12Ru10Rh9
_chemical_formula_sum   'Sm5 P12 Ru10 Rh9'
_cell_volume   550.61819514
_cell_formula_units_Z   1
loop_
 _symmetry_equiv_pos_site_id
 _symmetry_equiv_pos_as_xyz
  1  'x, y, z'
loop_
 _atom_site_type_symbol
 _atom_site_label
 _atom_site_symmetry_multiplicity
 _atom_site_fract_x
 _atom_site_fract_y
 _atom_site_fract_z
 _atom_site_occupancy
  Sm  Sm0  1  0.666579  0.332629  0.000000  1
  Sm  Sm1  1  0.333427  0.666855  0.000000  1
  Sm  Sm2  1  0.812262  0.000634  0.500000  1
  Sm  Sm3  1  0.185577  0.187331  0.500000  1
  Sm  Sm4  1  0.000054  0.813110  0.500000  1
  P  P5  1  0.629462  0.997495  0.000000  1
  P  P6  1  0.367397  0.373379  0.000000  1
  P  P7  1  0.006379  0.632389  0.000000  1
  P  P8  1  0.687352  0.520681  0.500000  1
  P  P9  1  0.831558  0.307896  0.500000  1
  P  P10  1  0.314460  0.833184  0.500000  1
  P  P11  1  0.519047  0.686289  0.500000  1
  P  P12  1  0.181754  0.001182  0.000000  1
  P  P13  1  0.818269  0.817905  0.000000  1
  P  P14  1  0.996191  0.181810  0.000000  1
  P  P15  1  0.478315  0.164863  0.500000  1
  P  P16  1  0.167340  0.481684  0.500000  1
  Ru  Ru17  1  0.125959  0.640844  0.500000  1
  Ru  Ru18  1  0.360992  0.486510  0.500000  1
  Ru  Ru19  1  0.513333  0.872848  0.500000  1
  Ru  Ru20  1  0.715735  0.714568  0.500000  1
  Ru  Ru21  1  0.000989  0.286087  0.500000  1
  Ru  Ru22  1  0.450424  0.002540  0.000000  1
  Ru  Ru23  1  0.553060  0.547955  0.000000  1
  Ru  Ru24  1  0.000331  0.449292  0.000000  1
  Ru  Ru25  1  0.817394  0.196212  0.000000  1
  Ru  Ru26  1  0.284774  0.001073  0.500000  1
  Rh  Rh27  1  0.623515  0.802609  0.000000  1
  Rh  Rh28  1  0.180680  0.376615  0.000000  1
  Rh  Rh29  1  0.376053  0.183646  0.000000  1
  Rh  Rh30  1  0.197090  0.821524  0.000000  1
  Rh  Rh31  1  0.807224  0.623158  0.000000  1
  Rh  Rh32  1  0.871190  0.508383  0.500000  1
  Rh  Rh33  1  0.489502  0.360099  0.500000  1
  Rh  Rh34  1  0.636722  0.126513  0.500000  1
  Rh  Rh35  1  0.999611  0.000205  0.000000  1
