# generated using pymatgen
data_Zr6BI14
_symmetry_space_group_name_H-M   'P 1'
_cell_length_a   11.00133800
_cell_length_b   11.00133765
_cell_length_c   13.10506200
_cell_angle_alpha   90.00000000
_cell_angle_beta   90.00000000
_cell_angle_gamma   92.66581856
_symmetry_Int_Tables_number   1
_chemical_formula_structural   Zr6BI14
_chemical_formula_sum   'Zr12 B2 I28'
_cell_volume   1584.38175975
_cell_formula_units_Z   2
loop_
 _symmetry_equiv_pos_site_id
 _symmetry_equiv_pos_as_xyz
  1  'x, y, z'
loop_
 _atom_site_type_symbol
 _atom_site_label
 _atom_site_symmetry_multiplicity
 _atom_site_fract_x
 _atom_site_fract_y
 _atom_site_fract_z
 _atom_site_occupancy
  Zr  Zr0  1  0.630903  0.630903  0.094905  1
  Zr  Zr1  1  0.548536  0.330911  0.111359  1
  Zr  Zr2  1  0.330911  0.548536  0.111359  1
  Zr  Zr3  1  0.830911  0.048536  0.388642  1
  Zr  Zr4  1  0.048536  0.830911  0.388642  1
  Zr  Zr5  1  0.130903  0.130903  0.405096  1
  Zr  Zr6  1  0.869097  0.869097  0.594905  1
  Zr  Zr7  1  0.951465  0.169090  0.611359  1
  Zr  Zr8  1  0.169090  0.951465  0.611359  1
  Zr  Zr9  1  0.669090  0.451465  0.888641  1
  Zr  Zr10  1  0.451465  0.669090  0.888641  1
  Zr  Zr11  1  0.369097  0.369097  0.905095  1
  B  B12  1  0.500000  0.500000  0.000000  1
  B  B13  1  0.000000  0.000000  0.500000  1
  I  I14  1  0.753687  0.246313  0.000000  1
  I  I15  1  0.246313  0.753687  0.000000  1
  I  I16  1  0.393778  0.143342  0.012201  1
  I  I17  1  0.143342  0.393778  0.012201  1
  I  I18  1  0.856966  0.856966  0.235579  1
  I  I19  1  0.714948  0.466197  0.246750  1
  I  I20  1  0.466197  0.714948  0.246750  1
  I  I21  1  0.608095  0.108094  0.250000  1
  I  I22  1  0.108094  0.608095  0.250000  1
  I  I23  1  0.966197  0.214948  0.253250  1
  I  I24  1  0.214948  0.966197  0.253250  1
  I  I25  1  0.356966  0.356966  0.264421  1
  I  I26  1  0.893778  0.643342  0.487800  1
  I  I27  1  0.643342  0.893778  0.487800  1
  I  I28  1  0.746313  0.253687  0.500000  1
  I  I29  1  0.253687  0.746313  0.500000  1
  I  I30  1  0.356658  0.106222  0.512201  1
  I  I31  1  0.106222  0.356658  0.512201  1
  I  I32  1  0.643034  0.643034  0.735579  1
  I  I33  1  0.785052  0.033803  0.746750  1
  I  I34  1  0.033803  0.785052  0.746750  1
  I  I35  1  0.891906  0.391905  0.750000  1
  I  I36  1  0.391905  0.891906  0.750000  1
  I  I37  1  0.533803  0.285052  0.753250  1
  I  I38  1  0.285052  0.533803  0.753250  1
  I  I39  1  0.143034  0.143034  0.764421  1
  I  I40  1  0.856659  0.606223  0.987799  1
  I  I41  1  0.606223  0.856659  0.987799  1
