# generated using pymatgen
data_Tm2Lu3Hf5Sn6
_symmetry_space_group_name_H-M   'P 1'
_cell_length_a   8.65137426
_cell_length_b   8.67653758
_cell_length_c   5.97000100
_cell_angle_alpha   90.00000000
_cell_angle_beta   90.00000000
_cell_angle_gamma   120.18245418
_symmetry_Int_Tables_number   1
_chemical_formula_structural   Tm2Lu3Hf5Sn6
_chemical_formula_sum   'Tm2 Lu3 Hf5 Sn6'
_cell_volume   387.37820711
_cell_formula_units_Z   1
loop_
 _symmetry_equiv_pos_site_id
 _symmetry_equiv_pos_as_xyz
  1  'x, y, z'
loop_
 _atom_site_type_symbol
 _atom_site_label
 _atom_site_symmetry_multiplicity
 _atom_site_fract_x
 _atom_site_fract_y
 _atom_site_fract_z
 _atom_site_occupancy
  Tm  Tm0  1  0.761657  0.760204  0.750000  1
  Tm  Tm1  1  0.239776  0.238517  0.250000  1
  Lu  Lu2  1  0.238641  0.998421  0.750000  1
  Lu  Lu3  1  0.999941  0.243358  0.750000  1
  Lu  Lu4  1  0.759925  0.998748  0.250000  1
  Hf  Hf5  1  0.000064  0.754253  0.250000  1
  Hf  Hf6  1  0.667378  0.334793  0.001247  1
  Hf  Hf7  1  0.332624  0.667274  0.001248  1
  Hf  Hf8  1  0.332624  0.667274  0.498752  1
  Hf  Hf9  1  0.667378  0.334793  0.498753  1
  Sn  Sn10  1  0.398203  0.397989  0.750000  1
  Sn  Sn11  1  0.601494  0.999986  0.750000  1
  Sn  Sn12  1  0.000248  0.602886  0.750000  1
  Sn  Sn13  1  0.607548  0.604672  0.250000  1
  Sn  Sn14  1  0.392710  0.996895  0.250000  1
  Sn  Sn15  1  0.999790  0.399935  0.250000  1
