# generated using pymatgen
data_LuU8S17
_symmetry_space_group_name_H-M   'P 1'
_cell_length_a   7.90364483
_cell_length_b   7.90364394
_cell_length_c   10.60566587
_cell_angle_alpha   80.08393461
_cell_angle_beta   80.08393531
_cell_angle_gamma   64.49384613
_symmetry_Int_Tables_number   1
_chemical_formula_structural   LuU8S17
_chemical_formula_sum   'Lu1 U8 S17'
_cell_volume   585.41577636
_cell_formula_units_Z   1
loop_
 _symmetry_equiv_pos_site_id
 _symmetry_equiv_pos_as_xyz
  1  'x, y, z'
loop_
 _atom_site_type_symbol
 _atom_site_label
 _atom_site_symmetry_multiplicity
 _atom_site_fract_x
 _atom_site_fract_y
 _atom_site_fract_z
 _atom_site_occupancy
  Lu  Lu0  1  0.000000  0.000000  0.000000  1
  U  U1  1  0.795618  0.795618  0.462889  1
  U  U2  1  0.204382  0.204382  0.537111  1
  U  U3  1  0.697227  0.183748  0.695927  1
  U  U4  1  0.183748  0.697227  0.695927  1
  U  U5  1  0.816252  0.302773  0.304073  1
  U  U6  1  0.677294  0.677294  0.986258  1
  U  U7  1  0.322706  0.322706  0.013742  1
  U  U8  1  0.302773  0.816252  0.304073  1
  S  S9  1  0.479693  0.479693  0.170339  1
  S  S10  1  0.696508  0.696508  0.249464  1
  S  S11  1  0.568559  0.177174  0.466712  1
  S  S12  1  0.056407  0.666099  0.956180  1
  S  S13  1  0.210915  0.210915  0.278968  1
  S  S14  1  0.431441  0.822826  0.533288  1
  S  S15  1  0.520307  0.520307  0.829661  1
  S  S16  1  0.666099  0.056407  0.956180  1
  S  S17  1  0.937838  0.937838  0.241399  1
  S  S18  1  0.062162  0.062162  0.758601  1
  S  S19  1  0.303492  0.303492  0.750536  1
  S  S20  1  0.333901  0.943593  0.043820  1
  S  S21  1  0.822826  0.431441  0.533288  1
  S  S22  1  0.943593  0.333901  0.043820  1
  S  S23  1  0.177174  0.568559  0.466712  1
  S  S24  1  0.000000  0.000000  0.500000  1
  S  S25  1  0.789085  0.789085  0.721032  1
