# generated using pymatgen
data_Dy4Y2B14OsW
_symmetry_space_group_name_H-M   'P 1'
_cell_length_a   8.12846900
_cell_length_b   8.12846847
_cell_length_c   9.40446000
_cell_angle_alpha   90.00000000
_cell_angle_beta   90.00000000
_cell_angle_gamma   155.11131288
_symmetry_Int_Tables_number   1
_chemical_formula_structural   Dy4Y2B14OsW
_chemical_formula_sum   'Dy4 Y2 B14 Os1 W1'
_cell_volume   261.50837422
_cell_formula_units_Z   1
loop_
 _symmetry_equiv_pos_site_id
 _symmetry_equiv_pos_as_xyz
  1  'x, y, z'
loop_
 _atom_site_type_symbol
 _atom_site_label
 _atom_site_symmetry_multiplicity
 _atom_site_fract_x
 _atom_site_fract_y
 _atom_site_fract_z
 _atom_site_occupancy
  Dy  Dy0  1  0.894091  0.105909  0.437534  1
  Dy  Dy1  1  0.107049  0.892951  0.558712  1
  Dy  Dy2  1  0.894091  0.105909  0.062466  1
  Dy  Dy3  1  0.107049  0.892951  0.941288  1
  Y  Y4  1  0.243513  0.756487  0.250000  1
  Y  Y5  1  0.754940  0.245060  0.750000  1
  B  B6  1  0.726547  0.273453  0.465368  1
  B  B7  1  0.271977  0.728023  0.531983  1
  B  B8  1  0.726547  0.273453  0.034632  1
  B  B9  1  0.271977  0.728023  0.968017  1
  B  B10  1  0.631806  0.368194  0.151120  1
  B  B11  1  0.365280  0.634720  0.852849  1
  B  B12  1  0.631806  0.368194  0.348880  1
  B  B13  1  0.365280  0.634720  0.647151  1
  B  B14  1  0.521301  0.478699  0.096553  1
  B  B15  1  0.480228  0.519772  0.909020  1
  B  B16  1  0.521301  0.478699  0.403447  1
  B  B17  1  0.480228  0.519772  0.590980  1
  B  B18  1  0.458402  0.541598  0.250000  1
  B  B19  1  0.545004  0.454996  0.750000  1
  Os  Os20  1  0.054230  0.945770  0.250000  1
  W  W21  1  0.947356  0.052644  0.750000  1
