# generated using pymatgen
data_Nd2Er8In3Hg5Pd4
_symmetry_space_group_name_H-M   'P 1'
_cell_length_a   3.62869600
_cell_length_b   7.94486209
_cell_length_c   18.44444787
_cell_angle_alpha   89.76577502
_cell_angle_beta   90.00000000
_cell_angle_gamma   90.00000000
_symmetry_Int_Tables_number   1
_chemical_formula_structural   Nd2Er8In3Hg5Pd4
_chemical_formula_sum   'Nd2 Er8 In3 Hg5 Pd4'
_cell_volume   531.73956921
_cell_formula_units_Z   1
loop_
 _symmetry_equiv_pos_site_id
 _symmetry_equiv_pos_as_xyz
  1  'x, y, z'
loop_
 _atom_site_type_symbol
 _atom_site_label
 _atom_site_symmetry_multiplicity
 _atom_site_fract_x
 _atom_site_fract_y
 _atom_site_fract_z
 _atom_site_occupancy
  Nd  Nd0  1  0.000000  0.496775  0.501639  1
  Nd  Nd1  1  0.000000  0.003146  0.000681  1
  Er  Er2  1  0.000000  0.749419  0.285275  1
  Er  Er3  1  0.000000  0.259743  0.712395  1
  Er  Er4  1  0.000000  0.747357  0.782171  1
  Er  Er5  1  0.000000  0.251172  0.215427  1
  Er  Er6  1  0.000000  0.616413  0.084127  1
  Er  Er7  1  0.000000  0.384497  0.915576  1
  Er  Er8  1  0.000000  0.879050  0.585693  1
  Er  Er9  1  0.000000  0.112125  0.416491  1
  In  In10  1  0.500000  0.422028  0.348100  1
  In  In11  1  0.500000  0.924241  0.153309  1
  In  In12  1  0.500000  0.075789  0.846410  1
  Hg  Hg13  1  0.500000  0.705090  0.931541  1
  Hg  Hg14  1  0.500000  0.298534  0.069084  1
  Hg  Hg15  1  0.500000  0.793978  0.431453  1
  Hg  Hg16  1  0.500000  0.195434  0.566899  1
  Hg  Hg17  1  0.500000  0.577965  0.651407  1
  Pd  Pd18  1  0.500000  0.541586  0.197871  1
  Pd  Pd19  1  0.500000  0.459469  0.803787  1
  Pd  Pd20  1  0.500000  0.966013  0.697782  1
  Pd  Pd21  1  0.500000  0.040176  0.302882  1
