# generated using pymatgen
data_Tb11Y5(In3Rh)2
_symmetry_space_group_name_H-M   'P 1'
_cell_length_a   10.47521600
_cell_length_b   10.48144858
_cell_length_c   7.07771103
_cell_angle_alpha   90.05932894
_cell_angle_beta   90.00001903
_cell_angle_gamma   119.98036163
_symmetry_Int_Tables_number   1
_chemical_formula_structural   Tb11Y5(In3Rh)2
_chemical_formula_sum   'Tb11 Y5 In6 Rh2'
_cell_volume   673.12132850
_cell_formula_units_Z   1
loop_
 _symmetry_equiv_pos_site_id
 _symmetry_equiv_pos_as_xyz
  1  'x, y, z'
loop_
 _atom_site_type_symbol
 _atom_site_label
 _atom_site_symmetry_multiplicity
 _atom_site_fract_x
 _atom_site_fract_y
 _atom_site_fract_z
 _atom_site_occupancy
  Tb  Tb0  1  0.466593  0.533828  0.480880  1
  Tb  Tb1  1  0.067236  0.533828  0.480880  1
  Tb  Tb2  1  0.466777  0.933554  0.480865  1
  Tb  Tb3  1  0.533272  0.466583  0.980870  1
  Tb  Tb4  1  0.933312  0.466584  0.980870  1
  Tb  Tb5  1  0.533531  0.067060  0.980911  1
  Tb  Tb6  1  0.824262  0.176120  0.275027  1
  Tb  Tb7  1  0.351859  0.176120  0.275026  1
  Tb  Tb8  1  0.823879  0.647757  0.275195  1
  Tb  Tb9  1  0.176268  0.823861  0.775224  1
  Tb  Tb10  1  0.647593  0.823861  0.775224  1
  Y  Y11  1  0.175642  0.351281  0.774375  1
  Y  Y12  1  0.333248  0.666494  0.100088  1
  Y  Y13  1  0.666685  0.333368  0.601116  1
  Y  Y14  1  0.999838  0.999676  0.496127  1
  Y  Y15  1  0.999511  0.999024  0.995523  1
  In  In16  1  0.163021  0.837069  0.234126  1
  In  In17  1  0.674047  0.837069  0.234127  1
  In  In18  1  0.163025  0.326049  0.233028  1
  In  In19  1  0.837304  0.162941  0.734355  1
  In  In20  1  0.325638  0.162941  0.734355  1
  In  In21  1  0.837072  0.674143  0.734425  1
  Rh  Rh22  1  0.333692  0.667383  0.705532  1
  Rh  Rh23  1  0.666701  0.333401  0.206405  1
