# generated using pymatgen
data_CeTm15TlCd3FeRu3
_symmetry_space_group_name_H-M   'P 1'
_cell_length_a   9.50883623
_cell_length_b   9.50885328
_cell_length_c   9.57991200
_cell_angle_alpha   59.14394493
_cell_angle_beta   59.14432576
_cell_angle_gamma   59.64562753
_symmetry_Int_Tables_number   1
_chemical_formula_structural   CeTm15TlCd3FeRu3
_chemical_formula_sum   'Ce1 Tm15 Tl1 Cd3 Fe1 Ru3'
_cell_volume   602.85838008
_cell_formula_units_Z   1
loop_
 _symmetry_equiv_pos_site_id
 _symmetry_equiv_pos_as_xyz
  1  'x, y, z'
loop_
 _atom_site_type_symbol
 _atom_site_label
 _atom_site_symmetry_multiplicity
 _atom_site_fract_x
 _atom_site_fract_y
 _atom_site_fract_z
 _atom_site_occupancy
  Ce  Ce0  1  0.324908  0.324919  0.367480  1
  Tm  Tm1  1  0.554333  0.554339  0.945964  1
  Tm  Tm2  1  0.941564  0.564285  0.937229  1
  Tm  Tm3  1  0.564295  0.941552  0.937212  1
  Tm  Tm4  1  0.939464  0.939459  0.552431  1
  Tm  Tm5  1  0.562861  0.933545  0.565241  1
  Tm  Tm6  1  0.933531  0.562859  0.565269  1
  Tm  Tm7  1  0.188176  0.188175  0.818338  1
  Tm  Tm8  1  0.816974  0.187281  0.807046  1
  Tm  Tm9  1  0.187278  0.816979  0.807035  1
  Tm  Tm10  1  0.811787  0.811789  0.185644  1
  Tm  Tm11  1  0.189039  0.808383  0.191496  1
  Tm  Tm12  1  0.808394  0.189057  0.191491  1
  Tm  Tm13  1  0.348336  0.348322  0.951551  1
  Tm  Tm14  1  0.350013  0.956219  0.348825  1
  Tm  Tm15  1  0.956218  0.350010  0.348833  1
  Tl  Tl16  1  0.579465  0.579476  0.252387  1
  Cd  Cd17  1  0.580146  0.254821  0.583231  1
  Cd  Cd18  1  0.254822  0.580145  0.583236  1
  Cd  Cd19  1  0.580307  0.580305  0.581164  1
  Fe  Fe20  1  0.163910  0.163896  0.565132  1
  Ru  Ru21  1  0.147151  0.579706  0.132769  1
  Ru  Ru22  1  0.579709  0.147167  0.132796  1
  Ru  Ru23  1  0.137315  0.137319  0.148194  1
