# generated using pymatgen
data_Yb11Pr8ThPt16
_symmetry_space_group_name_H-M   'P 1'
_cell_length_a   7.55862122
_cell_length_b   7.73933465
_cell_length_c   14.50417400
_cell_angle_alpha   89.95671353
_cell_angle_beta   90.11496881
_cell_angle_gamma   90.11820463
_symmetry_Int_Tables_number   1
_chemical_formula_structural   Yb11Pr8ThPt16
_chemical_formula_sum   'Yb11 Pr8 Th1 Pt16'
_cell_volume   848.47155762
_cell_formula_units_Z   1
loop_
 _symmetry_equiv_pos_site_id
 _symmetry_equiv_pos_as_xyz
  1  'x, y, z'
loop_
 _atom_site_type_symbol
 _atom_site_label
 _atom_site_symmetry_multiplicity
 _atom_site_fract_x
 _atom_site_fract_y
 _atom_site_fract_z
 _atom_site_occupancy
  Yb  Yb0  1  0.334843  0.166556  0.624500  1
  Yb  Yb1  1  0.664958  0.833138  0.377659  1
  Yb  Yb2  1  0.669505  0.004455  0.748896  1
  Yb  Yb3  1  0.164342  0.665209  0.376231  1
  Yb  Yb4  1  0.837977  0.335925  0.874171  1
  Yb  Yb5  1  0.834587  0.332979  0.624528  1
  Yb  Yb6  1  0.833899  0.497483  0.253505  1
  Yb  Yb7  1  0.323576  0.000630  0.253635  1
  Yb  Yb8  1  0.335605  0.165587  0.875911  1
  Yb  Yb9  1  0.163838  0.666150  0.123790  1
  Yb  Yb10  1  0.169243  0.493921  0.748561  1
  Pr  Pr11  1  0.005526  0.180881  0.406978  1
  Pr  Pr12  1  0.505046  0.319704  0.406321  1
  Pr  Pr13  1  0.491746  0.676500  0.898642  1
  Pr  Pr14  1  0.493755  0.678072  0.597052  1
  Pr  Pr15  1  0.993238  0.821521  0.596161  1
  Pr  Pr16  1  0.996255  0.819894  0.900773  1
  Pr  Pr17  1  0.505302  0.321830  0.096433  1
  Pr  Pr18  1  0.010962  0.184480  0.095146  1
  Th  Th19  1  0.663993  0.836185  0.124200  1
  Pt  Pt20  1  0.296419  0.855709  0.748989  1
  Pt  Pt21  1  0.466634  0.616530  0.246841  1
  Pt  Pt22  1  0.036459  0.113921  0.749872  1
  Pt  Pt23  1  0.536581  0.383865  0.750664  1
  Pt  Pt24  1  0.176342  0.464139  0.538322  1
  Pt  Pt25  1  0.960532  0.882072  0.248497  1
  Pt  Pt26  1  0.697736  0.142728  0.249599  1
  Pt  Pt27  1  0.820185  0.542763  0.037908  1
  Pt  Pt28  1  0.329020  0.962849  0.041099  1
  Pt  Pt29  1  0.174011  0.463487  0.960233  1
  Pt  Pt30  1  0.674865  0.034721  0.539256  1
  Pt  Pt31  1  0.321143  0.964402  0.461710  1
  Pt  Pt32  1  0.823473  0.533080  0.461304  1
  Pt  Pt33  1  0.797347  0.644101  0.748854  1
  Pt  Pt34  1  0.204767  0.358104  0.251471  1
  Pt  Pt35  1  0.686294  0.036428  0.962283  1
