# generated using pymatgen
data_Ho2Si7(IrRh3)3
_symmetry_space_group_name_H-M   'P 1'
_cell_length_a   9.73324600
_cell_length_b   9.73324538
_cell_length_c   3.85456900
_cell_angle_alpha   90.00000000
_cell_angle_beta   90.00000000
_cell_angle_gamma   120.00000892
_symmetry_Int_Tables_number   1
_chemical_formula_structural   Ho2Si7(IrRh3)3
_chemical_formula_sum   'Ho2 Si7 Ir3 Rh9'
_cell_volume   316.24363195
_cell_formula_units_Z   1
loop_
 _symmetry_equiv_pos_site_id
 _symmetry_equiv_pos_as_xyz
  1  'x, y, z'
loop_
 _atom_site_type_symbol
 _atom_site_label
 _atom_site_symmetry_multiplicity
 _atom_site_fract_x
 _atom_site_fract_y
 _atom_site_fract_z
 _atom_site_occupancy
  Ho  Ho0  1  0.333333  0.666667  0.749499  1
  Ho  Ho1  1  0.666667  0.333333  0.250192  1
  Si  Si2  1  0.000000  0.000000  0.498904  1
  Si  Si3  1  0.402384  0.289651  0.751812  1
  Si  Si4  1  0.710349  0.112733  0.751812  1
  Si  Si5  1  0.887267  0.597616  0.751812  1
  Si  Si6  1  0.599217  0.709738  0.248772  1
  Si  Si7  1  0.290262  0.889479  0.248772  1
  Si  Si8  1  0.110521  0.400783  0.248772  1
  Ir  Ir9  1  0.443380  0.062349  0.751327  1
  Ir  Ir10  1  0.937651  0.381031  0.751327  1
  Ir  Ir11  1  0.618969  0.556620  0.751327  1
  Rh  Rh12  1  0.555288  0.934779  0.248634  1
  Rh  Rh13  1  0.065221  0.620509  0.248634  1
  Rh  Rh14  1  0.379491  0.444712  0.248634  1
  Rh  Rh15  1  0.143877  0.261448  0.744607  1
  Rh  Rh16  1  0.738552  0.882428  0.744607  1
  Rh  Rh17  1  0.117572  0.856123  0.744607  1
  Rh  Rh18  1  0.856854  0.738034  0.255315  1
  Rh  Rh19  1  0.261966  0.118821  0.255315  1
  Rh  Rh20  1  0.881179  0.143146  0.255315  1
