# generated using pymatgen
data_LiNdNi9Mo3As7
_symmetry_space_group_name_H-M   'P 1'
_cell_length_a   9.50602300
_cell_length_b   9.50602290
_cell_length_c   3.83195600
_cell_angle_alpha   90.00000000
_cell_angle_beta   90.00000000
_cell_angle_gamma   120.00000384
_symmetry_Int_Tables_number   1
_chemical_formula_structural   LiNdNi9Mo3As7
_chemical_formula_sum   'Li1 Nd1 Ni9 Mo3 As7'
_cell_volume   299.88092751
_cell_formula_units_Z   1
loop_
 _symmetry_equiv_pos_site_id
 _symmetry_equiv_pos_as_xyz
  1  'x, y, z'
loop_
 _atom_site_type_symbol
 _atom_site_label
 _atom_site_symmetry_multiplicity
 _atom_site_fract_x
 _atom_site_fract_y
 _atom_site_fract_z
 _atom_site_occupancy
  Li  Li0  1  0.333333  0.666667  0.000000  1
  Nd  Nd1  1  0.000000  0.000000  0.500000  1
  Ni  Ni2  1  0.282860  0.387502  0.500000  1
  Ni  Ni3  1  0.612498  0.895356  0.500000  1
  Ni  Ni4  1  0.104644  0.717140  0.500000  1
  Ni  Ni5  1  0.508438  0.459367  0.000000  1
  Ni  Ni6  1  0.540633  0.049071  0.000000  1
  Ni  Ni7  1  0.950929  0.491562  0.000000  1
  Ni  Ni8  1  0.720754  0.759861  0.000000  1
  Ni  Ni9  1  0.240139  0.960893  0.000000  1
  Ni  Ni10  1  0.039107  0.279246  0.000000  1
  Mo  Mo11  1  0.763931  0.549976  0.500000  1
  Mo  Mo12  1  0.450024  0.213955  0.500000  1
  Mo  Mo13  1  0.786045  0.236069  0.500000  1
  As  As14  1  0.963182  0.743139  0.000000  1
  As  As15  1  0.256861  0.220041  0.000000  1
  As  As16  1  0.779959  0.036818  0.000000  1
  As  As17  1  0.666667  0.333333  0.000000  1
  As  As18  1  0.541720  0.624815  0.500000  1
  As  As19  1  0.375185  0.916906  0.500000  1
  As  As20  1  0.083094  0.458280  0.500000  1
