# generated using pymatgen
data_PdPt5Cl12
_symmetry_space_group_name_H-M   'P 1'
_cell_length_a   8.64632586
_cell_length_b   8.64632490
_cell_length_c   8.62251883
_cell_angle_alpha   108.12654671
_cell_angle_beta   108.12654174
_cell_angle_gamma   108.14264280
_symmetry_Int_Tables_number   1
_chemical_formula_structural   PdPt5Cl12
_chemical_formula_sum   'Pd1 Pt5 Cl12'
_cell_volume   519.37077247
_cell_formula_units_Z   1
loop_
 _symmetry_equiv_pos_site_id
 _symmetry_equiv_pos_as_xyz
  1  'x, y, z'
loop_
 _atom_site_type_symbol
 _atom_site_label
 _atom_site_symmetry_multiplicity
 _atom_site_fract_x
 _atom_site_fract_y
 _atom_site_fract_z
 _atom_site_occupancy
  Pd  Pd0  1  0.929175  0.929175  0.688447  1
  Pt  Pt1  1  0.688382  0.928982  0.928490  1
  Pt  Pt2  1  0.928982  0.688382  0.928490  1
  Pt  Pt3  1  0.070656  0.311280  0.070213  1
  Pt  Pt4  1  0.070931  0.070931  0.311843  1
  Pt  Pt5  1  0.311280  0.070656  0.070213  1
  Cl  Cl6  1  0.000505  0.236900  0.765761  1
  Cl  Cl7  1  0.765192  0.000163  0.235355  1
  Cl  Cl8  1  0.234769  0.765200  0.999899  1
  Cl  Cl9  1  0.000163  0.765192  0.235355  1
  Cl  Cl10  1  0.236900  0.000505  0.765761  1
  Cl  Cl11  1  0.765200  0.234769  0.999899  1
  Cl  Cl12  1  0.137325  0.373304  0.373599  1
  Cl  Cl13  1  0.373070  0.373070  0.137128  1
  Cl  Cl14  1  0.373304  0.137325  0.373599  1
  Cl  Cl15  1  0.624861  0.862413  0.626624  1
  Cl  Cl16  1  0.862413  0.624861  0.626624  1
  Cl  Cl17  1  0.626894  0.626894  0.862699  1
