# generated using pymatgen
data_BeNb16Fe2NiTe16
_symmetry_space_group_name_H-M   'P 1'
_cell_length_a   4.84379300
_cell_length_b   11.02324638
_cell_length_c   19.26879400
_cell_angle_alpha   89.92935773
_cell_angle_beta   90.00000000
_cell_angle_gamma   90.00000000
_symmetry_Int_Tables_number   1
_chemical_formula_structural   BeNb16Fe2NiTe16
_chemical_formula_sum   'Be1 Nb16 Fe2 Ni1 Te16'
_cell_volume   1028.84344109
_cell_formula_units_Z   1
loop_
 _symmetry_equiv_pos_site_id
 _symmetry_equiv_pos_as_xyz
  1  'x, y, z'
loop_
 _atom_site_type_symbol
 _atom_site_label
 _atom_site_symmetry_multiplicity
 _atom_site_fract_x
 _atom_site_fract_y
 _atom_site_fract_z
 _atom_site_occupancy
  Be  Be0  1  0.249902  0.500000  0.500000  1
  Nb  Nb1  1  0.494832  0.562716  0.385839  1
  Nb  Nb2  1  0.494832  0.437284  0.614161  1
  Nb  Nb3  1  0.499144  0.063539  0.115354  1
  Nb  Nb4  1  0.499144  0.936461  0.884646  1
  Nb  Nb5  1  0.493844  0.700134  0.535698  1
  Nb  Nb6  1  0.493844  0.299866  0.464302  1
  Nb  Nb7  1  0.497884  0.202586  0.963665  1
  Nb  Nb8  1  0.497884  0.797414  0.036335  1
  Nb  Nb9  1  0.006318  0.685872  0.444191  1
  Nb  Nb10  1  0.006318  0.314128  0.555809  1
  Nb  Nb11  1  0.002082  0.188271  0.056094  1
  Nb  Nb12  1  0.002082  0.811729  0.943906  1
  Nb  Nb13  1  0.005283  0.403074  0.394074  1
  Nb  Nb14  1  0.005283  0.596926  0.605926  1
  Nb  Nb15  1  0.000704  0.901777  0.107284  1
  Nb  Nb16  1  0.000704  0.098223  0.892716  1
  Fe  Fe17  1  0.749808  0.000000  0.000000  1
  Fe  Fe18  1  0.749815  0.500000  0.500000  1
  Ni  Ni19  1  0.249272  0.000000  0.000000  1
  Te  Te20  1  0.994480  0.843398  0.561259  1
  Te  Te21  1  0.994480  0.156602  0.438741  1
  Te  Te22  1  0.999853  0.345329  0.937784  1
  Te  Te23  1  0.999853  0.654671  0.062216  1
  Te  Te24  1  0.505630  0.333620  0.317945  1
  Te  Te25  1  0.505630  0.666380  0.682055  1
  Te  Te26  1  0.499191  0.832856  0.183078  1
  Te  Te27  1  0.499191  0.167144  0.816922  1
  Te  Te28  1  0.505857  0.819124  0.404458  1
  Te  Te29  1  0.505857  0.180876  0.595542  1
  Te  Te30  1  0.500094  0.320886  0.095585  1
  Te  Te31  1  0.500094  0.679114  0.904415  1
  Te  Te32  1  0.994709  0.607421  0.303573  1
  Te  Te33  1  0.994709  0.392579  0.696427  1
  Te  Te34  1  0.000696  0.108039  0.197032  1
  Te  Te35  1  0.000696  0.891961  0.802968  1
