# generated using pymatgen
data_Ba8DyTm3(FeO5)4
_symmetry_space_group_name_H-M   'P 1'
_cell_length_a   6.11615405
_cell_length_b   7.89931267
_cell_length_c   12.71780039
_cell_angle_alpha   91.89785624
_cell_angle_beta   90.00729714
_cell_angle_gamma   89.98725586
_symmetry_Int_Tables_number   1
_chemical_formula_structural   Ba8DyTm3(FeO5)4
_chemical_formula_sum   'Ba8 Dy1 Tm3 Fe4 O20'
_cell_volume   614.10327761
_cell_formula_units_Z   1
loop_
 _symmetry_equiv_pos_site_id
 _symmetry_equiv_pos_as_xyz
  1  'x, y, z'
loop_
 _atom_site_type_symbol
 _atom_site_label
 _atom_site_symmetry_multiplicity
 _atom_site_fract_x
 _atom_site_fract_y
 _atom_site_fract_z
 _atom_site_occupancy
  Ba  Ba0  1  0.758647  0.487070  0.349228  1
  Ba  Ba1  1  0.741801  0.986014  0.850509  1
  Ba  Ba2  1  0.241306  0.514294  0.650441  1
  Ba  Ba3  1  0.258320  0.012879  0.149883  1
  Ba  Ba4  1  0.754874  0.992809  0.379297  1
  Ba  Ba5  1  0.745463  0.493893  0.881051  1
  Ba  Ba6  1  0.244857  0.005924  0.620045  1
  Ba  Ba7  1  0.254682  0.506759  0.119897  1
  Dy  Dy8  1  0.750372  0.265977  0.630657  1
  Tm  Tm9  1  0.749400  0.764989  0.131024  1
  Tm  Tm10  1  0.249345  0.734847  0.368730  1
  Tm  Tm11  1  0.250504  0.234846  0.869759  1
  Fe  Fe12  1  0.735912  0.742484  0.582219  1
  Fe  Fe13  1  0.764071  0.242756  0.082793  1
  Fe  Fe14  1  0.264153  0.256825  0.415899  1
  Fe  Fe15  1  0.236033  0.757206  0.917431  1
  O  O16  1  0.760617  0.971820  0.632815  1
  O  O17  1  0.739849  0.473807  0.131983  1
  O  O18  1  0.239359  0.025615  0.367407  1
  O  O19  1  0.260144  0.526441  0.868136  1
  O  O20  1  0.735014  0.057869  0.173420  1
  O  O21  1  0.765647  0.561281  0.675228  1
  O  O22  1  0.265003  0.941694  0.826658  1
  O  O23  1  0.234447  0.442397  0.325716  1
  O  O24  1  0.538844  0.746399  0.270249  1
  O  O25  1  0.960618  0.245972  0.772748  1
  O  O26  1  0.456629  0.253663  0.729856  1
  O  O27  1  0.038504  0.753737  0.229530  1
  O  O28  1  0.545031  0.224480  0.975816  1
  O  O29  1  0.955395  0.724151  0.475403  1
  O  O30  1  0.455500  0.775475  0.024443  1
  O  O31  1  0.048718  0.276054  0.523822  1
  O  O32  1  0.043991  0.231103  0.016834  1
  O  O33  1  0.456154  0.730698  0.515915  1
  O  O34  1  0.956606  0.768959  0.984240  1
  O  O35  1  0.544190  0.268813  0.480917  1
