# generated using pymatgen
data_Pr6C2BrCl9
_symmetry_space_group_name_H-M   'P 1'
_cell_length_a   7.53276391
_cell_length_b   8.91821212
_cell_length_c   9.00019424
_cell_angle_alpha   108.35870334
_cell_angle_beta   97.37110224
_cell_angle_gamma   106.13408661
_symmetry_Int_Tables_number   1
_chemical_formula_structural   Pr6C2BrCl9
_chemical_formula_sum   'Pr6 C2 Br1 Cl9'
_cell_volume   535.58006912
_cell_formula_units_Z   1
loop_
 _symmetry_equiv_pos_site_id
 _symmetry_equiv_pos_as_xyz
  1  'x, y, z'
loop_
 _atom_site_type_symbol
 _atom_site_label
 _atom_site_symmetry_multiplicity
 _atom_site_fract_x
 _atom_site_fract_y
 _atom_site_fract_z
 _atom_site_occupancy
  Pr  Pr0  1  0.879140  0.949663  0.233664  1
  Pr  Pr1  1  0.120629  0.049755  0.766451  1
  Pr  Pr2  1  0.027507  0.711058  0.911287  1
  Pr  Pr3  1  0.968072  0.286979  0.086842  1
  Pr  Pr4  1  0.602862  0.838044  0.785201  1
  Pr  Pr5  1  0.396210  0.155540  0.211822  1
  C  C6  1  0.905839  0.964585  0.950815  1
  C  C7  1  0.092080  0.034755  0.048663  1
  Br  Br8  1  0.359408  0.485290  0.290166  1
  Cl  Cl9  1  0.759400  0.918719  0.538890  1
  Cl  Cl10  1  0.241559  0.081700  0.461349  1
  Cl  Cl11  1  0.457672  0.825187  0.076140  1
  Cl  Cl12  1  0.540433  0.169796  0.920317  1
  Cl  Cl13  1  0.817450  0.260052  0.352593  1
  Cl  Cl14  1  0.180451  0.738388  0.646915  1
  Cl  Cl15  1  0.909454  0.626125  0.168229  1
  Cl  Cl16  1  0.087223  0.371917  0.829872  1
  Cl  Cl17  1  0.654609  0.532449  0.720784  1
