# generated using pymatgen
data_SbSe8F3
_symmetry_space_group_name_H-M   'P 1'
_cell_length_a   8.61717684
_cell_length_b   8.98562144
_cell_length_c   11.62238257
_cell_angle_alpha   92.16564813
_cell_angle_beta   110.02766539
_cell_angle_gamma   109.00289188
_symmetry_Int_Tables_number   1
_chemical_formula_structural   SbSe8F3
_chemical_formula_sum   'Sb2 Se16 F6'
_cell_volume   788.05736509
_cell_formula_units_Z   2
loop_
 _symmetry_equiv_pos_site_id
 _symmetry_equiv_pos_as_xyz
  1  'x, y, z'
loop_
 _atom_site_type_symbol
 _atom_site_label
 _atom_site_symmetry_multiplicity
 _atom_site_fract_x
 _atom_site_fract_y
 _atom_site_fract_z
 _atom_site_occupancy
  Sb  Sb0  1  0.159657  0.924995  0.134915  1
  Sb  Sb1  1  0.840386  0.075043  0.865077  1
  Se  Se2  1  0.631885  0.520857  0.251077  1
  Se  Se3  1  0.368088  0.479118  0.748909  1
  Se  Se4  1  0.688117  0.447229  0.076067  1
  Se  Se5  1  0.311914  0.552798  0.923932  1
  Se  Se6  1  0.872140  0.295061  0.138142  1
  Se  Se7  1  0.127861  0.704945  0.861839  1
  Se  Se8  1  0.305777  0.551505  0.394746  1
  Se  Se9  1  0.694162  0.448437  0.605240  1
  Se  Se10  1  0.301177  0.808965  0.439272  1
  Se  Se11  1  0.698793  0.190982  0.560755  1
  Se  Se12  1  0.066485  0.776408  0.509585  1
  Se  Se13  1  0.933467  0.223549  0.490424  1
  Se  Se14  1  0.823641  0.787301  0.341633  1
  Se  Se15  1  0.176299  0.212681  0.658397  1
  Se  Se16  1  0.166293  0.467761  0.177834  1
  Se  Se17  1  0.833703  0.532247  0.822149  1
  F  F18  1  0.200294  0.101927  0.256574  1
  F  F19  1  0.799786  0.898090  0.743444  1
  F  F20  1  0.172330  0.068294  0.011033  1
  F  F21  1  0.827716  0.931765  0.988975  1
  F  F22  1  0.410261  0.963462  0.184590  1
  F  F23  1  0.589773  0.036576  0.815395  1
