# generated using pymatgen
data_Y8Lu2AlSb5
_symmetry_space_group_name_H-M   'P 1'
_cell_length_a   6.37046370
_cell_length_b   8.90988497
_cell_length_c   8.90755161
_cell_angle_alpha   120.00866507
_cell_angle_beta   89.97287015
_cell_angle_gamma   90.05426288
_symmetry_Int_Tables_number   1
_chemical_formula_structural   Y8Lu2AlSb5
_chemical_formula_sum   'Y8 Lu2 Al1 Sb5'
_cell_volume   437.81839024
_cell_formula_units_Z   1
loop_
 _symmetry_equiv_pos_site_id
 _symmetry_equiv_pos_as_xyz
  1  'x, y, z'
loop_
 _atom_site_type_symbol
 _atom_site_label
 _atom_site_symmetry_multiplicity
 _atom_site_fract_x
 _atom_site_fract_y
 _atom_site_fract_z
 _atom_site_occupancy
  Y  Y0  1  0.998655  0.664549  0.326305  1
  Y  Y1  1  0.998655  0.338243  0.673695  1
  Y  Y2  1  0.750004  0.247003  0.000000  1
  Y  Y3  1  0.749425  0.753201  0.762233  1
  Y  Y4  1  0.749425  0.990968  0.237767  1
  Y  Y5  1  0.251792  0.757844  0.000000  1
  Y  Y6  1  0.249882  0.246208  0.245532  1
  Y  Y7  1  0.249882  0.000676  0.754468  1
  Lu  Lu8  1  0.501715  0.338654  0.672925  1
  Lu  Lu9  1  0.501715  0.665729  0.327075  1
  Al  Al10  1  0.743609  0.602523  0.000000  1
  Sb  Sb11  1  0.745634  0.389493  0.391518  1
  Sb  Sb12  1  0.745634  0.997973  0.608482  1
  Sb  Sb13  1  0.256359  0.393699  0.000000  1
  Sb  Sb14  1  0.253809  0.610052  0.606867  1
  Sb  Sb15  1  0.253809  0.003187  0.393133  1
