# generated using pymatgen
data_NaGaSiPt3
_symmetry_space_group_name_H-M   'P 1'
_cell_length_a   6.78241843
_cell_length_b   6.78241857
_cell_length_c   6.78241960
_cell_angle_alpha   129.05490985
_cell_angle_beta   115.20432141
_cell_angle_gamma   86.79477672
_symmetry_Int_Tables_number   1
_chemical_formula_structural   NaGaSiPt3
_chemical_formula_sum   'Na2 Ga2 Si2 Pt6'
_cell_volume   208.95808794
_cell_formula_units_Z   2
loop_
 _symmetry_equiv_pos_site_id
 _symmetry_equiv_pos_as_xyz
  1  'x, y, z'
loop_
 _atom_site_type_symbol
 _atom_site_label
 _atom_site_symmetry_multiplicity
 _atom_site_fract_x
 _atom_site_fract_y
 _atom_site_fract_z
 _atom_site_occupancy
  Na  Na0  1  0.750000  0.053120  0.303120  1
  Na  Na1  1  0.250000  0.977885  0.727885  1
  Ga  Ga2  1  0.604522  0.408997  0.804475  1
  Ga  Ga3  1  0.895478  0.699953  0.804475  1
  Si  Si4  1  0.443811  0.630218  0.186409  1
  Si  Si5  1  0.056189  0.242598  0.186409  1
  Pt  Pt6  1  0.207867  0.498829  0.708061  1
  Pt  Pt7  1  0.790768  0.498829  0.290962  1
  Pt  Pt8  1  0.452519  0.494590  0.447109  1
  Pt  Pt9  1  0.047481  0.494590  0.042073  1
  Pt  Pt10  1  0.709232  0.000194  0.708061  1
  Pt  Pt11  1  0.292133  0.000194  0.290962  1
