# generated using pymatgen
data_La2Eu7Ni6
_symmetry_space_group_name_H-M   'P 1'
_cell_length_a   7.59565578
_cell_length_b   7.59565607
_cell_length_c   7.59565505
_cell_angle_alpha   71.35510759
_cell_angle_beta   71.35510917
_cell_angle_gamma   71.35511119
_symmetry_Int_Tables_number   1
_chemical_formula_structural   La2Eu7Ni6
_chemical_formula_sum   'La2 Eu7 Ni6'
_cell_volume   381.71398610
_cell_formula_units_Z   1
loop_
 _symmetry_equiv_pos_site_id
 _symmetry_equiv_pos_as_xyz
  1  'x, y, z'
loop_
 _atom_site_type_symbol
 _atom_site_label
 _atom_site_symmetry_multiplicity
 _atom_site_fract_x
 _atom_site_fract_y
 _atom_site_fract_z
 _atom_site_occupancy
  La  La0  1  0.795961  0.795961  0.795961  1
  La  La1  1  0.204039  0.204039  0.204039  1
  Eu  Eu2  1  0.000000  0.000000  0.000000  1
  Eu  Eu3  1  0.336701  0.615547  0.833302  1
  Eu  Eu4  1  0.833302  0.336701  0.615547  1
  Eu  Eu5  1  0.615547  0.833302  0.336701  1
  Eu  Eu6  1  0.663299  0.384453  0.166698  1
  Eu  Eu7  1  0.166698  0.663299  0.384453  1
  Eu  Eu8  1  0.384453  0.166698  0.663299  1
  Ni  Ni9  1  0.134280  0.966455  0.578743  1
  Ni  Ni10  1  0.578743  0.134280  0.966455  1
  Ni  Ni11  1  0.966455  0.578743  0.134280  1
  Ni  Ni12  1  0.865720  0.033545  0.421257  1
  Ni  Ni13  1  0.421257  0.865720  0.033545  1
  Ni  Ni14  1  0.033545  0.421257  0.865720  1
