# generated using pymatgen
data_Pr(NpAl4)3
_symmetry_space_group_name_H-M   'P 1'
_cell_length_a   6.06496600
_cell_length_b   6.06496582
_cell_length_c   9.66386500
_cell_angle_alpha   90.00000000
_cell_angle_beta   90.00000000
_cell_angle_gamma   119.99999007
_symmetry_Int_Tables_number   1
_chemical_formula_structural   Pr(NpAl4)3
_chemical_formula_sum   'Pr1 Np3 Al12'
_cell_volume   307.84936203
_cell_formula_units_Z   1
loop_
 _symmetry_equiv_pos_site_id
 _symmetry_equiv_pos_as_xyz
  1  'x, y, z'
loop_
 _atom_site_type_symbol
 _atom_site_label
 _atom_site_symmetry_multiplicity
 _atom_site_fract_x
 _atom_site_fract_y
 _atom_site_fract_z
 _atom_site_occupancy
  Pr  Pr0  1  0.000000  0.000000  0.000000  1
  Np  Np1  1  0.000000  0.000000  0.500000  1
  Np  Np2  1  0.333333  0.666667  0.252109  1
  Np  Np3  1  0.666667  0.333333  0.747891  1
  Al  Al4  1  0.500000  0.500000  0.500000  1
  Al  Al5  1  0.500000  0.000000  0.500000  1
  Al  Al6  1  0.000000  0.500000  0.500000  1
  Al  Al7  1  0.500000  0.500000  0.000000  1
  Al  Al8  1  0.500000  0.000000  0.000000  1
  Al  Al9  1  0.000000  0.500000  0.000000  1
  Al  Al10  1  0.819952  0.639903  0.254090  1
  Al  Al11  1  0.360097  0.180048  0.254090  1
  Al  Al12  1  0.819952  0.180048  0.254090  1
  Al  Al13  1  0.180048  0.360097  0.745910  1
  Al  Al14  1  0.639903  0.819952  0.745910  1
  Al  Al15  1  0.180048  0.819952  0.745910  1
