# generated using pymatgen
data_YbErOsC2
_symmetry_space_group_name_H-M   'P 1'
_cell_length_a   5.08950500
_cell_length_b   6.41634800
_cell_length_c   9.99164300
_cell_angle_alpha   90.00000000
_cell_angle_beta   90.00000000
_cell_angle_gamma   90.00000000
_symmetry_Int_Tables_number   1
_chemical_formula_structural   YbErOsC2
_chemical_formula_sum   'Yb4 Er4 Os4 C8'
_cell_volume   326.28744579
_cell_formula_units_Z   4
loop_
 _symmetry_equiv_pos_site_id
 _symmetry_equiv_pos_as_xyz
  1  'x, y, z'
loop_
 _atom_site_type_symbol
 _atom_site_label
 _atom_site_symmetry_multiplicity
 _atom_site_fract_x
 _atom_site_fract_y
 _atom_site_fract_z
 _atom_site_occupancy
  Yb  Yb0  1  0.250000  0.531476  0.219512  1
  Yb  Yb1  1  0.750000  0.468524  0.780488  1
  Yb  Yb2  1  0.750000  0.968524  0.719512  1
  Yb  Yb3  1  0.250000  0.031476  0.280488  1
  Er  Er4  1  0.250000  0.681453  0.559114  1
  Er  Er5  1  0.750000  0.318547  0.440886  1
  Er  Er6  1  0.750000  0.818547  0.059114  1
  Er  Er7  1  0.250000  0.181453  0.940886  1
  Os  Os8  1  0.250000  0.722065  0.861709  1
  Os  Os9  1  0.750000  0.277935  0.138291  1
  Os  Os10  1  0.750000  0.777935  0.361709  1
  Os  Os11  1  0.250000  0.222065  0.638291  1
  C  C12  1  0.250000  0.458115  0.758672  1
  C  C13  1  0.750000  0.541885  0.241328  1
  C  C14  1  0.750000  0.041885  0.258672  1
  C  C15  1  0.250000  0.958115  0.741328  1
  C  C16  1  0.250000  0.819724  0.040714  1
  C  C17  1  0.750000  0.180276  0.959286  1
  C  C18  1  0.750000  0.680276  0.540714  1
  C  C19  1  0.250000  0.319724  0.459286  1
