# generated using pymatgen
data_Ba7Fe4Pd2O19
_symmetry_space_group_name_H-M   'P 1'
_cell_length_a   8.02916396
_cell_length_b   8.02916472
_cell_length_c   11.04171881
_cell_angle_alpha   80.78447871
_cell_angle_beta   80.78447039
_cell_angle_gamma   42.49613976
_symmetry_Int_Tables_number   1
_chemical_formula_structural   Ba7Fe4Pd2O19
_chemical_formula_sum   'Ba7 Fe4 Pd2 O19'
_cell_volume   473.71907302
_cell_formula_units_Z   1
loop_
 _symmetry_equiv_pos_site_id
 _symmetry_equiv_pos_as_xyz
  1  'x, y, z'
loop_
 _atom_site_type_symbol
 _atom_site_label
 _atom_site_symmetry_multiplicity
 _atom_site_fract_x
 _atom_site_fract_y
 _atom_site_fract_z
 _atom_site_occupancy
  Ba  Ba0  1  0.500000  0.500000  0.500000  1
  Ba  Ba1  1  0.849325  0.849325  0.949855  1
  Ba  Ba2  1  0.150675  0.150675  0.050145  1
  Ba  Ba3  1  0.572520  0.572520  0.833038  1
  Ba  Ba4  1  0.427480  0.427480  0.166962  1
  Ba  Ba5  1  0.802270  0.802270  0.595494  1
  Ba  Ba6  1  0.197730  0.197730  0.404506  1
  Fe  Fe7  1  0.351440  0.351440  0.782838  1
  Fe  Fe8  1  0.648560  0.648560  0.217162  1
  Fe  Fe9  1  0.018700  0.018700  0.671653  1
  Fe  Fe10  1  0.981300  0.981300  0.328347  1
  Pd  Pd11  1  0.183925  0.183925  0.731300  1
  Pd  Pd12  1  0.816075  0.816075  0.268700  1
  O  O13  1  0.000000  0.000000  0.500000  1
  O  O14  1  0.692975  0.692975  0.377760  1
  O  O15  1  0.307025  0.307025  0.622240  1
  O  O16  1  0.059303  0.059303  0.842674  1
  O  O17  1  0.940697  0.940697  0.157326  1
  O  O18  1  0.387296  0.387296  0.934386  1
  O  O19  1  0.612704  0.612704  0.065614  1
  O  O20  1  0.817784  0.315138  0.279849  1
  O  O21  1  0.684862  0.182216  0.720151  1
  O  O22  1  0.182216  0.684862  0.720151  1
  O  O23  1  0.315138  0.817784  0.279849  1
  O  O24  1  0.526440  0.982267  0.171361  1
  O  O25  1  0.017733  0.473560  0.828639  1
  O  O26  1  0.647191  0.103728  0.369094  1
  O  O27  1  0.896272  0.352809  0.630906  1
  O  O28  1  0.352809  0.896272  0.630906  1
  O  O29  1  0.103728  0.647191  0.369094  1
  O  O30  1  0.982267  0.526440  0.171361  1
  O  O31  1  0.473560  0.017733  0.828639  1
