# generated using pymatgen
data_Dy2Ho14CdAg3Rh4
_symmetry_space_group_name_H-M   'P 1'
_cell_length_a   9.53849192
_cell_length_b   9.52103041
_cell_length_c   9.50665100
_cell_angle_alpha   60.04994359
_cell_angle_beta   60.11036035
_cell_angle_gamma   60.14561573
_symmetry_Int_Tables_number   1
_chemical_formula_structural   Dy2Ho14CdAg3Rh4
_chemical_formula_sum   'Dy2 Ho14 Cd1 Ag3 Rh4'
_cell_volume   611.89637840
_cell_formula_units_Z   1
loop_
 _symmetry_equiv_pos_site_id
 _symmetry_equiv_pos_as_xyz
  1  'x, y, z'
loop_
 _atom_site_type_symbol
 _atom_site_label
 _atom_site_symmetry_multiplicity
 _atom_site_fract_x
 _atom_site_fract_y
 _atom_site_fract_z
 _atom_site_occupancy
  Dy  Dy0  1  0.935453  0.936434  0.564057  1
  Dy  Dy1  1  0.562955  0.566891  0.935077  1
  Ho  Ho2  1  0.688502  0.688229  0.311634  1
  Ho  Ho3  1  0.146875  0.557632  0.147746  1
  Ho  Ho4  1  0.688089  0.312954  0.687369  1
  Ho  Ho5  1  0.148126  0.147850  0.148237  1
  Ho  Ho6  1  0.555483  0.147889  0.148314  1
  Ho  Ho7  1  0.688089  0.312954  0.311588  1
  Ho  Ho8  1  0.148126  0.147850  0.555787  1
  Ho  Ho9  1  0.312543  0.688184  0.311931  1
  Ho  Ho10  1  0.312543  0.688184  0.687342  1
  Ho  Ho11  1  0.935435  0.566764  0.562310  1
  Ho  Ho12  1  0.935435  0.566764  0.935491  1
  Ho  Ho13  1  0.563949  0.936260  0.563969  1
  Ho  Ho14  1  0.563949  0.936260  0.935822  1
  Ho  Ho15  1  0.312073  0.313007  0.687460  1
  Cd  Cd16  1  0.920417  0.237843  0.920870  1
  Ag  Ag17  1  0.917478  0.916273  0.247994  1
  Ag  Ag18  1  0.247885  0.916659  0.917728  1
  Ag  Ag19  1  0.917478  0.916273  0.918255  1
  Rh  Rh20  1  0.356333  0.356521  0.929351  1
  Rh  Rh21  1  0.356426  0.929462  0.357055  1
  Rh  Rh22  1  0.930026  0.356335  0.356820  1
  Rh  Rh23  1  0.356333  0.356521  0.357794  1
