# generated using pymatgen
data_Nd2TmLu(ReB6)2
_symmetry_space_group_name_H-M   'P 1'
_cell_length_a   3.70367900
_cell_length_b   9.20394804
_cell_length_c   11.66543805
_cell_angle_alpha   90.01037085
_cell_angle_beta   90.00000000
_cell_angle_gamma   90.00000000
_symmetry_Int_Tables_number   1
_chemical_formula_structural   Nd2TmLu(ReB6)2
_chemical_formula_sum   'Nd4 Tm2 Lu2 Re4 B24'
_cell_volume   397.65691750
_cell_formula_units_Z   2
loop_
 _symmetry_equiv_pos_site_id
 _symmetry_equiv_pos_as_xyz
  1  'x, y, z'
loop_
 _atom_site_type_symbol
 _atom_site_label
 _atom_site_symmetry_multiplicity
 _atom_site_fract_x
 _atom_site_fract_y
 _atom_site_fract_z
 _atom_site_occupancy
  Nd  Nd0  1  0.000000  0.322890  0.414530  1
  Nd  Nd1  1  0.000000  0.677110  0.585470  1
  Nd  Nd2  1  0.000000  0.822633  0.085346  1
  Nd  Nd3  1  0.000000  0.177367  0.914654  1
  Tm  Tm4  1  0.000000  0.943374  0.369503  1
  Tm  Tm5  1  0.000000  0.056626  0.630497  1
  Lu  Lu6  1  0.000000  0.443422  0.130306  1
  Lu  Lu7  1  0.000000  0.556578  0.869694  1
  Re  Re8  1  0.000000  0.639466  0.318302  1
  Re  Re9  1  0.000000  0.360534  0.681698  1
  Re  Re10  1  0.000000  0.140516  0.181062  1
  Re  Re11  1  0.000000  0.859484  0.818938  1
  B  B12  1  0.500000  0.555519  0.430036  1
  B  B13  1  0.500000  0.444481  0.569964  1
  B  B14  1  0.500000  0.055722  0.069820  1
  B  B15  1  0.500000  0.944278  0.930180  1
  B  B16  1  0.500000  0.751066  0.415609  1
  B  B17  1  0.500000  0.248934  0.584391  1
  B  B18  1  0.500000  0.251859  0.084219  1
  B  B19  1  0.500000  0.748141  0.915781  1
  B  B20  1  0.500000  0.792217  0.265690  1
  B  B21  1  0.500000  0.207783  0.734310  1
  B  B22  1  0.500000  0.293032  0.234093  1
  B  B23  1  0.500000  0.706968  0.765907  1
  B  B24  1  0.500000  0.629116  0.185282  1
  B  B25  1  0.500000  0.370884  0.814718  1
  B  B26  1  0.500000  0.129780  0.314199  1
  B  B27  1  0.500000  0.870220  0.685801  1
  B  B28  1  0.500000  0.983920  0.213521  1
  B  B29  1  0.500000  0.016080  0.786479  1
  B  B30  1  0.500000  0.483386  0.286039  1
  B  B31  1  0.500000  0.516614  0.713961  1
  B  B32  1  0.500000  0.595089  0.026031  1
  B  B33  1  0.500000  0.404911  0.973969  1
  B  B34  1  0.500000  0.095776  0.473843  1
  B  B35  1  0.500000  0.904224  0.526157  1
