# generated using pymatgen
data_Y8Ge(Pd3Pt5)3
_symmetry_space_group_name_H-M   'P 1'
_cell_length_a   8.35581504
_cell_length_b   8.38717800
_cell_length_c   8.39662904
_cell_angle_alpha   90.00000000
_cell_angle_beta   89.98943164
_cell_angle_gamma   90.00000000
_symmetry_Int_Tables_number   1
_chemical_formula_structural   Y8Ge(Pd3Pt5)3
_chemical_formula_sum   'Y8 Ge1 Pd9 Pt15'
_cell_volume   588.45009457
_cell_formula_units_Z   1
loop_
 _symmetry_equiv_pos_site_id
 _symmetry_equiv_pos_as_xyz
  1  'x, y, z'
loop_
 _atom_site_type_symbol
 _atom_site_label
 _atom_site_symmetry_multiplicity
 _atom_site_fract_x
 _atom_site_fract_y
 _atom_site_fract_z
 _atom_site_occupancy
  Y  Y0  1  0.252598  0.252744  0.252264  1
  Y  Y1  1  0.747350  0.746097  0.747978  1
  Y  Y2  1  0.747420  0.746824  0.252102  1
  Y  Y3  1  0.747350  0.253903  0.747978  1
  Y  Y4  1  0.252700  0.253113  0.747788  1
  Y  Y5  1  0.252598  0.747256  0.252264  1
  Y  Y6  1  0.252700  0.746887  0.747788  1
  Y  Y7  1  0.747420  0.253176  0.252102  1
  Ge  Ge8  1  0.999944  0.000000  0.000355  1
  Pd  Pd9  1  0.500342  0.000000  0.739671  1
  Pd  Pd10  1  0.740164  0.000000  0.500135  1
  Pd  Pd11  1  0.999889  0.500000  0.258994  1
  Pd  Pd12  1  0.999848  0.500000  0.741388  1
  Pd  Pd13  1  0.500023  0.500000  0.747224  1
  Pd  Pd14  1  0.000146  0.289906  0.999642  1
  Pd  Pd15  1  0.000146  0.710094  0.999642  1
  Pd  Pd16  1  0.999707  0.000000  0.290257  1
  Pd  Pd17  1  0.999824  0.000000  0.710160  1
  Pt  Pt18  1  0.259112  0.500000  0.000265  1
  Pt  Pt19  1  0.740954  0.500000  0.000301  1
  Pt  Pt20  1  0.000210  0.260509  0.500237  1
  Pt  Pt21  1  0.499929  0.260451  0.000427  1
  Pt  Pt22  1  0.000210  0.739491  0.500237  1
  Pt  Pt23  1  0.499929  0.739549  0.000427  1
  Pt  Pt24  1  0.500132  0.000000  0.260564  1
  Pt  Pt25  1  0.259530  0.000000  0.499942  1
  Pt  Pt26  1  0.251770  0.500000  0.499736  1
  Pt  Pt27  1  0.748171  0.500000  0.499679  1
  Pt  Pt28  1  0.499826  0.252484  0.499334  1
  Pt  Pt29  1  0.499826  0.747516  0.499334  1
  Pt  Pt30  1  0.500141  0.500000  0.252329  1
  Pt  Pt31  1  0.290356  0.000000  0.999714  1
  Pt  Pt32  1  0.709737  0.000000  0.999740  1
