# generated using pymatgen
data_LuHfAl8GaIr3
_symmetry_space_group_name_H-M   'P 1'
_cell_length_a   7.47604745
_cell_length_b   7.47059916
_cell_length_c   9.33368300
_cell_angle_alpha   90.00000000
_cell_angle_beta   90.00000000
_cell_angle_gamma   119.57277870
_symmetry_Int_Tables_number   1
_chemical_formula_structural   LuHfAl8GaIr3
_chemical_formula_sum   'Lu2 Hf2 Al16 Ga2 Ir6'
_cell_volume   453.38248024
_cell_formula_units_Z   2
loop_
 _symmetry_equiv_pos_site_id
 _symmetry_equiv_pos_as_xyz
  1  'x, y, z'
loop_
 _atom_site_type_symbol
 _atom_site_label
 _atom_site_symmetry_multiplicity
 _atom_site_fract_x
 _atom_site_fract_y
 _atom_site_fract_z
 _atom_site_occupancy
  Lu  Lu0  1  0.674788  0.994098  0.250000  1
  Lu  Lu1  1  0.325212  0.005902  0.750000  1
  Hf  Hf2  1  0.994831  0.674164  0.250000  1
  Hf  Hf3  1  0.005169  0.325836  0.750000  1
  Al  Al4  1  0.999716  0.337180  0.075734  1
  Al  Al5  1  0.000284  0.662820  0.924266  1
  Al  Al6  1  0.000284  0.662820  0.575734  1
  Al  Al7  1  0.333732  0.998920  0.421577  1
  Al  Al8  1  0.999716  0.337180  0.424266  1
  Al  Al9  1  0.666268  0.001080  0.578423  1
  Al  Al10  1  0.666268  0.001080  0.921577  1
  Al  Al11  1  0.333732  0.998920  0.078423  1
  Al  Al12  1  0.331904  0.333938  0.560336  1
  Al  Al13  1  0.668096  0.666062  0.439664  1
  Al  Al14  1  0.668096  0.666062  0.060336  1
  Al  Al15  1  0.331904  0.333938  0.939664  1
  Al  Al16  1  0.333918  0.550420  0.250000  1
  Al  Al17  1  0.666082  0.449580  0.750000  1
  Al  Al18  1  0.556024  0.341625  0.250000  1
  Al  Al19  1  0.443976  0.658375  0.750000  1
  Ga  Ga20  1  0.133091  0.132091  0.250000  1
  Ga  Ga21  1  0.866909  0.867909  0.750000  1
  Ir  Ir22  1  0.672181  0.327743  0.999498  1
  Ir  Ir23  1  0.327819  0.672257  0.000502  1
  Ir  Ir24  1  0.327819  0.672257  0.499498  1
  Ir  Ir25  1  0.672181  0.327743  0.500502  1
  Ir  Ir26  1  0.000000  0.000000  0.000000  1
  Ir  Ir27  1  0.000000  0.000000  0.500000  1
