# generated using pymatgen
data_CeNd3(HgPt2)2
_symmetry_space_group_name_H-M   'P 1'
_cell_length_a   7.89770350
_cell_length_b   7.89770423
_cell_length_c   3.82355300
_cell_angle_alpha   90.00000000
_cell_angle_beta   90.00000000
_cell_angle_gamma   91.16511809
_symmetry_Int_Tables_number   1
_chemical_formula_structural   CeNd3(HgPt2)2
_chemical_formula_sum   'Ce1 Nd3 Hg2 Pt4'
_cell_volume   238.43994056
_cell_formula_units_Z   1
loop_
 _symmetry_equiv_pos_site_id
 _symmetry_equiv_pos_as_xyz
  1  'x, y, z'
loop_
 _atom_site_type_symbol
 _atom_site_label
 _atom_site_symmetry_multiplicity
 _atom_site_fract_x
 _atom_site_fract_y
 _atom_site_fract_z
 _atom_site_occupancy
  Ce  Ce0  1  0.670132  0.170132  0.500000  1
  Nd  Nd1  1  0.171032  0.328453  0.500000  1
  Nd  Nd2  1  0.328196  0.828196  0.500000  1
  Nd  Nd3  1  0.828453  0.671032  0.500000  1
  Hg  Hg4  1  0.500734  0.502146  0.000000  1
  Hg  Hg5  1  0.002146  0.000734  0.000000  1
  Pt  Pt6  1  0.632714  0.880602  0.000000  1
  Pt  Pt7  1  0.124021  0.624021  0.000000  1
  Pt  Pt8  1  0.861972  0.361972  0.000000  1
  Pt  Pt9  1  0.380602  0.132714  0.000000  1
