# generated using pymatgen
data_Ta4Si4IrRu2Pt
_symmetry_space_group_name_H-M   'P 1'
_cell_length_a   3.82325100
_cell_length_b   6.42685719
_cell_length_c   7.33860353
_cell_angle_alpha   89.61496237
_cell_angle_beta   90.00000000
_cell_angle_gamma   90.00000000
_symmetry_Int_Tables_number   1
_chemical_formula_structural   Ta4Si4IrRu2Pt
_chemical_formula_sum   'Ta4 Si4 Ir1 Ru2 Pt1'
_cell_volume   180.31633820
_cell_formula_units_Z   1
loop_
 _symmetry_equiv_pos_site_id
 _symmetry_equiv_pos_as_xyz
  1  'x, y, z'
loop_
 _atom_site_type_symbol
 _atom_site_label
 _atom_site_symmetry_multiplicity
 _atom_site_fract_x
 _atom_site_fract_y
 _atom_site_fract_z
 _atom_site_occupancy
  Ta  Ta0  1  0.750000  0.521091  0.828515  1
  Ta  Ta1  1  0.250000  0.977086  0.323841  1
  Ta  Ta2  1  0.750000  0.024393  0.676968  1
  Ta  Ta3  1  0.250000  0.472294  0.171219  1
  Si  Si4  1  0.250000  0.228036  0.872290  1
  Si  Si5  1  0.250000  0.730335  0.631408  1
  Si  Si6  1  0.750000  0.769574  0.116932  1
  Si  Si7  1  0.750000  0.265470  0.380128  1
  Ir  Ir8  1  0.750000  0.149547  0.065580  1
  Ru  Ru9  1  0.250000  0.854680  0.939603  1
  Ru  Ru10  1  0.250000  0.356116  0.560825  1
  Pt  Pt11  1  0.750000  0.651377  0.432691  1
