# generated using pymatgen
data_Y7HoRe2(RuC4)2
_symmetry_space_group_name_H-M   'P 1'
_cell_length_a   5.10309500
_cell_length_b   6.54559169
_cell_length_c   9.84254804
_cell_angle_alpha   89.94736673
_cell_angle_beta   90.00000000
_cell_angle_gamma   90.00000000
_symmetry_Int_Tables_number   1
_chemical_formula_structural   Y7HoRe2(RuC4)2
_chemical_formula_sum   'Y7 Ho1 Re2 Ru2 C8'
_cell_volume   328.76829091
_cell_formula_units_Z   1
loop_
 _symmetry_equiv_pos_site_id
 _symmetry_equiv_pos_as_xyz
  1  'x, y, z'
loop_
 _atom_site_type_symbol
 _atom_site_label
 _atom_site_symmetry_multiplicity
 _atom_site_fract_x
 _atom_site_fract_y
 _atom_site_fract_z
 _atom_site_occupancy
  Y  Y0  1  0.250000  0.466883  0.784493  1
  Y  Y1  1  0.750000  0.033106  0.283754  1
  Y  Y2  1  0.250000  0.969369  0.715425  1
  Y  Y3  1  0.750000  0.530647  0.215014  1
  Y  Y4  1  0.250000  0.824665  0.054787  1
  Y  Y5  1  0.750000  0.675479  0.555183  1
  Y  Y6  1  0.250000  0.319243  0.443034  1
  Ho  Ho7  1  0.750000  0.179347  0.942384  1
  Re  Re8  1  0.250000  0.778872  0.364961  1
  Re  Re9  1  0.750000  0.721015  0.865415  1
  Ru  Ru10  1  0.250000  0.278579  0.133759  1
  Ru  Ru11  1  0.750000  0.221485  0.634515  1
  C  C12  1  0.250000  0.175990  0.949510  1
  C  C13  1  0.750000  0.823644  0.050422  1
  C  C14  1  0.250000  0.677903  0.550529  1
  C  C15  1  0.750000  0.323665  0.450059  1
  C  C16  1  0.250000  0.044388  0.259970  1
  C  C17  1  0.750000  0.455034  0.760946  1
  C  C18  1  0.250000  0.546652  0.242466  1
  C  C19  1  0.750000  0.954033  0.743373  1
