# generated using pymatgen
data_Pr4Al4NiRh3
_symmetry_space_group_name_H-M   'P 1'
_cell_length_a   4.33280500
_cell_length_b   7.08475026
_cell_length_c   8.08549002
_cell_angle_alpha   89.44132726
_cell_angle_beta   90.00000000
_cell_angle_gamma   90.00000000
_symmetry_Int_Tables_number   1
_chemical_formula_structural   Pr4Al4NiRh3
_chemical_formula_sum   'Pr4 Al4 Ni1 Rh3'
_cell_volume   248.18720566
_cell_formula_units_Z   1
loop_
 _symmetry_equiv_pos_site_id
 _symmetry_equiv_pos_as_xyz
  1  'x, y, z'
loop_
 _atom_site_type_symbol
 _atom_site_label
 _atom_site_symmetry_multiplicity
 _atom_site_fract_x
 _atom_site_fract_y
 _atom_site_fract_z
 _atom_site_occupancy
  Pr  Pr0  1  0.250000  0.538554  0.177383  1
  Pr  Pr1  1  0.750000  0.465986  0.821306  1
  Pr  Pr2  1  0.750000  0.961750  0.683732  1
  Pr  Pr3  1  0.250000  0.036565  0.321085  1
  Al  Al4  1  0.250000  0.632962  0.561987  1
  Al  Al5  1  0.750000  0.366440  0.438569  1
  Al  Al6  1  0.750000  0.864001  0.058663  1
  Al  Al7  1  0.250000  0.130913  0.938007  1
  Ni  Ni8  1  0.250000  0.779017  0.881445  1
  Rh  Rh9  1  0.750000  0.225158  0.115429  1
  Rh  Rh10  1  0.750000  0.726951  0.384635  1
  Rh  Rh11  1  0.250000  0.271703  0.617760  1
