# generated using pymatgen
data_ThSc2Fe8Os
_symmetry_space_group_name_H-M   'P 1'
_cell_length_a   8.71334757
_cell_length_b   8.71334802
_cell_length_c   8.71335078
_cell_angle_alpha   33.34499246
_cell_angle_beta   33.34498810
_cell_angle_gamma   33.34499016
_symmetry_Int_Tables_number   1
_chemical_formula_structural   ThSc2Fe8Os
_chemical_formula_sum   'Th1 Sc2 Fe8 Os1'
_cell_volume   177.97755579
_cell_formula_units_Z   1
loop_
 _symmetry_equiv_pos_site_id
 _symmetry_equiv_pos_as_xyz
  1  'x, y, z'
loop_
 _atom_site_type_symbol
 _atom_site_label
 _atom_site_symmetry_multiplicity
 _atom_site_fract_x
 _atom_site_fract_y
 _atom_site_fract_z
 _atom_site_occupancy
  Th  Th0  1  0.000000  0.000000  0.000000  1
  Sc  Sc1  1  0.855695  0.855695  0.855695  1
  Sc  Sc2  1  0.144305  0.144305  0.144305  1
  Fe  Fe3  1  0.413700  0.921421  0.413700  1
  Fe  Fe4  1  0.413700  0.413700  0.921421  1
  Fe  Fe5  1  0.921421  0.413700  0.413700  1
  Fe  Fe6  1  0.586300  0.078579  0.586300  1
  Fe  Fe7  1  0.586300  0.586300  0.078579  1
  Fe  Fe8  1  0.078579  0.586300  0.586300  1
  Fe  Fe9  1  0.667227  0.667227  0.667227  1
  Fe  Fe10  1  0.332773  0.332773  0.332773  1
  Os  Os11  1  0.500000  0.500000  0.500000  1
