# generated using pymatgen
data_Tb16Ni3Ag4Ir
_symmetry_space_group_name_H-M   'P 1'
_cell_length_a   9.51126309
_cell_length_b   9.51126390
_cell_length_c   9.51126330
_cell_angle_alpha   60.07138403
_cell_angle_beta   60.07139000
_cell_angle_gamma   60.07138440
_symmetry_Int_Tables_number   1
_chemical_formula_structural   Tb16Ni3Ag4Ir
_chemical_formula_sum   'Tb16 Ni3 Ag4 Ir1'
_cell_volume   609.39888429
_cell_formula_units_Z   1
loop_
 _symmetry_equiv_pos_site_id
 _symmetry_equiv_pos_as_xyz
  1  'x, y, z'
loop_
 _atom_site_type_symbol
 _atom_site_label
 _atom_site_symmetry_multiplicity
 _atom_site_fract_x
 _atom_site_fract_y
 _atom_site_fract_z
 _atom_site_occupancy
  Tb  Tb0  1  0.348246  0.348246  0.348246  1
  Tb  Tb1  1  0.354045  0.354045  0.947007  1
  Tb  Tb2  1  0.354045  0.947007  0.354045  1
  Tb  Tb3  1  0.947007  0.354045  0.354045  1
  Tb  Tb4  1  0.809070  0.188442  0.188442  1
  Tb  Tb5  1  0.187776  0.810688  0.810688  1
  Tb  Tb6  1  0.188442  0.809070  0.188442  1
  Tb  Tb7  1  0.810688  0.187776  0.810688  1
  Tb  Tb8  1  0.188442  0.188442  0.809070  1
  Tb  Tb9  1  0.810688  0.810688  0.187776  1
  Tb  Tb10  1  0.935258  0.565277  0.565277  1
  Tb  Tb11  1  0.561804  0.937064  0.937064  1
  Tb  Tb12  1  0.565277  0.935258  0.565277  1
  Tb  Tb13  1  0.937064  0.561804  0.937064  1
  Tb  Tb14  1  0.565277  0.565277  0.935258  1
  Tb  Tb15  1  0.937064  0.937064  0.561804  1
  Ni  Ni16  1  0.142041  0.142041  0.572158  1
  Ni  Ni17  1  0.142041  0.572158  0.142041  1
  Ni  Ni18  1  0.572158  0.142041  0.142041  1
  Ag  Ag19  1  0.582618  0.582618  0.582618  1
  Ag  Ag20  1  0.580890  0.580890  0.255551  1
  Ag  Ag21  1  0.580890  0.255551  0.580890  1
  Ag  Ag22  1  0.255551  0.580890  0.580890  1
  Ir  Ir23  1  0.143621  0.143621  0.143621  1
