# generated using pymatgen
data_Y5Er3Ti12Si15Sn
_symmetry_space_group_name_H-M   'P 1'
_cell_length_a   7.10308564
_cell_length_b   7.06447174
_cell_length_c   13.01144128
_cell_angle_alpha   89.98929596
_cell_angle_beta   89.71932155
_cell_angle_gamma   89.96163551
_symmetry_Int_Tables_number   1
_chemical_formula_structural   Y5Er3Ti12Si15Sn
_chemical_formula_sum   'Y5 Er3 Ti12 Si15 Sn1'
_cell_volume   652.90024790
_cell_formula_units_Z   1
loop_
 _symmetry_equiv_pos_site_id
 _symmetry_equiv_pos_as_xyz
  1  'x, y, z'
loop_
 _atom_site_type_symbol
 _atom_site_label
 _atom_site_symmetry_multiplicity
 _atom_site_fract_x
 _atom_site_fract_y
 _atom_site_fract_z
 _atom_site_occupancy
  Y  Y0  1  0.342324  0.999339  0.461495  1
  Y  Y1  1  0.505539  0.835099  0.718259  1
  Y  Y2  1  0.502575  0.159995  0.216560  1
  Y  Y3  1  0.840831  0.496818  0.282116  1
  Y  Y4  1  0.159461  0.510040  0.786134  1
  Er  Er5  1  0.662019  0.996894  0.968820  1
  Er  Er6  1  0.991619  0.348605  0.527663  1
  Er  Er7  1  0.999950  0.659464  0.034065  1
  Ti  Ti8  1  0.326614  0.326418  0.001229  1
  Ti  Ti9  1  0.173882  0.825711  0.249414  1
  Ti  Ti10  1  0.816534  0.175429  0.752137  1
  Ti  Ti11  1  0.672572  0.672865  0.499446  1
  Ti  Ti12  1  0.152370  0.008331  0.883684  1
  Ti  Ti13  1  0.492518  0.650268  0.126609  1
  Ti  Ti14  1  0.515374  0.353901  0.626542  1
  Ti  Ti15  1  0.654784  0.493059  0.875977  1
  Ti  Ti16  1  0.346672  0.509667  0.372776  1
  Ti  Ti17  1  0.846858  0.991881  0.375785  1
  Ti  Ti18  1  0.010407  0.150587  0.123021  1
  Ti  Ti19  1  0.978401  0.835750  0.618538  1
  Si  Si20  1  0.371684  0.703435  0.936530  1
  Si  Si21  1  0.628083  0.297609  0.433289  1
  Si  Si22  1  0.705010  0.369457  0.066188  1
  Si  Si23  1  0.295510  0.629778  0.565286  1
  Si  Si24  1  0.797926  0.869321  0.183613  1
  Si  Si25  1  0.129347  0.202889  0.314786  1
  Si  Si26  1  0.870671  0.800530  0.816639  1
  Si  Si27  1  0.293102  0.951369  0.066569  1
  Si  Si28  1  0.549560  0.788837  0.313392  1
  Si  Si29  1  0.459919  0.210367  0.820448  1
  Si  Si30  1  0.793798  0.544400  0.686742  1
  Si  Si31  1  0.209319  0.452961  0.184812  1
  Si  Si32  1  0.706986  0.049330  0.564202  1
  Si  Si33  1  0.952400  0.291466  0.935765  1
  Si  Si34  1  0.047165  0.710525  0.432926  1
  Sn  Sn35  1  0.198218  0.127610  0.678547  1
