# generated using pymatgen
data_Ca2TbHoCd4
_symmetry_space_group_name_H-M   'P 1'
_cell_length_a   7.51733900
_cell_length_b   7.54161500
_cell_length_c   7.47496200
_cell_angle_alpha   90.00000000
_cell_angle_beta   90.00092986
_cell_angle_gamma   90.00000000
_symmetry_Int_Tables_number   1
_chemical_formula_structural   Ca2TbHoCd4
_chemical_formula_sum   'Ca4 Tb2 Ho2 Cd8'
_cell_volume   423.77709798
_cell_formula_units_Z   2
loop_
 _symmetry_equiv_pos_site_id
 _symmetry_equiv_pos_as_xyz
  1  'x, y, z'
loop_
 _atom_site_type_symbol
 _atom_site_label
 _atom_site_symmetry_multiplicity
 _atom_site_fract_x
 _atom_site_fract_y
 _atom_site_fract_z
 _atom_site_occupancy
  Ca  Ca0  1  0.749426  0.249997  0.000116  1
  Ca  Ca1  1  0.249441  0.749993  0.499901  1
  Ca  Ca2  1  0.750557  0.250007  0.500099  1
  Ca  Ca3  1  0.250575  0.750003  0.999885  1
  Tb  Tb4  1  0.250711  0.249997  0.999991  1
  Tb  Tb5  1  0.749288  0.750003  0.000009  1
  Ho  Ho6  1  0.750742  0.749980  0.499976  1
  Ho  Ho7  1  0.249257  0.250020  0.500024  1
  Cd  Cd8  1  0.000174  0.500104  0.248965  1
  Cd  Cd9  1  0.000172  0.999897  0.248957  1
  Cd  Cd10  1  0.500178  0.000105  0.251501  1
  Cd  Cd11  1  0.500176  0.499895  0.251506  1
  Cd  Cd12  1  0.499823  0.500107  0.748493  1
  Cd  Cd13  1  0.499821  0.999895  0.748498  1
  Cd  Cd14  1  0.999830  0.000103  0.751044  1
  Cd  Cd15  1  0.999828  0.499898  0.751036  1
