# generated using pymatgen
data_Ce2NdIn3NiRh2
_symmetry_space_group_name_H-M   'P 1'
_cell_length_a   7.63989011
_cell_length_b   7.44164198
_cell_length_c   3.97254800
_cell_angle_alpha   90.00000000
_cell_angle_beta   90.00000000
_cell_angle_gamma   119.14525903
_symmetry_Int_Tables_number   1
_chemical_formula_structural   Ce2NdIn3NiRh2
_chemical_formula_sum   'Ce2 Nd1 In3 Ni1 Rh2'
_cell_volume   197.25687612
_cell_formula_units_Z   1
loop_
 _symmetry_equiv_pos_site_id
 _symmetry_equiv_pos_as_xyz
  1  'x, y, z'
loop_
 _atom_site_type_symbol
 _atom_site_label
 _atom_site_symmetry_multiplicity
 _atom_site_fract_x
 _atom_site_fract_y
 _atom_site_fract_z
 _atom_site_occupancy
  Ce  Ce0  1  0.414103  0.415480  0.000000  1
  Ce  Ce1  1  0.585897  0.001377  0.000000  1
  Nd  Nd2  1  0.000000  0.588592  0.000000  1
  In  In3  1  0.761138  0.756492  0.500000  1
  In  In4  1  0.000000  0.249130  0.500000  1
  In  In5  1  0.238862  0.995354  0.500000  1
  Ni  Ni6  1  0.000000  0.009124  0.000000  1
  Rh  Rh7  1  0.356079  0.670265  0.500000  1
  Rh  Rh8  1  0.643921  0.314185  0.500000  1
