# generated using pymatgen
data_Pr3Nd13Cd4Co3Pd
_symmetry_space_group_name_H-M   'P 1'
_cell_length_a   9.87704184
_cell_length_b   9.88337992
_cell_length_c   9.88338000
_cell_angle_alpha   59.99999974
_cell_angle_beta   59.97877026
_cell_angle_gamma   59.97877380
_symmetry_Int_Tables_number   1
_chemical_formula_structural   Pr3Nd13Cd4Co3Pd
_chemical_formula_sum   'Pr3 Nd13 Cd4 Co3 Pd1'
_cell_volume   681.99855742
_cell_formula_units_Z   1
loop_
 _symmetry_equiv_pos_site_id
 _symmetry_equiv_pos_as_xyz
  1  'x, y, z'
loop_
 _atom_site_type_symbol
 _atom_site_label
 _atom_site_symmetry_multiplicity
 _atom_site_fract_x
 _atom_site_fract_y
 _atom_site_fract_z
 _atom_site_occupancy
  Pr  Pr0  1  0.339079  0.352791  0.352791  1
  Pr  Pr1  1  0.339079  0.352791  0.955339  1
  Pr  Pr2  1  0.339079  0.955339  0.352791  1
  Nd  Nd3  1  0.962512  0.345829  0.345829  1
  Nd  Nd4  1  0.821086  0.189539  0.189539  1
  Nd  Nd5  1  0.189710  0.811244  0.811244  1
  Nd  Nd6  1  0.189710  0.811244  0.187803  1
  Nd  Nd7  1  0.821086  0.189539  0.799837  1
  Nd  Nd8  1  0.189710  0.187803  0.811244  1
  Nd  Nd9  1  0.821086  0.799837  0.189539  1
  Nd  Nd10  1  0.934362  0.563608  0.563608  1
  Nd  Nd11  1  0.560904  0.938057  0.938057  1
  Nd  Nd12  1  0.560904  0.938057  0.562980  1
  Nd  Nd13  1  0.934362  0.563608  0.938421  1
  Nd  Nd14  1  0.560904  0.562980  0.938057  1
  Nd  Nd15  1  0.934362  0.938421  0.563608  1
  Cd  Cd16  1  0.579938  0.578749  0.578749  1
  Cd  Cd17  1  0.579938  0.578749  0.262566  1
  Cd  Cd18  1  0.579938  0.262566  0.578749  1
  Cd  Cd19  1  0.260102  0.579966  0.579966  1
  Co  Co20  1  0.141385  0.141054  0.141054  1
  Co  Co21  1  0.141385  0.141054  0.576505  1
  Co  Co22  1  0.141385  0.576505  0.141054  1
  Pd  Pd23  1  0.577996  0.140668  0.140668  1
