# generated using pymatgen
data_HoLu(B3W)2
_symmetry_space_group_name_H-M   'P 1'
_cell_length_a   3.15168000
_cell_length_b   5.41733348
_cell_length_c   6.78582787
_cell_angle_alpha   78.29414462
_cell_angle_beta   90.00000000
_cell_angle_gamma   90.00000000
_symmetry_Int_Tables_number   1
_chemical_formula_structural   HoLu(B3W)2
_chemical_formula_sum   'Ho1 Lu1 B6 W2'
_cell_volume   113.44956987
_cell_formula_units_Z   1
loop_
 _symmetry_equiv_pos_site_id
 _symmetry_equiv_pos_as_xyz
  1  'x, y, z'
loop_
 _atom_site_type_symbol
 _atom_site_label
 _atom_site_symmetry_multiplicity
 _atom_site_fract_x
 _atom_site_fract_y
 _atom_site_fract_z
 _atom_site_occupancy
  Ho  Ho0  1  0.750000  0.674795  0.293612  1
  Lu  Lu1  1  0.250000  0.320327  0.711416  1
  B  B2  1  0.250000  0.920198  0.524379  1
  B  B3  1  0.750000  0.089106  0.477076  1
  B  B4  1  0.250000  0.911935  0.004479  1
  B  B5  1  0.750000  0.087092  0.993201  1
  B  B6  1  0.250000  0.582126  0.006399  1
  B  B7  1  0.750000  0.415726  0.990677  1
  W  W8  1  0.250000  0.188875  0.220560  1
  W  W9  1  0.750000  0.809819  0.778199  1
