# generated using pymatgen
data_CaPr4Si2Ge
_symmetry_space_group_name_H-M   'P 1'
_cell_length_a   7.81326200
_cell_length_b   9.01641907
_cell_length_c   7.81326200
_cell_angle_alpha   115.67588352
_cell_angle_beta   90.00000000
_cell_angle_gamma   115.67588352
_symmetry_Int_Tables_number   1
_chemical_formula_structural   CaPr4Si2Ge
_chemical_formula_sum   'Ca2 Pr8 Si4 Ge2'
_cell_volume   434.98877238
_cell_formula_units_Z   2
loop_
 _symmetry_equiv_pos_site_id
 _symmetry_equiv_pos_as_xyz
  1  'x, y, z'
loop_
 _atom_site_type_symbol
 _atom_site_label
 _atom_site_symmetry_multiplicity
 _atom_site_fract_x
 _atom_site_fract_y
 _atom_site_fract_z
 _atom_site_occupancy
  Ca  Ca0  1  0.000000  0.000000  0.000000  1
  Ca  Ca1  1  0.500000  0.000000  0.500000  1
  Pr  Pr2  1  0.531789  0.709766  0.677978  1
  Pr  Pr3  1  0.177978  0.709766  0.031789  1
  Pr  Pr4  1  0.677978  0.709766  0.177978  1
  Pr  Pr5  1  0.031789  0.709766  0.531789  1
  Pr  Pr6  1  0.468211  0.290234  0.322022  1
  Pr  Pr7  1  0.822022  0.290234  0.968211  1
  Pr  Pr8  1  0.322022  0.290234  0.822022  1
  Pr  Pr9  1  0.968211  0.290234  0.468211  1
  Si  Si10  1  0.885609  0.000000  0.614391  1
  Si  Si11  1  0.114391  0.000000  0.385609  1
  Si  Si12  1  0.614391  0.000000  0.114391  1
  Si  Si13  1  0.385609  0.000000  0.885609  1
  Ge  Ge14  1  0.750000  0.500000  0.750000  1
  Ge  Ge15  1  0.250000  0.500000  0.250000  1
