# generated using pymatgen
data_ErNpO4
_symmetry_space_group_name_H-M   'P 1'
_cell_length_a   6.47030147
_cell_length_b   6.47030156
_cell_length_c   5.37842029
_cell_angle_alpha   67.70317474
_cell_angle_beta   67.70317454
_cell_angle_gamma   111.66154511
_symmetry_Int_Tables_number   1
_chemical_formula_structural   ErNpO4
_chemical_formula_sum   'Er2 Np2 O8'
_cell_volume   154.29786275
_cell_formula_units_Z   2
loop_
 _symmetry_equiv_pos_site_id
 _symmetry_equiv_pos_as_xyz
  1  'x, y, z'
loop_
 _atom_site_type_symbol
 _atom_site_label
 _atom_site_symmetry_multiplicity
 _atom_site_fract_x
 _atom_site_fract_y
 _atom_site_fract_z
 _atom_site_occupancy
  Er  Er0  1  0.625875  0.374125  0.750000  1
  Er  Er1  1  0.374125  0.625875  0.250000  1
  Np  Np2  1  0.123413  0.876587  0.750000  1
  Np  Np3  1  0.876587  0.123413  0.250000  1
  O  O4  1  0.761666  0.758849  0.270358  1
  O  O5  1  0.241151  0.238334  0.229642  1
  O  O6  1  0.238334  0.241151  0.729642  1
  O  O7  1  0.758849  0.761666  0.770358  1
  O  O8  1  0.463310  0.966110  0.776804  1
  O  O9  1  0.033890  0.536690  0.723196  1
  O  O10  1  0.536690  0.033890  0.223196  1
  O  O11  1  0.966110  0.463310  0.276804  1
