# generated using pymatgen
data_Y9Ho7Cd4TcPd3
_symmetry_space_group_name_H-M   'P 1'
_cell_length_a   9.71855959
_cell_length_b   9.71778542
_cell_length_c   9.72792051
_cell_angle_alpha   59.31894325
_cell_angle_beta   59.38511753
_cell_angle_gamma   59.43119084
_symmetry_Int_Tables_number   1
_chemical_formula_structural   Y9Ho7Cd4TcPd3
_chemical_formula_sum   'Y9 Ho7 Cd4 Tc1 Pd3'
_cell_volume   640.45053945
_cell_formula_units_Z   1
loop_
 _symmetry_equiv_pos_site_id
 _symmetry_equiv_pos_as_xyz
  1  'x, y, z'
loop_
 _atom_site_type_symbol
 _atom_site_label
 _atom_site_symmetry_multiplicity
 _atom_site_fract_x
 _atom_site_fract_y
 _atom_site_fract_z
 _atom_site_occupancy
  Y  Y0  1  0.809926  0.189239  0.809861  1
  Y  Y1  1  0.187849  0.187685  0.816845  1
  Y  Y2  1  0.810069  0.810105  0.189178  1
  Y  Y3  1  0.935442  0.565533  0.565194  1
  Y  Y4  1  0.556478  0.937540  0.937825  1
  Y  Y5  1  0.565123  0.935467  0.565356  1
  Y  Y6  1  0.937681  0.556646  0.937732  1
  Y  Y7  1  0.564891  0.565486  0.935666  1
  Y  Y8  1  0.938011  0.937702  0.556073  1
  Ho  Ho9  1  0.352972  0.353079  0.352804  1
  Ho  Ho10  1  0.350819  0.351312  0.945302  1
  Ho  Ho11  1  0.351169  0.944691  0.351254  1
  Ho  Ho12  1  0.945095  0.351197  0.350913  1
  Ho  Ho13  1  0.816852  0.187699  0.188055  1
  Ho  Ho14  1  0.189375  0.810101  0.809938  1
  Ho  Ho15  1  0.187739  0.816926  0.187874  1
  Cd  Cd16  1  0.579770  0.579697  0.579671  1
  Cd  Cd17  1  0.580938  0.581111  0.254030  1
  Cd  Cd18  1  0.581005  0.254015  0.581070  1
  Cd  Cd19  1  0.254100  0.580978  0.580924  1
  Tc  Tc20  1  0.144448  0.144615  0.146462  1
  Pd  Pd21  1  0.146503  0.144358  0.567030  1
  Pd  Pd22  1  0.146754  0.568311  0.144544  1
  Pd  Pd23  1  0.566990  0.146510  0.146400  1
