# generated using pymatgen
data_BaNbCu4P4O17
_symmetry_space_group_name_H-M   'P 1'
_cell_length_a   9.82554200
_cell_length_b   9.82554200
_cell_length_c   7.34054800
_cell_angle_alpha   90.00000000
_cell_angle_beta   90.00000000
_cell_angle_gamma   90.00000000
_symmetry_Int_Tables_number   1
_chemical_formula_structural   BaNbCu4P4O17
_chemical_formula_sum   'Ba2 Nb2 Cu8 P8 O34'
_cell_volume   708.66586748
_cell_formula_units_Z   2
loop_
 _symmetry_equiv_pos_site_id
 _symmetry_equiv_pos_as_xyz
  1  'x, y, z'
loop_
 _atom_site_type_symbol
 _atom_site_label
 _atom_site_symmetry_multiplicity
 _atom_site_fract_x
 _atom_site_fract_y
 _atom_site_fract_z
 _atom_site_occupancy
  Ba  Ba0  1  0.500000  0.500000  0.000000  1
  Ba  Ba1  1  0.000000  0.000000  0.000000  1
  Nb  Nb2  1  0.000000  0.500000  0.970357  1
  Nb  Nb3  1  0.500000  0.000000  0.029643  1
  Cu  Cu4  1  0.763660  0.512436  0.408409  1
  Cu  Cu5  1  0.236340  0.487564  0.408409  1
  Cu  Cu6  1  0.736340  0.012436  0.591591  1
  Cu  Cu7  1  0.263660  0.987564  0.591591  1
  Cu  Cu8  1  0.512436  0.763660  0.591591  1
  Cu  Cu9  1  0.487564  0.236340  0.591591  1
  Cu  Cu10  1  0.012436  0.736340  0.408409  1
  Cu  Cu11  1  0.987564  0.263660  0.408409  1
  P  P12  1  0.779272  0.305014  0.734725  1
  P  P13  1  0.220728  0.694986  0.734725  1
  P  P14  1  0.720728  0.805014  0.265275  1
  P  P15  1  0.279272  0.194986  0.265275  1
  P  P16  1  0.305014  0.779272  0.265275  1
  P  P17  1  0.694986  0.220728  0.265275  1
  P  P18  1  0.805014  0.720728  0.734725  1
  P  P19  1  0.194986  0.279272  0.734725  1
  O  O20  1  0.847189  0.362749  0.556590  1
  O  O21  1  0.152811  0.637251  0.556590  1
  O  O22  1  0.652811  0.862749  0.443410  1
  O  O23  1  0.347189  0.137251  0.443410  1
  O  O24  1  0.362749  0.847189  0.443410  1
  O  O25  1  0.637251  0.152811  0.443410  1
  O  O26  1  0.862749  0.652811  0.556590  1
  O  O27  1  0.137251  0.347189  0.556590  1
  O  O28  1  0.625639  0.336706  0.736001  1
  O  O29  1  0.374361  0.663294  0.736001  1
  O  O30  1  0.874361  0.836706  0.263999  1
  O  O31  1  0.125639  0.163294  0.263999  1
  O  O32  1  0.336706  0.625639  0.263999  1
  O  O33  1  0.663294  0.374361  0.263999  1
  O  O34  1  0.836706  0.874361  0.736001  1
  O  O35  1  0.163294  0.125639  0.736001  1
  O  O36  1  0.838660  0.385846  0.901847  1
  O  O37  1  0.161340  0.614154  0.901847  1
  O  O38  1  0.661340  0.885846  0.098153  1
  O  O39  1  0.338660  0.114154  0.098153  1
  O  O40  1  0.385846  0.838660  0.098153  1
  O  O41  1  0.614154  0.161340  0.098153  1
  O  O42  1  0.885846  0.661340  0.901847  1
  O  O43  1  0.114154  0.338660  0.901847  1
  O  O44  1  0.000000  0.500000  0.212069  1
  O  O45  1  0.500000  0.000000  0.787931  1
  O  O46  1  0.817853  0.153983  0.755777  1
  O  O47  1  0.182147  0.846017  0.755777  1
  O  O48  1  0.682147  0.653983  0.244223  1
  O  O49  1  0.317853  0.346017  0.244223  1
  O  O50  1  0.153983  0.817853  0.244223  1
  O  O51  1  0.846017  0.182147  0.244223  1
  O  O52  1  0.653983  0.682147  0.755777  1
  O  O53  1  0.346017  0.317853  0.755777  1
