# generated using pymatgen
data_Er10In5PbO2
_symmetry_space_group_name_H-M   'P 1'
_cell_length_a   9.06137806
_cell_length_b   9.06137764
_cell_length_c   9.06122395
_cell_angle_alpha   126.98110014
_cell_angle_beta   126.98110038
_cell_angle_gamma   78.28423707
_symmetry_Int_Tables_number   1
_chemical_formula_structural   Er10In5PbO2
_chemical_formula_sum   'Er10 In5 Pb1 O2'
_cell_volume   459.83871093
_cell_formula_units_Z   1
loop_
 _symmetry_equiv_pos_site_id
 _symmetry_equiv_pos_as_xyz
  1  'x, y, z'
loop_
 _atom_site_type_symbol
 _atom_site_label
 _atom_site_symmetry_multiplicity
 _atom_site_fract_x
 _atom_site_fract_y
 _atom_site_fract_z
 _atom_site_occupancy
  Er  Er0  1  0.997298  0.193878  0.496456  1
  Er  Er1  1  0.802586  0.306133  0.803480  1
  Er  Er2  1  0.500893  0.997344  0.803463  1
  Er  Er3  1  0.502656  0.999107  0.196537  1
  Er  Er4  1  0.999150  0.802593  0.496456  1
  Er  Er5  1  0.502488  0.502500  0.999997  1
  Er  Er6  1  0.193867  0.697414  0.196520  1
  Er  Er7  1  0.697407  0.500850  0.503544  1
  Er  Er8  1  0.306122  0.502702  0.503544  1
  Er  Er9  1  0.997500  0.997512  0.000003  1
  In  In10  1  0.862031  0.362122  0.224157  1
  In  In11  1  0.137878  0.637969  0.775843  1
  In  In12  1  0.362038  0.137962  0.500000  1
  In  In13  1  0.749970  0.750030  0.000000  1
  In  In14  1  0.637964  0.862036  0.500000  1
  Pb  Pb15  1  0.250148  0.249852  0.000000  1
  O  O16  1  0.750013  0.250011  0.500018  1
  O  O17  1  0.249989  0.749987  0.499982  1
