# generated using pymatgen
data_Ca6TbNdP6
_symmetry_space_group_name_H-M   'P 1'
_cell_length_a   7.50314604
_cell_length_b   7.52408149
_cell_length_c   7.57360300
_cell_angle_alpha   109.56427596
_cell_angle_beta   109.46606395
_cell_angle_gamma   109.12968164
_symmetry_Int_Tables_number   1
_chemical_formula_structural   Ca6TbNdP6
_chemical_formula_sum   'Ca6 Tb1 Nd1 P6'
_cell_volume   330.15997773
_cell_formula_units_Z   1
loop_
 _symmetry_equiv_pos_site_id
 _symmetry_equiv_pos_as_xyz
  1  'x, y, z'
loop_
 _atom_site_type_symbol
 _atom_site_label
 _atom_site_symmetry_multiplicity
 _atom_site_fract_x
 _atom_site_fract_y
 _atom_site_fract_z
 _atom_site_occupancy
  Ca  Ca0  1  0.501091  0.004641  0.369142  1
  Ca  Ca1  1  0.505676  0.002127  0.870061  1
  Ca  Ca2  1  0.629672  0.631565  0.635455  1
  Ca  Ca3  1  0.996871  0.367824  0.494646  1
  Ca  Ca4  1  0.132727  0.130591  0.135124  1
  Ca  Ca5  1  0.867271  0.497126  0.994863  1
  Tb  Tb6  1  0.366862  0.500232  0.000723  1
  Nd  Nd7  1  0.999854  0.866233  0.500645  1
  P  P8  1  0.129105  0.746803  0.873174  1
  P  P9  1  0.885057  0.128166  0.753827  1
  P  P10  1  0.620172  0.381016  0.246898  1
  P  P11  1  0.371794  0.251792  0.631575  1
  P  P12  1  0.742862  0.866597  0.125357  1
  P  P13  1  0.250985  0.625287  0.368514  1
