# generated using pymatgen
data_Sm5DyNb2(Co4P3)4
_symmetry_space_group_name_H-M   'P 1'
_cell_length_a   3.73992600
_cell_length_b   10.69898211
_cell_length_c   12.42424912
_cell_angle_alpha   89.98387315
_cell_angle_beta   90.00000000
_cell_angle_gamma   90.00000000
_symmetry_Int_Tables_number   1
_chemical_formula_structural   Sm5DyNb2(Co4P3)4
_chemical_formula_sum   'Sm5 Dy1 Nb2 Co16 P12'
_cell_volume   497.13644696
_cell_formula_units_Z   1
loop_
 _symmetry_equiv_pos_site_id
 _symmetry_equiv_pos_as_xyz
  1  'x, y, z'
loop_
 _atom_site_type_symbol
 _atom_site_label
 _atom_site_symmetry_multiplicity
 _atom_site_fract_x
 _atom_site_fract_y
 _atom_site_fract_z
 _atom_site_occupancy
  Sm  Sm0  1  0.000000  0.500142  0.525522  1
  Sm  Sm1  1  0.500000  0.999782  0.474035  1
  Sm  Sm2  1  0.500000  0.179881  0.205407  1
  Sm  Sm3  1  0.000000  0.680442  0.794615  1
  Sm  Sm4  1  0.000000  0.319611  0.794770  1
  Dy  Dy5  1  0.500000  0.819341  0.204890  1
  Nb  Nb6  1  0.500000  0.500700  0.155370  1
  Nb  Nb7  1  0.000000  0.999793  0.844968  1
  Co  Co8  1  0.500000  0.500168  0.702551  1
  Co  Co9  1  0.000000  0.998028  0.296691  1
  Co  Co10  1  0.000000  0.500812  0.986622  1
  Co  Co11  1  0.500000  0.999149  0.014667  1
  Co  Co12  1  0.500000  0.332570  0.992275  1
  Co  Co13  1  0.500000  0.668219  0.992727  1
  Co  Co14  1  0.000000  0.166872  0.008448  1
  Co  Co15  1  0.000000  0.832324  0.009141  1
  Co  Co16  1  0.500000  0.295181  0.431931  1
  Co  Co17  1  0.500000  0.705088  0.430821  1
  Co  Co18  1  0.000000  0.204566  0.567916  1
  Co  Co19  1  0.000000  0.795354  0.567222  1
  Co  Co20  1  0.500000  0.878869  0.705183  1
  Co  Co21  1  0.500000  0.121119  0.705413  1
  Co  Co22  1  0.000000  0.622659  0.293444  1
  Co  Co23  1  0.000000  0.379166  0.294659  1
  P  P24  1  0.500000  0.500343  0.884359  1
  P  P25  1  0.000000  0.998336  0.117119  1
  P  P26  1  0.500000  0.499872  0.352315  1
  P  P27  1  0.000000  0.999979  0.647531  1
  P  P28  1  0.500000  0.308319  0.614575  1
  P  P29  1  0.500000  0.691954  0.614059  1
  P  P30  1  0.000000  0.191371  0.385329  1
  P  P31  1  0.000000  0.808748  0.383388  1
  P  P32  1  0.500000  0.842592  0.895336  1
  P  P33  1  0.500000  0.157102  0.895804  1
  P  P34  1  0.000000  0.658789  0.106187  1
  P  P35  1  0.000000  0.342756  0.104710  1
