# generated using pymatgen
data_Rb8DyHo3F20
_symmetry_space_group_name_H-M   'P 1'
_cell_length_a   6.95289438
_cell_length_b   7.44656700
_cell_length_c   11.49113801
_cell_angle_alpha   90.00000000
_cell_angle_beta   89.93949330
_cell_angle_gamma   90.00000000
_symmetry_Int_Tables_number   1
_chemical_formula_structural   Rb8DyHo3F20
_chemical_formula_sum   'Rb8 Dy1 Ho3 F20'
_cell_volume   594.95556657
_cell_formula_units_Z   1
loop_
 _symmetry_equiv_pos_site_id
 _symmetry_equiv_pos_as_xyz
  1  'x, y, z'
loop_
 _atom_site_type_symbol
 _atom_site_label
 _atom_site_symmetry_multiplicity
 _atom_site_fract_x
 _atom_site_fract_y
 _atom_site_fract_z
 _atom_site_occupancy
  Rb  Rb0  1  0.531435  0.498293  0.828197  1
  Rb  Rb1  1  0.468276  0.501084  0.171838  1
  Rb  Rb2  1  0.031549  0.501236  0.671194  1
  Rb  Rb3  1  0.468276  0.998916  0.171838  1
  Rb  Rb4  1  0.968486  0.498392  0.328772  1
  Rb  Rb5  1  0.531435  0.001707  0.828197  1
  Rb  Rb6  1  0.968486  0.001608  0.328772  1
  Rb  Rb7  1  0.031549  0.998764  0.671194  1
  Dy  Dy8  1  0.940692  0.750000  0.001107  1
  Ho  Ho9  1  0.559127  0.750000  0.500916  1
  Ho  Ho10  1  0.441011  0.250000  0.499024  1
  Ho  Ho11  1  0.059440  0.250000  0.998959  1
  F  F12  1  0.846625  0.750000  0.817064  1
  F  F13  1  0.153021  0.250000  0.182068  1
  F  F14  1  0.346929  0.250000  0.682010  1
  F  F15  1  0.653161  0.750000  0.317900  1
  F  F16  1  0.375461  0.750000  0.656690  1
  F  F17  1  0.624572  0.250000  0.343298  1
  F  F18  1  0.875727  0.250000  0.843368  1
  F  F19  1  0.125544  0.750000  0.157656  1
  F  F20  1  0.873225  0.750000  0.516047  1
  F  F21  1  0.126857  0.250000  0.483859  1
  F  F22  1  0.373817  0.250000  0.984064  1
  F  F23  1  0.624593  0.750000  0.015964  1
  F  F24  1  0.638848  0.034268  0.571960  1
  F  F25  1  0.361261  0.965809  0.428036  1
  F  F26  1  0.139362  0.966927  0.927479  1
  F  F27  1  0.361261  0.534191  0.428036  1
  F  F28  1  0.860880  0.035079  0.072528  1
  F  F29  1  0.638848  0.465732  0.571960  1
  F  F30  1  0.860880  0.464921  0.072528  1
  F  F31  1  0.139362  0.533073  0.927479  1
