# generated using pymatgen
data_Th8Si12TcIr3
_symmetry_space_group_name_H-M   'P 1'
_cell_length_a   8.24385100
_cell_length_b   8.24385214
_cell_length_c   8.48290200
_cell_angle_alpha   90.00000000
_cell_angle_beta   90.00000000
_cell_angle_gamma   119.99999140
_symmetry_Int_Tables_number   1
_chemical_formula_structural   Th8Si12TcIr3
_chemical_formula_sum   'Th8 Si12 Tc1 Ir3'
_cell_volume   499.26997206
_cell_formula_units_Z   1
loop_
 _symmetry_equiv_pos_site_id
 _symmetry_equiv_pos_as_xyz
  1  'x, y, z'
loop_
 _atom_site_type_symbol
 _atom_site_label
 _atom_site_symmetry_multiplicity
 _atom_site_fract_x
 _atom_site_fract_y
 _atom_site_fract_z
 _atom_site_occupancy
  Th  Th0  1  0.501424  0.498576  0.745876  1
  Th  Th1  1  0.501828  0.498172  0.254044  1
  Th  Th2  1  0.997154  0.498576  0.745876  1
  Th  Th3  1  0.996343  0.498172  0.254044  1
  Th  Th4  1  0.501424  0.002846  0.745876  1
  Th  Th5  1  0.501828  0.003657  0.254044  1
  Th  Th6  1  0.000000  0.000000  0.750216  1
  Th  Th7  1  0.000000  0.000000  0.249909  1
  Si  Si8  1  0.833742  0.166258  0.999661  1
  Si  Si9  1  0.165893  0.834107  0.000473  1
  Si  Si10  1  0.332516  0.166258  0.999661  1
  Si  Si11  1  0.165719  0.834281  0.499986  1
  Si  Si12  1  0.668216  0.834107  0.000473  1
  Si  Si13  1  0.834604  0.165396  0.499720  1
  Si  Si14  1  0.833742  0.667484  0.999661  1
  Si  Si15  1  0.668563  0.834281  0.499986  1
  Si  Si16  1  0.165893  0.331784  0.000473  1
  Si  Si17  1  0.330792  0.165396  0.499720  1
  Si  Si18  1  0.165719  0.331437  0.499986  1
  Si  Si19  1  0.834604  0.669208  0.499720  1
  Tc  Tc20  1  0.666667  0.333333  0.502013  1
  Ir  Ir21  1  0.666667  0.333333  0.999371  1
  Ir  Ir22  1  0.333333  0.666667  0.000133  1
  Ir  Ir23  1  0.333333  0.666667  0.499080  1
