# generated using pymatgen
data_La5RuAu2
_symmetry_space_group_name_H-M   'P 1'
_cell_length_a   8.63443400
_cell_length_b   8.68530000
_cell_length_c   12.27565600
_cell_angle_alpha   90.00000000
_cell_angle_beta   90.00000000
_cell_angle_gamma   90.00000000
_symmetry_Int_Tables_number   1
_chemical_formula_structural   La5RuAu2
_chemical_formula_sum   'La20 Ru4 Au8'
_cell_volume   920.58396927
_cell_formula_units_Z   4
loop_
 _symmetry_equiv_pos_site_id
 _symmetry_equiv_pos_as_xyz
  1  'x, y, z'
loop_
 _atom_site_type_symbol
 _atom_site_label
 _atom_site_symmetry_multiplicity
 _atom_site_fract_x
 _atom_site_fract_y
 _atom_site_fract_z
 _atom_site_occupancy
  La  La0  1  0.843928  0.750000  0.786601  1
  La  La1  1  0.156072  0.250000  0.213399  1
  La  La2  1  0.343928  0.250000  0.713399  1
  La  La3  1  0.656072  0.750000  0.286601  1
  La  La4  1  0.385416  0.750000  0.700719  1
  La  La5  1  0.614584  0.250000  0.299281  1
  La  La6  1  0.885416  0.250000  0.799281  1
  La  La7  1  0.114584  0.750000  0.200719  1
  La  La8  1  0.950149  0.750000  0.493749  1
  La  La9  1  0.049851  0.250000  0.506251  1
  La  La10  1  0.450149  0.250000  0.006251  1
  La  La11  1  0.549851  0.750000  0.993749  1
  La  La12  1  0.678154  0.038670  0.574105  1
  La  La13  1  0.321846  0.961330  0.425895  1
  La  La14  1  0.178154  0.961330  0.925895  1
  La  La15  1  0.321846  0.538670  0.425895  1
  La  La16  1  0.821846  0.038670  0.074105  1
  La  La17  1  0.678154  0.461330  0.574105  1
  La  La18  1  0.821846  0.461330  0.074105  1
  La  La19  1  0.178154  0.538670  0.925895  1
  Ru  Ru20  1  0.566536  0.750000  0.511479  1
  Ru  Ru21  1  0.433464  0.250000  0.488521  1
  Ru  Ru22  1  0.066536  0.250000  0.988521  1
  Ru  Ru23  1  0.933464  0.750000  0.011479  1
  Au  Au24  1  0.577140  0.477269  0.829003  1
  Au  Au25  1  0.422860  0.522731  0.170997  1
  Au  Au26  1  0.077140  0.522731  0.670997  1
  Au  Au27  1  0.422860  0.977269  0.170997  1
  Au  Au28  1  0.922860  0.477269  0.329003  1
  Au  Au29  1  0.577140  0.022731  0.829003  1
  Au  Au30  1  0.922860  0.022731  0.329003  1
  Au  Au31  1  0.077140  0.977269  0.670997  1
