# generated using pymatgen
data_La3Nd3Al19Si5Os8
_symmetry_space_group_name_H-M   'P 1'
_cell_length_a   8.81344200
_cell_length_b   8.81313832
_cell_length_c   9.74244600
_cell_angle_alpha   90.00000000
_cell_angle_beta   90.00000000
_cell_angle_gamma   120.00113987
_symmetry_Int_Tables_number   1
_chemical_formula_structural   La3Nd3Al19Si5Os8
_chemical_formula_sum   'La3 Nd3 Al19 Si5 Os8'
_cell_volume   655.34469387
_cell_formula_units_Z   1
loop_
 _symmetry_equiv_pos_site_id
 _symmetry_equiv_pos_as_xyz
  1  'x, y, z'
loop_
 _atom_site_type_symbol
 _atom_site_label
 _atom_site_symmetry_multiplicity
 _atom_site_fract_x
 _atom_site_fract_y
 _atom_site_fract_z
 _atom_site_occupancy
  La  La0  1  0.192297  0.384596  0.250000  1
  La  La1  1  0.614290  0.809115  0.250000  1
  La  La2  1  0.194824  0.809115  0.250000  1
  Nd  Nd3  1  0.807962  0.615923  0.750000  1
  Nd  Nd4  1  0.385633  0.192196  0.750000  1
  Nd  Nd5  1  0.806564  0.192196  0.750000  1
  Al  Al6  1  0.164730  0.329459  0.575062  1
  Al  Al7  1  0.834143  0.668286  0.426579  1
  Al  Al8  1  0.669245  0.834627  0.574240  1
  Al  Al9  1  0.834143  0.668286  0.073421  1
  Al  Al10  1  0.330995  0.166975  0.426874  1
  Al  Al11  1  0.164730  0.329459  0.924938  1
  Al  Al12  1  0.165382  0.834627  0.574240  1
  Al  Al13  1  0.330995  0.166975  0.073126  1
  Al  Al14  1  0.835979  0.166975  0.426874  1
  Al  Al15  1  0.669245  0.834627  0.925760  1
  Al  Al16  1  0.835979  0.166975  0.073126  1
  Al  Al17  1  0.165382  0.834627  0.925760  1
  Al  Al18  1  0.436162  0.872324  0.750000  1
  Al  Al19  1  0.868720  0.431241  0.250000  1
  Al  Al20  1  0.128466  0.564415  0.750000  1
  Al  Al21  1  0.562522  0.431241  0.250000  1
  Al  Al22  1  0.435948  0.564415  0.750000  1
  Al  Al23  1  0.999992  0.999985  0.250000  1
  Al  Al24  1  0.000088  0.000175  0.750000  1
  Si  Si25  1  0.332855  0.665711  0.029244  1
  Si  Si26  1  0.667284  0.334568  0.965399  1
  Si  Si27  1  0.667284  0.334568  0.534601  1
  Si  Si28  1  0.332855  0.665711  0.470756  1
  Si  Si29  1  0.565624  0.131247  0.250000  1
  Os  Os30  1  0.501808  0.003617  0.004359  1
  Os  Os31  1  0.997609  0.498421  0.999473  1
  Os  Os32  1  0.501808  0.003617  0.495641  1
  Os  Os33  1  0.500812  0.498421  0.999473  1
  Os  Os34  1  0.997609  0.498421  0.500527  1
  Os  Os35  1  0.500812  0.498421  0.500527  1
  Os  Os36  1  0.999610  0.999219  0.999312  1
  Os  Os37  1  0.999610  0.999219  0.500688  1
