# generated using pymatgen
data_Sc3Ga3NiAu2
_symmetry_space_group_name_H-M   'P 1'
_cell_length_a   7.40059300
_cell_length_b   7.40059178
_cell_length_c   6.70019100
_cell_angle_alpha   90.00000000
_cell_angle_beta   90.00000000
_cell_angle_gamma   119.99999204
_symmetry_Int_Tables_number   1
_chemical_formula_structural   Sc3Ga3NiAu2
_chemical_formula_sum   'Sc6 Ga6 Ni2 Au4'
_cell_volume   317.79775093
_cell_formula_units_Z   2
loop_
 _symmetry_equiv_pos_site_id
 _symmetry_equiv_pos_as_xyz
  1  'x, y, z'
loop_
 _atom_site_type_symbol
 _atom_site_label
 _atom_site_symmetry_multiplicity
 _atom_site_fract_x
 _atom_site_fract_y
 _atom_site_fract_z
 _atom_site_occupancy
  Sc  Sc0  1  0.616425  0.997759  0.750000  1
  Sc  Sc1  1  0.002241  0.618666  0.750000  1
  Sc  Sc2  1  0.381334  0.383575  0.750000  1
  Sc  Sc3  1  0.997759  0.616425  0.250000  1
  Sc  Sc4  1  0.618666  0.002241  0.250000  1
  Sc  Sc5  1  0.383575  0.381334  0.250000  1
  Ga  Ga6  1  0.742117  0.742117  0.000000  1
  Ga  Ga7  1  0.257883  0.000000  0.000000  1
  Ga  Ga8  1  0.000000  0.257883  0.000000  1
  Ga  Ga9  1  0.742117  0.742117  0.500000  1
  Ga  Ga10  1  0.257883  0.000000  0.500000  1
  Ga  Ga11  1  0.000000  0.257883  0.500000  1
  Ni  Ni12  1  0.000000  0.000000  0.750000  1
  Ni  Ni13  1  0.000000  0.000000  0.250000  1
  Au  Au14  1  0.666667  0.333333  0.996783  1
  Au  Au15  1  0.666667  0.333333  0.503217  1
  Au  Au16  1  0.333333  0.666667  0.496783  1
  Au  Au17  1  0.333333  0.666667  0.003217  1
