# generated using pymatgen
data_K3Tb(SiO3)3
_symmetry_space_group_name_H-M   'P 1'
_cell_length_a   6.71779427
_cell_length_b   6.76265277
_cell_length_c   6.78020200
_cell_angle_alpha   109.04077216
_cell_angle_beta   106.78593155
_cell_angle_gamma   107.51913646
_symmetry_Int_Tables_number   1
_chemical_formula_structural   K3Tb(SiO3)3
_chemical_formula_sum   'K3 Tb1 Si3 O9'
_cell_volume   250.77580024
_cell_formula_units_Z   1
loop_
 _symmetry_equiv_pos_site_id
 _symmetry_equiv_pos_as_xyz
  1  'x, y, z'
loop_
 _atom_site_type_symbol
 _atom_site_label
 _atom_site_symmetry_multiplicity
 _atom_site_fract_x
 _atom_site_fract_y
 _atom_site_fract_z
 _atom_site_occupancy
  K  K0  1  0.740798  0.891044  0.223554  1
  K  K1  1  0.588288  0.808341  0.645361  1
  K  K2  1  0.330232  0.177509  0.664253  1
  Tb  Tb3  1  0.063302  0.377753  0.100242  1
  Si  Si4  1  0.182023  0.901470  0.084147  1
  Si  Si5  1  0.595436  0.343043  0.233704  1
  Si  Si6  1  0.038346  0.489016  0.634063  1
  O  O7  1  0.687449  0.242609  0.044375  1
  O  O8  1  0.445351  0.479562  0.169919  1
  O  O9  1  0.116289  0.755365  0.222201  1
  O  O10  1  0.444188  0.119429  0.267526  1
  O  O11  1  0.172576  0.432659  0.474879  1
  O  O12  1  0.811074  0.524273  0.496195  1
  O  O13  1  0.958130  0.290166  0.717135  1
  O  O14  1  0.221269  0.747882  0.861181  1
  O  O15  1  0.998857  0.998432  0.997766  1
