# generated using pymatgen
data_Hf7Zr3PPb6
_symmetry_space_group_name_H-M   'P 1'
_cell_length_a   5.83686300
_cell_length_b   8.51992639
_cell_length_c   8.51994600
_cell_angle_alpha   119.99992860
_cell_angle_beta   90.00003926
_cell_angle_gamma   89.99992657
_symmetry_Int_Tables_number   1
_chemical_formula_structural   Hf7Zr3PPb6
_chemical_formula_sum   'Hf7 Zr3 P1 Pb6'
_cell_volume   366.92992217
_cell_formula_units_Z   1
loop_
 _symmetry_equiv_pos_site_id
 _symmetry_equiv_pos_as_xyz
  1  'x, y, z'
loop_
 _atom_site_type_symbol
 _atom_site_label
 _atom_site_symmetry_multiplicity
 _atom_site_fract_x
 _atom_site_fract_y
 _atom_site_fract_z
 _atom_site_occupancy
  Hf  Hf0  1  0.499985  0.333337  0.666671  1
  Hf  Hf1  1  0.499985  0.666667  0.333329  1
  Hf  Hf2  1  0.999188  0.666666  0.333327  1
  Hf  Hf3  1  0.999188  0.333340  0.666673  1
  Hf  Hf4  1  0.759093  0.247610  0.000000  1
  Hf  Hf5  1  0.759093  0.752400  0.752411  1
  Hf  Hf6  1  0.759093  0.999988  0.247589  1
  Zr  Zr7  1  0.240864  0.752830  0.000000  1
  Zr  Zr8  1  0.240875  0.247188  0.247195  1
  Zr  Zr9  1  0.240875  0.999992  0.752805  1
  P  P10  1  0.503830  0.000015  0.000000  1
  Pb  Pb11  1  0.748605  0.606632  0.000000  1
  Pb  Pb12  1  0.748606  0.393368  0.393378  1
  Pb  Pb13  1  0.748606  0.999990  0.606622  1
  Pb  Pb14  1  0.250707  0.394046  0.000000  1
  Pb  Pb15  1  0.250704  0.605933  0.605929  1
  Pb  Pb16  1  0.250704  0.000004  0.394071  1
