# generated using pymatgen
data_YEr5Al15Si9Ru8
_symmetry_space_group_name_H-M   'P 1'
_cell_length_a   8.68144700
_cell_length_b   8.66994965
_cell_length_c   9.34231500
_cell_angle_alpha   90.00000000
_cell_angle_beta   90.00000000
_cell_angle_gamma   120.04387342
_symmetry_Int_Tables_number   1
_chemical_formula_structural   YEr5Al15Si9Ru8
_chemical_formula_sum   'Y1 Er5 Al15 Si9 Ru8'
_cell_volume   608.69770090
_cell_formula_units_Z   1
loop_
 _symmetry_equiv_pos_site_id
 _symmetry_equiv_pos_as_xyz
  1  'x, y, z'
loop_
 _atom_site_type_symbol
 _atom_site_label
 _atom_site_symmetry_multiplicity
 _atom_site_fract_x
 _atom_site_fract_y
 _atom_site_fract_z
 _atom_site_occupancy
  Y  Y0  1  0.191910  0.383818  0.250000  1
  Er  Er1  1  0.807381  0.614762  0.750000  1
  Er  Er2  1  0.612186  0.806686  0.250000  1
  Er  Er3  1  0.387801  0.191131  0.750000  1
  Er  Er4  1  0.194499  0.806686  0.250000  1
  Er  Er5  1  0.803330  0.191131  0.750000  1
  Al  Al6  1  0.164310  0.328621  0.579284  1
  Al  Al7  1  0.834259  0.668517  0.419975  1
  Al  Al8  1  0.671523  0.835249  0.578030  1
  Al  Al9  1  0.834259  0.668517  0.080025  1
  Al  Al10  1  0.333097  0.166128  0.421369  1
  Al  Al11  1  0.164310  0.328621  0.920716  1
  Al  Al12  1  0.163725  0.835249  0.578030  1
  Al  Al13  1  0.333097  0.166128  0.078631  1
  Al  Al14  1  0.833030  0.166128  0.421369  1
  Al  Al15  1  0.671523  0.835249  0.921970  1
  Al  Al16  1  0.833030  0.166128  0.078631  1
  Al  Al17  1  0.163725  0.835249  0.921970  1
  Al  Al18  1  0.125393  0.565300  0.750000  1
  Al  Al19  1  0.439906  0.565300  0.750000  1
  Al  Al20  1  0.000409  0.000817  0.750000  1
  Si  Si21  1  0.332691  0.665382  0.038966  1
  Si  Si22  1  0.667654  0.335309  0.957361  1
  Si  Si23  1  0.667654  0.335309  0.542639  1
  Si  Si24  1  0.332691  0.665382  0.461034  1
  Si  Si25  1  0.561353  0.122706  0.250000  1
  Si  Si26  1  0.437191  0.874381  0.750000  1
  Si  Si27  1  0.875662  0.438711  0.250000  1
  Si  Si28  1  0.563050  0.438711  0.250000  1
  Si  Si29  1  0.997378  0.994756  0.250000  1
  Ru  Ru30  1  0.501085  0.002170  0.001658  1
  Ru  Ru31  1  0.997458  0.499620  0.006786  1
  Ru  Ru32  1  0.501085  0.002170  0.498342  1
  Ru  Ru33  1  0.502162  0.499620  0.006786  1
  Ru  Ru34  1  0.997458  0.499620  0.493214  1
  Ru  Ru35  1  0.502162  0.499620  0.493214  1
  Ru  Ru36  1  0.000280  0.000561  0.007663  1
  Ru  Ru37  1  0.000280  0.000561  0.492337  1
