# generated using pymatgen
data_LaPr2Cd3Sn2Au
_symmetry_space_group_name_H-M   'P 1'
_cell_length_a   7.65489500
_cell_length_b   7.67948037
_cell_length_c   4.72002100
_cell_angle_alpha   90.00000000
_cell_angle_beta   90.00000000
_cell_angle_gamma   119.89414082
_symmetry_Int_Tables_number   1
_chemical_formula_structural   LaPr2Cd3Sn2Au
_chemical_formula_sum   'La1 Pr2 Cd3 Sn2 Au1'
_cell_volume   240.55141306
_cell_formula_units_Z   1
loop_
 _symmetry_equiv_pos_site_id
 _symmetry_equiv_pos_as_xyz
  1  'x, y, z'
loop_
 _atom_site_type_symbol
 _atom_site_label
 _atom_site_symmetry_multiplicity
 _atom_site_fract_x
 _atom_site_fract_y
 _atom_site_fract_z
 _atom_site_occupancy
  La  La0  1  0.593982  0.000000  0.000000  1
  Pr  Pr1  1  0.999403  0.595536  0.000000  1
  Pr  Pr2  1  0.403868  0.404464  0.000000  1
  Cd  Cd3  1  0.237007  0.000000  0.500000  1
  Cd  Cd4  1  0.001657  0.238633  0.500000  1
  Cd  Cd5  1  0.763024  0.761367  0.500000  1
  Sn  Sn6  1  0.332051  0.664163  0.500000  1
  Sn  Sn7  1  0.667890  0.335837  0.500000  1
  Au  Au8  1  0.001117  0.000000  0.000000  1
