# generated using pymatgen
data_AcTb2SbO7
_symmetry_space_group_name_H-M   'P 1'
_cell_length_a   6.56643000
_cell_length_b   6.56643108
_cell_length_c   7.68021000
_cell_angle_alpha   90.00000000
_cell_angle_beta   90.00000000
_cell_angle_gamma   108.92975170
_symmetry_Int_Tables_number   1
_chemical_formula_structural   AcTb2SbO7
_chemical_formula_sum   'Ac2 Tb4 Sb2 O14'
_cell_volume   313.24550658
_cell_formula_units_Z   2
loop_
 _symmetry_equiv_pos_site_id
 _symmetry_equiv_pos_as_xyz
  1  'x, y, z'
loop_
 _atom_site_type_symbol
 _atom_site_label
 _atom_site_symmetry_multiplicity
 _atom_site_fract_x
 _atom_site_fract_y
 _atom_site_fract_z
 _atom_site_occupancy
  Ac  Ac0  1  0.500130  0.500130  0.500000  1
  Ac  Ac1  1  0.499870  0.499870  0.000000  1
  Tb  Tb2  1  0.468229  0.999501  0.249936  1
  Tb  Tb3  1  0.000499  0.531771  0.250064  1
  Tb  Tb4  1  0.531771  0.000499  0.749936  1
  Tb  Tb5  1  0.999501  0.468229  0.750064  1
  Sb  Sb6  1  0.000073  0.000073  0.500000  1
  Sb  Sb7  1  0.999927  0.999927  0.000000  1
  O  O8  1  0.317414  0.063579  0.529514  1
  O  O9  1  0.936421  0.682586  0.970486  1
  O  O10  1  0.682586  0.936421  0.029514  1
  O  O11  1  0.063579  0.317414  0.470486  1
  O  O12  1  0.936620  0.682840  0.529724  1
  O  O13  1  0.317160  0.063380  0.970276  1
  O  O14  1  0.063380  0.317160  0.029724  1
  O  O15  1  0.682840  0.936620  0.470276  1
  O  O16  1  0.643835  0.356165  0.250000  1
  O  O17  1  0.356165  0.643835  0.750000  1
  O  O18  1  0.647016  0.352984  0.750000  1
  O  O19  1  0.352984  0.647016  0.250000  1
  O  O20  1  0.066149  0.933851  0.250000  1
  O  O21  1  0.933851  0.066149  0.750000  1
