# generated using pymatgen
data_Rb4UAsBr12
_symmetry_space_group_name_H-M   'P 1'
_cell_length_a   7.78100900
_cell_length_b   7.78100900
_cell_length_c   11.39611900
_cell_angle_alpha   90.00000000
_cell_angle_beta   90.00000000
_cell_angle_gamma   90.00000000
_symmetry_Int_Tables_number   1
_chemical_formula_structural   Rb4UAsBr12
_chemical_formula_sum   'Rb4 U1 As1 Br12'
_cell_volume   689.96778041
_cell_formula_units_Z   1
loop_
 _symmetry_equiv_pos_site_id
 _symmetry_equiv_pos_as_xyz
  1  'x, y, z'
loop_
 _atom_site_type_symbol
 _atom_site_label
 _atom_site_symmetry_multiplicity
 _atom_site_fract_x
 _atom_site_fract_y
 _atom_site_fract_z
 _atom_site_occupancy
  Rb  Rb0  1  0.500000  0.000000  0.793311  1
  Rb  Rb1  1  0.500000  0.000000  0.206689  1
  Rb  Rb2  1  0.000000  0.500000  0.206689  1
  Rb  Rb3  1  0.000000  0.500000  0.793311  1
  U  U4  1  0.500000  0.500000  0.500000  1
  As  As5  1  0.000000  0.000000  0.000000  1
  Br  Br6  1  0.766503  0.254398  0.000000  1
  Br  Br7  1  0.233497  0.745602  0.000000  1
  Br  Br8  1  0.500000  0.500000  0.261443  1
  Br  Br9  1  0.292251  0.223102  0.500000  1
  Br  Br10  1  0.254398  0.233497  0.000000  1
  Br  Br11  1  0.776898  0.292251  0.500000  1
  Br  Br12  1  0.000000  0.000000  0.235827  1
  Br  Br13  1  0.707749  0.776898  0.500000  1
  Br  Br14  1  0.223102  0.707749  0.500000  1
  Br  Br15  1  0.500000  0.500000  0.738557  1
  Br  Br16  1  0.745602  0.766503  0.000000  1
  Br  Br17  1  0.000000  0.000000  0.764173  1
