# generated using pymatgen
data_SrPa2TlCl12
_symmetry_space_group_name_H-M   'P 1'
_cell_length_a   6.93173400
_cell_length_b   6.93173400
_cell_length_c   11.19654900
_cell_angle_alpha   90.00000000
_cell_angle_beta   90.00000000
_cell_angle_gamma   90.00000000
_symmetry_Int_Tables_number   1
_chemical_formula_structural   SrPa2TlCl12
_chemical_formula_sum   'Sr1 Pa2 Tl1 Cl12'
_cell_volume   537.98226908
_cell_formula_units_Z   1
loop_
 _symmetry_equiv_pos_site_id
 _symmetry_equiv_pos_as_xyz
  1  'x, y, z'
loop_
 _atom_site_type_symbol
 _atom_site_label
 _atom_site_symmetry_multiplicity
 _atom_site_fract_x
 _atom_site_fract_y
 _atom_site_fract_z
 _atom_site_occupancy
  Sr  Sr0  1  0.000000  0.000000  0.750000  1
  Pa  Pa1  1  0.500000  0.000000  0.503690  1
  Pa  Pa2  1  0.000000  0.500000  0.996310  1
  Tl  Tl3  1  0.000000  0.000000  0.250000  1
  Cl  Cl4  1  0.797793  0.181151  0.982149  1
  Cl  Cl5  1  0.818849  0.797793  0.517851  1
  Cl  Cl6  1  0.181151  0.202207  0.517851  1
  Cl  Cl7  1  0.202207  0.818849  0.982149  1
  Cl  Cl8  1  0.224539  0.363061  0.157247  1
  Cl  Cl9  1  0.661746  0.217644  0.667343  1
  Cl  Cl10  1  0.338254  0.782356  0.667343  1
  Cl  Cl11  1  0.775461  0.636939  0.157247  1
  Cl  Cl12  1  0.782356  0.661746  0.832657  1
  Cl  Cl13  1  0.363061  0.775461  0.342753  1
  Cl  Cl14  1  0.636939  0.224539  0.342753  1
  Cl  Cl15  1  0.217644  0.338254  0.832657  1
