# generated using pymatgen
data_YbY15(LuIr3)4
_symmetry_space_group_name_H-M   'P 1'
_cell_length_a   10.86728654
_cell_length_b   10.88221966
_cell_length_c   6.36260485
_cell_angle_alpha   90.01857748
_cell_angle_beta   90.28610553
_cell_angle_gamma   89.74677433
_symmetry_Int_Tables_number   1
_chemical_formula_structural   YbY15(LuIr3)4
_chemical_formula_sum   'Yb1 Y15 Lu4 Ir12'
_cell_volume   752.42615333
_cell_formula_units_Z   1
loop_
 _symmetry_equiv_pos_site_id
 _symmetry_equiv_pos_as_xyz
  1  'x, y, z'
loop_
 _atom_site_type_symbol
 _atom_site_label
 _atom_site_symmetry_multiplicity
 _atom_site_fract_x
 _atom_site_fract_y
 _atom_site_fract_z
 _atom_site_occupancy
  Yb  Yb0  1  0.289151  0.088416  0.376870  1
  Y  Y1  1  0.290025  0.912326  0.879342  1
  Y  Y2  1  0.709215  0.085852  0.879857  1
  Y  Y3  1  0.710535  0.912907  0.380168  1
  Y  Y4  1  0.587735  0.791046  0.878552  1
  Y  Y5  1  0.585226  0.210025  0.379754  1
  Y  Y6  1  0.411588  0.792122  0.378654  1
  Y  Y7  1  0.412815  0.209546  0.880852  1
  Y  Y8  1  0.210479  0.412710  0.622770  1
  Y  Y9  1  0.210626  0.587244  0.121127  1
  Y  Y10  1  0.789722  0.411747  0.120911  1
  Y  Y11  1  0.790054  0.587093  0.620414  1
  Y  Y12  1  0.912986  0.709823  0.120750  1
  Y  Y13  1  0.912161  0.289179  0.622413  1
  Y  Y14  1  0.087253  0.709226  0.620580  1
  Y  Y15  1  0.088618  0.289479  0.121221  1
  Lu  Lu16  1  0.002419  0.999827  0.499499  1
  Lu  Lu17  1  0.999180  0.000351  0.999271  1
  Lu  Lu18  1  0.500257  0.500885  0.998633  1
  Lu  Lu19  1  0.499714  0.501415  0.498367  1
  Ir  Ir20  1  0.850396  0.150258  0.251169  1
  Ir  Ir21  1  0.851342  0.849709  0.748586  1
  Ir  Ir22  1  0.149152  0.150593  0.756062  1
  Ir  Ir23  1  0.147381  0.845080  0.245564  1
  Ir  Ir24  1  0.649269  0.349415  0.749713  1
  Ir  Ir25  1  0.649781  0.650842  0.250212  1
  Ir  Ir26  1  0.350542  0.354305  0.247318  1
  Ir  Ir27  1  0.349492  0.651302  0.748732  1
  Ir  Ir28  1  0.501137  0.999587  0.125369  1
  Ir  Ir29  1  0.501558  0.999416  0.625820  1
  Ir  Ir30  1  0.000098  0.499347  0.875805  1
  Ir  Ir31  1  0.000094  0.498928  0.375644  1
