# generated using pymatgen
data_Zn22FeNiIr
_symmetry_space_group_name_H-M   'P 1'
_cell_length_a   7.72855899
_cell_length_b   7.72856034
_cell_length_c   7.73252090
_cell_angle_alpha   71.87355130
_cell_angle_beta   71.87355907
_cell_angle_gamma   58.08198472
_symmetry_Int_Tables_number   1
_chemical_formula_structural   Zn22FeNiIr
_chemical_formula_sum   'Zn22 Fe1 Ni1 Ir1'
_cell_volume   366.37403543
_cell_formula_units_Z   1
loop_
 _symmetry_equiv_pos_site_id
 _symmetry_equiv_pos_as_xyz
  1  'x, y, z'
loop_
 _atom_site_type_symbol
 _atom_site_label
 _atom_site_symmetry_multiplicity
 _atom_site_fract_x
 _atom_site_fract_y
 _atom_site_fract_z
 _atom_site_occupancy
  Zn  Zn0  1  0.335527  0.746882  0.317130  1
  Zn  Zn1  1  0.656654  0.257020  0.689946  1
  Zn  Zn2  1  0.257020  0.656654  0.689946  1
  Zn  Zn3  1  0.746882  0.335527  0.317130  1
  Zn  Zn4  1  0.675956  0.321454  0.999605  1
  Zn  Zn5  1  0.321454  0.675956  0.999605  1
  Zn  Zn6  1  0.833118  0.833118  0.777070  1
  Zn  Zn7  1  0.169586  0.169586  0.216598  1
  Zn  Zn8  1  0.976602  0.976602  0.176850  1
  Zn  Zn9  1  0.022704  0.022704  0.824352  1
  Zn  Zn10  1  0.349458  0.349458  0.274329  1
  Zn  Zn11  1  0.648635  0.648635  0.720533  1
  Zn  Zn12  1  0.687317  0.687317  0.376108  1
  Zn  Zn13  1  0.315128  0.315128  0.622453  1
  Zn  Zn14  1  0.660750  0.024588  0.462973  1
  Zn  Zn15  1  0.336242  0.977275  0.537552  1
  Zn  Zn16  1  0.977275  0.336242  0.537552  1
  Zn  Zn17  1  0.024588  0.660750  0.462973  1
  Zn  Zn18  1  0.614152  0.005350  0.099205  1
  Zn  Zn19  1  0.375689  0.009099  0.899997  1
  Zn  Zn20  1  0.009099  0.375689  0.899997  1
  Zn  Zn21  1  0.005350  0.614152  0.099205  1
  Fe  Fe22  1  0.000354  0.000354  0.499889  1
  Ni  Ni23  1  0.343316  0.343316  0.943746  1
  Ir  Ir24  1  0.657143  0.657143  0.055255  1
