# generated using pymatgen
data_Nd3Y(Lu3Pt4)2
_symmetry_space_group_name_H-M   'P 1'
_cell_length_a   7.53919600
_cell_length_b   7.56681837
_cell_length_c   14.53849474
_cell_angle_alpha   90.03618387
_cell_angle_beta   90.00000000
_cell_angle_gamma   90.00000000
_symmetry_Int_Tables_number   1
_chemical_formula_structural   Nd3Y(Lu3Pt4)2
_chemical_formula_sum   'Nd6 Y2 Lu12 Pt16'
_cell_volume   829.38791038
_cell_formula_units_Z   2
loop_
 _symmetry_equiv_pos_site_id
 _symmetry_equiv_pos_as_xyz
  1  'x, y, z'
loop_
 _atom_site_type_symbol
 _atom_site_label
 _atom_site_symmetry_multiplicity
 _atom_site_fract_x
 _atom_site_fract_y
 _atom_site_fract_z
 _atom_site_occupancy
  Nd  Nd0  1  0.999110  0.823421  0.405659  1
  Nd  Nd1  1  0.499110  0.676579  0.094341  1
  Nd  Nd2  1  0.501540  0.326894  0.593400  1
  Nd  Nd3  1  0.001540  0.173106  0.906600  1
  Nd  Nd4  1  0.001652  0.175963  0.594729  1
  Nd  Nd5  1  0.501652  0.324037  0.905271  1
  Y  Y6  1  0.498211  0.677508  0.402960  1
  Y  Y7  1  0.998211  0.822492  0.097040  1
  Lu  Lu8  1  0.679087  0.993826  0.249881  1
  Lu  Lu9  1  0.179087  0.506174  0.250119  1
  Lu  Lu10  1  0.821956  0.494207  0.749919  1
  Lu  Lu11  1  0.321956  0.005793  0.750081  1
  Lu  Lu12  1  0.655492  0.832561  0.621638  1
  Lu  Lu13  1  0.155492  0.667439  0.878362  1
  Lu  Lu14  1  0.841029  0.334477  0.377077  1
  Lu  Lu15  1  0.341029  0.165523  0.122923  1
  Lu  Lu16  1  0.342506  0.165733  0.376290  1
  Lu  Lu17  1  0.842506  0.334267  0.123710  1
  Lu  Lu18  1  0.158261  0.665305  0.623008  1
  Lu  Lu19  1  0.658261  0.834695  0.876992  1
  Pt  Pt20  1  0.813239  0.638925  0.249426  1
  Pt  Pt21  1  0.313239  0.861075  0.250574  1
  Pt  Pt22  1  0.687218  0.136533  0.749641  1
  Pt  Pt23  1  0.187218  0.363467  0.750359  1
  Pt  Pt24  1  0.544485  0.375624  0.250653  1
  Pt  Pt25  1  0.044485  0.124376  0.249347  1
  Pt  Pt26  1  0.954418  0.872502  0.749606  1
  Pt  Pt27  1  0.454418  0.627498  0.750394  1
  Pt  Pt28  1  0.822593  0.539946  0.541803  1
  Pt  Pt29  1  0.322593  0.960054  0.958197  1
  Pt  Pt30  1  0.674186  0.034244  0.454731  1
  Pt  Pt31  1  0.174186  0.465756  0.045269  1
  Pt  Pt32  1  0.181989  0.464516  0.455509  1
  Pt  Pt33  1  0.681989  0.035484  0.044491  1
  Pt  Pt34  1  0.323027  0.958762  0.542063  1
  Pt  Pt35  1  0.823027  0.541238  0.957937  1
