# generated using pymatgen
data_Cs2Ac2MnZnTe6
_symmetry_space_group_name_H-M   'P 1'
_cell_length_a   4.72864800
_cell_length_b   8.88721411
_cell_length_c   12.66248700
_cell_angle_alpha   90.00000000
_cell_angle_beta   90.00000000
_cell_angle_gamma   74.57144467
_symmetry_Int_Tables_number   1
_chemical_formula_structural   Cs2Ac2MnZnTe6
_chemical_formula_sum   'Cs2 Ac2 Mn1 Zn1 Te6'
_cell_volume   512.95820107
_cell_formula_units_Z   1
loop_
 _symmetry_equiv_pos_site_id
 _symmetry_equiv_pos_as_xyz
  1  'x, y, z'
loop_
 _atom_site_type_symbol
 _atom_site_label
 _atom_site_symmetry_multiplicity
 _atom_site_fract_x
 _atom_site_fract_y
 _atom_site_fract_z
 _atom_site_occupancy
  Cs  Cs0  1  0.743908  0.512181  0.250000  1
  Cs  Cs1  1  0.256429  0.487144  0.750000  1
  Ac  Ac2  1  0.999589  0.000823  0.998335  1
  Ac  Ac3  1  0.999589  0.000823  0.501665  1
  Mn  Mn4  1  0.462370  0.075259  0.250000  1
  Zn  Zn5  1  0.540204  0.919592  0.750000  1
  Te  Te6  1  0.374672  0.250657  0.072464  1
  Te  Te7  1  0.056163  0.887676  0.250000  1
  Te  Te8  1  0.374672  0.250657  0.427536  1
  Te  Te9  1  0.624909  0.750179  0.573731  1
  Te  Te10  1  0.942583  0.114831  0.750000  1
  Te  Te11  1  0.624909  0.750179  0.926269  1
