# generated using pymatgen
data_BaZn2Au5
_symmetry_space_group_name_H-M   'P 1'
_cell_length_a   7.35089200
_cell_length_b   9.05897500
_cell_length_c   10.27152200
_cell_angle_alpha   90.00000000
_cell_angle_beta   90.00000000
_cell_angle_gamma   90.00000000
_symmetry_Int_Tables_number   1
_chemical_formula_structural   BaZn2Au5
_chemical_formula_sum   'Ba4 Zn8 Au20'
_cell_volume   683.99653854
_cell_formula_units_Z   4
loop_
 _symmetry_equiv_pos_site_id
 _symmetry_equiv_pos_as_xyz
  1  'x, y, z'
loop_
 _atom_site_type_symbol
 _atom_site_label
 _atom_site_symmetry_multiplicity
 _atom_site_fract_x
 _atom_site_fract_y
 _atom_site_fract_z
 _atom_site_occupancy
  Ba  Ba0  1  0.250000  0.250165  0.118491  1
  Ba  Ba1  1  0.250000  0.750165  0.381509  1
  Ba  Ba2  1  0.750000  0.749835  0.881509  1
  Ba  Ba3  1  0.750000  0.249835  0.618491  1
  Zn  Zn4  1  0.250000  0.062769  0.616280  1
  Zn  Zn5  1  0.250000  0.562769  0.883720  1
  Zn  Zn6  1  0.750000  0.937231  0.383720  1
  Zn  Zn7  1  0.750000  0.437231  0.116280  1
  Zn  Zn8  1  0.250000  0.351560  0.482806  1
  Zn  Zn9  1  0.250000  0.851560  0.017194  1
  Zn  Zn10  1  0.750000  0.648440  0.517194  1
  Zn  Zn11  1  0.750000  0.148440  0.982806  1
  Au  Au12  1  0.056965  0.104364  0.394583  1
  Au  Au13  1  0.443035  0.604364  0.105417  1
  Au  Au14  1  0.556965  0.895636  0.605417  1
  Au  Au15  1  0.943035  0.395636  0.894583  1
  Au  Au16  1  0.943035  0.895636  0.605417  1
  Au  Au17  1  0.556965  0.395636  0.894583  1
  Au  Au18  1  0.443035  0.104364  0.394583  1
  Au  Au19  1  0.056965  0.604364  0.105417  1
  Au  Au20  1  0.039340  0.060107  0.856241  1
  Au  Au21  1  0.460660  0.560107  0.643759  1
  Au  Au22  1  0.539340  0.939893  0.143759  1
  Au  Au23  1  0.960660  0.439893  0.356241  1
  Au  Au24  1  0.960660  0.939893  0.143759  1
  Au  Au25  1  0.539340  0.439893  0.356241  1
  Au  Au26  1  0.460660  0.060107  0.856241  1
  Au  Au27  1  0.039340  0.560107  0.643759  1
  Au  Au28  1  0.250000  0.309695  0.741230  1
  Au  Au29  1  0.250000  0.809695  0.758770  1
  Au  Au30  1  0.750000  0.690305  0.258770  1
  Au  Au31  1  0.750000  0.190305  0.241230  1
