# generated using pymatgen
data_TbY7(ReC2)4
_symmetry_space_group_name_H-M   'P 1'
_cell_length_a   5.13019400
_cell_length_b   6.60388687
_cell_length_c   9.91236531
_cell_angle_alpha   89.94105977
_cell_angle_beta   90.00000000
_cell_angle_gamma   90.00000000
_symmetry_Int_Tables_number   1
_chemical_formula_structural   TbY7(ReC2)4
_chemical_formula_sum   'Tb1 Y7 Re4 C8'
_cell_volume   335.82303549
_cell_formula_units_Z   1
loop_
 _symmetry_equiv_pos_site_id
 _symmetry_equiv_pos_as_xyz
  1  'x, y, z'
loop_
 _atom_site_type_symbol
 _atom_site_label
 _atom_site_symmetry_multiplicity
 _atom_site_fract_x
 _atom_site_fract_y
 _atom_site_fract_z
 _atom_site_occupancy
  Tb  Tb0  1  0.750000  0.532254  0.783788  1
  Y  Y1  1  0.250000  0.967383  0.283436  1
  Y  Y2  1  0.750000  0.679812  0.443597  1
  Y  Y3  1  0.250000  0.820295  0.943726  1
  Y  Y4  1  0.750000  0.180094  0.056470  1
  Y  Y5  1  0.250000  0.320028  0.556272  1
  Y  Y6  1  0.250000  0.467384  0.216461  1
  Y  Y7  1  0.750000  0.032497  0.716427  1
  Re  Re8  1  0.250000  0.278048  0.865091  1
  Re  Re9  1  0.250000  0.778122  0.634842  1
  Re  Re10  1  0.750000  0.221803  0.365080  1
  Re  Re11  1  0.750000  0.722044  0.134864  1
  C  C12  1  0.250000  0.678475  0.452194  1
  C  C13  1  0.250000  0.545142  0.759034  1
  C  C14  1  0.750000  0.454840  0.240839  1
  C  C15  1  0.750000  0.821992  0.952259  1
  C  C16  1  0.250000  0.045072  0.740800  1
  C  C17  1  0.250000  0.178505  0.047885  1
  C  C18  1  0.750000  0.321366  0.547753  1
  C  C19  1  0.750000  0.954844  0.259180  1
