# generated using pymatgen
data_Zr4B14AsIr12
_symmetry_space_group_name_H-M   'P 1'
_cell_length_a   3.50247028
_cell_length_b   7.76074110
_cell_length_c   13.42267403
_cell_angle_alpha   89.95357285
_cell_angle_beta   90.02145931
_cell_angle_gamma   90.02232205
_symmetry_Int_Tables_number   1
_chemical_formula_structural   Zr4B14AsIr12
_chemical_formula_sum   'Zr4 B14 As1 Ir12'
_cell_volume   364.85179925
_cell_formula_units_Z   1
loop_
 _symmetry_equiv_pos_site_id
 _symmetry_equiv_pos_as_xyz
  1  'x, y, z'
loop_
 _atom_site_type_symbol
 _atom_site_label
 _atom_site_symmetry_multiplicity
 _atom_site_fract_x
 _atom_site_fract_y
 _atom_site_fract_z
 _atom_site_occupancy
  Zr  Zr0  1  0.251429  0.498258  0.834670  1
  Zr  Zr1  1  0.252935  0.000993  0.331667  1
  Zr  Zr2  1  0.747065  0.999007  0.668333  1
  Zr  Zr3  1  0.748571  0.501742  0.165330  1
  B  B4  1  0.500000  0.000000  0.000000  1
  B  B5  1  0.000000  0.000000  0.000000  1
  B  B6  1  0.756409  0.326182  0.727420  1
  B  B7  1  0.753779  0.829903  0.220026  1
  B  B8  1  0.751863  0.752996  0.805180  1
  B  B9  1  0.755613  0.247315  0.299238  1
  B  B10  1  0.749491  0.423263  0.974696  1
  B  B11  1  0.759129  0.920565  0.473345  1
  B  B12  1  0.246221  0.170097  0.779974  1
  B  B13  1  0.243591  0.673818  0.272580  1
  B  B14  1  0.244387  0.752685  0.700762  1
  B  B15  1  0.248137  0.247004  0.194820  1
  B  B16  1  0.240871  0.079435  0.526655  1
  B  B17  1  0.250509  0.576737  0.025304  1
  As  As18  1  0.500000  0.500000  0.500000  1
  Ir  Ir19  1  0.745812  0.594783  0.673787  1
  Ir  Ir20  1  0.749434  0.091706  0.163122  1
  Ir  Ir21  1  0.751302  0.704309  0.963962  1
  Ir  Ir22  1  0.743698  0.197069  0.460603  1
  Ir  Ir23  1  0.748395  0.202044  0.874002  1
  Ir  Ir24  1  0.745032  0.710901  0.365497  1
  Ir  Ir25  1  0.250566  0.908294  0.836878  1
  Ir  Ir26  1  0.254188  0.405217  0.326213  1
  Ir  Ir27  1  0.256302  0.802931  0.539397  1
  Ir  Ir28  1  0.248698  0.295691  0.036038  1
  Ir  Ir29  1  0.254968  0.289099  0.634503  1
  Ir  Ir30  1  0.251605  0.797956  0.125998  1
