# generated using pymatgen
data_Tb8Ta7Ti4Si16Mo
_symmetry_space_group_name_H-M   'P 1'
_cell_length_a   7.03972502
_cell_length_b   7.03798463
_cell_length_c   12.99877939
_cell_angle_alpha   89.91018164
_cell_angle_beta   90.02100030
_cell_angle_gamma   89.96458226
_symmetry_Int_Tables_number   1
_chemical_formula_structural   Tb8Ta7Ti4Si16Mo
_chemical_formula_sum   'Tb8 Ta7 Ti4 Si16 Mo1'
_cell_volume   644.02976090
_cell_formula_units_Z   1
loop_
 _symmetry_equiv_pos_site_id
 _symmetry_equiv_pos_as_xyz
  1  'x, y, z'
loop_
 _atom_site_type_symbol
 _atom_site_label
 _atom_site_symmetry_multiplicity
 _atom_site_fract_x
 _atom_site_fract_y
 _atom_site_fract_z
 _atom_site_occupancy
  Tb  Tb0  1  0.341600  0.002228  0.467088  1
  Tb  Tb1  1  0.497763  0.840379  0.718388  1
  Tb  Tb2  1  0.501294  0.158165  0.216347  1
  Tb  Tb3  1  0.840681  0.498112  0.283013  1
  Tb  Tb4  1  0.159124  0.501099  0.782632  1
  Tb  Tb5  1  0.659504  0.997160  0.967747  1
  Tb  Tb6  1  0.002788  0.339917  0.533506  1
  Tb  Tb7  1  0.996462  0.660755  0.030961  1
  Ta  Ta8  1  0.328224  0.329533  0.999576  1
  Ta  Ta9  1  0.172670  0.826647  0.249356  1
  Ta  Ta10  1  0.828048  0.172353  0.750365  1
  Ta  Ta11  1  0.672121  0.670571  0.500026  1
  Ta  Ta12  1  0.490141  0.655885  0.123590  1
  Ta  Ta13  1  0.506467  0.346047  0.626307  1
  Ta  Ta14  1  0.653489  0.491166  0.875036  1
  Ti  Ti15  1  0.345796  0.507759  0.375799  1
  Ti  Ti16  1  0.845055  0.992159  0.374290  1
  Ti  Ti17  1  0.006957  0.154223  0.125348  1
  Ti  Ti18  1  0.990272  0.844403  0.625376  1
  Si  Si19  1  0.201513  0.129569  0.684421  1
  Si  Si20  1  0.367005  0.706071  0.932033  1
  Si  Si21  1  0.631739  0.297123  0.434481  1
  Si  Si22  1  0.704332  0.367154  0.067157  1
  Si  Si23  1  0.297961  0.633759  0.565909  1
  Si  Si24  1  0.799130  0.868906  0.184775  1
  Si  Si25  1  0.131379  0.200894  0.315422  1
  Si  Si26  1  0.871289  0.800715  0.816632  1
  Si  Si27  1  0.290583  0.957148  0.063140  1
  Si  Si28  1  0.545732  0.792362  0.314604  1
  Si  Si29  1  0.451872  0.205173  0.814223  1
  Si  Si30  1  0.795165  0.547930  0.685296  1
  Si  Si31  1  0.205626  0.453618  0.186465  1
  Si  Si32  1  0.710248  0.044822  0.563112  1
  Si  Si33  1  0.956933  0.289368  0.937098  1
  Si  Si34  1  0.045298  0.707807  0.435606  1
  Mo  Mo35  1  0.155738  0.009021  0.874876  1
