# generated using pymatgen
data_CaPa(TiPd6)2
_symmetry_space_group_name_H-M   'P 1'
_cell_length_a   5.71656100
_cell_length_b   5.71656157
_cell_length_c   9.26974800
_cell_angle_alpha   90.00000000
_cell_angle_beta   90.00000000
_cell_angle_gamma   119.99999089
_symmetry_Int_Tables_number   1
_chemical_formula_structural   CaPa(TiPd6)2
_chemical_formula_sum   'Ca1 Pa1 Ti2 Pd12'
_cell_volume   262.34230335
_cell_formula_units_Z   1
loop_
 _symmetry_equiv_pos_site_id
 _symmetry_equiv_pos_as_xyz
  1  'x, y, z'
loop_
 _atom_site_type_symbol
 _atom_site_label
 _atom_site_symmetry_multiplicity
 _atom_site_fract_x
 _atom_site_fract_y
 _atom_site_fract_z
 _atom_site_occupancy
  Ca  Ca0  1  0.333333  0.666667  0.250000  1
  Pa  Pa1  1  0.666667  0.333333  0.750000  1
  Ti  Ti2  1  0.000000  0.000000  0.487930  1
  Ti  Ti3  1  0.000000  0.000000  0.012070  1
  Pd  Pd4  1  0.501832  0.498168  0.502936  1
  Pd  Pd5  1  0.501832  0.003664  0.502936  1
  Pd  Pd6  1  0.996336  0.498168  0.502936  1
  Pd  Pd7  1  0.501832  0.498168  0.997064  1
  Pd  Pd8  1  0.501832  0.003664  0.997064  1
  Pd  Pd9  1  0.996336  0.498168  0.997064  1
  Pd  Pd10  1  0.832888  0.665777  0.250000  1
  Pd  Pd11  1  0.334223  0.167112  0.250000  1
  Pd  Pd12  1  0.832888  0.167112  0.250000  1
  Pd  Pd13  1  0.166213  0.332426  0.750000  1
  Pd  Pd14  1  0.667574  0.833787  0.750000  1
  Pd  Pd15  1  0.166213  0.833787  0.750000  1
