# generated using pymatgen
data_Nd2Y6Cd2IrPd
_symmetry_space_group_name_H-M   'P 1'
_cell_length_a   9.78769207
_cell_length_b   9.78769246
_cell_length_c   9.76573700
_cell_angle_alpha   60.07417240
_cell_angle_beta   60.07417108
_cell_angle_gamma   60.23338247
_symmetry_Int_Tables_number   1
_chemical_formula_structural   Nd2Y6Cd2IrPd
_chemical_formula_sum   'Nd4 Y12 Cd4 Ir2 Pd2'
_cell_volume   663.43517396
_cell_formula_units_Z   2
loop_
 _symmetry_equiv_pos_site_id
 _symmetry_equiv_pos_as_xyz
  1  'x, y, z'
loop_
 _atom_site_type_symbol
 _atom_site_label
 _atom_site_symmetry_multiplicity
 _atom_site_fract_x
 _atom_site_fract_y
 _atom_site_fract_z
 _atom_site_occupancy
  Nd  Nd0  1  0.352999  0.352999  0.347762  1
  Nd  Nd1  1  0.352999  0.352999  0.946241  1
  Nd  Nd2  1  0.358864  0.936934  0.352101  1
  Nd  Nd3  1  0.936934  0.358864  0.352101  1
  Y  Y4  1  0.807600  0.188386  0.187452  1
  Y  Y5  1  0.188386  0.807600  0.816561  1
  Y  Y6  1  0.188386  0.807600  0.187452  1
  Y  Y7  1  0.807600  0.188386  0.816561  1
  Y  Y8  1  0.189384  0.189384  0.810616  1
  Y  Y9  1  0.813165  0.813165  0.186835  1
  Y  Y10  1  0.936438  0.568277  0.561792  1
  Y  Y11  1  0.568277  0.936438  0.933494  1
  Y  Y12  1  0.568277  0.936438  0.561792  1
  Y  Y13  1  0.936438  0.568277  0.933494  1
  Y  Y14  1  0.565351  0.565351  0.934649  1
  Y  Y15  1  0.935252  0.935252  0.564748  1
  Cd  Cd16  1  0.582028  0.582028  0.584394  1
  Cd  Cd17  1  0.582028  0.582028  0.251550  1
  Cd  Cd18  1  0.580527  0.253472  0.583001  1
  Cd  Cd19  1  0.253472  0.580527  0.583001  1
  Ir  Ir20  1  0.139635  0.574948  0.142709  1
  Ir  Ir21  1  0.574948  0.139635  0.142709  1
  Pd  Pd22  1  0.140505  0.140505  0.144817  1
  Pd  Pd23  1  0.140505  0.140505  0.574172  1
