# generated using pymatgen
data_Dy16Ho4(Ir3Pt)3
_symmetry_space_group_name_H-M   'P 1'
_cell_length_a   10.95720890
_cell_length_b   10.95720929
_cell_length_c   6.33492600
_cell_angle_alpha   89.98021223
_cell_angle_beta   89.98020789
_cell_angle_gamma   90.20595950
_symmetry_Int_Tables_number   1
_chemical_formula_structural   Dy16Ho4(Ir3Pt)3
_chemical_formula_sum   'Dy16 Ho4 Ir9 Pt3'
_cell_volume   760.56894210
_cell_formula_units_Z   1
loop_
 _symmetry_equiv_pos_site_id
 _symmetry_equiv_pos_as_xyz
  1  'x, y, z'
loop_
 _atom_site_type_symbol
 _atom_site_label
 _atom_site_symmetry_multiplicity
 _atom_site_fract_x
 _atom_site_fract_y
 _atom_site_fract_z
 _atom_site_occupancy
  Dy  Dy0  1  0.293527  0.086849  0.371833  1
  Dy  Dy1  1  0.292796  0.908598  0.876872  1
  Dy  Dy2  1  0.705479  0.089982  0.873824  1
  Dy  Dy3  1  0.704616  0.909883  0.373283  1
  Dy  Dy4  1  0.585164  0.790816  0.878281  1
  Dy  Dy5  1  0.585527  0.209212  0.378239  1
  Dy  Dy6  1  0.410853  0.791056  0.378085  1
  Dy  Dy7  1  0.414204  0.209236  0.878172  1
  Dy  Dy8  1  0.209184  0.414836  0.621719  1
  Dy  Dy9  1  0.208944  0.589147  0.121915  1
  Dy  Dy10  1  0.790788  0.414473  0.121761  1
  Dy  Dy11  1  0.790764  0.585796  0.621828  1
  Dy  Dy12  1  0.913151  0.706473  0.128167  1
  Dy  Dy13  1  0.910018  0.294521  0.626176  1
  Dy  Dy14  1  0.091402  0.707204  0.623128  1
  Dy  Dy15  1  0.090117  0.295384  0.126717  1
  Ho  Ho16  1  0.001215  0.998064  0.499515  1
  Ho  Ho17  1  0.001936  0.998785  0.000485  1
  Ho  Ho18  1  0.499765  0.499897  0.000419  1
  Ho  Ho19  1  0.500103  0.500235  0.499581  1
  Ir  Ir20  1  0.152123  0.847877  0.250000  1
  Ir  Ir21  1  0.654282  0.345718  0.750000  1
  Ir  Ir22  1  0.654671  0.654312  0.249591  1
  Ir  Ir23  1  0.345688  0.345329  0.250409  1
  Ir  Ir24  1  0.346585  0.653415  0.750000  1
  Ir  Ir25  1  0.500463  0.000064  0.122417  1
  Ir  Ir26  1  0.500282  0.000289  0.623603  1
  Ir  Ir27  1  0.999711  0.499718  0.876397  1
  Ir  Ir28  1  0.999936  0.499537  0.377583  1
  Pt  Pt29  1  0.847172  0.152828  0.250000  1
  Pt  Pt30  1  0.845916  0.846383  0.749898  1
  Pt  Pt31  1  0.153617  0.154084  0.750102  1
