# generated using pymatgen
data_Ba3InHg4Bi3
_symmetry_space_group_name_H-M   'P 1'
_cell_length_a   10.04576242
_cell_length_b   10.04576339
_cell_length_c   10.04576301
_cell_angle_alpha   149.62747379
_cell_angle_beta   132.54049381
_cell_angle_gamma   57.39343107
_symmetry_Int_Tables_number   1
_chemical_formula_structural   Ba3InHg4Bi3
_chemical_formula_sum   'Ba3 In1 Hg4 Bi3'
_cell_volume   374.98054419
_cell_formula_units_Z   1
loop_
 _symmetry_equiv_pos_site_id
 _symmetry_equiv_pos_as_xyz
  1  'x, y, z'
loop_
 _atom_site_type_symbol
 _atom_site_label
 _atom_site_symmetry_multiplicity
 _atom_site_fract_x
 _atom_site_fract_y
 _atom_site_fract_z
 _atom_site_occupancy
  Ba  Ba0  1  0.631726  0.131726  0.500000  1
  Ba  Ba1  1  0.366036  0.866036  0.500000  1
  Ba  Ba2  1  0.001440  0.001440  0.000000  1
  In  In3  1  0.787536  0.787536  0.000000  1
  Hg  Hg4  1  0.962561  0.674742  0.287820  1
  Hg  Hg5  1  0.022370  0.328524  0.693846  1
  Hg  Hg6  1  0.634678  0.328524  0.306154  1
  Hg  Hg7  1  0.386922  0.674742  0.712180  1
  Bi  Bi8  1  0.207125  0.207125  0.000000  1
  Bi  Bi9  1  0.691839  0.499802  0.192037  1
  Bi  Bi10  1  0.307765  0.499802  0.807963  1
