# generated using pymatgen
data_LaDyHf2(NiAs)4
_symmetry_space_group_name_H-M   'P 1'
_cell_length_a   4.01462100
_cell_length_b   4.01462008
_cell_length_c   15.09754100
_cell_angle_alpha   90.00000000
_cell_angle_beta   90.00000000
_cell_angle_gamma   119.99999933
_symmetry_Int_Tables_number   1
_chemical_formula_structural   LaDyHf2(NiAs)4
_chemical_formula_sum   'La1 Dy1 Hf2 Ni4 As4'
_cell_volume   210.72975241
_cell_formula_units_Z   1
loop_
 _symmetry_equiv_pos_site_id
 _symmetry_equiv_pos_as_xyz
  1  'x, y, z'
loop_
 _atom_site_type_symbol
 _atom_site_label
 _atom_site_symmetry_multiplicity
 _atom_site_fract_x
 _atom_site_fract_y
 _atom_site_fract_z
 _atom_site_occupancy
  La  La0  1  0.000000  0.000000  0.000000  1
  Dy  Dy1  1  0.000000  0.000000  0.500000  1
  Hf  Hf2  1  0.000000  0.000000  0.254581  1
  Hf  Hf3  1  0.000000  0.000000  0.745419  1
  Ni  Ni4  1  0.333333  0.666667  0.167035  1
  Ni  Ni5  1  0.666667  0.333333  0.832965  1
  Ni  Ni6  1  0.666667  0.333333  0.652897  1
  Ni  Ni7  1  0.333333  0.666667  0.347103  1
  As  As8  1  0.333333  0.666667  0.619742  1
  As  As9  1  0.666667  0.333333  0.380258  1
  As  As10  1  0.666667  0.333333  0.131638  1
  As  As11  1  0.333333  0.666667  0.868362  1
