# generated using pymatgen
data_NdPa(Co3P2)2
_symmetry_space_group_name_H-M   'P 1'
_cell_length_a   3.76641400
_cell_length_b   10.48151993
_cell_length_c   12.37882576
_cell_angle_alpha   89.80181332
_cell_angle_beta   90.00000000
_cell_angle_gamma   90.00000000
_symmetry_Int_Tables_number   1
_chemical_formula_structural   NdPa(Co3P2)2
_chemical_formula_sum   'Nd3 Pa3 Co18 P12'
_cell_volume   488.68518319
_cell_formula_units_Z   3
loop_
 _symmetry_equiv_pos_site_id
 _symmetry_equiv_pos_as_xyz
  1  'x, y, z'
loop_
 _atom_site_type_symbol
 _atom_site_label
 _atom_site_symmetry_multiplicity
 _atom_site_fract_x
 _atom_site_fract_y
 _atom_site_fract_z
 _atom_site_occupancy
  Nd  Nd0  1  0.000000  0.499746  0.519354  1
  Nd  Nd1  1  0.500000  0.999732  0.481145  1
  Nd  Nd2  1  0.500000  0.814228  0.205310  1
  Pa  Pa3  1  0.500000  0.181249  0.209131  1
  Pa  Pa4  1  0.000000  0.682130  0.792294  1
  Pa  Pa5  1  0.000000  0.318484  0.791622  1
  Co  Co6  1  0.500000  0.498942  0.158050  1
  Co  Co7  1  0.000000  0.001764  0.840149  1
  Co  Co8  1  0.500000  0.499843  0.711375  1
  Co  Co9  1  0.000000  0.011285  0.290564  1
  Co  Co10  1  0.000000  0.498789  0.982360  1
  Co  Co11  1  0.500000  0.001654  0.014731  1
  Co  Co12  1  0.500000  0.332315  0.995802  1
  Co  Co13  1  0.500000  0.665063  0.993220  1
  Co  Co14  1  0.000000  0.167221  0.003035  1
  Co  Co15  1  0.000000  0.833096  0.001144  1
  Co  Co16  1  0.500000  0.299428  0.426211  1
  Co  Co17  1  0.500000  0.702655  0.430346  1
  Co  Co18  1  0.000000  0.202634  0.574710  1
  Co  Co19  1  0.000000  0.797233  0.574836  1
  Co  Co20  1  0.500000  0.876693  0.715952  1
  Co  Co21  1  0.500000  0.122449  0.715369  1
  Co  Co22  1  0.000000  0.617048  0.288202  1
  Co  Co23  1  0.000000  0.376807  0.284507  1
  P  P24  1  0.500000  0.498917  0.886802  1
  P  P25  1  0.000000  0.000158  0.112932  1
  P  P26  1  0.500000  0.501312  0.339351  1
  P  P27  1  0.000000  0.000170  0.660348  1
  P  P28  1  0.500000  0.308901  0.613213  1
  P  P29  1  0.500000  0.690886  0.613907  1
  P  P30  1  0.000000  0.193771  0.388143  1
  P  P31  1  0.000000  0.808917  0.385700  1
  P  P32  1  0.500000  0.847564  0.896689  1
  P  P33  1  0.500000  0.152641  0.895363  1
  P  P34  1  0.000000  0.649080  0.104116  1
  P  P35  1  0.000000  0.347195  0.104019  1
