# generated using pymatgen
data_Tm2B4Ir4Rh
_symmetry_space_group_name_H-M   'P 1'
_cell_length_a   7.49186327
_cell_length_b   6.32423568
_cell_length_c   5.56635970
_cell_angle_alpha   77.82181987
_cell_angle_beta   55.60379699
_cell_angle_gamma   46.66631292
_symmetry_Int_Tables_number   1
_chemical_formula_structural   Tm2B4Ir4Rh
_chemical_formula_sum   'Tm2 B4 Ir4 Rh1'
_cell_volume   151.27471003
_cell_formula_units_Z   1
loop_
 _symmetry_equiv_pos_site_id
 _symmetry_equiv_pos_as_xyz
  1  'x, y, z'
loop_
 _atom_site_type_symbol
 _atom_site_label
 _atom_site_symmetry_multiplicity
 _atom_site_fract_x
 _atom_site_fract_y
 _atom_site_fract_z
 _atom_site_occupancy
  Tm  Tm0  1  0.858895  0.858895  0.141105  1
  Tm  Tm1  1  0.141105  0.141105  0.858895  1
  B  B2  1  0.212153  0.517583  0.483680  1
  B  B3  1  0.787847  0.482417  0.516320  1
  B  B4  1  0.517583  0.212153  0.786584  1
  B  B5  1  0.482417  0.787847  0.213416  1
  Ir  Ir6  1  0.749616  0.749616  0.750384  1
  Ir  Ir7  1  0.250384  0.250384  0.249616  1
  Ir  Ir8  1  0.000000  0.000000  0.500000  1
  Ir  Ir9  1  0.500000  0.500000  0.500000  1
  Rh  Rh10  1  0.500000  0.500000  0.000000  1
