# generated using pymatgen
data_Mn5Si3W4
_symmetry_space_group_name_H-M   'P 1'
_cell_length_a   4.71831000
_cell_length_b   4.76920530
_cell_length_c   7.79106400
_cell_angle_alpha   90.00000000
_cell_angle_beta   90.00000000
_cell_angle_gamma   119.64760800
_symmetry_Int_Tables_number   1
_chemical_formula_structural   Mn5Si3W4
_chemical_formula_sum   'Mn5 Si3 W4'
_cell_volume   152.36707078
_cell_formula_units_Z   1
loop_
 _symmetry_equiv_pos_site_id
 _symmetry_equiv_pos_as_xyz
  1  'x, y, z'
loop_
 _atom_site_type_symbol
 _atom_site_label
 _atom_site_symmetry_multiplicity
 _atom_site_fract_x
 _atom_site_fract_y
 _atom_site_fract_z
 _atom_site_occupancy
  Mn  Mn0  1  0.170524  0.841889  0.250000  1
  Mn  Mn1  1  0.671364  0.841889  0.250000  1
  Mn  Mn2  1  0.341557  0.171795  0.750000  1
  Mn  Mn3  1  0.830237  0.171795  0.750000  1
  Mn  Mn4  1  0.827909  0.655820  0.750000  1
  Si  Si5  1  0.994199  0.988399  0.996139  1
  Si  Si6  1  0.178474  0.356948  0.250000  1
  Si  Si7  1  0.994199  0.988399  0.503861  1
  W  W8  1  0.664896  0.329794  0.060417  1
  W  W9  1  0.664896  0.329794  0.439583  1
  W  W10  1  0.330870  0.661741  0.566509  1
  W  W11  1  0.330870  0.661741  0.933490  1
