# generated using pymatgen
data_CaGaSnPd
_symmetry_space_group_name_H-M   'P 1'
_cell_length_a   5.82056636
_cell_length_b   5.82056657
_cell_length_c   7.22206535
_cell_angle_alpha   90.34788423
_cell_angle_beta   89.65211405
_cell_angle_gamma   135.10768340
_symmetry_Int_Tables_number   1
_chemical_formula_structural   CaGaSnPd
_chemical_formula_sum   'Ca2 Ga2 Sn2 Pd2'
_cell_volume   172.68308084
_cell_formula_units_Z   2
loop_
 _symmetry_equiv_pos_site_id
 _symmetry_equiv_pos_as_xyz
  1  'x, y, z'
loop_
 _atom_site_type_symbol
 _atom_site_label
 _atom_site_symmetry_multiplicity
 _atom_site_fract_x
 _atom_site_fract_y
 _atom_site_fract_z
 _atom_site_occupancy
  Ca  Ca0  1  0.927487  0.072513  0.768124  1
  Ca  Ca1  1  0.072513  0.927487  0.231876  1
  Ga  Ga2  1  0.642092  0.357908  0.949683  1
  Ga  Ga3  1  0.357908  0.642092  0.050317  1
  Sn  Sn4  1  0.360391  0.639609  0.447524  1
  Sn  Sn5  1  0.639609  0.360391  0.552476  1
  Pd  Pd6  1  0.208437  0.791563  0.766169  1
  Pd  Pd7  1  0.791563  0.208437  0.233831  1
