# generated using pymatgen
data_DyHo4Al2Ru3
_symmetry_space_group_name_H-M   'P 1'
_cell_length_a   8.31800464
_cell_length_b   8.31951422
_cell_length_c   8.30507717
_cell_angle_alpha   109.40340070
_cell_angle_beta   109.49395945
_cell_angle_gamma   109.43460133
_symmetry_Int_Tables_number   1
_chemical_formula_structural   DyHo4Al2Ru3
_chemical_formula_sum   'Dy2 Ho8 Al4 Ru6'
_cell_volume   442.86955209
_cell_formula_units_Z   2
loop_
 _symmetry_equiv_pos_site_id
 _symmetry_equiv_pos_as_xyz
  1  'x, y, z'
loop_
 _atom_site_type_symbol
 _atom_site_label
 _atom_site_symmetry_multiplicity
 _atom_site_fract_x
 _atom_site_fract_y
 _atom_site_fract_z
 _atom_site_occupancy
  Dy  Dy0  1  0.474648  0.157810  0.225065  1
  Dy  Dy1  1  0.157822  0.226028  0.476078  1
  Ho  Ho2  1  0.228041  0.477082  0.158410  1
  Ho  Ho3  1  0.406248  0.692947  0.907850  1
  Ho  Ho4  1  0.694426  0.909680  0.409032  1
  Ho  Ho5  1  0.907980  0.406985  0.693931  1
  Ho  Ho6  1  0.656493  0.086414  0.837022  1
  Ho  Ho7  1  0.088573  0.838406  0.657710  1
  Ho  Ho8  1  0.838369  0.658282  0.089094  1
  Ho  Ho9  1  0.622972  0.621719  0.623191  1
  Al  Al10  1  0.410362  0.318940  0.907831  1
  Al  Al11  1  0.316672  0.905524  0.406046  1
  Al  Al12  1  0.906331  0.407368  0.317250  1
  Al  Al13  1  0.996149  0.997905  0.997321  1
  Ru  Ru14  1  0.037760  0.159031  0.786016  1
  Ru  Ru15  1  0.155319  0.783781  0.032942  1
  Ru  Ru16  1  0.782514  0.034219  0.157117  1
  Ru  Ru17  1  0.658198  0.533024  0.282034  1
  Ru  Ru18  1  0.531317  0.278715  0.655782  1
  Ru  Ru19  1  0.279806  0.656142  0.530281  1
