# generated using pymatgen
data_Y7ErSc2(Si3H)2
_symmetry_space_group_name_H-M   'P 1'
_cell_length_a   8.38748900
_cell_length_b   8.38748878
_cell_length_c   6.10852800
_cell_angle_alpha   90.00000000
_cell_angle_beta   90.00000000
_cell_angle_gamma   120.00000483
_symmetry_Int_Tables_number   1
_chemical_formula_structural   Y7ErSc2(Si3H)2
_chemical_formula_sum   'Y7 Er1 Sc2 Si6 H2'
_cell_volume   372.16120144
_cell_formula_units_Z   1
loop_
 _symmetry_equiv_pos_site_id
 _symmetry_equiv_pos_as_xyz
  1  'x, y, z'
loop_
 _atom_site_type_symbol
 _atom_site_label
 _atom_site_symmetry_multiplicity
 _atom_site_fract_x
 _atom_site_fract_y
 _atom_site_fract_z
 _atom_site_occupancy
  Y  Y0  1  0.666667  0.333333  0.500000  1
  Y  Y1  1  0.748073  0.748280  0.754309  1
  Y  Y2  1  0.251720  0.999793  0.754309  1
  Y  Y3  1  0.000207  0.251927  0.754309  1
  Y  Y4  1  0.251720  0.251927  0.245691  1
  Y  Y5  1  0.748073  0.999793  0.245691  1
  Y  Y6  1  0.000207  0.748280  0.245691  1
  Er  Er7  1  0.333333  0.666667  0.500000  1
  Sc  Sc8  1  0.666667  0.333333  0.000000  1
  Sc  Sc9  1  0.333333  0.666667  0.000000  1
  Si  Si10  1  0.392038  0.392630  0.763879  1
  Si  Si11  1  0.607370  0.999408  0.763879  1
  Si  Si12  1  0.000592  0.607962  0.763879  1
  Si  Si13  1  0.607370  0.607962  0.236121  1
  Si  Si14  1  0.392038  0.999408  0.236121  1
  Si  Si15  1  0.000592  0.392630  0.236121  1
  H  H16  1  0.000000  0.000000  0.500000  1
  H  H17  1  0.000000  0.000000  0.000000  1
