# generated using pymatgen
data_Ho5Zr5(Si5Ir2)4
_symmetry_space_group_name_H-M   'P 1'
_cell_length_a   12.51832600
_cell_length_b   12.51832600
_cell_length_c   4.17521200
_cell_angle_alpha   90.00000000
_cell_angle_beta   90.00000000
_cell_angle_gamma   90.00000000
_symmetry_Int_Tables_number   1
_chemical_formula_structural   Ho5Zr5(Si5Ir2)4
_chemical_formula_sum   'Ho5 Zr5 Si20 Ir8'
_cell_volume   654.29115059
_cell_formula_units_Z   1
loop_
 _symmetry_equiv_pos_site_id
 _symmetry_equiv_pos_as_xyz
  1  'x, y, z'
loop_
 _atom_site_type_symbol
 _atom_site_label
 _atom_site_symmetry_multiplicity
 _atom_site_fract_x
 _atom_site_fract_y
 _atom_site_fract_z
 _atom_site_occupancy
  Ho  Ho0  1  0.000000  0.000000  0.000000  1
  Ho  Ho1  1  0.884316  0.384598  0.500000  1
  Ho  Ho2  1  0.115684  0.615402  0.500000  1
  Ho  Ho3  1  0.384598  0.115684  0.500000  1
  Ho  Ho4  1  0.615402  0.884316  0.500000  1
  Zr  Zr5  1  0.500000  0.500000  0.000000  1
  Zr  Zr6  1  0.673987  0.175454  0.500000  1
  Zr  Zr7  1  0.326013  0.824546  0.500000  1
  Zr  Zr8  1  0.175454  0.326013  0.500000  1
  Zr  Zr9  1  0.824546  0.673987  0.500000  1
  Si  Si10  1  0.565976  0.067572  0.000000  1
  Si  Si11  1  0.434024  0.932428  0.000000  1
  Si  Si12  1  0.067572  0.434024  0.000000  1
  Si  Si13  1  0.932428  0.565976  0.000000  1
  Si  Si14  1  0.665323  0.700284  0.000000  1
  Si  Si15  1  0.334677  0.299716  0.000000  1
  Si  Si16  1  0.164489  0.800939  0.000000  1
  Si  Si17  1  0.835511  0.199061  0.000000  1
  Si  Si18  1  0.299716  0.665323  0.000000  1
  Si  Si19  1  0.700284  0.334677  0.000000  1
  Si  Si20  1  0.199061  0.164489  0.000000  1
  Si  Si21  1  0.800939  0.835511  0.000000  1
  Si  Si22  1  0.652497  0.507042  0.500000  1
  Si  Si23  1  0.347503  0.492958  0.500000  1
  Si  Si24  1  0.157188  0.993383  0.500000  1
  Si  Si25  1  0.842812  0.006617  0.500000  1
  Si  Si26  1  0.492958  0.652497  0.500000  1
  Si  Si27  1  0.507042  0.347503  0.500000  1
  Si  Si28  1  0.006617  0.157188  0.500000  1
  Si  Si29  1  0.993383  0.842812  0.500000  1
  Ir  Ir30  1  0.742878  0.520527  0.000000  1
  Ir  Ir31  1  0.257122  0.479473  0.000000  1
  Ir  Ir32  1  0.246149  0.979337  0.000000  1
  Ir  Ir33  1  0.753851  0.020663  0.000000  1
  Ir  Ir34  1  0.479473  0.742878  0.000000  1
  Ir  Ir35  1  0.520527  0.257122  0.000000  1
  Ir  Ir36  1  0.020663  0.246149  0.000000  1
  Ir  Ir37  1  0.979337  0.753851  0.000000  1
