# generated using pymatgen
data_Er7Sn23Rh6
_symmetry_space_group_name_H-M   'P 1'
_cell_length_a   9.83201400
_cell_length_b   9.83201323
_cell_length_c   10.08414200
_cell_angle_alpha   90.00000000
_cell_angle_beta   90.00000000
_cell_angle_gamma   120.00000261
_symmetry_Int_Tables_number   1
_chemical_formula_structural   Er7Sn23Rh6
_chemical_formula_sum   'Er7 Sn23 Rh6'
_cell_volume   844.21782015
_cell_formula_units_Z   1
loop_
 _symmetry_equiv_pos_site_id
 _symmetry_equiv_pos_as_xyz
  1  'x, y, z'
loop_
 _atom_site_type_symbol
 _atom_site_label
 _atom_site_symmetry_multiplicity
 _atom_site_fract_x
 _atom_site_fract_y
 _atom_site_fract_z
 _atom_site_occupancy
  Er  Er0  1  0.480057  0.519943  0.307498  1
  Er  Er1  1  0.519943  0.480057  0.692502  1
  Er  Er2  1  0.480057  0.960116  0.307498  1
  Er  Er3  1  0.519943  0.039884  0.692502  1
  Er  Er4  1  0.039884  0.519943  0.307498  1
  Er  Er5  1  0.960116  0.480057  0.692502  1
  Er  Er6  1  0.000000  0.000000  0.000000  1
  Sn  Sn7  1  0.120225  0.879775  0.281751  1
  Sn  Sn8  1  0.879775  0.120225  0.718249  1
  Sn  Sn9  1  0.120225  0.240449  0.281751  1
  Sn  Sn10  1  0.879775  0.759551  0.718249  1
  Sn  Sn11  1  0.759551  0.879775  0.281751  1
  Sn  Sn12  1  0.240449  0.120225  0.718249  1
  Sn  Sn13  1  0.777448  0.222552  0.456087  1
  Sn  Sn14  1  0.222552  0.777448  0.543913  1
  Sn  Sn15  1  0.777448  0.554895  0.456087  1
  Sn  Sn16  1  0.222552  0.445105  0.543913  1
  Sn  Sn17  1  0.445105  0.222552  0.456087  1
  Sn  Sn18  1  0.554895  0.777448  0.543913  1
  Sn  Sn19  1  0.351079  0.000000  0.000000  1
  Sn  Sn20  1  0.648921  0.000000  0.000000  1
  Sn  Sn21  1  0.000000  0.351079  0.000000  1
  Sn  Sn22  1  0.000000  0.648921  0.000000  1
  Sn  Sn23  1  0.648921  0.648921  0.000000  1
  Sn  Sn24  1  0.351079  0.351079  0.000000  1
  Sn  Sn25  1  0.333333  0.666667  0.124195  1
  Sn  Sn26  1  0.666667  0.333333  0.875805  1
  Sn  Sn27  1  0.333333  0.666667  0.821078  1
  Sn  Sn28  1  0.666667  0.333333  0.178922  1
  Sn  Sn29  1  0.000000  0.000000  0.500000  1
  Rh  Rh30  1  0.831249  0.168751  0.198582  1
  Rh  Rh31  1  0.168751  0.831249  0.801418  1
  Rh  Rh32  1  0.831249  0.662500  0.198582  1
  Rh  Rh33  1  0.168751  0.337500  0.801418  1
  Rh  Rh34  1  0.337500  0.168751  0.198582  1
  Rh  Rh35  1  0.662500  0.831249  0.801418  1
