# generated using pymatgen
data_Ba14ZrAs11
_symmetry_space_group_name_H-M   'P 1'
_cell_length_a   16.99053678
_cell_length_b   16.99053611
_cell_length_c   16.99053700
_cell_angle_alpha   93.57391677
_cell_angle_beta   117.97324988
_cell_angle_gamma   117.94375269
_symmetry_Int_Tables_number   1
_chemical_formula_structural   Ba14ZrAs11
_chemical_formula_sum   'Ba56 Zr4 As44'
_cell_volume   3567.72851691
_cell_formula_units_Z   4
loop_
 _symmetry_equiv_pos_site_id
 _symmetry_equiv_pos_as_xyz
  1  'x, y, z'
loop_
 _atom_site_type_symbol
 _atom_site_label
 _atom_site_symmetry_multiplicity
 _atom_site_fract_x
 _atom_site_fract_y
 _atom_site_fract_z
 _atom_site_occupancy
  Ba  Ba0  1  0.154383  0.750000  0.904383  1
  Ba  Ba1  1  0.034697  0.743692  0.632831  1
  Ba  Ba2  1  0.039231  0.792529  0.406597  1
  Ba  Ba3  1  0.088283  0.517826  0.755845  1
  Ba  Ba4  1  0.356733  0.966557  0.874057  1
  Ba  Ba5  1  0.114068  0.367364  0.906597  1
  Ba  Ba6  1  0.094163  0.128069  0.983443  1
  Ba  Ba7  1  0.144193  0.626920  0.533632  1
  Ba  Ba8  1  0.415404  0.746744  0.981154  1
  Ba  Ba9  1  0.153044  0.904301  0.250850  1
  Ba  Ba10  1  0.464773  0.866715  0.755262  1
  Ba  Ba11  1  0.355373  0.889280  0.483443  1
  Ba  Ba12  1  0.346550  0.595699  0.748743  1
  Ba  Ba13  1  0.238019  0.982174  0.070456  1
  Ba  Ba14  1  0.264535  0.332316  0.746274  1
  Ba  Ba15  1  0.234409  0.753256  0.168659  1
  Ba  Ba16  1  0.260991  0.427608  0.517147  1
  Ba  Ba17  1  0.095045  0.465880  0.111454  1
  Ba  Ba18  1  0.145575  0.016410  0.611454  1
  Ba  Ba19  1  0.594163  0.610720  0.966093  1
  Ba  Ba20  1  0.089539  0.072392  0.333383  1
  Ba  Ba21  1  0.114775  0.247686  0.207998  1
  Ba  Ba22  1  0.588283  0.832437  0.570456  1
  Ba  Ba23  1  0.614068  0.707471  0.746703  1
  Ba  Ba24  1  0.348071  0.250000  0.598071  1
  Ba  Ba25  1  0.534697  0.901866  0.291006  1
  Ba  Ba26  1  0.407501  0.517324  0.374057  1
  Ba  Ba27  1  0.614775  0.406776  0.867089  1
  Ba  Ba28  1  0.389140  0.598134  0.132831  1
  Ba  Ba29  1  0.595045  0.483590  0.629165  1
  Ba  Ba30  1  0.460312  0.093224  0.707998  1
  Ba  Ba31  1  0.654383  0.750000  0.404383  1
  Ba  Ba32  1  0.388547  0.290490  0.255262  1
  Ba  Ba33  1  0.413958  0.167684  0.432219  1
  Ba  Ba34  1  0.889140  0.756308  0.791006  1
  Ba  Ba35  1  0.915404  0.934250  0.668659  1
  Ba  Ba36  1  0.406711  0.389439  0.033632  1
  Ba  Ba37  1  0.856733  0.982676  0.390177  1
  Ba  Ba38  1  0.907501  0.533443  0.890177  1
  Ba  Ba39  1  0.734409  0.565750  0.481154  1
  Ba  Ba40  1  0.760991  0.243844  0.833383  1
  Ba  Ba41  1  0.738019  0.667563  0.255845  1
  Ba  Ba42  1  0.764535  0.018261  0.932219  1
  Ba  Ba43  1  0.653044  0.402193  0.248743  1
  Ba  Ba44  1  0.644193  0.110561  0.517272  1
  Ba  Ba45  1  0.539231  0.132636  0.246703  1
  Ba  Ba46  1  0.846550  0.097807  0.750850  1
  Ba  Ba47  1  0.589539  0.256156  0.017147  1
  Ba  Ba48  1  0.855373  0.371931  0.466093  1
  Ba  Ba49  1  0.906711  0.873080  0.017272  1
  Ba  Ba50  1  0.888547  0.633285  0.098058  1
  Ba  Ba51  1  0.645575  0.034120  0.129165  1
  Ba  Ba52  1  0.913958  0.481739  0.246274  1
  Ba  Ba53  1  0.964773  0.209510  0.598058  1
  Ba  Ba54  1  0.960312  0.252314  0.367089  1
  Ba  Ba55  1  0.848071  0.250000  0.098071  1
  Zr  Zr56  1  0.251598  0.125562  0.876152  1
  Zr  Zr57  1  0.250590  0.624552  0.376152  1
  Zr  Zr58  1  0.750590  0.374438  0.626038  1
  Zr  Zr59  1  0.751598  0.875448  0.126038  1
  As  As60  1  0.129775  0.937196  0.821266  1
  As  As61  1  0.163383  0.585799  0.985538  1
  As  As62  1  0.249973  0.871915  0.628076  1
  As  As63  1  0.249901  0.732403  0.767226  1
  As  As64  1  0.100352  0.422372  0.585319  1
  As  As65  1  0.117541  0.180269  0.809824  1
  As  As66  1  0.129555  0.692284  0.309824  1
  As  As67  1  0.034823  0.767597  0.017498  1
  As  As68  1  0.337972  0.516352  0.914618  1
  As  As69  1  0.115400  0.436061  0.308030  1
  As  As70  1  0.101824  0.178401  0.516889  1
  As  As71  1  0.398266  0.983648  0.321620  1
  As  As72  1  0.371809  0.677930  0.564075  1
  As  As73  1  0.617541  0.807716  0.937271  1
  As  As74  1  0.463822  0.481815  0.731694  1
  As  As75  1  0.371969  0.192630  0.808030  1
  As  As76  1  0.384070  0.691491  0.321266  1
  As  As77  1  0.399739  0.914201  0.077584  1
  As  As78  1  0.338488  0.321599  0.423423  1
  As  As79  1  0.249879  0.018185  0.482007  1
  As  As80  1  0.837972  0.923354  0.821620  1
  As  As81  1  0.256161  0.378103  0.128076  1
  As  As82  1  0.162947  0.077628  0.177980  1
  As  As83  1  0.749901  0.982675  0.517498  1
  As  As84  1  0.756161  0.628085  0.878058  1
  As  As85  1  0.663383  0.677845  0.577584  1
  As  As86  1  0.601824  0.084935  0.923423  1
  As  As87  1  0.615400  0.307370  0.679339  1
  As  As88  1  0.629775  0.808509  0.192578  1
  As  As89  1  0.534823  0.517325  0.267226  1
  As  As90  1  0.386144  0.192266  0.064075  1
  As  As91  1  0.629555  0.319731  0.437271  1
  As  As92  1  0.600352  0.015033  0.677980  1
  As  As93  1  0.899739  0.822155  0.485538  1
  As  As94  1  0.884070  0.562804  0.692578  1
  As  As95  1  0.662947  0.484967  0.085319  1
  As  As96  1  0.963822  0.232128  0.982007  1
  As  As97  1  0.871809  0.307734  0.693878  1
  As  As98  1  0.886144  0.822070  0.193878  1
  As  As99  1  0.898266  0.576646  0.414618  1
  As  As100  1  0.749973  0.121897  0.378058  1
  As  As101  1  0.749879  0.267872  0.231694  1
  As  As102  1  0.838488  0.415065  0.016889  1
  As  As103  1  0.871969  0.063939  0.179339  1
