# generated using pymatgen
data_LuSc4Nb3(P3Ir4)4
_symmetry_space_group_name_H-M   'P 1'
_cell_length_a   12.69245400
_cell_length_b   12.69245435
_cell_length_c   3.93763700
_cell_angle_alpha   90.00000000
_cell_angle_beta   90.00000000
_cell_angle_gamma   119.99999910
_symmetry_Int_Tables_number   1
_chemical_formula_structural   LuSc4Nb3(P3Ir4)4
_chemical_formula_sum   'Lu1 Sc4 Nb3 P12 Ir16'
_cell_volume   549.36061545
_cell_formula_units_Z   1
loop_
 _symmetry_equiv_pos_site_id
 _symmetry_equiv_pos_as_xyz
  1  'x, y, z'
loop_
 _atom_site_type_symbol
 _atom_site_label
 _atom_site_symmetry_multiplicity
 _atom_site_fract_x
 _atom_site_fract_y
 _atom_site_fract_z
 _atom_site_occupancy
  Lu  Lu0  1  0.333333  0.666667  0.000000  1
  Sc  Sc1  1  0.666667  0.333333  0.000000  1
  Sc  Sc2  1  0.815414  0.999988  0.500000  1
  Sc  Sc3  1  0.000012  0.815426  0.500000  1
  Sc  Sc4  1  0.184574  0.184586  0.500000  1
  Nb  Nb5  1  0.452844  0.000186  0.000000  1
  Nb  Nb6  1  0.999814  0.452659  0.000000  1
  Nb  Nb7  1  0.547341  0.547156  0.000000  1
  P  P8  1  0.174856  0.000161  0.000000  1
  P  P9  1  0.999839  0.174695  0.000000  1
  P  P10  1  0.825305  0.825144  0.000000  1
  P  P11  1  0.167409  0.482528  0.500000  1
  P  P12  1  0.517472  0.684881  0.500000  1
  P  P13  1  0.315119  0.832591  0.500000  1
  P  P14  1  0.684835  0.516424  0.500000  1
  P  P15  1  0.831588  0.315165  0.500000  1
  P  P16  1  0.483576  0.168412  0.500000  1
  P  P17  1  0.645003  0.000209  0.000000  1
  P  P18  1  0.999791  0.644794  0.000000  1
  P  P19  1  0.355206  0.354997  0.000000  1
  Ir  Ir20  1  0.355872  0.493543  0.500000  1
  Ir  Ir21  1  0.506457  0.862329  0.500000  1
  Ir  Ir22  1  0.137671  0.644128  0.500000  1
  Ir  Ir23  1  0.861333  0.505665  0.500000  1
  Ir  Ir24  1  0.644332  0.138667  0.500000  1
  Ir  Ir25  1  0.494335  0.355668  0.500000  1
  Ir  Ir26  1  0.178281  0.369242  0.000000  1
  Ir  Ir27  1  0.630758  0.809040  0.000000  1
  Ir  Ir28  1  0.190960  0.821719  0.000000  1
  Ir  Ir29  1  0.808776  0.630362  0.000000  1
  Ir  Ir30  1  0.821587  0.191224  0.000000  1
  Ir  Ir31  1  0.369638  0.178413  0.000000  1
  Ir  Ir32  1  0.280784  0.000096  0.500000  1
  Ir  Ir33  1  0.999904  0.280687  0.500000  1
  Ir  Ir34  1  0.719313  0.719216  0.500000  1
  Ir  Ir35  1  0.000000  0.000000  0.000000  1
