# generated using pymatgen
data_DyHo3Ga12Ru
_symmetry_space_group_name_H-M   'P 1'
_cell_length_a   7.46590695
_cell_length_b   7.46146479
_cell_length_c   7.46590717
_cell_angle_alpha   109.45916212
_cell_angle_beta   109.48326094
_cell_angle_gamma   109.45917327
_symmetry_Int_Tables_number   1
_chemical_formula_structural   DyHo3Ga12Ru
_chemical_formula_sum   'Dy1 Ho3 Ga12 Ru1'
_cell_volume   320.20786422
_cell_formula_units_Z   1
loop_
 _symmetry_equiv_pos_site_id
 _symmetry_equiv_pos_as_xyz
  1  'x, y, z'
loop_
 _atom_site_type_symbol
 _atom_site_label
 _atom_site_symmetry_multiplicity
 _atom_site_fract_x
 _atom_site_fract_y
 _atom_site_fract_z
 _atom_site_occupancy
  Dy  Dy0  1  0.000000  0.500000  0.000000  1
  Ho  Ho1  1  0.000000  0.000000  0.500000  1
  Ho  Ho2  1  0.500000  0.000000  0.000000  1
  Ho  Ho3  1  0.500000  0.500000  0.500000  1
  Ga  Ga4  1  0.749951  0.249951  0.499902  1
  Ga  Ga5  1  0.749951  0.500000  0.250049  1
  Ga  Ga6  1  0.499902  0.249951  0.749951  1
  Ga  Ga7  1  0.250049  0.500000  0.749951  1
  Ga  Ga8  1  0.250049  0.750049  0.500098  1
  Ga  Ga9  1  0.500098  0.750049  0.250049  1
  Ga  Ga10  1  0.709656  0.709732  0.000000  1
  Ga  Ga11  1  0.290344  0.000076  0.290344  1
  Ga  Ga12  1  0.000000  0.290268  0.290344  1
  Ga  Ga13  1  0.290344  0.290268  0.000000  1
  Ga  Ga14  1  0.709656  0.999924  0.709656  1
  Ga  Ga15  1  0.000000  0.709732  0.709656  1
  Ru  Ru16  1  0.000000  0.000000  0.000000  1
