# generated using pymatgen
data_Ta3Nb2Sn(B2Ru5)2
_symmetry_space_group_name_H-M   'P 1'
_cell_length_a   9.47489310
_cell_length_b   9.47717308
_cell_length_c   3.02813600
_cell_angle_alpha   90.00000000
_cell_angle_beta   90.00000000
_cell_angle_gamma   90.19047343
_symmetry_Int_Tables_number   1
_chemical_formula_structural   Ta3Nb2Sn(B2Ru5)2
_chemical_formula_sum   'Ta3 Nb2 Sn1 B4 Ru10'
_cell_volume   271.91058078
_cell_formula_units_Z   1
loop_
 _symmetry_equiv_pos_site_id
 _symmetry_equiv_pos_as_xyz
  1  'x, y, z'
loop_
 _atom_site_type_symbol
 _atom_site_label
 _atom_site_symmetry_multiplicity
 _atom_site_fract_x
 _atom_site_fract_y
 _atom_site_fract_z
 _atom_site_occupancy
  Ta  Ta0  1  0.323289  0.824592  0.000000  1
  Ta  Ta1  1  0.676711  0.175408  0.000000  1
  Ta  Ta2  1  0.000000  0.000000  0.000000  1
  Nb  Nb3  1  0.823802  0.677006  0.000000  1
  Nb  Nb4  1  0.176198  0.322994  0.000000  1
  Sn  Sn5  1  0.500000  0.500000  0.000000  1
  B  B6  1  0.619803  0.876796  0.000000  1
  B  B7  1  0.380197  0.123204  0.000000  1
  B  B8  1  0.123073  0.619625  0.000000  1
  B  B9  1  0.876927  0.380375  0.000000  1
  Ru  Ru10  1  0.573507  0.721720  0.500000  1
  Ru  Ru11  1  0.426493  0.278280  0.500000  1
  Ru  Ru12  1  0.069397  0.781839  0.500000  1
  Ru  Ru13  1  0.930603  0.218161  0.500000  1
  Ru  Ru14  1  0.279166  0.575907  0.500000  1
  Ru  Ru15  1  0.720834  0.424093  0.500000  1
  Ru  Ru16  1  0.218734  0.067770  0.500000  1
  Ru  Ru17  1  0.781266  0.932230  0.500000  1
  Ru  Ru18  1  0.500000  0.000000  0.500000  1
  Ru  Ru19  1  0.000000  0.500000  0.500000  1
