# generated using pymatgen
data_TbDySc2(SbO4)4
_symmetry_space_group_name_H-M   'P 1'
_cell_length_a   5.32846423
_cell_length_b   7.48345783
_cell_length_c   7.57752642
_cell_angle_alpha   80.86712735
_cell_angle_beta   86.84214553
_cell_angle_gamma   91.07526808
_symmetry_Int_Tables_number   1
_chemical_formula_structural   TbDySc2(SbO4)4
_chemical_formula_sum   'Tb1 Dy1 Sc2 Sb4 O16'
_cell_volume   297.75696590
_cell_formula_units_Z   1
loop_
 _symmetry_equiv_pos_site_id
 _symmetry_equiv_pos_as_xyz
  1  'x, y, z'
loop_
 _atom_site_type_symbol
 _atom_site_label
 _atom_site_symmetry_multiplicity
 _atom_site_fract_x
 _atom_site_fract_y
 _atom_site_fract_z
 _atom_site_occupancy
  Tb  Tb0  1  0.749424  0.377875  0.372638  1
  Dy  Dy1  1  0.250570  0.622801  0.627269  1
  Sc  Sc2  1  0.717525  0.869749  0.334312  1
  Sc  Sc3  1  0.282180  0.130062  0.666198  1
  Sb  Sb4  1  0.776027  0.309220  0.839437  1
  Sb  Sb5  1  0.224006  0.691179  0.160520  1
  Sb  Sb6  1  0.247727  0.186187  0.171042  1
  Sb  Sb7  1  0.752267  0.813524  0.828672  1
  O  O8  1  0.899784  0.805886  0.069567  1
  O  O9  1  0.099801  0.193621  0.930540  1
  O  O10  1  0.385467  0.936968  0.176624  1
  O  O11  1  0.615008  0.063173  0.822703  1
  O  O12  1  0.100487  0.434839  0.175228  1
  O  O13  1  0.901098  0.565389  0.823887  1
  O  O14  1  0.580698  0.311615  0.071134  1
  O  O15  1  0.419472  0.688314  0.928748  1
  O  O16  1  0.999824  0.318160  0.612281  1
  O  O17  1  0.000870  0.682072  0.388355  1
  O  O18  1  0.414089  0.179851  0.402370  1
  O  O19  1  0.584613  0.819133  0.597953  1
  O  O20  1  0.487836  0.618254  0.331298  1
  O  O21  1  0.511024  0.382883  0.669652  1
  O  O22  1  0.927275  0.103964  0.302657  1
  O  O23  1  0.072928  0.895280  0.696915  1
