# generated using pymatgen
data_Ta3Al2CoH
_symmetry_space_group_name_H-M   'P 1'
_cell_length_a   8.13824019
_cell_length_b   8.13662476
_cell_length_c   8.13673405
_cell_angle_alpha   59.98931362
_cell_angle_beta   59.99560252
_cell_angle_gamma   59.99539309
_symmetry_Int_Tables_number   1
_chemical_formula_structural   Ta3Al2CoH
_chemical_formula_sum   'Ta12 Al8 Co4 H4'
_cell_volume   380.93008635
_cell_formula_units_Z   4
loop_
 _symmetry_equiv_pos_site_id
 _symmetry_equiv_pos_as_xyz
  1  'x, y, z'
loop_
 _atom_site_type_symbol
 _atom_site_label
 _atom_site_symmetry_multiplicity
 _atom_site_fract_x
 _atom_site_fract_y
 _atom_site_fract_z
 _atom_site_occupancy
  Ta  Ta0  1  0.549140  0.951033  0.548963  1
  Ta  Ta1  1  0.299123  0.700925  0.700833  1
  Ta  Ta2  1  0.700960  0.298998  0.299041  1
  Ta  Ta3  1  0.299147  0.701035  0.299013  1
  Ta  Ta4  1  0.700791  0.701063  0.299007  1
  Ta  Ta5  1  0.299152  0.298979  0.701003  1
  Ta  Ta6  1  0.549209  0.548937  0.950993  1
  Ta  Ta7  1  0.950877  0.549075  0.549167  1
  Ta  Ta8  1  0.549040  0.951002  0.950959  1
  Ta  Ta9  1  0.950848  0.951021  0.548997  1
  Ta  Ta10  1  0.700860  0.298967  0.701037  1
  Ta  Ta11  1  0.950853  0.548965  0.950987  1
  Al  Al12  1  0.916167  0.916848  0.916691  1
  Al  Al13  1  0.999703  0.333162  0.333316  1
  Al  Al14  1  0.333561  0.999856  0.333047  1
  Al  Al15  1  0.333622  0.332942  0.999841  1
  Al  Al16  1  0.916439  0.250144  0.916953  1
  Al  Al17  1  0.916378  0.917058  0.250159  1
  Al  Al18  1  0.250297  0.916838  0.916684  1
  Al  Al19  1  0.333833  0.333152  0.333309  1
  Co  Co20  1  0.125000  0.125000  0.125000  1
  Co  Co21  1  0.625000  0.125000  0.125000  1
  Co  Co22  1  0.125000  0.625000  0.125000  1
  Co  Co23  1  0.125000  0.125000  0.625000  1
  H  H24  1  0.625000  0.625000  0.625000  1
  H  H25  1  0.125000  0.625000  0.625000  1
  H  H26  1  0.625000  0.125000  0.625000  1
  H  H27  1  0.625000  0.625000  0.125000  1
