# generated using pymatgen
data_Hf18Mo8AuSe
_symmetry_space_group_name_H-M   'P 1'
_cell_length_a   8.76018900
_cell_length_b   8.76018856
_cell_length_c   8.62443800
_cell_angle_alpha   90.00000000
_cell_angle_beta   90.00000000
_cell_angle_gamma   119.99999787
_symmetry_Int_Tables_number   1
_chemical_formula_structural   Hf18Mo8AuSe
_chemical_formula_sum   'Hf18 Mo8 Au1 Se1'
_cell_volume   573.17649977
_cell_formula_units_Z   1
loop_
 _symmetry_equiv_pos_site_id
 _symmetry_equiv_pos_as_xyz
  1  'x, y, z'
loop_
 _atom_site_type_symbol
 _atom_site_label
 _atom_site_symmetry_multiplicity
 _atom_site_fract_x
 _atom_site_fract_y
 _atom_site_fract_z
 _atom_site_occupancy
  Hf  Hf0  1  0.542297  0.084594  0.250000  1
  Hf  Hf1  1  0.457188  0.914376  0.750000  1
  Hf  Hf2  1  0.915406  0.457703  0.250000  1
  Hf  Hf3  1  0.085624  0.542812  0.750000  1
  Hf  Hf4  1  0.542297  0.457703  0.250000  1
  Hf  Hf5  1  0.457188  0.542812  0.750000  1
  Hf  Hf6  1  0.194411  0.388820  0.047988  1
  Hf  Hf7  1  0.805377  0.610755  0.954838  1
  Hf  Hf8  1  0.611180  0.805589  0.047988  1
  Hf  Hf9  1  0.805377  0.610755  0.545162  1
  Hf  Hf10  1  0.389245  0.194623  0.954838  1
  Hf  Hf11  1  0.194411  0.388820  0.452012  1
  Hf  Hf12  1  0.194411  0.805589  0.047988  1
  Hf  Hf13  1  0.389245  0.194623  0.545162  1
  Hf  Hf14  1  0.805377  0.194623  0.954838  1
  Hf  Hf15  1  0.611180  0.805589  0.452012  1
  Hf  Hf16  1  0.805377  0.194623  0.545162  1
  Hf  Hf17  1  0.194411  0.805589  0.452012  1
  Mo  Mo18  1  0.000000  0.000000  0.000274  1
  Mo  Mo19  1  0.000000  0.000000  0.499726  1
  Mo  Mo20  1  0.888822  0.777646  0.250000  1
  Mo  Mo21  1  0.110322  0.220642  0.750000  1
  Mo  Mo22  1  0.222354  0.111178  0.250000  1
  Mo  Mo23  1  0.779358  0.889678  0.750000  1
  Mo  Mo24  1  0.888822  0.111178  0.250000  1
  Mo  Mo25  1  0.110322  0.889678  0.750000  1
  Au  Au26  1  0.333333  0.666667  0.250000  1
  Se  Se27  1  0.666667  0.333333  0.750000  1
