# generated using pymatgen
data_Ta4TiNb5N12
_symmetry_space_group_name_H-M   'P 1'
_cell_length_a   5.23566801
_cell_length_b   5.24429665
_cell_length_c   10.36517817
_cell_angle_alpha   89.99905166
_cell_angle_beta   90.01843593
_cell_angle_gamma   120.04416694
_symmetry_Int_Tables_number   1
_chemical_formula_structural   Ta4TiNb5N12
_chemical_formula_sum   'Ta4 Ti1 Nb5 N12'
_cell_volume   246.36174308
_cell_formula_units_Z   1
loop_
 _symmetry_equiv_pos_site_id
 _symmetry_equiv_pos_as_xyz
  1  'x, y, z'
loop_
 _atom_site_type_symbol
 _atom_site_label
 _atom_site_symmetry_multiplicity
 _atom_site_fract_x
 _atom_site_fract_y
 _atom_site_fract_z
 _atom_site_occupancy
  Ta  Ta0  1  0.998610  0.677142  0.248474  1
  Ta  Ta1  1  0.334642  0.666581  0.000017  1
  Ta  Ta2  1  0.334648  0.666687  0.499816  1
  Ta  Ta3  1  0.665277  0.331930  0.499850  1
  Ti  Ti4  1  0.665678  0.332260  0.999960  1
  Nb  Nb5  1  0.677675  0.676397  0.751248  1
  Nb  Nb6  1  0.323614  0.001183  0.751233  1
  Nb  Nb7  1  0.998817  0.322606  0.751257  1
  Nb  Nb8  1  0.323904  0.322961  0.248963  1
  Nb  Nb9  1  0.677146  0.001493  0.248973  1
  N  N10  1  0.663030  0.659740  0.379820  1
  N  N11  1  0.336698  0.996226  0.379806  1
  N  N12  1  0.000156  0.345759  0.379256  1
  N  N13  1  0.340901  0.341017  0.619655  1
  N  N14  1  0.658940  0.999753  0.619671  1
  N  N15  1  0.000183  0.657910  0.619606  1
  N  N16  1  0.345017  0.343875  0.881191  1
  N  N17  1  0.656130  0.000983  0.881192  1
  N  N18  1  0.999271  0.654319  0.881099  1
  N  N19  1  0.660008  0.655338  0.119413  1
  N  N20  1  0.340679  0.997091  0.119572  1
  N  N21  1  0.998969  0.348755  0.119929  1
