# generated using pymatgen
data_Tb2Pr8B2Br15
_symmetry_space_group_name_H-M   'P 1'
_cell_length_a   9.42908513
_cell_length_b   10.19400660
_cell_length_c   11.09720206
_cell_angle_alpha   91.28578896
_cell_angle_beta   114.52192663
_cell_angle_gamma   110.69416999
_symmetry_Int_Tables_number   1
_chemical_formula_structural   Tb2Pr8B2Br15
_chemical_formula_sum   'Tb2 Pr8 B2 Br15'
_cell_volume   889.74016969
_cell_formula_units_Z   1
loop_
 _symmetry_equiv_pos_site_id
 _symmetry_equiv_pos_as_xyz
  1  'x, y, z'
loop_
 _atom_site_type_symbol
 _atom_site_label
 _atom_site_symmetry_multiplicity
 _atom_site_fract_x
 _atom_site_fract_y
 _atom_site_fract_z
 _atom_site_occupancy
  Tb  Tb0  1  0.717899  0.073181  0.047185  1
  Tb  Tb1  1  0.282101  0.926819  0.952815  1
  Pr  Pr2  1  0.802175  0.409710  0.276229  1
  Pr  Pr3  1  0.197825  0.590290  0.723771  1
  Pr  Pr4  1  0.675279  0.746887  0.821196  1
  Pr  Pr5  1  0.324721  0.253113  0.178804  1
  Pr  Pr6  1  0.526500  0.703951  0.097666  1
  Pr  Pr7  1  0.473500  0.296049  0.902334  1
  Pr  Pr8  1  0.587012  0.036783  0.325924  1
  Pr  Pr9  1  0.412988  0.963217  0.674076  1
  B  B10  1  0.467896  0.824115  0.879218  1
  B  B11  1  0.532104  0.175885  0.120782  1
  Br  Br12  1  0.000000  0.000000  0.000000  1
  Br  Br13  1  0.637382  0.882098  0.582821  1
  Br  Br14  1  0.362618  0.117902  0.417179  1
  Br  Br15  1  0.884225  0.298834  0.529788  1
  Br  Br16  1  0.115775  0.701166  0.470212  1
  Br  Br17  1  0.281448  0.765504  0.170251  1
  Br  Br18  1  0.718552  0.234496  0.829749  1
  Br  Br19  1  0.044717  0.331866  0.218914  1
  Br  Br20  1  0.158733  0.049730  0.710007  1
  Br  Br21  1  0.841267  0.950270  0.289993  1
  Br  Br22  1  0.228187  0.409192  0.943311  1
  Br  Br23  1  0.771813  0.590808  0.056689  1
  Br  Br24  1  0.407602  0.462552  0.657426  1
  Br  Br25  1  0.592398  0.537448  0.342574  1
  Br  Br26  1  0.955283  0.668134  0.781086  1
