# generated using pymatgen
data_Cs4SnSe4
_symmetry_space_group_name_H-M   'P 1'
_cell_length_a   9.18284100
_cell_length_b   11.02635600
_cell_length_c   16.26248400
_cell_angle_alpha   90.00000000
_cell_angle_beta   90.00000000
_cell_angle_gamma   90.00000000
_symmetry_Int_Tables_number   1
_chemical_formula_structural   Cs4SnSe4
_chemical_formula_sum   'Cs16 Sn4 Se16'
_cell_volume   1646.62974768
_cell_formula_units_Z   4
loop_
 _symmetry_equiv_pos_site_id
 _symmetry_equiv_pos_as_xyz
  1  'x, y, z'
loop_
 _atom_site_type_symbol
 _atom_site_label
 _atom_site_symmetry_multiplicity
 _atom_site_fract_x
 _atom_site_fract_y
 _atom_site_fract_z
 _atom_site_occupancy
  Cs  Cs0  1  0.000000  0.000000  0.000000  1
  Cs  Cs1  1  0.500000  0.000000  0.500000  1
  Cs  Cs2  1  0.000000  0.500000  0.000000  1
  Cs  Cs3  1  0.500000  0.500000  0.500000  1
  Cs  Cs4  1  0.989217  0.750000  0.422726  1
  Cs  Cs5  1  0.489217  0.250000  0.077274  1
  Cs  Cs6  1  0.010783  0.250000  0.577274  1
  Cs  Cs7  1  0.510783  0.750000  0.922726  1
  Cs  Cs8  1  0.839955  0.051231  0.274209  1
  Cs  Cs9  1  0.339955  0.948769  0.225791  1
  Cs  Cs10  1  0.160045  0.551231  0.725791  1
  Cs  Cs11  1  0.660045  0.448769  0.774209  1
  Cs  Cs12  1  0.160045  0.948769  0.725791  1
  Cs  Cs13  1  0.660045  0.051231  0.774209  1
  Cs  Cs14  1  0.839955  0.448769  0.274209  1
  Cs  Cs15  1  0.339955  0.551231  0.225791  1
  Sn  Sn16  1  0.762601  0.750000  0.664694  1
  Sn  Sn17  1  0.237399  0.250000  0.335306  1
  Sn  Sn18  1  0.737399  0.750000  0.164694  1
  Sn  Sn19  1  0.262601  0.250000  0.835306  1
  Se  Se20  1  0.981420  0.250000  0.826640  1
  Se  Se21  1  0.518580  0.250000  0.326640  1
  Se  Se22  1  0.481420  0.750000  0.673360  1
  Se  Se23  1  0.018580  0.750000  0.173360  1
  Se  Se24  1  0.649295  0.560497  0.088287  1
  Se  Se25  1  0.149295  0.439503  0.411713  1
  Se  Se26  1  0.350705  0.060497  0.911713  1
  Se  Se27  1  0.850705  0.939503  0.588287  1
  Se  Se28  1  0.350705  0.439503  0.911713  1
  Se  Se29  1  0.850705  0.560497  0.588287  1
  Se  Se30  1  0.649295  0.939503  0.088287  1
  Se  Se31  1  0.149295  0.060497  0.411713  1
  Se  Se32  1  0.634280  0.750000  0.313618  1
  Se  Se33  1  0.134280  0.250000  0.186382  1
  Se  Se34  1  0.365720  0.250000  0.686382  1
  Se  Se35  1  0.865720  0.750000  0.813618  1
