# generated using pymatgen
data_Dy2Ga7Ni2Au
_symmetry_space_group_name_H-M   'P 1'
_cell_length_a   4.15473626
_cell_length_b   6.46046513
_cell_length_c   7.95852622
_cell_angle_alpha   90.81444295
_cell_angle_beta   105.13084175
_cell_angle_gamma   90.00000068
_symmetry_Int_Tables_number   1
_chemical_formula_structural   Dy2Ga7Ni2Au
_chemical_formula_sum   'Dy2 Ga7 Ni2 Au1'
_cell_volume   206.19096622
_cell_formula_units_Z   1
loop_
 _symmetry_equiv_pos_site_id
 _symmetry_equiv_pos_as_xyz
  1  'x, y, z'
loop_
 _atom_site_type_symbol
 _atom_site_label
 _atom_site_symmetry_multiplicity
 _atom_site_fract_x
 _atom_site_fract_y
 _atom_site_fract_z
 _atom_site_occupancy
  Dy  Dy0  1  0.377431  0.763039  0.754861  1
  Dy  Dy1  1  0.622569  0.236961  0.245139  1
  Ga  Ga2  1  0.000000  0.000000  0.000000  1
  Ga  Ga3  1  0.569161  0.736658  0.138323  1
  Ga  Ga4  1  0.430839  0.263342  0.861677  1
  Ga  Ga5  1  0.184073  0.545514  0.368146  1
  Ga  Ga6  1  0.815927  0.454486  0.631854  1
  Ga  Ga7  1  0.185907  0.945620  0.371815  1
  Ga  Ga8  1  0.814093  0.054380  0.628185  1
  Ni  Ni9  1  0.722266  0.749647  0.444533  1
  Ni  Ni10  1  0.277734  0.250353  0.555467  1
  Au  Au11  1  0.000000  0.500000  0.000000  1
