# generated using pymatgen
data_Sc4FeCo3Si4
_symmetry_space_group_name_H-M   'P 1'
_cell_length_a   4.02568400
_cell_length_b   6.48558157
_cell_length_c   6.76160058
_cell_angle_alpha   89.95208884
_cell_angle_beta   90.00000000
_cell_angle_gamma   90.00000000
_symmetry_Int_Tables_number   1
_chemical_formula_structural   Sc4FeCo3Si4
_chemical_formula_sum   'Sc4 Fe1 Co3 Si4'
_cell_volume   176.53790510
_cell_formula_units_Z   1
loop_
 _symmetry_equiv_pos_site_id
 _symmetry_equiv_pos_as_xyz
  1  'x, y, z'
loop_
 _atom_site_type_symbol
 _atom_site_label
 _atom_site_symmetry_multiplicity
 _atom_site_fract_x
 _atom_site_fract_y
 _atom_site_fract_z
 _atom_site_occupancy
  Sc  Sc0  1  0.750000  0.510719  0.807303  1
  Sc  Sc1  1  0.250000  0.989663  0.308110  1
  Sc  Sc2  1  0.750000  0.014308  0.692005  1
  Sc  Sc3  1  0.250000  0.488887  0.192764  1
  Fe  Fe4  1  0.750000  0.347161  0.439408  1
  Co  Co5  1  0.250000  0.652969  0.561127  1
  Co  Co6  1  0.250000  0.150244  0.940127  1
  Co  Co7  1  0.750000  0.847500  0.059669  1
  Si  Si8  1  0.250000  0.796586  0.888453  1
  Si  Si9  1  0.250000  0.296457  0.607564  1
  Si  Si10  1  0.750000  0.203049  0.113415  1
  Si  Si11  1  0.750000  0.702457  0.390055  1
