# generated using pymatgen
data_Tb4HoP12Ru18Pt
_symmetry_space_group_name_H-M   'P 1'
_cell_length_a   12.59098822
_cell_length_b   12.49656451
_cell_length_c   3.98932100
_cell_angle_alpha   90.00000000
_cell_angle_beta   90.00000000
_cell_angle_gamma   119.75756083
_symmetry_Int_Tables_number   1
_chemical_formula_structural   Tb4HoP12Ru18Pt
_chemical_formula_sum   'Tb4 Ho1 P12 Ru18 Pt1'
_cell_volume   544.92390997
_cell_formula_units_Z   1
loop_
 _symmetry_equiv_pos_site_id
 _symmetry_equiv_pos_as_xyz
  1  'x, y, z'
loop_
 _atom_site_type_symbol
 _atom_site_label
 _atom_site_symmetry_multiplicity
 _atom_site_fract_x
 _atom_site_fract_y
 _atom_site_fract_z
 _atom_site_occupancy
  Tb  Tb0  1  0.000010  0.182723  0.500000  1
  Tb  Tb1  1  0.816282  0.816284  0.500000  1
  Tb  Tb2  1  0.662680  0.330473  0.000000  1
  Tb  Tb3  1  0.337249  0.667764  0.000000  1
  Ho  Ho4  1  0.183703  0.000108  0.500000  1
  P  P5  1  0.000266  0.814187  0.000000  1
  P  P6  1  0.184204  0.184384  0.000000  1
  P  P7  1  0.815896  0.000443  0.000000  1
  P  P8  1  0.693256  0.172626  0.500000  1
  P  P9  1  0.819738  0.520300  0.500000  1
  P  P10  1  0.475477  0.305660  0.500000  1
  P  P11  1  0.180311  0.700548  0.500000  1
  P  P12  1  0.524475  0.830173  0.500000  1
  P  P13  1  0.306680  0.479234  0.500000  1
  P  P14  1  0.000002  0.364546  0.000000  1
  P  P15  1  0.627091  0.627235  0.000000  1
  P  P16  1  0.372703  0.000122  0.000000  1
  Ru  Ru17  1  0.445223  0.446020  0.000000  1
  Ru  Ru18  1  0.554674  0.000829  0.000000  1
  Ru  Ru19  1  0.000211  0.712292  0.500000  1
  Ru  Ru20  1  0.282228  0.283396  0.500000  1
  Ru  Ru21  1  0.717652  0.001368  0.500000  1
  Ru  Ru22  1  0.806956  0.185650  0.000000  1
  Ru  Ru23  1  0.815275  0.621705  0.000000  1
  Ru  Ru24  1  0.375002  0.190969  0.000000  1
  Ru  Ru25  1  0.184867  0.806977  0.000000  1
  Ru  Ru26  1  0.624588  0.816055  0.000000  1
  Ru  Ru27  1  0.193057  0.378646  0.000000  1
  Ru  Ru28  1  0.873119  0.367346  0.500000  1
  Ru  Ru29  1  0.630912  0.508248  0.500000  1
  Ru  Ru30  1  0.492089  0.127049  0.500000  1
  Ru  Ru31  1  0.368997  0.877340  0.500000  1
  Ru  Ru32  1  0.507781  0.634831  0.500000  1
  Ru  Ru33  1  0.126860  0.494166  0.500000  1
  Ru  Ru34  1  0.000477  0.999374  0.000000  1
  Pt  Pt35  1  0.000011  0.550928  0.000000  1
