# generated using pymatgen
data_Hf3Fe4TcP4
_symmetry_space_group_name_H-M   'P 1'
_cell_length_a   3.71388500
_cell_length_b   6.14089247
_cell_length_c   6.96054012
_cell_angle_alpha   90.70323283
_cell_angle_beta   90.00000000
_cell_angle_gamma   90.00000000
_symmetry_Int_Tables_number   1
_chemical_formula_structural   Hf3Fe4TcP4
_chemical_formula_sum   'Hf3 Fe4 Tc1 P4'
_cell_volume   158.73407781
_cell_formula_units_Z   1
loop_
 _symmetry_equiv_pos_site_id
 _symmetry_equiv_pos_as_xyz
  1  'x, y, z'
loop_
 _atom_site_type_symbol
 _atom_site_label
 _atom_site_symmetry_multiplicity
 _atom_site_fract_x
 _atom_site_fract_y
 _atom_site_fract_z
 _atom_site_occupancy
  Hf  Hf0  1  0.750000  0.482022  0.324743  1
  Hf  Hf1  1  0.250000  0.017477  0.811505  1
  Hf  Hf2  1  0.750000  0.975320  0.182260  1
  Fe  Fe3  1  0.750000  0.859210  0.565104  1
  Fe  Fe4  1  0.250000  0.147633  0.437363  1
  Fe  Fe5  1  0.750000  0.353907  0.938650  1
  Fe  Fe6  1  0.250000  0.643947  0.055951  1
  Tc  Tc7  1  0.250000  0.523078  0.676628  1
  P  P8  1  0.250000  0.278807  0.117532  1
  P  P9  1  0.750000  0.707094  0.869872  1
  P  P10  1  0.250000  0.778940  0.397828  1
  P  P11  1  0.750000  0.232565  0.622565  1
