# generated using pymatgen
data_TbDyPa2(CdNi2)2
_symmetry_space_group_name_H-M   'P 1'
_cell_length_a   7.48237027
_cell_length_b   7.48237009
_cell_length_c   3.56941600
_cell_angle_alpha   90.00000000
_cell_angle_beta   90.00000000
_cell_angle_gamma   94.26980773
_symmetry_Int_Tables_number   1
_chemical_formula_structural   TbDyPa2(CdNi2)2
_chemical_formula_sum   'Tb1 Dy1 Pa2 Cd2 Ni4'
_cell_volume   199.28219116
_cell_formula_units_Z   1
loop_
 _symmetry_equiv_pos_site_id
 _symmetry_equiv_pos_as_xyz
  1  'x, y, z'
loop_
 _atom_site_type_symbol
 _atom_site_label
 _atom_site_symmetry_multiplicity
 _atom_site_fract_x
 _atom_site_fract_y
 _atom_site_fract_z
 _atom_site_occupancy
  Tb  Tb0  1  0.828345  0.671655  0.500000  1
  Dy  Dy1  1  0.171648  0.328352  0.500000  1
  Pa  Pa2  1  0.672133  0.172140  0.500000  1
  Pa  Pa3  1  0.327860  0.827867  0.500000  1
  Cd  Cd4  1  0.000035  0.000066  0.000000  1
  Cd  Cd5  1  0.499934  0.499965  0.000000  1
  Ni  Ni6  1  0.136464  0.636384  0.000000  1
  Ni  Ni7  1  0.863616  0.363536  0.000000  1
  Ni  Ni8  1  0.615041  0.884959  0.000000  1
  Ni  Ni9  1  0.384924  0.115076  0.000000  1
