# generated using pymatgen
data_Ti4ZnPdCN
_symmetry_space_group_name_H-M   'P 1'
_cell_length_a   8.33519175
_cell_length_b   8.33519215
_cell_length_c   4.28053100
_cell_angle_alpha   90.00000000
_cell_angle_beta   90.00000000
_cell_angle_gamma   159.36432552
_symmetry_Int_Tables_number   1
_chemical_formula_structural   Ti4ZnPdCN
_chemical_formula_sum   'Ti4 Zn1 Pd1 C1 N1'
_cell_volume   104.80809653
_cell_formula_units_Z   1
loop_
 _symmetry_equiv_pos_site_id
 _symmetry_equiv_pos_as_xyz
  1  'x, y, z'
loop_
 _atom_site_type_symbol
 _atom_site_label
 _atom_site_symmetry_multiplicity
 _atom_site_fract_x
 _atom_site_fract_y
 _atom_site_fract_z
 _atom_site_occupancy
  Ti  Ti0  1  0.787671  0.212329  0.250000  1
  Ti  Ti1  1  0.213752  0.786248  0.750000  1
  Ti  Ti2  1  0.610256  0.389744  0.250000  1
  Ti  Ti3  1  0.387972  0.612028  0.750000  1
  Zn  Zn4  1  0.044624  0.955376  0.750000  1
  Pd  Pd5  1  0.956974  0.043026  0.250000  1
  C  C6  1  0.197809  0.802191  0.250000  1
  N  N7  1  0.800944  0.199056  0.750000  1
