# generated using pymatgen
data_Dy(TlBr2)3
_symmetry_space_group_name_H-M   'P 1'
_cell_length_a   8.29041380
_cell_length_b   8.29041311
_cell_length_c   8.29041300
_cell_angle_alpha   60.84079005
_cell_angle_beta   60.84079274
_cell_angle_gamma   60.84079122
_symmetry_Int_Tables_number   1
_chemical_formula_structural   Dy(TlBr2)3
_chemical_formula_sum   'Dy1 Tl3 Br6'
_cell_volume   410.55398143
_cell_formula_units_Z   1
loop_
 _symmetry_equiv_pos_site_id
 _symmetry_equiv_pos_as_xyz
  1  'x, y, z'
loop_
 _atom_site_type_symbol
 _atom_site_label
 _atom_site_symmetry_multiplicity
 _atom_site_fract_x
 _atom_site_fract_y
 _atom_site_fract_z
 _atom_site_occupancy
  Dy  Dy0  1  0.000000  0.000000  0.000000  1
  Tl  Tl1  1  0.217412  0.217412  0.217412  1
  Tl  Tl2  1  0.500000  0.500000  0.500000  1
  Tl  Tl3  1  0.782588  0.782588  0.782588  1
  Br  Br4  1  0.334110  0.796705  0.117533  1
  Br  Br5  1  0.882466  0.665891  0.203296  1
  Br  Br6  1  0.796704  0.117534  0.334110  1
  Br  Br7  1  0.203296  0.882466  0.665890  1
  Br  Br8  1  0.117534  0.334110  0.796704  1
  Br  Br9  1  0.665890  0.203296  0.882467  1
