# generated using pymatgen
data_Lu4Tc3B8Os
_symmetry_space_group_name_H-M   'P 1'
_cell_length_a   5.22808800
_cell_length_b   5.86333520
_cell_length_c   6.36316028
_cell_angle_alpha   90.29264863
_cell_angle_beta   90.00000000
_cell_angle_gamma   90.00000000
_symmetry_Int_Tables_number   1
_chemical_formula_structural   Lu4Tc3B8Os
_chemical_formula_sum   'Lu4 Tc3 B8 Os1'
_cell_volume   195.05397703
_cell_formula_units_Z   1
loop_
 _symmetry_equiv_pos_site_id
 _symmetry_equiv_pos_as_xyz
  1  'x, y, z'
loop_
 _atom_site_type_symbol
 _atom_site_label
 _atom_site_symmetry_multiplicity
 _atom_site_fract_x
 _atom_site_fract_y
 _atom_site_fract_z
 _atom_site_occupancy
  Lu  Lu0  1  0.250000  0.515569  0.664438  1
  Lu  Lu1  1  0.750000  0.485022  0.336943  1
  Lu  Lu2  1  0.250000  0.015199  0.835749  1
  Lu  Lu3  1  0.750000  0.984537  0.163412  1
  Tc  Tc4  1  0.750000  0.818283  0.685768  1
  Tc  Tc5  1  0.750000  0.319796  0.815664  1
  Tc  Tc6  1  0.250000  0.180810  0.313769  1
  B  B7  1  0.922021  0.132857  0.534028  1
  B  B8  1  0.421511  0.866024  0.465640  1
  B  B9  1  0.577875  0.633841  0.965635  1
  B  B10  1  0.079345  0.365975  0.033863  1
  B  B11  1  0.078489  0.866024  0.465640  1
  B  B12  1  0.922125  0.633841  0.965635  1
  B  B13  1  0.420655  0.365975  0.033863  1
  B  B14  1  0.577979  0.132857  0.534028  1
  Os  Os15  1  0.250000  0.683388  0.185922  1
