# generated using pymatgen
data_Dy7Er5InGaNi4
_symmetry_space_group_name_H-M   'P 1'
_cell_length_a   8.37026623
_cell_length_b   8.37026568
_cell_length_c   8.36329200
_cell_angle_alpha   113.63722215
_cell_angle_beta   109.56046998
_cell_angle_gamma   105.35907112
_symmetry_Int_Tables_number   1
_chemical_formula_structural   Dy7Er5InGaNi4
_chemical_formula_sum   'Dy7 Er5 In1 Ga1 Ni4'
_cell_volume   448.50028443
_cell_formula_units_Z   1
loop_
 _symmetry_equiv_pos_site_id
 _symmetry_equiv_pos_as_xyz
  1  'x, y, z'
loop_
 _atom_site_type_symbol
 _atom_site_label
 _atom_site_symmetry_multiplicity
 _atom_site_fract_x
 _atom_site_fract_y
 _atom_site_fract_z
 _atom_site_occupancy
  Dy  Dy0  1  0.427007  0.230528  0.196115  1
  Dy  Dy1  1  0.574084  0.769753  0.804495  1
  Dy  Dy2  1  0.034742  0.230411  0.804495  1
  Dy  Dy3  1  0.965587  0.769108  0.196115  1
  Dy  Dy4  1  0.180581  0.289434  0.470015  1
  Dy  Dy5  1  0.818890  0.710672  0.529563  1
  Dy  Dy6  1  0.180741  0.710741  0.891482  1
  Er  Er7  1  0.818652  0.288941  0.107593  1
  Er  Er8  1  0.325136  0.635627  0.310973  1
  Er  Er9  1  0.675365  0.364154  0.689699  1
  Er  Er10  1  0.325548  0.014335  0.689699  1
  Er  Er11  1  0.675344  0.985837  0.310973  1
  In  In12  1  0.500273  0.500029  0.000303  1
  Ga  Ga13  1  0.999920  0.000682  0.000602  1
  Ni  Ni14  1  0.350055  0.999965  0.350020  1
  Ni  Ni15  1  0.650726  0.001174  0.651900  1
  Ni  Ni16  1  0.121941  0.622570  0.497980  1
  Ni  Ni17  1  0.875410  0.376039  0.497980  1
