# generated using pymatgen
data_ReTc4OsRh2
_symmetry_space_group_name_H-M   'P 1'
_cell_length_a   5.53312338
_cell_length_b   5.54003399
_cell_length_c   4.36266200
_cell_angle_alpha   90.00000000
_cell_angle_beta   90.00000000
_cell_angle_gamma   120.00122378
_symmetry_Int_Tables_number   1
_chemical_formula_structural   ReTc4OsRh2
_chemical_formula_sum   'Re1 Tc4 Os1 Rh2'
_cell_volume   115.81361746
_cell_formula_units_Z   1
loop_
 _symmetry_equiv_pos_site_id
 _symmetry_equiv_pos_as_xyz
  1  'x, y, z'
loop_
 _atom_site_type_symbol
 _atom_site_label
 _atom_site_symmetry_multiplicity
 _atom_site_fract_x
 _atom_site_fract_y
 _atom_site_fract_z
 _atom_site_occupancy
  Re  Re0  1  0.676916  0.837719  0.250000  1
  Tc  Tc1  1  0.161323  0.839388  0.250000  1
  Tc  Tc2  1  0.839759  0.677515  0.750000  1
  Tc  Tc3  1  0.321838  0.162332  0.750000  1
  Tc  Tc4  1  0.841129  0.163504  0.750000  1
  Os  Os5  1  0.162749  0.323262  0.250000  1
  Rh  Rh6  1  0.331644  0.664732  0.750000  1
  Rh  Rh7  1  0.664641  0.331550  0.250000  1
