# generated using pymatgen
data_Tb8Gd4ZnGaCo4
_symmetry_space_group_name_H-M   'P 1'
_cell_length_a   8.39830817
_cell_length_b   8.39830059
_cell_length_c   8.39830800
_cell_angle_alpha   112.61619462
_cell_angle_beta   108.70146429
_cell_angle_gamma   107.14598336
_symmetry_Int_Tables_number   1
_chemical_formula_structural   Tb8Gd4ZnGaCo4
_chemical_formula_sum   'Tb8 Gd4 Zn1 Ga1 Co4'
_cell_volume   454.87176661
_cell_formula_units_Z   1
loop_
 _symmetry_equiv_pos_site_id
 _symmetry_equiv_pos_as_xyz
  1  'x, y, z'
loop_
 _atom_site_type_symbol
 _atom_site_label
 _atom_site_symmetry_multiplicity
 _atom_site_fract_x
 _atom_site_fract_y
 _atom_site_fract_z
 _atom_site_occupancy
  Tb  Tb0  1  0.672145  0.859847  0.187702  1
  Tb  Tb1  1  0.327806  0.515560  0.187754  1
  Tb  Tb2  1  0.327855  0.140153  0.812298  1
  Tb  Tb3  1  0.672194  0.484440  0.812246  1
  Tb  Tb4  1  0.177772  0.219044  0.396660  1
  Tb  Tb5  1  0.822385  0.219044  0.041273  1
  Tb  Tb6  1  0.177615  0.780956  0.958727  1
  Tb  Tb7  1  0.822228  0.780956  0.603340  1
  Gd  Gd8  1  0.038946  0.735937  0.303110  1
  Gd  Gd9  1  0.961054  0.264063  0.696890  1
  Gd  Gd10  1  0.567172  0.264063  0.303008  1
  Gd  Gd11  1  0.432828  0.735937  0.696992  1
  Zn  Zn12  1  0.000000  0.500000  0.500000  1
  Ga  Ga13  1  0.500000  0.000000  0.500000  1
  Co  Co14  1  0.664799  0.500000  0.164799  1
  Co  Co15  1  0.335201  0.500000  0.835201  1
  Co  Co16  1  0.886261  0.886277  0.000015  1
  Co  Co17  1  0.113739  0.113723  0.999985  1
