# generated using pymatgen
data_Tb2MgCuNi
_symmetry_space_group_name_H-M   'P 1'
_cell_length_a   7.56390930
_cell_length_b   7.56390930
_cell_length_c   3.66145300
_cell_angle_alpha   90.00000000
_cell_angle_beta   90.00000000
_cell_angle_gamma   88.84938520
_symmetry_Int_Tables_number   1
_chemical_formula_structural   Tb2MgCuNi
_chemical_formula_sum   'Tb4 Mg2 Cu2 Ni2'
_cell_volume   209.43946034
_cell_formula_units_Z   2
loop_
 _symmetry_equiv_pos_site_id
 _symmetry_equiv_pos_as_xyz
  1  'x, y, z'
loop_
 _atom_site_type_symbol
 _atom_site_label
 _atom_site_symmetry_multiplicity
 _atom_site_fract_x
 _atom_site_fract_y
 _atom_site_fract_z
 _atom_site_occupancy
  Tb  Tb0  1  0.664427  0.164427  0.500000  1
  Tb  Tb1  1  0.335573  0.835573  0.500000  1
  Tb  Tb2  1  0.182038  0.317962  0.500000  1
  Tb  Tb3  1  0.817962  0.682038  0.500000  1
  Mg  Mg4  1  0.000000  0.000000  0.000000  1
  Mg  Mg5  1  0.500000  0.500000  0.000000  1
  Cu  Cu6  1  0.120722  0.620722  0.000000  1
  Cu  Cu7  1  0.879278  0.379278  0.000000  1
  Ni  Ni8  1  0.620460  0.879540  0.000000  1
  Ni  Ni9  1  0.379540  0.120460  0.000000  1
