# generated using pymatgen
data_Ba4Np3U4SbSe20
_symmetry_space_group_name_H-M   'P 1'
_cell_length_a   8.00255806
_cell_length_b   8.75395178
_cell_length_c   12.39487383
_cell_angle_alpha   89.57863242
_cell_angle_beta   90.15544854
_cell_angle_gamma   90.17946336
_symmetry_Int_Tables_number   1
_chemical_formula_structural   Ba4Np3U4SbSe20
_chemical_formula_sum   'Ba4 Np3 U4 Sb1 Se20'
_cell_volume   868.27970026
_cell_formula_units_Z   1
loop_
 _symmetry_equiv_pos_site_id
 _symmetry_equiv_pos_as_xyz
  1  'x, y, z'
loop_
 _atom_site_type_symbol
 _atom_site_label
 _atom_site_symmetry_multiplicity
 _atom_site_fract_x
 _atom_site_fract_y
 _atom_site_fract_z
 _atom_site_occupancy
  Ba  Ba0  1  0.057314  0.484056  0.328909  1
  Ba  Ba1  1  0.559379  0.505879  0.169863  1
  Ba  Ba2  1  0.942547  0.508450  0.671469  1
  Ba  Ba3  1  0.446354  0.494129  0.831501  1
  Np  Np4  1  0.522579  0.004137  0.177130  1
  Np  Np5  1  0.970180  0.004031  0.680423  1
  Np  Np6  1  0.473682  0.998970  0.822353  1
  U  U7  1  0.070581  0.758981  0.005412  1
  U  U8  1  0.558922  0.251396  0.496478  1
  U  U9  1  0.940695  0.242191  0.992056  1
  U  U10  1  0.437175  0.756346  0.505645  1
  Sb  Sb11  1  0.988966  0.976950  0.333437  1
  Se  Se12  1  0.661128  0.966247  0.402861  1
  Se  Se13  1  0.168556  0.044953  0.090645  1
  Se  Se14  1  0.334828  0.044474  0.595214  1
  Se  Se15  1  0.835729  0.958272  0.903430  1
  Se  Se16  1  0.448613  0.788103  0.002073  1
  Se  Se17  1  0.938861  0.211090  0.500794  1
  Se  Se18  1  0.550515  0.210769  0.994829  1
  Se  Se19  1  0.056100  0.784405  0.504915  1
  Se  Se20  1  0.844766  0.776586  0.184895  1
  Se  Se21  1  0.364931  0.234879  0.310555  1
  Se  Se22  1  0.155348  0.223356  0.810534  1
  Se  Se23  1  0.654923  0.782107  0.686911  1
  Se  Se24  1  0.327537  0.765245  0.288215  1
  Se  Se25  1  0.819110  0.218626  0.204979  1
  Se  Se26  1  0.680980  0.226889  0.713055  1
  Se  Se27  1  0.182569  0.774916  0.786484  1
  Se  Se28  1  0.178611  0.461415  0.069293  1
  Se  Se29  1  0.681316  0.539226  0.431576  1
  Se  Se30  1  0.824889  0.537970  0.930233  1
  Se  Se31  1  0.322313  0.464957  0.573836  1
