# generated using pymatgen
data_SmYU8O20
_symmetry_space_group_name_H-M   'P 1'
_cell_length_a   6.62886229
_cell_length_b   7.65961026
_cell_length_c   8.56153568
_cell_angle_alpha   102.99692449
_cell_angle_beta   97.34275288
_cell_angle_gamma   106.82070128
_symmetry_Int_Tables_number   1
_chemical_formula_structural   SmYU8O20
_chemical_formula_sum   'Sm1 Y1 U8 O20'
_cell_volume   396.68402496
_cell_formula_units_Z   1
loop_
 _symmetry_equiv_pos_site_id
 _symmetry_equiv_pos_as_xyz
  1  'x, y, z'
loop_
 _atom_site_type_symbol
 _atom_site_label
 _atom_site_symmetry_multiplicity
 _atom_site_fract_x
 _atom_site_fract_y
 _atom_site_fract_z
 _atom_site_occupancy
  Sm  Sm0  1  0.999145  0.998377  0.998245  1
  Y  Y1  1  0.800296  0.600966  0.600855  1
  U  U2  1  0.600666  0.201749  0.200044  1
  U  U3  1  0.000816  0.500126  0.998782  1
  U  U4  1  0.798286  0.100095  0.600142  1
  U  U5  1  0.399632  0.799067  0.799336  1
  U  U6  1  0.200252  0.399832  0.401416  1
  U  U7  1  0.601554  0.700270  0.201312  1
  U  U8  1  0.400567  0.300438  0.799729  1
  U  U9  1  0.198562  0.899143  0.399956  1
  O  O10  1  0.850936  0.319512  0.450173  1
  O  O11  1  0.641478  0.922535  0.055473  1
  O  O12  1  0.949199  0.767914  0.153022  1
  O  O13  1  0.442181  0.520494  0.650490  1
  O  O14  1  0.852216  0.829978  0.448528  1
  O  O15  1  0.649272  0.426074  0.049837  1
  O  O16  1  0.744954  0.370451  0.752513  1
  O  O17  1  0.256654  0.127147  0.256857  1
  O  O18  1  0.948554  0.283902  0.152806  1
  O  O19  1  0.445487  0.025914  0.647508  1
  O  O20  1  0.549661  0.973895  0.353011  1
  O  O21  1  0.058862  0.718481  0.849107  1
  O  O22  1  0.737889  0.876228  0.745773  1
  O  O23  1  0.354104  0.573750  0.951967  1
  O  O24  1  0.253209  0.626722  0.248366  1
  O  O25  1  0.547983  0.475341  0.346203  1
  O  O26  1  0.149587  0.173878  0.549885  1
  O  O27  1  0.052422  0.231817  0.845758  1
  O  O28  1  0.360239  0.079730  0.947812  1
  O  O29  1  0.155337  0.676171  0.545095  1
