# generated using pymatgen
data_Er2CrCo8ReP6
_symmetry_space_group_name_H-M   'P 1'
_cell_length_a   3.67916700
_cell_length_b   10.31989000
_cell_length_c   11.77196200
_cell_angle_alpha   90.00000000
_cell_angle_beta   90.00000000
_cell_angle_gamma   90.00000000
_symmetry_Int_Tables_number   1
_chemical_formula_structural   Er2CrCo8ReP6
_chemical_formula_sum   'Er4 Cr2 Co16 Re2 P12'
_cell_volume   446.96490146
_cell_formula_units_Z   2
loop_
 _symmetry_equiv_pos_site_id
 _symmetry_equiv_pos_as_xyz
  1  'x, y, z'
loop_
 _atom_site_type_symbol
 _atom_site_label
 _atom_site_symmetry_multiplicity
 _atom_site_fract_x
 _atom_site_fract_y
 _atom_site_fract_z
 _atom_site_occupancy
  Er  Er0  1  0.250000  0.582081  0.703506  1
  Er  Er1  1  0.250000  0.917919  0.203506  1
  Er  Er2  1  0.750000  0.415506  0.294934  1
  Er  Er3  1  0.750000  0.084494  0.794934  1
  Cr  Cr4  1  0.750000  0.287570  0.011147  1
  Cr  Cr5  1  0.750000  0.212430  0.511147  1
  Co  Co6  1  0.250000  0.405705  0.488295  1
  Co  Co7  1  0.250000  0.094295  0.988295  1
  Co  Co8  1  0.750000  0.593571  0.510709  1
  Co  Co9  1  0.750000  0.906429  0.010709  1
  Co  Co10  1  0.250000  0.220419  0.177380  1
  Co  Co11  1  0.250000  0.279581  0.677380  1
  Co  Co12  1  0.750000  0.777584  0.822491  1
  Co  Co13  1  0.750000  0.722416  0.322491  1
  Co  Co14  1  0.250000  0.887829  0.701257  1
  Co  Co15  1  0.250000  0.612171  0.201257  1
  Co  Co16  1  0.750000  0.114992  0.300886  1
  Co  Co17  1  0.750000  0.385008  0.800886  1
  Co  Co18  1  0.250000  0.464614  0.933116  1
  Co  Co19  1  0.250000  0.035386  0.433116  1
  Co  Co20  1  0.750000  0.534108  0.067339  1
  Co  Co21  1  0.750000  0.965892  0.567339  1
  Re  Re22  1  0.250000  0.709512  0.988892  1
  Re  Re23  1  0.250000  0.790488  0.488892  1
  P  P24  1  0.250000  0.416096  0.113451  1
  P  P25  1  0.250000  0.083904  0.613451  1
  P  P26  1  0.750000  0.578703  0.885212  1
  P  P27  1  0.750000  0.921297  0.385212  1
  P  P28  1  0.250000  0.268658  0.868320  1
  P  P29  1  0.250000  0.231342  0.368320  1
  P  P30  1  0.750000  0.730844  0.133877  1
  P  P31  1  0.750000  0.769156  0.633877  1
  P  P32  1  0.250000  0.594904  0.390608  1
  P  P33  1  0.250000  0.905096  0.890608  1
  P  P34  1  0.750000  0.400139  0.608580  1
  P  P35  1  0.750000  0.099861  0.108580  1
