# generated using pymatgen
data_Li2LaDyPd2
_symmetry_space_group_name_H-M   'P 1'
_cell_length_a   4.08422900
_cell_length_b   7.24583492
_cell_length_c   8.55863900
_cell_angle_alpha   91.33164847
_cell_angle_beta   90.00000000
_cell_angle_gamma   90.00000000
_symmetry_Int_Tables_number   1
_chemical_formula_structural   Li2LaDyPd2
_chemical_formula_sum   'Li4 La2 Dy2 Pd4'
_cell_volume   253.21295442
_cell_formula_units_Z   2
loop_
 _symmetry_equiv_pos_site_id
 _symmetry_equiv_pos_as_xyz
  1  'x, y, z'
loop_
 _atom_site_type_symbol
 _atom_site_label
 _atom_site_symmetry_multiplicity
 _atom_site_fract_x
 _atom_site_fract_y
 _atom_site_fract_z
 _atom_site_occupancy
  Li  Li0  1  0.250000  0.364770  0.554878  1
  Li  Li1  1  0.750000  0.118684  0.056420  1
  Li  Li2  1  0.250000  0.881316  0.943580  1
  Li  Li3  1  0.750000  0.635230  0.445122  1
  La  La4  1  0.250000  0.455760  0.191174  1
  La  La5  1  0.750000  0.544240  0.808826  1
  Dy  Dy6  1  0.250000  0.952057  0.322075  1
  Dy  Dy7  1  0.750000  0.047943  0.677925  1
  Pd  Pd8  1  0.750000  0.236621  0.380930  1
  Pd  Pd9  1  0.250000  0.244574  0.871738  1
  Pd  Pd10  1  0.750000  0.755426  0.128262  1
  Pd  Pd11  1  0.250000  0.763379  0.619070  1
