# generated using pymatgen
data_HoErScB2Ir5
_symmetry_space_group_name_H-M   'P 1'
_cell_length_a   3.16357300
_cell_length_b   9.77257289
_cell_length_c   9.77257289
_cell_angle_alpha   89.95100947
_cell_angle_beta   90.00000000
_cell_angle_gamma   90.00000000
_symmetry_Int_Tables_number   1
_chemical_formula_structural   HoErScB2Ir5
_chemical_formula_sum   'Ho2 Er2 Sc2 B4 Ir10'
_cell_volume   302.13117423
_cell_formula_units_Z   2
loop_
 _symmetry_equiv_pos_site_id
 _symmetry_equiv_pos_as_xyz
  1  'x, y, z'
loop_
 _atom_site_type_symbol
 _atom_site_label
 _atom_site_symmetry_multiplicity
 _atom_site_fract_x
 _atom_site_fract_y
 _atom_site_fract_z
 _atom_site_occupancy
  Ho  Ho0  1  0.000000  0.176887  0.676887  1
  Ho  Ho1  1  0.000000  0.823113  0.323113  1
  Er  Er2  1  0.000000  0.323188  0.176812  1
  Er  Er3  1  0.000000  0.676812  0.823188  1
  Sc  Sc4  1  0.000000  0.000000  0.000000  1
  Sc  Sc5  1  0.000000  0.500000  0.500000  1
  B  B6  1  0.000000  0.620400  0.120400  1
  B  B7  1  0.000000  0.379600  0.879600  1
  B  B8  1  0.000000  0.879462  0.620538  1
  B  B9  1  0.000000  0.120538  0.379462  1
  Ir  Ir10  1  0.500000  0.069485  0.225142  1
  Ir  Ir11  1  0.500000  0.930515  0.774858  1
  Ir  Ir12  1  0.500000  0.774632  0.068876  1
  Ir  Ir13  1  0.500000  0.431124  0.725368  1
  Ir  Ir14  1  0.500000  0.225368  0.931124  1
  Ir  Ir15  1  0.500000  0.568876  0.274632  1
  Ir  Ir16  1  0.500000  0.725142  0.569485  1
  Ir  Ir17  1  0.500000  0.274858  0.430515  1
  Ir  Ir18  1  0.500000  0.000000  0.500000  1
  Ir  Ir19  1  0.500000  0.500000  0.000000  1
