# generated using pymatgen
data_AcNdCd(Si3Pd10)2
_symmetry_space_group_name_H-M   'P 1'
_cell_length_a   8.76841135
_cell_length_b   8.76891051
_cell_length_c   8.76779600
_cell_angle_alpha   60.00403565
_cell_angle_beta   60.00380343
_cell_angle_gamma   60.00655100
_symmetry_Int_Tables_number   1
_chemical_formula_structural   AcNdCd(Si3Pd10)2
_chemical_formula_sum   'Ac1 Nd1 Cd1 Si6 Pd20'
_cell_volume   476.74837222
_cell_formula_units_Z   1
loop_
 _symmetry_equiv_pos_site_id
 _symmetry_equiv_pos_as_xyz
  1  'x, y, z'
loop_
 _atom_site_type_symbol
 _atom_site_label
 _atom_site_symmetry_multiplicity
 _atom_site_fract_x
 _atom_site_fract_y
 _atom_site_fract_z
 _atom_site_occupancy
  Ac  Ac0  1  0.250024  0.250007  0.249964  1
  Nd  Nd1  1  0.749979  0.750003  0.750003  1
  Cd  Cd2  1  0.999997  0.000003  0.000000  1
  Si  Si3  1  0.733622  0.733681  0.266332  1
  Si  Si4  1  0.266369  0.266310  0.733681  1
  Si  Si5  1  0.733654  0.266301  0.733652  1
  Si  Si6  1  0.266350  0.733696  0.266354  1
  Si  Si7  1  0.266337  0.733675  0.733617  1
  Si  Si8  1  0.733668  0.266321  0.266384  1
  Pd  Pd9  1  0.615025  0.615003  0.614988  1
  Pd  Pd10  1  0.387639  0.387663  0.387680  1
  Pd  Pd11  1  0.155005  0.614997  0.614981  1
  Pd  Pd12  1  0.615014  0.154997  0.614976  1
  Pd  Pd13  1  0.837006  0.387666  0.387682  1
  Pd  Pd14  1  0.387651  0.837006  0.387692  1
  Pd  Pd15  1  0.614950  0.614941  0.155164  1
  Pd  Pd16  1  0.387710  0.387718  0.836861  1
  Pd  Pd17  1  0.998549  0.998586  0.657503  1
  Pd  Pd18  1  0.998493  0.998460  0.345459  1
  Pd  Pd19  1  0.345310  0.657533  0.998589  1
  Pd  Pd20  1  0.657653  0.345423  0.998439  1
  Pd  Pd21  1  0.998597  0.657515  0.998608  1
  Pd  Pd22  1  0.657554  0.998489  0.345447  1
  Pd  Pd23  1  0.998453  0.345442  0.998427  1
  Pd  Pd24  1  0.345402  0.998551  0.657511  1
  Pd  Pd25  1  0.657545  0.998566  0.998530  1
  Pd  Pd26  1  0.345410  0.998493  0.998511  1
  Pd  Pd27  1  0.998567  0.657555  0.345332  1
  Pd  Pd28  1  0.998471  0.345398  0.657632  1
