# generated using pymatgen
data_Th4MnCo(RuC)10
_symmetry_space_group_name_H-M   'P 1'
_cell_length_a   9.01393001
_cell_length_b   9.01393001
_cell_length_c   4.20464300
_cell_angle_alpha   90.00000000
_cell_angle_beta   90.00000000
_cell_angle_gamma   89.71430677
_symmetry_Int_Tables_number   1
_chemical_formula_structural   Th4MnCo(RuC)10
_chemical_formula_sum   'Th4 Mn1 Co1 Ru10 C10'
_cell_volume   341.62692516
_cell_formula_units_Z   1
loop_
 _symmetry_equiv_pos_site_id
 _symmetry_equiv_pos_as_xyz
  1  'x, y, z'
loop_
 _atom_site_type_symbol
 _atom_site_label
 _atom_site_symmetry_multiplicity
 _atom_site_fract_x
 _atom_site_fract_y
 _atom_site_fract_z
 _atom_site_occupancy
  Th  Th0  1  0.315951  0.815951  0.500000  1
  Th  Th1  1  0.819796  0.680204  0.500000  1
  Th  Th2  1  0.180204  0.319796  0.500000  1
  Th  Th3  1  0.684049  0.184049  0.500000  1
  Mn  Mn4  1  0.500000  0.000000  0.000000  1
  Co  Co5  1  0.000000  0.500000  0.000000  1
  Ru  Ru6  1  0.718689  0.437863  0.000000  1
  Ru  Ru7  1  0.439659  0.281444  0.000000  1
  Ru  Ru8  1  0.000000  0.000000  0.500000  1
  Ru  Ru9  1  0.500000  0.500000  0.500000  1
  Ru  Ru10  1  0.781444  0.939659  0.000000  1
  Ru  Ru11  1  0.937863  0.218689  0.000000  1
  Ru  Ru12  1  0.062137  0.781311  0.000000  1
  Ru  Ru13  1  0.218556  0.060341  0.000000  1
  Ru  Ru14  1  0.560341  0.718556  0.000000  1
  Ru  Ru15  1  0.281311  0.562137  0.000000  1
  C  C16  1  0.500000  0.500000  0.000000  1
  C  C17  1  0.000000  0.000000  0.000000  1
  C  C18  1  0.885867  0.385867  0.671857  1
  C  C19  1  0.114133  0.614133  0.671857  1
  C  C20  1  0.885867  0.385867  0.328143  1
  C  C21  1  0.384590  0.115410  0.330179  1
  C  C22  1  0.615410  0.884590  0.330179  1
  C  C23  1  0.114133  0.614133  0.328143  1
  C  C24  1  0.615410  0.884590  0.669821  1
  C  C25  1  0.384590  0.115410  0.669821  1
