# generated using pymatgen
data_Dy4Ho8TcRu3
_symmetry_space_group_name_H-M   'P 1'
_cell_length_a   6.27342938
_cell_length_b   7.33290803
_cell_length_c   9.13024400
_cell_angle_alpha   90.00000000
_cell_angle_beta   90.00000000
_cell_angle_gamma   90.01479603
_symmetry_Int_Tables_number   1
_chemical_formula_structural   Dy4Ho8TcRu3
_chemical_formula_sum   'Dy4 Ho8 Tc1 Ru3'
_cell_volume   420.01385878
_cell_formula_units_Z   1
loop_
 _symmetry_equiv_pos_site_id
 _symmetry_equiv_pos_as_xyz
  1  'x, y, z'
loop_
 _atom_site_type_symbol
 _atom_site_label
 _atom_site_symmetry_multiplicity
 _atom_site_fract_x
 _atom_site_fract_y
 _atom_site_fract_z
 _atom_site_occupancy
  Dy  Dy0  1  0.868080  0.539705  0.250000  1
  Dy  Dy1  1  0.627912  0.041450  0.250000  1
  Dy  Dy2  1  0.134214  0.457961  0.750000  1
  Dy  Dy3  1  0.366206  0.958327  0.750000  1
  Ho  Ho4  1  0.333130  0.676062  0.064544  1
  Ho  Ho5  1  0.167368  0.175946  0.435771  1
  Ho  Ho6  1  0.667978  0.323767  0.564377  1
  Ho  Ho7  1  0.834471  0.824770  0.936917  1
  Ho  Ho8  1  0.667978  0.323767  0.935623  1
  Ho  Ho9  1  0.834471  0.824770  0.563083  1
  Ho  Ho10  1  0.333130  0.676062  0.435456  1
  Ho  Ho11  1  0.167368  0.175946  0.064229  1
  Tc  Tc12  1  0.037621  0.885141  0.250000  1
  Ru  Ru13  1  0.461086  0.384361  0.250000  1
  Ru  Ru14  1  0.960016  0.116861  0.750000  1
  Ru  Ru15  1  0.538970  0.615105  0.750000  1
