# generated using pymatgen
data_BeNb5Ga2Ge
_symmetry_space_group_name_H-M   'P 1'
_cell_length_a   7.85127207
_cell_length_b   7.84939744
_cell_length_c   5.41358000
_cell_angle_alpha   90.00000000
_cell_angle_beta   90.00000000
_cell_angle_gamma   119.99209789
_symmetry_Int_Tables_number   1
_chemical_formula_structural   BeNb5Ga2Ge
_chemical_formula_sum   'Be2 Nb10 Ga4 Ge2'
_cell_volume   288.95227184
_cell_formula_units_Z   2
loop_
 _symmetry_equiv_pos_site_id
 _symmetry_equiv_pos_as_xyz
  1  'x, y, z'
loop_
 _atom_site_type_symbol
 _atom_site_label
 _atom_site_symmetry_multiplicity
 _atom_site_fract_x
 _atom_site_fract_y
 _atom_site_fract_z
 _atom_site_occupancy
  Be  Be0  1  0.000000  0.998714  0.004021  1
  Be  Be1  1  0.000000  0.998714  0.495979  1
  Nb  Nb2  1  0.665707  0.332740  0.001133  1
  Nb  Nb3  1  0.334293  0.667034  0.001133  1
  Nb  Nb4  1  0.334293  0.667034  0.498867  1
  Nb  Nb5  1  0.665707  0.332740  0.498867  1
  Nb  Nb6  1  0.740889  0.742270  0.750000  1
  Nb  Nb7  1  0.259111  0.001381  0.750000  1
  Nb  Nb8  1  0.000000  0.257489  0.750000  1
  Nb  Nb9  1  0.260581  0.260429  0.250000  1
  Nb  Nb10  1  0.739419  0.999849  0.250000  1
  Nb  Nb11  1  0.000000  0.739146  0.250000  1
  Ga  Ga12  1  0.000000  0.610085  0.750000  1
  Ga  Ga13  1  0.612300  0.611544  0.250000  1
  Ga  Ga14  1  0.387700  0.999244  0.250000  1
  Ga  Ga15  1  0.000000  0.389765  0.250000  1
  Ge  Ge16  1  0.391194  0.391508  0.750000  1
  Ge  Ge17  1  0.608806  0.000314  0.750000  1
