# generated using pymatgen
data_Ca3PtO6
_symmetry_space_group_name_H-M   'P 1'
_cell_length_a   6.60473737
_cell_length_b   6.60473637
_cell_length_c   6.60473761
_cell_angle_alpha   91.71163902
_cell_angle_beta   91.71163306
_cell_angle_gamma   91.71163649
_symmetry_Int_Tables_number   1
_chemical_formula_structural   Ca3PtO6
_chemical_formula_sum   'Ca6 Pt2 O12'
_cell_volume   287.72197129
_cell_formula_units_Z   2
loop_
 _symmetry_equiv_pos_site_id
 _symmetry_equiv_pos_as_xyz
  1  'x, y, z'
loop_
 _atom_site_type_symbol
 _atom_site_label
 _atom_site_symmetry_multiplicity
 _atom_site_fract_x
 _atom_site_fract_y
 _atom_site_fract_z
 _atom_site_occupancy
  Ca  Ca0  1  0.930741  0.435703  0.745658  1
  Ca  Ca1  1  0.745658  0.930741  0.435703  1
  Ca  Ca2  1  0.564297  0.254342  0.069259  1
  Ca  Ca3  1  0.435703  0.745658  0.930741  1
  Ca  Ca4  1  0.254342  0.069259  0.564297  1
  Ca  Ca5  1  0.069259  0.564297  0.254342  1
  Pt  Pt6  1  0.000000  0.000000  0.000000  1
  Pt  Pt7  1  0.500000  0.500000  0.500000  1
  O  O8  1  0.934403  0.285919  0.069513  1
  O  O9  1  0.930487  0.065597  0.714081  1
  O  O10  1  0.787078  0.579499  0.452761  1
  O  O11  1  0.714081  0.930487  0.065597  1
  O  O12  1  0.579499  0.452761  0.787078  1
  O  O13  1  0.547239  0.212922  0.420501  1
  O  O14  1  0.452761  0.787078  0.579499  1
  O  O15  1  0.420501  0.547239  0.212922  1
  O  O16  1  0.285919  0.069513  0.934403  1
  O  O17  1  0.212922  0.420501  0.547239  1
  O  O18  1  0.069513  0.934403  0.285919  1
  O  O19  1  0.065597  0.714081  0.930487  1
