# generated using pymatgen
data_DyY3ReB12Os
_symmetry_space_group_name_H-M   'P 1'
_cell_length_a   3.67271900
_cell_length_b   9.17325111
_cell_length_c   11.56201800
_cell_angle_alpha   90.13564869
_cell_angle_beta   90.00000000
_cell_angle_gamma   90.00000000
_symmetry_Int_Tables_number   1
_chemical_formula_structural   DyY3ReB12Os
_chemical_formula_sum   'Dy2 Y6 Re2 B24 Os2'
_cell_volume   389.53223960
_cell_formula_units_Z   2
loop_
 _symmetry_equiv_pos_site_id
 _symmetry_equiv_pos_as_xyz
  1  'x, y, z'
loop_
 _atom_site_type_symbol
 _atom_site_label
 _atom_site_symmetry_multiplicity
 _atom_site_fract_x
 _atom_site_fract_y
 _atom_site_fract_z
 _atom_site_occupancy
  Dy  Dy0  1  0.000000  0.442469  0.128930  1
  Dy  Dy1  1  0.000000  0.557531  0.871070  1
  Y  Y2  1  0.000000  0.321031  0.412396  1
  Y  Y3  1  0.000000  0.678969  0.587604  1
  Y  Y4  1  0.000000  0.824779  0.084705  1
  Y  Y5  1  0.000000  0.175221  0.915295  1
  Y  Y6  1  0.000000  0.943473  0.370755  1
  Y  Y7  1  0.000000  0.056527  0.629245  1
  Re  Re8  1  0.000000  0.138535  0.179445  1
  Re  Re9  1  0.000000  0.861465  0.820555  1
  B  B10  1  0.500000  0.553769  0.432806  1
  B  B11  1  0.500000  0.446231  0.567194  1
  B  B12  1  0.500000  0.053181  0.067080  1
  B  B13  1  0.500000  0.946819  0.932920  1
  B  B14  1  0.500000  0.748193  0.418603  1
  B  B15  1  0.500000  0.251807  0.581397  1
  B  B16  1  0.500000  0.248383  0.081244  1
  B  B17  1  0.500000  0.751617  0.918756  1
  B  B18  1  0.500000  0.790349  0.266100  1
  B  B19  1  0.500000  0.209651  0.733900  1
  B  B20  1  0.500000  0.291341  0.234267  1
  B  B21  1  0.500000  0.708659  0.765733  1
  B  B22  1  0.500000  0.631028  0.186445  1
  B  B23  1  0.500000  0.368972  0.813555  1
  B  B24  1  0.500000  0.131642  0.314394  1
  B  B25  1  0.500000  0.868358  0.685606  1
  B  B26  1  0.500000  0.983148  0.212422  1
  B  B27  1  0.500000  0.016852  0.787578  1
  B  B28  1  0.500000  0.483468  0.287926  1
  B  B29  1  0.500000  0.516532  0.712074  1
  B  B30  1  0.500000  0.603777  0.029007  1
  B  B31  1  0.500000  0.396223  0.970993  1
  B  B32  1  0.500000  0.104486  0.471143  1
  B  B33  1  0.500000  0.895514  0.528857  1
  Os  Os34  1  0.000000  0.637365  0.321892  1
  Os  Os35  1  0.000000  0.362635  0.678108  1
