# generated using pymatgen
data_LiNd(CuO2)4
_symmetry_space_group_name_H-M   'P 1'
_cell_length_a   6.24744334
_cell_length_b   6.24744389
_cell_length_c   6.24744308
_cell_angle_alpha   125.17532170
_cell_angle_beta   125.17532731
_cell_angle_gamma   81.24783181
_symmetry_Int_Tables_number   1
_chemical_formula_structural   LiNd(CuO2)4
_chemical_formula_sum   'Li1 Nd1 Cu4 O8'
_cell_volume   156.91414519
_cell_formula_units_Z   1
loop_
 _symmetry_equiv_pos_site_id
 _symmetry_equiv_pos_as_xyz
  1  'x, y, z'
loop_
 _atom_site_type_symbol
 _atom_site_label
 _atom_site_symmetry_multiplicity
 _atom_site_fract_x
 _atom_site_fract_y
 _atom_site_fract_z
 _atom_site_occupancy
  Li  Li0  1  0.000000  0.000000  0.000000  1
  Nd  Nd1  1  0.750000  0.250000  0.500000  1
  Cu  Cu2  1  0.377524  0.122603  0.748775  1
  Cu  Cu3  1  0.373828  0.628749  0.251225  1
  Cu  Cu4  1  0.877397  0.626172  0.254921  1
  Cu  Cu5  1  0.371251  0.622476  0.745079  1
  O  O6  1  0.172178  0.597133  0.867558  1
  O  O7  1  0.729575  0.304620  0.132442  1
  O  O8  1  0.577396  0.660459  0.635795  1
  O  O9  1  0.024665  0.941602  0.364205  1
  O  O10  1  0.339541  0.975335  0.916937  1
  O  O11  1  0.058398  0.422604  0.083063  1
  O  O12  1  0.695380  0.827822  0.424955  1
  O  O13  1  0.402867  0.270425  0.575045  1
