# generated using pymatgen
data_TbAl2Pd2Pt3
_symmetry_space_group_name_H-M   'P 1'
_cell_length_a   4.13620707
_cell_length_b   4.13501182
_cell_length_c   8.12122030
_cell_angle_alpha   104.73263286
_cell_angle_beta   104.75311510
_cell_angle_gamma   89.99999617
_symmetry_Int_Tables_number   1
_chemical_formula_structural   TbAl2Pd2Pt3
_chemical_formula_sum   'Tb1 Al2 Pd2 Pt3'
_cell_volume   129.59231438
_cell_formula_units_Z   1
loop_
 _symmetry_equiv_pos_site_id
 _symmetry_equiv_pos_as_xyz
  1  'x, y, z'
loop_
 _atom_site_type_symbol
 _atom_site_label
 _atom_site_symmetry_multiplicity
 _atom_site_fract_x
 _atom_site_fract_y
 _atom_site_fract_z
 _atom_site_occupancy
  Tb  Tb0  1  0.999886  0.999873  0.999773  1
  Al  Al1  1  0.747215  0.747232  0.494431  1
  Al  Al2  1  0.253138  0.253125  0.506277  1
  Pd  Pd3  1  0.499495  0.499500  0.998990  1
  Pd  Pd4  1  0.357150  0.857134  0.714299  1
  Pt  Pt5  1  0.643302  0.143331  0.286607  1
  Pt  Pt6  1  0.145249  0.645235  0.290497  1
  Pt  Pt7  1  0.854563  0.354570  0.709125  1
