# generated using pymatgen
data_NdDy(NiIr)2
_symmetry_space_group_name_H-M   'P 1'
_cell_length_a   5.41220833
_cell_length_b   5.25219779
_cell_length_c   5.25219748
_cell_angle_alpha   58.67216121
_cell_angle_beta   58.98698670
_cell_angle_gamma   58.98698220
_symmetry_Int_Tables_number   1
_chemical_formula_structural   NdDy(NiIr)2
_chemical_formula_sum   'Nd1 Dy1 Ni2 Ir2'
_cell_volume   102.87412492
_cell_formula_units_Z   1
loop_
 _symmetry_equiv_pos_site_id
 _symmetry_equiv_pos_as_xyz
  1  'x, y, z'
loop_
 _atom_site_type_symbol
 _atom_site_label
 _atom_site_symmetry_multiplicity
 _atom_site_fract_x
 _atom_site_fract_y
 _atom_site_fract_z
 _atom_site_occupancy
  Nd  Nd0  1  0.751711  0.748289  0.748289  1
  Dy  Dy1  1  0.498515  0.501485  0.501485  1
  Ni  Ni2  1  0.125444  0.623950  0.125160  1
  Ni  Ni3  1  0.125444  0.125160  0.623950  1
  Ir  Ir4  1  0.125637  0.125557  0.125557  1
  Ir  Ir5  1  0.623247  0.125557  0.125557  1
