# generated using pymatgen
data_Nd5Tm11Cd4Ir3Pt
_symmetry_space_group_name_H-M   'P 1'
_cell_length_a   9.65598046
_cell_length_b   9.64401213
_cell_length_c   9.64401302
_cell_angle_alpha   60.06397503
_cell_angle_beta   60.01601803
_cell_angle_gamma   60.01602394
_symmetry_Int_Tables_number   1
_chemical_formula_structural   Nd5Tm11Cd4Ir3Pt
_chemical_formula_sum   'Nd5 Tm11 Cd4 Ir3 Pt1'
_cell_volume   635.49433154
_cell_formula_units_Z   1
loop_
 _symmetry_equiv_pos_site_id
 _symmetry_equiv_pos_as_xyz
  1  'x, y, z'
loop_
 _atom_site_type_symbol
 _atom_site_label
 _atom_site_symmetry_multiplicity
 _atom_site_fract_x
 _atom_site_fract_y
 _atom_site_fract_z
 _atom_site_occupancy
  Nd  Nd0  1  0.558014  0.942755  0.942755  1
  Nd  Nd1  1  0.563134  0.938316  0.558944  1
  Nd  Nd2  1  0.941643  0.559913  0.937237  1
  Nd  Nd3  1  0.563134  0.558944  0.938316  1
  Nd  Nd4  1  0.941643  0.937237  0.559913  1
  Tm  Tm5  1  0.347787  0.346570  0.346570  1
  Tm  Tm6  1  0.349172  0.353145  0.955263  1
  Tm  Tm7  1  0.349172  0.955263  0.353145  1
  Tm  Tm8  1  0.951386  0.351366  0.351366  1
  Tm  Tm9  1  0.808012  0.187850  0.187850  1
  Tm  Tm10  1  0.184276  0.813638  0.813638  1
  Tm  Tm11  1  0.187006  0.807788  0.190428  1
  Tm  Tm12  1  0.813370  0.185670  0.811850  1
  Tm  Tm13  1  0.187006  0.190428  0.807788  1
  Tm  Tm14  1  0.813370  0.811850  0.185670  1
  Tm  Tm15  1  0.946028  0.554518  0.554518  1
  Cd  Cd16  1  0.582958  0.578589  0.578589  1
  Cd  Cd17  1  0.578747  0.579777  0.261699  1
  Cd  Cd18  1  0.578747  0.261699  0.579777  1
  Cd  Cd19  1  0.259321  0.579019  0.579019  1
  Ir  Ir20  1  0.139035  0.146425  0.575648  1
  Ir  Ir21  1  0.139035  0.575648  0.146425  1
  Ir  Ir22  1  0.575923  0.141194  0.141194  1
  Pt  Pt23  1  0.142082  0.142394  0.142394  1
