# generated using pymatgen
data_Tb12Ga2Tc3
_symmetry_space_group_name_H-M   'P 1'
_cell_length_a   8.37450779
_cell_length_b   8.37450594
_cell_length_c   8.37450673
_cell_angle_alpha   110.04057274
_cell_angle_beta   110.04056859
_cell_angle_gamma   108.33842876
_symmetry_Int_Tables_number   1
_chemical_formula_structural   Tb12Ga2Tc3
_chemical_formula_sum   'Tb12 Ga2 Tc3'
_cell_volume   451.98994678
_cell_formula_units_Z   1
loop_
 _symmetry_equiv_pos_site_id
 _symmetry_equiv_pos_as_xyz
  1  'x, y, z'
loop_
 _atom_site_type_symbol
 _atom_site_label
 _atom_site_symmetry_multiplicity
 _atom_site_fract_x
 _atom_site_fract_y
 _atom_site_fract_z
 _atom_site_occupancy
  Tb  Tb0  1  0.183999  0.432954  0.248955  1
  Tb  Tb1  1  0.816001  0.567046  0.751045  1
  Tb  Tb2  1  0.183999  0.935046  0.751045  1
  Tb  Tb3  1  0.935046  0.183999  0.751045  1
  Tb  Tb4  1  0.816001  0.064954  0.248955  1
  Tb  Tb5  1  0.064954  0.816001  0.248955  1
  Tb  Tb6  1  0.432954  0.183999  0.248955  1
  Tb  Tb7  1  0.567046  0.816001  0.751045  1
  Tb  Tb8  1  0.317716  0.317716  0.635432  1
  Tb  Tb9  1  0.682284  0.682284  0.364568  1
  Tb  Tb10  1  0.682284  0.317716  0.000000  1
  Tb  Tb11  1  0.317716  0.682284  0.000000  1
  Ga  Ga12  1  0.000000  0.500000  0.500000  1
  Ga  Ga13  1  0.500000  0.000000  0.500000  1
  Tc  Tc14  1  0.336913  0.336913  0.000000  1
  Tc  Tc15  1  0.663087  0.663087  0.000000  1
  Tc  Tc16  1  0.000000  0.000000  0.000000  1
