# generated using pymatgen
data_Ho5Hf3(ReB6)4
_symmetry_space_group_name_H-M   'P 1'
_cell_length_a   3.61197800
_cell_length_b   9.03559515
_cell_length_c   11.41375134
_cell_angle_alpha   89.97556601
_cell_angle_beta   90.00000000
_cell_angle_gamma   90.00000000
_symmetry_Int_Tables_number   1
_chemical_formula_structural   Ho5Hf3(ReB6)4
_chemical_formula_sum   'Ho5 Hf3 Re4 B24'
_cell_volume   372.50338823
_cell_formula_units_Z   1
loop_
 _symmetry_equiv_pos_site_id
 _symmetry_equiv_pos_as_xyz
  1  'x, y, z'
loop_
 _atom_site_type_symbol
 _atom_site_label
 _atom_site_symmetry_multiplicity
 _atom_site_fract_x
 _atom_site_fract_y
 _atom_site_fract_z
 _atom_site_occupancy
  Ho  Ho0  1  0.000000  0.321516  0.412964  1
  Ho  Ho1  1  0.000000  0.678064  0.586318  1
  Ho  Ho2  1  0.000000  0.821092  0.086341  1
  Ho  Ho3  1  0.000000  0.179072  0.914179  1
  Ho  Ho4  1  0.000000  0.944270  0.372504  1
  Hf  Hf5  1  0.000000  0.056744  0.630034  1
  Hf  Hf6  1  0.000000  0.444277  0.126534  1
  Hf  Hf7  1  0.000000  0.555782  0.872852  1
  Re  Re8  1  0.000000  0.635160  0.317614  1
  Re  Re9  1  0.000000  0.360501  0.682619  1
  Re  Re10  1  0.000000  0.143562  0.177817  1
  Re  Re11  1  0.000000  0.859712  0.819890  1
  B  B12  1  0.500000  0.551886  0.433115  1
  B  B13  1  0.500000  0.445693  0.567024  1
  B  B14  1  0.500000  0.054644  0.066067  1
  B  B15  1  0.500000  0.946297  0.933321  1
  B  B16  1  0.500000  0.748852  0.417945  1
  B  B17  1  0.500000  0.247503  0.582621  1
  B  B18  1  0.500000  0.253750  0.080725  1
  B  B19  1  0.500000  0.747131  0.918555  1
  B  B20  1  0.500000  0.791835  0.263768  1
  B  B21  1  0.500000  0.205731  0.736088  1
  B  B22  1  0.500000  0.295319  0.234061  1
  B  B23  1  0.500000  0.705397  0.764881  1
  B  B24  1  0.500000  0.629001  0.182758  1
  B  B25  1  0.500000  0.370350  0.816997  1
  B  B26  1  0.500000  0.132685  0.314860  1
  B  B27  1  0.500000  0.869858  0.683978  1
  B  B28  1  0.500000  0.983682  0.211842  1
  B  B29  1  0.500000  0.018073  0.786884  1
  B  B30  1  0.500000  0.480495  0.285675  1
  B  B31  1  0.500000  0.518634  0.713742  1
  B  B32  1  0.500000  0.599684  0.026565  1
  B  B33  1  0.500000  0.400969  0.972556  1
  B  B34  1  0.500000  0.102467  0.475846  1
  B  B35  1  0.500000  0.900310  0.530464  1
