# generated using pymatgen
data_La2Pr6MgTlIr2
_symmetry_space_group_name_H-M   'P 1'
_cell_length_a   10.09260789
_cell_length_b   10.09242993
_cell_length_c   10.12958724
_cell_angle_alpha   59.88360027
_cell_angle_beta   59.88655303
_cell_angle_gamma   60.18400646
_symmetry_Int_Tables_number   1
_chemical_formula_structural   La2Pr6MgTlIr2
_chemical_formula_sum   'La4 Pr12 Mg2 Tl2 Ir4'
_cell_volume   729.31894828
_cell_formula_units_Z   2
loop_
 _symmetry_equiv_pos_site_id
 _symmetry_equiv_pos_as_xyz
  1  'x, y, z'
loop_
 _atom_site_type_symbol
 _atom_site_label
 _atom_site_symmetry_multiplicity
 _atom_site_fract_x
 _atom_site_fract_y
 _atom_site_fract_z
 _atom_site_occupancy
  La  La0  1  0.345248  0.345300  0.346350  1
  La  La1  1  0.347139  0.347101  0.960004  1
  La  La2  1  0.349282  0.957546  0.347794  1
  La  La3  1  0.957546  0.349230  0.347835  1
  Pr  Pr4  1  0.810371  0.188764  0.188384  1
  Pr  Pr5  1  0.187573  0.810061  0.810835  1
  Pr  Pr6  1  0.188397  0.810638  0.188276  1
  Pr  Pr7  1  0.810233  0.187485  0.810772  1
  Pr  Pr8  1  0.185466  0.185247  0.814437  1
  Pr  Pr9  1  0.805945  0.805789  0.192235  1
  Pr  Pr10  1  0.943241  0.561227  0.562382  1
  Pr  Pr11  1  0.559702  0.940214  0.937660  1
  Pr  Pr12  1  0.561236  0.943244  0.562316  1
  Pr  Pr13  1  0.940039  0.559878  0.937799  1
  Pr  Pr14  1  0.560615  0.560589  0.941697  1
  Pr  Pr15  1  0.938087  0.937938  0.561483  1
  Mg  Mg16  1  0.577895  0.269270  0.575742  1
  Mg  Mg17  1  0.269252  0.577886  0.575731  1
  Tl  Tl18  1  0.581512  0.581482  0.586272  1
  Tl  Tl19  1  0.580669  0.580685  0.251272  1
  Ir  Ir20  1  0.142483  0.142493  0.141701  1
  Ir  Ir21  1  0.141900  0.141865  0.573984  1
  Ir  Ir22  1  0.143242  0.572861  0.142519  1
  Ir  Ir23  1  0.572930  0.143205  0.142523  1
