# generated using pymatgen
data_La8MnPd23Au
_symmetry_space_group_name_H-M   'P 1'
_cell_length_a   8.53754500
_cell_length_b   8.59888200
_cell_length_c   8.61101000
_cell_angle_alpha   90.00000000
_cell_angle_beta   90.00000000
_cell_angle_gamma   90.00000000
_symmetry_Int_Tables_number   1
_chemical_formula_structural   La8MnPd23Au
_chemical_formula_sum   'La8 Mn1 Pd23 Au1'
_cell_volume   632.16302231
_cell_formula_units_Z   1
loop_
 _symmetry_equiv_pos_site_id
 _symmetry_equiv_pos_as_xyz
  1  'x, y, z'
loop_
 _atom_site_type_symbol
 _atom_site_label
 _atom_site_symmetry_multiplicity
 _atom_site_fract_x
 _atom_site_fract_y
 _atom_site_fract_z
 _atom_site_occupancy
  La  La0  1  0.250246  0.246277  0.255541  1
  La  La1  1  0.749250  0.748762  0.749449  1
  La  La2  1  0.749250  0.748762  0.250551  1
  La  La3  1  0.749250  0.251238  0.749449  1
  La  La4  1  0.250246  0.246277  0.744459  1
  La  La5  1  0.250246  0.753723  0.255541  1
  La  La6  1  0.250246  0.753723  0.744459  1
  La  La7  1  0.749250  0.251238  0.250551  1
  Mn  Mn8  1  0.999886  0.000000  0.000000  1
  Pd  Pd9  1  0.736982  0.500000  0.000000  1
  Pd  Pd10  1  0.998605  0.263190  0.500000  1
  Pd  Pd11  1  0.499125  0.262042  0.000000  1
  Pd  Pd12  1  0.998605  0.736810  0.500000  1
  Pd  Pd13  1  0.499125  0.737958  0.000000  1
  Pd  Pd14  1  0.500891  0.000000  0.263298  1
  Pd  Pd15  1  0.263653  0.000000  0.500000  1
  Pd  Pd16  1  0.500891  0.000000  0.736702  1
  Pd  Pd17  1  0.736169  0.000000  0.500000  1
  Pd  Pd18  1  0.001256  0.500000  0.263590  1
  Pd  Pd19  1  0.001256  0.500000  0.736410  1
  Pd  Pd20  1  0.253489  0.500000  0.500000  1
  Pd  Pd21  1  0.746445  0.500000  0.500000  1
  Pd  Pd22  1  0.500970  0.254135  0.500000  1
  Pd  Pd23  1  0.500970  0.745865  0.500000  1
  Pd  Pd24  1  0.498869  0.500000  0.255586  1
  Pd  Pd25  1  0.498869  0.500000  0.744414  1
  Pd  Pd26  1  0.300926  0.000000  0.000000  1
  Pd  Pd27  1  0.698398  0.000000  0.000000  1
  Pd  Pd28  1  0.001633  0.299851  0.000000  1
  Pd  Pd29  1  0.001633  0.700149  0.000000  1
  Pd  Pd30  1  0.998555  0.000000  0.300936  1
  Pd  Pd31  1  0.998555  0.000000  0.699064  1
  Au  Au32  1  0.266254  0.500000  0.000000  1
