# generated using pymatgen
data_Er10In8Ru3Pt
_symmetry_space_group_name_H-M   'P 1'
_cell_length_a   3.59441200
_cell_length_b   7.97832671
_cell_length_c   18.23817520
_cell_angle_alpha   89.89044024
_cell_angle_beta   90.00000000
_cell_angle_gamma   90.00000000
_symmetry_Int_Tables_number   1
_chemical_formula_structural   Er10In8Ru3Pt
_chemical_formula_sum   'Er10 In8 Ru3 Pt1'
_cell_volume   523.02236624
_cell_formula_units_Z   1
loop_
 _symmetry_equiv_pos_site_id
 _symmetry_equiv_pos_as_xyz
  1  'x, y, z'
loop_
 _atom_site_type_symbol
 _atom_site_label
 _atom_site_symmetry_multiplicity
 _atom_site_fract_x
 _atom_site_fract_y
 _atom_site_fract_z
 _atom_site_occupancy
  Er  Er0  1  0.000000  0.115208  0.413544  1
  Er  Er1  1  0.000000  0.883742  0.589403  1
  Er  Er2  1  0.000000  0.382624  0.910077  1
  Er  Er3  1  0.000000  0.616780  0.085168  1
  Er  Er4  1  0.000000  0.236714  0.222636  1
  Er  Er5  1  0.000000  0.755242  0.779087  1
  Er  Er6  1  0.000000  0.255359  0.720642  1
  Er  Er7  1  0.000000  0.752914  0.280049  1
  Er  Er8  1  0.000000  0.000481  0.999230  1
  Er  Er9  1  0.000000  0.500914  0.500290  1
  In  In10  1  0.500000  0.425039  0.352379  1
  In  In11  1  0.500000  0.571164  0.649860  1
  In  In12  1  0.500000  0.070745  0.849538  1
  In  In13  1  0.500000  0.930904  0.149233  1
  In  In14  1  0.500000  0.289826  0.065250  1
  In  In15  1  0.500000  0.705884  0.932129  1
  In  In16  1  0.500000  0.207621  0.568299  1
  In  In17  1  0.500000  0.791888  0.432334  1
  Ru  Ru18  1  0.500000  0.022498  0.304939  1
  Ru  Ru19  1  0.500000  0.979538  0.696965  1
  Ru  Ru20  1  0.500000  0.480690  0.803029  1
  Pt  Pt21  1  0.500000  0.524227  0.195919  1
