# generated using pymatgen
data_Dy2MnV3Ni8P7
_symmetry_space_group_name_H-M   'P 1'
_cell_length_a   9.16415798
_cell_length_b   9.14608592
_cell_length_c   3.65737700
_cell_angle_alpha   90.00000000
_cell_angle_beta   90.00000000
_cell_angle_gamma   119.95324122
_symmetry_Int_Tables_number   1
_chemical_formula_structural   Dy2MnV3Ni8P7
_chemical_formula_sum   'Dy2 Mn1 V3 Ni8 P7'
_cell_volume   265.60279442
_cell_formula_units_Z   1
loop_
 _symmetry_equiv_pos_site_id
 _symmetry_equiv_pos_as_xyz
  1  'x, y, z'
loop_
 _atom_site_type_symbol
 _atom_site_label
 _atom_site_symmetry_multiplicity
 _atom_site_fract_x
 _atom_site_fract_y
 _atom_site_fract_z
 _atom_site_occupancy
  Dy  Dy0  1  0.667852  0.332402  0.000000  1
  Dy  Dy1  1  0.331751  0.664416  0.500000  1
  Mn  Mn2  1  0.843112  0.119536  0.000000  1
  V  V3  1  0.118120  0.901040  0.500000  1
  V  V4  1  0.100139  0.218232  0.500000  1
  V  V5  1  0.780928  0.883865  0.500000  1
  Ni  Ni6  1  0.373184  0.938430  0.000000  1
  Ni  Ni7  1  0.062944  0.431794  0.000000  1
  Ni  Ni8  1  0.567470  0.630220  0.000000  1
  Ni  Ni9  1  0.875681  0.721166  0.000000  1
  Ni  Ni10  1  0.278503  0.153886  0.000000  1
  Ni  Ni11  1  0.947178  0.563242  0.500000  1
  Ni  Ni12  1  0.439098  0.385760  0.500000  1
  Ni  Ni13  1  0.614098  0.053301  0.500000  1
  P  P14  1  0.113385  0.704673  0.000000  1
  P  P15  1  0.296522  0.408571  0.000000  1
  P  P16  1  0.592244  0.888151  0.000000  1
  P  P17  1  0.710338  0.596892  0.500000  1
  P  P18  1  0.403474  0.114842  0.500000  1
  P  P19  1  0.884865  0.288436  0.500000  1
  P  P20  1  0.999116  0.001144  0.000000  1
