# generated using pymatgen
data_Tb7YOs2(RuC4)2
_symmetry_space_group_name_H-M   'P 1'
_cell_length_a   5.16161700
_cell_length_b   6.46675480
_cell_length_c   9.83946144
_cell_angle_alpha   89.87852730
_cell_angle_beta   90.00000000
_cell_angle_gamma   90.00000000
_symmetry_Int_Tables_number   1
_chemical_formula_structural   Tb7YOs2(RuC4)2
_chemical_formula_sum   'Tb7 Y1 Os2 Ru2 C8'
_cell_volume   328.42977487
_cell_formula_units_Z   1
loop_
 _symmetry_equiv_pos_site_id
 _symmetry_equiv_pos_as_xyz
  1  'x, y, z'
loop_
 _atom_site_type_symbol
 _atom_site_label
 _atom_site_symmetry_multiplicity
 _atom_site_fract_x
 _atom_site_fract_y
 _atom_site_fract_z
 _atom_site_occupancy
  Tb  Tb0  1  0.250000  0.685041  0.552483  1
  Tb  Tb1  1  0.750000  0.314468  0.447435  1
  Tb  Tb2  1  0.750000  0.819184  0.052797  1
  Tb  Tb3  1  0.250000  0.181169  0.947258  1
  Tb  Tb4  1  0.250000  0.525689  0.217335  1
  Tb  Tb5  1  0.750000  0.474389  0.782710  1
  Tb  Tb6  1  0.750000  0.975527  0.720016  1
  Y  Y7  1  0.250000  0.024957  0.279902  1
  Os  Os8  1  0.750000  0.775409  0.364502  1
  Os  Os9  1  0.250000  0.224430  0.635535  1
  Ru  Ru10  1  0.250000  0.723624  0.864723  1
  Ru  Ru11  1  0.750000  0.276425  0.135446  1
  C  C12  1  0.250000  0.459952  0.755599  1
  C  C13  1  0.750000  0.540177  0.244314  1
  C  C14  1  0.750000  0.038717  0.259013  1
  C  C15  1  0.250000  0.961234  0.740999  1
  C  C16  1  0.250000  0.825276  0.051996  1
  C  C17  1  0.750000  0.174762  0.948125  1
  C  C18  1  0.750000  0.677282  0.551509  1
  C  C19  1  0.250000  0.322286  0.448302  1
