# generated using pymatgen
data_Sm3Ho(Si5Os3)2
_symmetry_space_group_name_H-M   'P 1'
_cell_length_a   8.18143361
_cell_length_b   8.18525670
_cell_length_c   5.83839609
_cell_angle_alpha   70.46916847
_cell_angle_beta   70.49393273
_cell_angle_gamma   93.81227368
_symmetry_Int_Tables_number   1
_chemical_formula_structural   Sm3Ho(Si5Os3)2
_chemical_formula_sum   'Sm3 Ho1 Si10 Os6'
_cell_volume   340.28253843
_cell_formula_units_Z   1
loop_
 _symmetry_equiv_pos_site_id
 _symmetry_equiv_pos_as_xyz
  1  'x, y, z'
loop_
 _atom_site_type_symbol
 _atom_site_label
 _atom_site_symmetry_multiplicity
 _atom_site_fract_x
 _atom_site_fract_y
 _atom_site_fract_z
 _atom_site_occupancy
  Sm  Sm0  1  0.398768  0.131540  0.745697  1
  Sm  Sm1  1  0.131634  0.397865  0.246190  1
  Sm  Sm2  1  0.601813  0.867797  0.254629  1
  Ho  Ho3  1  0.867449  0.603005  0.753593  1
  Si  Si4  1  0.064921  0.260436  0.835980  1
  Si  Si5  1  0.738803  0.933200  0.665774  1
  Si  Si6  1  0.934761  0.739131  0.164781  1
  Si  Si7  1  0.262261  0.065749  0.335002  1
  Si  Si8  1  0.206263  0.791661  0.749247  1
  Si  Si9  1  0.792108  0.206676  0.252913  1
  Si  Si10  1  0.513698  0.488719  0.747902  1
  Si  Si11  1  0.488047  0.512203  0.249993  1
  Si  Si12  1  0.774120  0.227835  0.748428  1
  Si  Si13  1  0.225028  0.773788  0.251802  1
  Os  Os14  1  0.254190  0.542662  0.631964  1
  Os  Os15  1  0.455851  0.742843  0.869669  1
  Os  Os16  1  0.744879  0.458430  0.366033  1
  Os  Os17  1  0.545247  0.257912  0.129405  1
  Os  Os18  1  0.002289  0.996926  0.750119  1
  Os  Os19  1  0.997871  0.001621  0.250880  1
