# generated using pymatgen
data_Y5HoEr4(In2Pt)4
_symmetry_space_group_name_H-M   'P 1'
_cell_length_a   3.62253700
_cell_length_b   8.18178533
_cell_length_c   18.24572397
_cell_angle_alpha   90.06536364
_cell_angle_beta   90.00000000
_cell_angle_gamma   90.00000000
_symmetry_Int_Tables_number   1
_chemical_formula_structural   Y5HoEr4(In2Pt)4
_chemical_formula_sum   'Y5 Ho1 Er4 In8 Pt4'
_cell_volume   540.78137816
_cell_formula_units_Z   1
loop_
 _symmetry_equiv_pos_site_id
 _symmetry_equiv_pos_as_xyz
  1  'x, y, z'
loop_
 _atom_site_type_symbol
 _atom_site_label
 _atom_site_symmetry_multiplicity
 _atom_site_fract_x
 _atom_site_fract_y
 _atom_site_fract_z
 _atom_site_occupancy
  Y  Y0  1  0.000000  0.242544  0.219881  1
  Y  Y1  1  0.000000  0.757446  0.780135  1
  Y  Y2  1  0.000000  0.257438  0.719852  1
  Y  Y3  1  0.000000  0.000002  0.000031  1
  Y  Y4  1  0.000000  0.500030  0.499990  1
  Ho  Ho5  1  0.000000  0.742914  0.279875  1
  Er  Er6  1  0.000000  0.116505  0.414405  1
  Er  Er7  1  0.000000  0.883381  0.585532  1
  Er  Er8  1  0.000000  0.383379  0.914463  1
  Er  Er9  1  0.000000  0.616700  0.085643  1
  In  In10  1  0.500000  0.422739  0.351121  1
  In  In11  1  0.500000  0.577607  0.648850  1
  In  In12  1  0.500000  0.077595  0.851141  1
  In  In13  1  0.500000  0.922207  0.148944  1
  In  In14  1  0.500000  0.293914  0.066226  1
  In  In15  1  0.500000  0.706204  0.933775  1
  In  In16  1  0.500000  0.206184  0.566207  1
  In  In17  1  0.500000  0.793632  0.433552  1
  Pt  Pt18  1  0.500000  0.023697  0.304193  1
  Pt  Pt19  1  0.500000  0.974680  0.695686  1
  Pt  Pt20  1  0.500000  0.474712  0.804325  1
  Pt  Pt21  1  0.500000  0.526490  0.196176  1
