# generated using pymatgen
data_La3Yb9IrRu3
_symmetry_space_group_name_H-M   'P 1'
_cell_length_a   6.45888025
_cell_length_b   7.55379855
_cell_length_c   9.50491400
_cell_angle_alpha   90.00000000
_cell_angle_beta   90.00000000
_cell_angle_gamma   89.53942776
_symmetry_Int_Tables_number   1
_chemical_formula_structural   La3Yb9IrRu3
_chemical_formula_sum   'La3 Yb9 Ir1 Ru3'
_cell_volume   463.72102897
_cell_formula_units_Z   1
loop_
 _symmetry_equiv_pos_site_id
 _symmetry_equiv_pos_as_xyz
  1  'x, y, z'
loop_
 _atom_site_type_symbol
 _atom_site_label
 _atom_site_symmetry_multiplicity
 _atom_site_fract_x
 _atom_site_fract_y
 _atom_site_fract_z
 _atom_site_occupancy
  La  La0  1  0.633806  0.056349  0.250000  1
  La  La1  1  0.131105  0.439997  0.750000  1
  La  La2  1  0.367983  0.941985  0.750000  1
  Yb  Yb3  1  0.337204  0.668462  0.072011  1
  Yb  Yb4  1  0.159991  0.169682  0.429162  1
  Yb  Yb5  1  0.657809  0.331999  0.566967  1
  Yb  Yb6  1  0.842404  0.829035  0.936906  1
  Yb  Yb7  1  0.657809  0.331999  0.933033  1
  Yb  Yb8  1  0.842404  0.829035  0.563094  1
  Yb  Yb9  1  0.337204  0.668462  0.427989  1
  Yb  Yb10  1  0.159991  0.169682  0.070838  1
  Yb  Yb11  1  0.861178  0.541991  0.250000  1
  Ir  Ir12  1  0.034336  0.881703  0.250000  1
  Ru  Ru13  1  0.484963  0.357512  0.250000  1
  Ru  Ru14  1  0.981277  0.141700  0.750000  1
  Ru  Ru15  1  0.510535  0.640407  0.750000  1
