# generated using pymatgen
data_DyGe2(AsRh3)2
_symmetry_space_group_name_H-M   'P 1'
_cell_length_a   7.28467500
_cell_length_b   7.24950174
_cell_length_c   3.83333900
_cell_angle_alpha   90.00000000
_cell_angle_beta   90.00000000
_cell_angle_gamma   120.16061333
_symmetry_Int_Tables_number   1
_chemical_formula_structural   DyGe2(AsRh3)2
_chemical_formula_sum   'Dy1 Ge2 As2 Rh6'
_cell_volume   175.03344414
_cell_formula_units_Z   1
loop_
 _symmetry_equiv_pos_site_id
 _symmetry_equiv_pos_as_xyz
  1  'x, y, z'
loop_
 _atom_site_type_symbol
 _atom_site_label
 _atom_site_symmetry_multiplicity
 _atom_site_fract_x
 _atom_site_fract_y
 _atom_site_fract_z
 _atom_site_occupancy
  Dy  Dy0  1  0.998370  0.996740  0.000000  1
  Ge  Ge1  1  0.806450  0.612900  0.500000  1
  Ge  Ge2  1  0.333068  0.666139  0.000000  1
  As  As3  1  0.383981  0.193272  0.500000  1
  As  As4  1  0.809291  0.193272  0.500000  1
  Rh  Rh5  1  0.535359  0.070718  0.000000  1
  Rh  Rh6  1  0.605348  0.803389  0.500000  1
  Rh  Rh7  1  0.197183  0.394367  0.500000  1
  Rh  Rh8  1  0.535267  0.466241  0.000000  1
  Rh  Rh9  1  0.198041  0.803389  0.500000  1
  Rh  Rh10  1  0.930973  0.466241  0.000000  1
