# generated using pymatgen
data_CaZn4Ni(AsO4)4
_symmetry_space_group_name_H-M   'P 1'
_cell_length_a   8.87101222
_cell_length_b   5.34121177
_cell_length_c   9.13418980
_cell_angle_alpha   60.38354106
_cell_angle_beta   90.19880115
_cell_angle_gamma   90.29304414
_symmetry_Int_Tables_number   1
_chemical_formula_structural   CaZn4Ni(AsO4)4
_chemical_formula_sum   'Ca1 Zn4 Ni1 As4 O16'
_cell_volume   376.24715894
_cell_formula_units_Z   1
loop_
 _symmetry_equiv_pos_site_id
 _symmetry_equiv_pos_as_xyz
  1  'x, y, z'
loop_
 _atom_site_type_symbol
 _atom_site_label
 _atom_site_symmetry_multiplicity
 _atom_site_fract_x
 _atom_site_fract_y
 _atom_site_fract_z
 _atom_site_occupancy
  Ca  Ca0  1  0.000000  0.500000  0.500000  1
  Zn  Zn1  1  0.137445  0.455452  0.115521  1
  Zn  Zn2  1  0.632501  0.507850  0.389110  1
  Zn  Zn3  1  0.862555  0.544548  0.884479  1
  Zn  Zn4  1  0.367499  0.492150  0.610890  1
  Ni  Ni5  1  0.500000  0.500000  0.000000  1
  As  As6  1  0.315733  0.845768  0.186446  1
  As  As7  1  0.790569  0.156651  0.290273  1
  As  As8  1  0.684267  0.154232  0.813554  1
  As  As9  1  0.209431  0.843349  0.709727  1
  O  O10  1  0.076215  0.689184  0.869200  1
  O  O11  1  0.569206  0.307635  0.637346  1
  O  O12  1  0.923785  0.310816  0.130800  1
  O  O13  1  0.430794  0.692365  0.362654  1
  O  O14  1  0.209831  0.203096  0.646630  1
  O  O15  1  0.694054  0.790672  0.879861  1
  O  O16  1  0.790169  0.796904  0.353370  1
  O  O17  1  0.305946  0.209328  0.120139  1
  O  O18  1  0.159656  0.795251  0.544163  1
  O  O19  1  0.627115  0.212490  0.972011  1
  O  O20  1  0.141941  0.669873  0.244179  1
  O  O21  1  0.619821  0.339302  0.231959  1
  O  O22  1  0.858059  0.330127  0.755821  1
  O  O23  1  0.380179  0.660698  0.768041  1
  O  O24  1  0.372885  0.787510  0.027989  1
  O  O25  1  0.840344  0.204749  0.455837  1
