# generated using pymatgen
data_Pr9Ho11Pb16
_symmetry_space_group_name_H-M   'P 1'
_cell_length_a   8.30792370
_cell_length_b   8.39768824
_cell_length_c   15.88070100
_cell_angle_alpha   89.92194028
_cell_angle_beta   90.05407564
_cell_angle_gamma   89.72690134
_symmetry_Int_Tables_number   1
_chemical_formula_structural   Pr9Ho11Pb16
_chemical_formula_sum   'Pr9 Ho11 Pb16'
_cell_volume   1107.94036054
_cell_formula_units_Z   1
loop_
 _symmetry_equiv_pos_site_id
 _symmetry_equiv_pos_as_xyz
  1  'x, y, z'
loop_
 _atom_site_type_symbol
 _atom_site_label
 _atom_site_symmetry_multiplicity
 _atom_site_fract_x
 _atom_site_fract_y
 _atom_site_fract_z
 _atom_site_occupancy
  Pr  Pr0  1  0.479418  0.677804  0.597069  1
  Pr  Pr1  1  0.980021  0.821378  0.903781  1
  Pr  Pr2  1  0.520494  0.322022  0.097054  1
  Pr  Pr3  1  0.020003  0.177280  0.402296  1
  Pr  Pr4  1  0.521760  0.322785  0.401334  1
  Pr  Pr5  1  0.021043  0.177442  0.096747  1
  Pr  Pr6  1  0.479380  0.678179  0.904836  1
  Pr  Pr7  1  0.978456  0.821203  0.597416  1
  Pr  Pr8  1  0.636910  0.160611  0.620606  1
  Ho  Ho9  1  0.138256  0.341419  0.878465  1
  Ho  Ho10  1  0.360954  0.840738  0.123128  1
  Ho  Ho11  1  0.863015  0.658656  0.374751  1
  Ho  Ho12  1  0.361126  0.841409  0.376916  1
  Ho  Ho13  1  0.860951  0.658417  0.122907  1
  Ho  Ho14  1  0.639349  0.158719  0.877497  1
  Ho  Ho15  1  0.139265  0.340399  0.623884  1
  Ho  Ho16  1  0.806424  0.495966  0.750809  1
  Ho  Ho17  1  0.304781  0.005512  0.751062  1
  Ho  Ho18  1  0.194880  0.504577  0.249917  1
  Ho  Ho19  1  0.694484  0.994235  0.248958  1
  Pb  Pb20  1  0.702797  0.955596  0.453125  1
  Pb  Pb21  1  0.201663  0.541324  0.044019  1
  Pb  Pb22  1  0.299159  0.040862  0.957013  1
  Pb  Pb23  1  0.802544  0.465172  0.541959  1
  Pb  Pb24  1  0.289990  0.038285  0.542617  1
  Pb  Pb25  1  0.797929  0.458746  0.957145  1
  Pb  Pb26  1  0.701738  0.958954  0.043247  1
  Pb  Pb27  1  0.202226  0.540369  0.456682  1
  Pb  Pb28  1  0.442274  0.374705  0.752314  1
  Pb  Pb29  1  0.945590  0.129063  0.752434  1
  Pb  Pb30  1  0.555283  0.629112  0.249649  1
  Pb  Pb31  1  0.056523  0.871588  0.248932  1
  Pb  Pb32  1  0.669142  0.847357  0.751827  1
  Pb  Pb33  1  0.169978  0.650324  0.750823  1
  Pb  Pb34  1  0.331280  0.150450  0.249564  1
  Pb  Pb35  1  0.830915  0.349343  0.249213  1
