# generated using pymatgen
data_TbNd2Ho5(WO6)4
_symmetry_space_group_name_H-M   'P 1'
_cell_length_a   5.44319300
_cell_length_b   7.75856867
_cell_length_c   11.52998628
_cell_angle_alpha   75.59098414
_cell_angle_beta   90.00000000
_cell_angle_gamma   90.00000000
_symmetry_Int_Tables_number   1
_chemical_formula_structural   TbNd2Ho5(WO6)4
_chemical_formula_sum   'Tb1 Nd2 Ho5 W4 O24'
_cell_volume   471.61053109
_cell_formula_units_Z   1
loop_
 _symmetry_equiv_pos_site_id
 _symmetry_equiv_pos_as_xyz
  1  'x, y, z'
loop_
 _atom_site_type_symbol
 _atom_site_label
 _atom_site_symmetry_multiplicity
 _atom_site_fract_x
 _atom_site_fract_y
 _atom_site_fract_z
 _atom_site_occupancy
  Tb  Tb0  1  0.740947  0.000000  0.750000  1
  Nd  Nd1  1  0.684659  0.500000  0.750000  1
  Nd  Nd2  1  0.314722  0.500000  0.250000  1
  Ho  Ho3  1  0.259626  0.000000  0.250000  1
  Ho  Ho4  1  0.187316  0.797465  0.576726  1
  Ho  Ho5  1  0.813180  0.797727  0.077432  1
  Ho  Ho6  1  0.187316  0.202535  0.923274  1
  Ho  Ho7  1  0.813180  0.202273  0.422568  1
  W  W8  1  0.252856  0.726334  0.885282  1
  W  W9  1  0.746895  0.727249  0.384753  1
  W  W10  1  0.252856  0.273666  0.614718  1
  W  W11  1  0.746895  0.272751  0.115247  1
  O  O12  1  0.042449  0.940923  0.896914  1
  O  O13  1  0.530992  0.846244  0.931713  1
  O  O14  1  0.959746  0.941323  0.395607  1
  O  O15  1  0.454575  0.792717  0.727576  1
  O  O16  1  0.468729  0.847640  0.430814  1
  O  O17  1  0.986149  0.717816  0.770041  1
  O  O18  1  0.543671  0.794351  0.227438  1
  O  O19  1  0.855721  0.641332  0.545972  1
  O  O20  1  0.350482  0.492114  0.888437  1
  O  O21  1  0.013880  0.718546  0.269669  1
  O  O22  1  0.350482  0.507886  0.611563  1
  O  O23  1  0.855721  0.358668  0.954028  1
  O  O24  1  0.143502  0.640214  0.046336  1
  O  O25  1  0.649879  0.492877  0.387818  1
  O  O26  1  0.986149  0.282184  0.729959  1
  O  O27  1  0.649879  0.507123  0.112182  1
  O  O28  1  0.143502  0.359786  0.453664  1
  O  O29  1  0.454575  0.207283  0.772424  1
  O  O30  1  0.013880  0.281454  0.230331  1
  O  O31  1  0.530992  0.153756  0.568287  1
  O  O32  1  0.543671  0.205649  0.272562  1
  O  O33  1  0.042449  0.059077  0.603086  1
  O  O34  1  0.468729  0.152360  0.069186  1
  O  O35  1  0.959746  0.058677  0.104393  1
