# generated using pymatgen
data_Ba6YIn(BO3)6
_symmetry_space_group_name_H-M   'P 1'
_cell_length_a   8.18597690
_cell_length_b   8.18597611
_cell_length_c   8.18597699
_cell_angle_alpha   105.83176066
_cell_angle_beta   105.83175735
_cell_angle_gamma   105.83176530
_symmetry_Int_Tables_number   1
_chemical_formula_structural   Ba6YIn(BO3)6
_chemical_formula_sum   'Ba6 Y1 In1 B6 O18'
_cell_volume   470.63311143
_cell_formula_units_Z   1
loop_
 _symmetry_equiv_pos_site_id
 _symmetry_equiv_pos_as_xyz
  1  'x, y, z'
loop_
 _atom_site_type_symbol
 _atom_site_label
 _atom_site_symmetry_multiplicity
 _atom_site_fract_x
 _atom_site_fract_y
 _atom_site_fract_z
 _atom_site_occupancy
  Ba  Ba0  1  0.345300  0.733110  0.835444  1
  Ba  Ba1  1  0.835444  0.345300  0.733110  1
  Ba  Ba2  1  0.733110  0.835444  0.345300  1
  Ba  Ba3  1  0.654700  0.266890  0.164556  1
  Ba  Ba4  1  0.164556  0.654700  0.266890  1
  Ba  Ba5  1  0.266890  0.164556  0.654700  1
  Y  Y6  1  0.000000  0.000000  0.000000  1
  In  In7  1  0.500000  0.500000  0.500000  1
  B  B8  1  0.375025  0.049285  0.292782  1
  B  B9  1  0.292782  0.375025  0.049285  1
  B  B10  1  0.049285  0.292782  0.375025  1
  B  B11  1  0.707218  0.624975  0.950715  1
  B  B12  1  0.950715  0.707218  0.624975  1
  B  B13  1  0.624975  0.950715  0.707218  1
  O  O14  1  0.428548  0.497680  0.220117  1
  O  O15  1  0.220117  0.428548  0.497680  1
  O  O16  1  0.811345  0.007677  0.735790  1
  O  O17  1  0.007677  0.735790  0.811345  1
  O  O18  1  0.735790  0.811345  0.007677  1
  O  O19  1  0.264210  0.188655  0.992323  1
  O  O20  1  0.188655  0.992323  0.264210  1
  O  O21  1  0.992323  0.264210  0.188655  1
  O  O22  1  0.556836  0.064316  0.801675  1
  O  O23  1  0.064316  0.801675  0.556836  1
  O  O24  1  0.801675  0.556836  0.064316  1
  O  O25  1  0.443164  0.935684  0.198325  1
  O  O26  1  0.935684  0.198325  0.443164  1
  O  O27  1  0.198325  0.443164  0.935684  1
  O  O28  1  0.502320  0.779883  0.571452  1
  O  O29  1  0.779883  0.571452  0.502320  1
  O  O30  1  0.571452  0.502320  0.779883  1
  O  O31  1  0.497680  0.220117  0.428548  1
