# generated using pymatgen
data_Ce5P12Ru16Pt2Rh
_symmetry_space_group_name_H-M   'P 1'
_cell_length_a   12.66919002
_cell_length_b   12.66918969
_cell_length_c   3.99768300
_cell_angle_alpha   90.00000000
_cell_angle_beta   90.00000000
_cell_angle_gamma   119.75870269
_symmetry_Int_Tables_number   1
_chemical_formula_structural   Ce5P12Ru16Pt2Rh
_chemical_formula_sum   'Ce5 P12 Ru16 Pt2 Rh1'
_cell_volume   557.04146178
_cell_formula_units_Z   1
loop_
 _symmetry_equiv_pos_site_id
 _symmetry_equiv_pos_as_xyz
  1  'x, y, z'
loop_
 _atom_site_type_symbol
 _atom_site_label
 _atom_site_symmetry_multiplicity
 _atom_site_fract_x
 _atom_site_fract_y
 _atom_site_fract_z
 _atom_site_occupancy
  Ce  Ce0  1  0.186113  0.186113  0.500000  1
  Ce  Ce1  1  0.815912  0.999987  0.500000  1
  Ce  Ce2  1  0.999987  0.815912  0.500000  1
  Ce  Ce3  1  0.334839  0.665951  0.000000  1
  Ce  Ce4  1  0.665951  0.334839  0.000000  1
  P  P5  1  0.813949  0.813949  0.000000  1
  P  P6  1  0.186330  0.000150  0.000000  1
  P  P7  1  0.000150  0.186330  0.000000  1
  P  P8  1  0.179860  0.478781  0.500000  1
  P  P9  1  0.521905  0.697104  0.500000  1
  P  P10  1  0.298597  0.818712  0.500000  1
  P  P11  1  0.697104  0.521905  0.500000  1
  P  P12  1  0.818712  0.298597  0.500000  1
  P  P13  1  0.478781  0.179860  0.500000  1
  P  P14  1  0.371911  0.371911  0.000000  1
  P  P15  1  0.633218  0.999900  0.000000  1
  P  P16  1  0.999900  0.633218  0.000000  1
  Ru  Ru17  1  0.713267  0.713267  0.500000  1
  Ru  Ru18  1  0.289394  0.999619  0.500000  1
  Ru  Ru19  1  0.999619  0.289394  0.500000  1
  Ru  Ru20  1  0.183939  0.378144  0.000000  1
  Ru  Ru21  1  0.621811  0.806436  0.000000  1
  Ru  Ru22  1  0.194801  0.815292  0.000000  1
  Ru  Ru23  1  0.806436  0.621811  0.000000  1
  Ru  Ru24  1  0.815292  0.194801  0.000000  1
  Ru  Ru25  1  0.378144  0.183939  0.000000  1
  Ru  Ru26  1  0.369468  0.493159  0.500000  1
  Ru  Ru27  1  0.504490  0.873267  0.500000  1
  Ru  Ru28  1  0.123017  0.629342  0.500000  1
  Ru  Ru29  1  0.873267  0.504490  0.500000  1
  Ru  Ru30  1  0.629342  0.123017  0.500000  1
  Ru  Ru31  1  0.493159  0.369468  0.500000  1
  Ru  Ru32  1  0.000254  0.000254  0.000000  1
  Pt  Pt33  1  0.447644  0.999368  0.000000  1
  Pt  Pt34  1  0.999368  0.447644  0.000000  1
  Rh  Rh35  1  0.554076  0.554076  0.000000  1
