# generated using pymatgen
data_KBa3AgH12Pt
_symmetry_space_group_name_H-M   'P 1'
_cell_length_a   8.16393098
_cell_length_b   8.16393234
_cell_length_c   6.01716562
_cell_angle_alpha   90.00915128
_cell_angle_beta   90.00915449
_cell_angle_gamma   136.31106809
_symmetry_Int_Tables_number   1
_chemical_formula_structural   KBa3AgH12Pt
_chemical_formula_sum   'K1 Ba3 Ag1 H12 Pt1'
_cell_volume   277.01735316
_cell_formula_units_Z   1
loop_
 _symmetry_equiv_pos_site_id
 _symmetry_equiv_pos_as_xyz
  1  'x, y, z'
loop_
 _atom_site_type_symbol
 _atom_site_label
 _atom_site_symmetry_multiplicity
 _atom_site_fract_x
 _atom_site_fract_y
 _atom_site_fract_z
 _atom_site_occupancy
  K  K0  1  0.850585  0.149415  0.500000  1
  Ba  Ba1  1  0.351401  0.648599  0.000000  1
  Ba  Ba2  1  0.653679  0.346321  0.000000  1
  Ba  Ba3  1  0.148227  0.851773  0.500000  1
  Ag  Ag4  1  0.999641  0.000359  0.000000  1
  H  H5  1  0.008147  0.515065  0.243540  1
  H  H6  1  0.484935  0.991853  0.756460  1
  H  H7  1  0.008153  0.515384  0.756716  1
  H  H8  1  0.484616  0.991847  0.243284  1
  H  H9  1  0.112896  0.887104  0.000000  1
  H  H10  1  0.612163  0.387837  0.500000  1
  H  H11  1  0.886753  0.113247  0.000000  1
  H  H12  1  0.393152  0.606848  0.500000  1
  H  H13  1  0.695823  0.694184  0.304903  1
  H  H14  1  0.305816  0.304177  0.695097  1
  H  H15  1  0.694299  0.692590  0.696741  1
  H  H16  1  0.307410  0.305701  0.303259  1
  Pt  Pt17  1  0.502304  0.497696  0.500000  1
