# generated using pymatgen
data_Nd3Th2Si12Ir19
_symmetry_space_group_name_H-M   'P 1'
_cell_length_a   12.96403900
_cell_length_b   12.95512495
_cell_length_c   4.02575000
_cell_angle_alpha   90.00000000
_cell_angle_beta   90.00000000
_cell_angle_gamma   120.02277150
_symmetry_Int_Tables_number   1
_chemical_formula_structural   Nd3Th2Si12Ir19
_chemical_formula_sum   'Nd3 Th2 Si12 Ir19'
_cell_volume   585.40936919
_cell_formula_units_Z   1
loop_
 _symmetry_equiv_pos_site_id
 _symmetry_equiv_pos_as_xyz
  1  'x, y, z'
loop_
 _atom_site_type_symbol
 _atom_site_label
 _atom_site_symmetry_multiplicity
 _atom_site_fract_x
 _atom_site_fract_y
 _atom_site_fract_z
 _atom_site_occupancy
  Nd  Nd0  1  0.811521  0.000000  0.500000  1
  Nd  Nd1  1  0.333133  0.666319  0.000000  1
  Nd  Nd2  1  0.666816  0.333681  0.000000  1
  Th  Th3  1  0.999110  0.813335  0.500000  1
  Th  Th4  1  0.185775  0.186665  0.500000  1
  Si  Si5  1  0.997396  0.181910  0.000000  1
  Si  Si6  1  0.815485  0.818090  0.000000  1
  Si  Si7  1  0.184681  0.000000  0.000000  1
  Si  Si8  1  0.520031  0.688795  0.500000  1
  Si  Si9  1  0.312325  0.831726  0.500000  1
  Si  Si10  1  0.168493  0.480323  0.500000  1
  Si  Si11  1  0.480599  0.168274  0.500000  1
  Si  Si12  1  0.688170  0.519677  0.500000  1
  Si  Si13  1  0.831236  0.311205  0.500000  1
  Si  Si14  1  0.999955  0.627932  0.000000  1
  Si  Si15  1  0.372023  0.372068  0.000000  1
  Si  Si16  1  0.629422  0.000000  0.000000  1
  Ir  Ir17  1  0.000605  0.284500  0.500000  1
  Ir  Ir18  1  0.716105  0.715500  0.500000  1
  Ir  Ir19  1  0.284451  0.000000  0.500000  1
  Ir  Ir20  1  0.621721  0.804189  0.000000  1
  Ir  Ir21  1  0.193871  0.817944  0.000000  1
  Ir  Ir22  1  0.181954  0.375476  0.000000  1
  Ir  Ir23  1  0.375927  0.182056  0.000000  1
  Ir  Ir24  1  0.806478  0.624524  0.000000  1
  Ir  Ir25  1  0.817532  0.195811  0.000000  1
  Ir  Ir26  1  0.512846  0.874834  0.500000  1
  Ir  Ir27  1  0.125659  0.638616  0.500000  1
  Ir  Ir28  1  0.362088  0.487269  0.500000  1
  Ir  Ir29  1  0.487044  0.361384  0.500000  1
  Ir  Ir30  1  0.874820  0.512731  0.500000  1
  Ir  Ir31  1  0.638012  0.125166  0.500000  1
  Ir  Ir32  1  0.002465  0.000000  0.000000  1
  Ir  Ir33  1  0.001217  0.446949  0.000000  1
  Ir  Ir34  1  0.554268  0.553051  0.000000  1
  Ir  Ir35  1  0.446767  0.000000  0.000000  1
