# generated using pymatgen
data_Sc5InBi2S
_symmetry_space_group_name_H-M   'P 1'
_cell_length_a   8.62694700
_cell_length_b   8.58615094
_cell_length_c   6.24728200
_cell_angle_alpha   90.00000000
_cell_angle_beta   90.00000000
_cell_angle_gamma   119.84369257
_symmetry_Int_Tables_number   1
_chemical_formula_structural   Sc5InBi2S
_chemical_formula_sum   'Sc10 In2 Bi4 S2'
_cell_volume   401.38327940
_cell_formula_units_Z   2
loop_
 _symmetry_equiv_pos_site_id
 _symmetry_equiv_pos_as_xyz
  1  'x, y, z'
loop_
 _atom_site_type_symbol
 _atom_site_label
 _atom_site_symmetry_multiplicity
 _atom_site_fract_x
 _atom_site_fract_y
 _atom_site_fract_z
 _atom_site_occupancy
  Sc  Sc0  1  0.661953  0.330001  0.994961  1
  Sc  Sc1  1  0.338047  0.668048  0.994961  1
  Sc  Sc2  1  0.338047  0.668048  0.505039  1
  Sc  Sc3  1  0.661953  0.330001  0.505039  1
  Sc  Sc4  1  0.753502  0.759489  0.750000  1
  Sc  Sc5  1  0.246498  0.005988  0.750000  1
  Sc  Sc6  1  0.000000  0.240789  0.750000  1
  Sc  Sc7  1  0.240734  0.241110  0.250000  1
  Sc  Sc8  1  0.759266  0.000376  0.250000  1
  Sc  Sc9  1  0.000000  0.759325  0.250000  1
  In  In10  1  0.397087  0.397575  0.750000  1
  In  In11  1  0.602913  0.000488  0.750000  1
  Bi  Bi12  1  0.000000  0.604139  0.750000  1
  Bi  Bi13  1  0.600033  0.598923  0.250000  1
  Bi  Bi14  1  0.399967  0.998889  0.250000  1
  Bi  Bi15  1  0.000000  0.398517  0.250000  1
  S  S16  1  0.000000  0.999146  0.000270  1
  S  S17  1  0.000000  0.999146  0.499730  1
