# generated using pymatgen
data_Ba5Al5Bi
_symmetry_space_group_name_H-M   'P 1'
_cell_length_a   6.11798900
_cell_length_b   6.11798971
_cell_length_c   11.22353600
_cell_angle_alpha   90.00000000
_cell_angle_beta   90.00000000
_cell_angle_gamma   119.99999077
_symmetry_Int_Tables_number   1
_chemical_formula_structural   Ba5Al5Bi
_chemical_formula_sum   'Ba5 Al5 Bi1'
_cell_volume   363.81266188
_cell_formula_units_Z   1
loop_
 _symmetry_equiv_pos_site_id
 _symmetry_equiv_pos_as_xyz
  1  'x, y, z'
loop_
 _atom_site_type_symbol
 _atom_site_label
 _atom_site_symmetry_multiplicity
 _atom_site_fract_x
 _atom_site_fract_y
 _atom_site_fract_z
 _atom_site_occupancy
  Ba  Ba0  1  0.666667  0.333333  0.217634  1
  Ba  Ba1  1  0.666667  0.333333  0.782366  1
  Ba  Ba2  1  0.000000  0.000000  0.326303  1
  Ba  Ba3  1  0.000000  0.000000  0.673697  1
  Ba  Ba4  1  0.333333  0.666667  0.000000  1
  Al  Al5  1  0.333333  0.666667  0.322158  1
  Al  Al6  1  0.510411  0.020822  0.500000  1
  Al  Al7  1  0.510411  0.489589  0.500000  1
  Al  Al8  1  0.333333  0.666667  0.677842  1
  Al  Al9  1  0.979178  0.489589  0.500000  1
  Bi  Bi10  1  0.000000  0.000000  0.000000  1
