# generated using pymatgen
data_Er12InNi5
_symmetry_space_group_name_H-M   'P 1'
_cell_length_a   8.24696249
_cell_length_b   8.24696343
_cell_length_c   8.24696285
_cell_angle_alpha   111.38972826
_cell_angle_beta   110.12997519
_cell_angle_gamma   106.92617556
_symmetry_Int_Tables_number   1
_chemical_formula_structural   Er12InNi5
_chemical_formula_sum   'Er12 In1 Ni5'
_cell_volume   431.08765156
_cell_formula_units_Z   1
loop_
 _symmetry_equiv_pos_site_id
 _symmetry_equiv_pos_as_xyz
  1  'x, y, z'
loop_
 _atom_site_type_symbol
 _atom_site_label
 _atom_site_symmetry_multiplicity
 _atom_site_fract_x
 _atom_site_fract_y
 _atom_site_fract_z
 _atom_site_occupancy
  Er  Er0  1  0.404431  0.214346  0.190087  1
  Er  Er1  1  0.595569  0.785654  0.809913  1
  Er  Er2  1  0.024259  0.214346  0.809913  1
  Er  Er3  1  0.975741  0.785654  0.190087  1
  Er  Er4  1  0.182994  0.293130  0.476123  1
  Er  Er5  1  0.817006  0.706870  0.523877  1
  Er  Er6  1  0.182994  0.706870  0.889864  1
  Er  Er7  1  0.817006  0.293130  0.110136  1
  Er  Er8  1  0.321538  0.627213  0.305675  1
  Er  Er9  1  0.678462  0.372787  0.694325  1
  Er  Er10  1  0.321538  0.015863  0.694325  1
  Er  Er11  1  0.678462  0.984137  0.305675  1
  In  In12  1  0.500000  0.500000  0.000000  1
  Ni  Ni13  1  0.363291  0.000000  0.363291  1
  Ni  Ni14  1  0.636709  0.000000  0.636709  1
  Ni  Ni15  1  0.124030  0.624030  0.500000  1
  Ni  Ni16  1  0.875970  0.375970  0.500000  1
  Ni  Ni17  1  0.000000  0.000000  0.000000  1
