# generated using pymatgen
data_YEr2Hf(Al3Rh)6
_symmetry_space_group_name_H-M   'P 1'
_cell_length_a   7.52699513
_cell_length_b   7.51547906
_cell_length_c   9.39053400
_cell_angle_alpha   90.00000000
_cell_angle_beta   90.00000000
_cell_angle_gamma   119.48642164
_symmetry_Int_Tables_number   1
_chemical_formula_structural   YEr2Hf(Al3Rh)6
_chemical_formula_sum   'Y1 Er2 Hf1 Al18 Rh6'
_cell_volume   462.40613101
_cell_formula_units_Z   1
loop_
 _symmetry_equiv_pos_site_id
 _symmetry_equiv_pos_as_xyz
  1  'x, y, z'
loop_
 _atom_site_type_symbol
 _atom_site_label
 _atom_site_symmetry_multiplicity
 _atom_site_fract_x
 _atom_site_fract_y
 _atom_site_fract_z
 _atom_site_occupancy
  Y  Y0  1  0.993931  0.672517  0.750000  1
  Er  Er1  1  0.671645  0.993529  0.750000  1
  Er  Er2  1  0.327678  0.004862  0.250000  1
  Hf  Hf3  1  0.003659  0.326889  0.250000  1
  Al  Al4  1  0.128462  0.129944  0.750000  1
  Al  Al5  1  0.874937  0.877388  0.250000  1
  Al  Al6  1  0.000009  0.334884  0.571773  1
  Al  Al7  1  0.000392  0.661373  0.419145  1
  Al  Al8  1  0.000392  0.661373  0.080855  1
  Al  Al9  1  0.336074  0.001570  0.924973  1
  Al  Al10  1  0.000009  0.334884  0.928227  1
  Al  Al11  1  0.667256  0.002488  0.080451  1
  Al  Al12  1  0.667256  0.002488  0.419549  1
  Al  Al13  1  0.336074  0.001570  0.575027  1
  Al  Al14  1  0.330541  0.332956  0.056697  1
  Al  Al15  1  0.666588  0.666853  0.951070  1
  Al  Al16  1  0.666588  0.666853  0.548930  1
  Al  Al17  1  0.330541  0.332956  0.443303  1
  Al  Al18  1  0.339630  0.549419  0.750000  1
  Al  Al19  1  0.663771  0.448344  0.250000  1
  Al  Al20  1  0.550509  0.339959  0.750000  1
  Al  Al21  1  0.442726  0.655233  0.250000  1
  Rh  Rh22  1  0.672594  0.327261  0.497839  1
  Rh  Rh23  1  0.327036  0.671836  0.498649  1
  Rh  Rh24  1  0.327036  0.671836  0.001351  1
  Rh  Rh25  1  0.672594  0.327261  0.002161  1
  Rh  Rh26  1  0.001033  0.001737  0.498099  1
  Rh  Rh27  1  0.001033  0.001737  0.001901  1
