# generated using pymatgen
data_Ti10CuSiSb4
_symmetry_space_group_name_H-M   'P 1'
_cell_length_a   5.13361613
_cell_length_b   7.82091503
_cell_length_c   7.82091590
_cell_angle_alpha   83.81646271
_cell_angle_beta   70.84057515
_cell_angle_gamma   70.84057668
_symmetry_Int_Tables_number   1
_chemical_formula_structural   Ti10CuSiSb4
_chemical_formula_sum   'Ti10 Cu1 Si1 Sb4'
_cell_volume   280.18363219
_cell_formula_units_Z   1
loop_
 _symmetry_equiv_pos_site_id
 _symmetry_equiv_pos_as_xyz
  1  'x, y, z'
loop_
 _atom_site_type_symbol
 _atom_site_label
 _atom_site_symmetry_multiplicity
 _atom_site_fract_x
 _atom_site_fract_y
 _atom_site_fract_z
 _atom_site_occupancy
  Ti  Ti0  1  0.250000  0.500000  0.500000  1
  Ti  Ti1  1  0.750000  0.500000  0.500000  1
  Ti  Ti2  1  0.069698  0.138629  0.715247  1
  Ti  Ti3  1  0.923572  0.861371  0.284753  1
  Ti  Ti4  1  0.784945  0.284753  0.138629  1
  Ti  Ti5  1  0.430302  0.284753  0.861371  1
  Ti  Ti6  1  0.208326  0.715247  0.861371  1
  Ti  Ti7  1  0.576428  0.715247  0.138629  1
  Ti  Ti8  1  0.715055  0.861371  0.715247  1
  Ti  Ti9  1  0.291674  0.138629  0.284753  1
  Cu  Cu10  1  0.250000  0.000000  0.000000  1
  Si  Si11  1  0.750000  0.000000  0.000000  1
  Sb  Sb12  1  0.164379  0.500000  0.171241  1
  Sb  Sb13  1  0.835621  0.500000  0.828759  1
  Sb  Sb14  1  0.335621  0.828759  0.500000  1
  Sb  Sb15  1  0.664379  0.171241  0.500000  1
