# generated using pymatgen
data_Er6Sc4In5Sn
_symmetry_space_group_name_H-M   'P 1'
_cell_length_a   8.87101100
_cell_length_b   8.83163044
_cell_length_c   6.23828600
_cell_angle_alpha   90.00000000
_cell_angle_beta   90.00000000
_cell_angle_gamma   120.14761741
_symmetry_Int_Tables_number   1
_chemical_formula_structural   Er6Sc4In5Sn
_chemical_formula_sum   'Er6 Sc4 In5 Sn1'
_cell_volume   422.63161952
_cell_formula_units_Z   1
loop_
 _symmetry_equiv_pos_site_id
 _symmetry_equiv_pos_as_xyz
  1  'x, y, z'
loop_
 _atom_site_type_symbol
 _atom_site_label
 _atom_site_symmetry_multiplicity
 _atom_site_fract_x
 _atom_site_fract_y
 _atom_site_fract_z
 _atom_site_occupancy
  Er  Er0  1  0.000930  0.767354  0.750000  1
  Er  Er1  1  0.999858  0.234222  0.250000  1
  Er  Er2  1  0.765636  0.765778  0.250000  1
  Er  Er3  1  0.761569  0.000000  0.750000  1
  Er  Er4  1  0.233577  0.232646  0.750000  1
  Er  Er5  1  0.236658  0.000000  0.250000  1
  Sc  Sc6  1  0.335287  0.670074  0.501533  1
  Sc  Sc7  1  0.665213  0.329926  0.998467  1
  Sc  Sc8  1  0.665213  0.329926  0.501533  1
  Sc  Sc9  1  0.335287  0.670074  0.998467  1
  In  In10  1  0.402440  0.000000  0.750000  1
  In  In11  1  0.407534  0.408575  0.250000  1
  In  In12  1  0.998958  0.591425  0.250000  1
  In  In13  1  0.000314  0.407744  0.750000  1
  In  In14  1  0.592570  0.592256  0.750000  1
  Sn  Sn15  1  0.598956  0.000000  0.250000  1
