# generated using pymatgen
data_YbSm6CoBr12
_symmetry_space_group_name_H-M   'P 1'
_cell_length_a   9.38499312
_cell_length_b   9.38499326
_cell_length_c   9.38499400
_cell_angle_alpha   107.15947630
_cell_angle_beta   107.15947525
_cell_angle_gamma   107.15946239
_symmetry_Int_Tables_number   1
_chemical_formula_structural   YbSm6CoBr12
_chemical_formula_sum   'Yb1 Sm6 Co1 Br12'
_cell_volume   685.39395606
_cell_formula_units_Z   1
loop_
 _symmetry_equiv_pos_site_id
 _symmetry_equiv_pos_as_xyz
  1  'x, y, z'
loop_
 _atom_site_type_symbol
 _atom_site_label
 _atom_site_symmetry_multiplicity
 _atom_site_fract_x
 _atom_site_fract_y
 _atom_site_fract_z
 _atom_site_occupancy
  Yb  Yb0  1  0.500000  0.500000  0.500000  1
  Sm  Sm1  1  0.976306  0.899092  0.691502  1
  Sm  Sm2  1  0.023694  0.100908  0.308498  1
  Sm  Sm3  1  0.100908  0.308498  0.023694  1
  Sm  Sm4  1  0.308498  0.023694  0.100908  1
  Sm  Sm5  1  0.899092  0.691502  0.976306  1
  Sm  Sm6  1  0.691502  0.976306  0.899092  1
  Co  Co7  1  0.000000  0.000000  0.000000  1
  Br  Br8  1  0.543904  0.621116  0.837522  1
  Br  Br9  1  0.456096  0.378884  0.162478  1
  Br  Br10  1  0.318040  0.928114  0.777735  1
  Br  Br11  1  0.378884  0.162478  0.456096  1
  Br  Br12  1  0.928114  0.777735  0.318040  1
  Br  Br13  1  0.681960  0.071886  0.222265  1
  Br  Br14  1  0.071886  0.222265  0.681960  1
  Br  Br15  1  0.777735  0.318040  0.928114  1
  Br  Br16  1  0.222265  0.681960  0.071886  1
  Br  Br17  1  0.837522  0.543904  0.621116  1
  Br  Br18  1  0.162478  0.456096  0.378884  1
  Br  Br19  1  0.621116  0.837522  0.543904  1
