# generated using pymatgen
data_Li2Dy3InSi2Ag
_symmetry_space_group_name_H-M   'P 1'
_cell_length_a   7.20465989
_cell_length_b   7.25632234
_cell_length_c   4.21535100
_cell_angle_alpha   90.00000000
_cell_angle_beta   90.00000000
_cell_angle_gamma   120.23750472
_symmetry_Int_Tables_number   1
_chemical_formula_structural   Li2Dy3InSi2Ag
_chemical_formula_sum   'Li2 Dy3 In1 Si2 Ag1'
_cell_volume   190.39260008
_cell_formula_units_Z   1
loop_
 _symmetry_equiv_pos_site_id
 _symmetry_equiv_pos_as_xyz
  1  'x, y, z'
loop_
 _atom_site_type_symbol
 _atom_site_label
 _atom_site_symmetry_multiplicity
 _atom_site_fract_x
 _atom_site_fract_y
 _atom_site_fract_z
 _atom_site_occupancy
  Li  Li0  1  0.744316  0.748001  0.000000  1
  Li  Li1  1  0.255684  0.003685  0.000000  1
  Dy  Dy2  1  0.436293  0.436667  0.500000  1
  Dy  Dy3  1  0.563707  0.000375  0.500000  1
  Dy  Dy4  1  0.000000  0.560584  0.500000  1
  In  In5  1  0.000000  0.990751  0.500000  1
  Si  Si6  1  0.662495  0.332289  0.000000  1
  Si  Si7  1  0.337505  0.669795  0.000000  1
  Ag  Ag8  1  0.000000  0.257853  0.000000  1
