# generated using pymatgen
data_YHo19(SnPb)8
_symmetry_space_group_name_H-M   'P 1'
_cell_length_a   8.08933951
_cell_length_b   8.20663166
_cell_length_c   15.52387500
_cell_angle_alpha   89.98482889
_cell_angle_beta   89.68724702
_cell_angle_gamma   89.91808653
_symmetry_Int_Tables_number   1
_chemical_formula_structural   YHo19(SnPb)8
_chemical_formula_sum   'Y1 Ho19 Sn8 Pb8'
_cell_volume   1030.55509176
_cell_formula_units_Z   1
loop_
 _symmetry_equiv_pos_site_id
 _symmetry_equiv_pos_as_xyz
  1  'x, y, z'
loop_
 _atom_site_type_symbol
 _atom_site_label
 _atom_site_symmetry_multiplicity
 _atom_site_fract_x
 _atom_site_fract_y
 _atom_site_fract_z
 _atom_site_occupancy
  Y  Y0  1  0.022980  0.178317  0.900131  1
  Ho  Ho1  1  0.368678  0.838632  0.875419  1
  Ho  Ho2  1  0.870828  0.661353  0.623296  1
  Ho  Ho3  1  0.629128  0.161152  0.375890  1
  Ho  Ho4  1  0.131597  0.338933  0.124407  1
  Ho  Ho5  1  0.631328  0.161364  0.124638  1
  Ho  Ho6  1  0.129101  0.339088  0.376225  1
  Ho  Ho7  1  0.371463  0.838924  0.623824  1
  Ho  Ho8  1  0.869503  0.661022  0.875730  1
  Ho  Ho9  1  0.525947  0.323214  0.898750  1
  Ho  Ho10  1  0.028048  0.176998  0.601908  1
  Ho  Ho11  1  0.472418  0.676932  0.397991  1
  Ho  Ho12  1  0.974759  0.822022  0.101213  1
  Ho  Ho13  1  0.474358  0.676959  0.101421  1
  Ho  Ho14  1  0.972571  0.823057  0.398188  1
  Ho  Ho15  1  0.527089  0.323095  0.601271  1
  Ho  Ho16  1  0.200742  0.503223  0.749565  1
  Ho  Ho17  1  0.700724  0.996906  0.749555  1
  Ho  Ho18  1  0.799552  0.496829  0.250161  1
  Ho  Ho19  1  0.299700  0.003161  0.250645  1
  Sn  Sn20  1  0.565944  0.620894  0.749668  1
  Sn  Sn21  1  0.065587  0.878943  0.749566  1
  Sn  Sn22  1  0.434300  0.379520  0.250217  1
  Sn  Sn23  1  0.934904  0.120686  0.250119  1
  Sn  Sn24  1  0.334790  0.149581  0.750109  1
  Sn  Sn25  1  0.833267  0.351199  0.749570  1
  Sn  Sn26  1  0.666017  0.850238  0.249738  1
  Sn  Sn27  1  0.165629  0.649678  0.249859  1
  Pb  Pb28  1  0.290701  0.036290  0.041944  1
  Pb  Pb29  1  0.787463  0.463843  0.458570  1
  Pb  Pb30  1  0.712574  0.964605  0.541034  1
  Pb  Pb31  1  0.210765  0.537635  0.958984  1
  Pb  Pb32  1  0.707678  0.960726  0.959317  1
  Pb  Pb33  1  0.212372  0.536573  0.541054  1
  Pb  Pb34  1  0.287731  0.036128  0.458841  1
  Pb  Pb35  1  0.789766  0.462280  0.041181  1
