# generated using pymatgen
data_Ho14Tm6Sn3Pb13
_symmetry_space_group_name_H-M   'P 1'
_cell_length_a   8.15499345
_cell_length_b   15.55342010
_cell_length_c   8.20624233
_cell_angle_alpha   90.01291539
_cell_angle_beta   89.84942338
_cell_angle_gamma   89.99827860
_symmetry_Int_Tables_number   1
_chemical_formula_structural   Ho14Tm6Sn3Pb13
_chemical_formula_sum   'Ho14 Tm6 Sn3 Pb13'
_cell_volume   1040.86006432
_cell_formula_units_Z   1
loop_
 _symmetry_equiv_pos_site_id
 _symmetry_equiv_pos_as_xyz
  1  'x, y, z'
loop_
 _atom_site_type_symbol
 _atom_site_label
 _atom_site_symmetry_multiplicity
 _atom_site_fract_x
 _atom_site_fract_y
 _atom_site_fract_z
 _atom_site_occupancy
  Ho  Ho0  1  0.381225  0.122173  0.838108  1
  Ho  Ho1  1  0.876887  0.378886  0.659381  1
  Ho  Ho2  1  0.381260  0.377681  0.837946  1
  Ho  Ho3  1  0.876920  0.121274  0.659553  1
  Ho  Ho4  1  0.620492  0.876782  0.161423  1
  Ho  Ho5  1  0.121192  0.623025  0.338232  1
  Ho  Ho6  1  0.462791  0.601441  0.672706  1
  Ho  Ho7  1  0.963095  0.898546  0.827642  1
  Ho  Ho8  1  0.536991  0.100738  0.327258  1
  Ho  Ho9  1  0.036735  0.400164  0.175953  1
  Ho  Ho10  1  0.536977  0.399439  0.327284  1
  Ho  Ho11  1  0.036735  0.099646  0.175935  1
  Ho  Ho12  1  0.462776  0.898479  0.672580  1
  Ho  Ho13  1  0.963074  0.601520  0.827763  1
  Tm  Tm14  1  0.620784  0.623423  0.161419  1
  Tm  Tm15  1  0.121493  0.876773  0.338242  1
  Tm  Tm16  1  0.788760  0.749992  0.492270  1
  Tm  Tm17  1  0.288468  0.750027  0.007709  1
  Tm  Tm18  1  0.212215  0.249977  0.505553  1
  Tm  Tm19  1  0.709071  0.250015  0.993342  1
  Sn  Sn20  1  0.425243  0.749947  0.375744  1
  Sn  Sn21  1  0.925468  0.750047  0.124785  1
  Sn  Sn22  1  0.574999  0.249991  0.623870  1
  Pb  Pb23  1  0.717787  0.458485  0.968360  1
  Pb  Pb24  1  0.217811  0.041496  0.532501  1
  Pb  Pb25  1  0.282212  0.957685  0.032505  1
  Pb  Pb26  1  0.781782  0.542680  0.466013  1
  Pb  Pb27  1  0.283110  0.542320  0.032089  1
  Pb  Pb28  1  0.782685  0.957313  0.466431  1
  Pb  Pb29  1  0.718021  0.041838  0.968006  1
  Pb  Pb30  1  0.218046  0.458181  0.532857  1
  Pb  Pb31  1  0.073248  0.250019  0.875394  1
  Pb  Pb32  1  0.651978  0.749913  0.847221  1
  Pb  Pb33  1  0.152220  0.750082  0.652915  1
  Pb  Pb34  1  0.349321  0.250001  0.154071  1
  Pb  Pb35  1  0.848133  0.249999  0.346939  1
