# generated using pymatgen
data_Dy2Ho10GaCo5
_symmetry_space_group_name_H-M   'P 1'
_cell_length_a   8.20133683
_cell_length_b   8.20125025
_cell_length_c   8.19819980
_cell_angle_alpha   110.77793827
_cell_angle_beta   110.73289924
_cell_angle_gamma   106.94734789
_symmetry_Int_Tables_number   1
_chemical_formula_structural   Dy2Ho10GaCo5
_chemical_formula_sum   'Dy2 Ho10 Ga1 Co5'
_cell_volume   423.78697087
_cell_formula_units_Z   1
loop_
 _symmetry_equiv_pos_site_id
 _symmetry_equiv_pos_as_xyz
  1  'x, y, z'
loop_
 _atom_site_type_symbol
 _atom_site_label
 _atom_site_symmetry_multiplicity
 _atom_site_fract_x
 _atom_site_fract_y
 _atom_site_fract_z
 _atom_site_occupancy
  Dy  Dy0  1  0.813946  0.710296  0.524253  1
  Dy  Dy1  1  0.186054  0.289704  0.475747  1
  Ho  Ho2  1  0.186098  0.710529  0.896622  1
  Ho  Ho3  1  0.813902  0.289471  0.103378  1
  Ho  Ho4  1  0.684149  0.381010  0.697223  1
  Ho  Ho5  1  0.315851  0.618990  0.302777  1
  Ho  Ho6  1  0.683788  0.986919  0.302790  1
  Ho  Ho7  1  0.316212  0.013081  0.697210  1
  Ho  Ho8  1  0.593753  0.785318  0.808900  1
  Ho  Ho9  1  0.406247  0.214682  0.191100  1
  Ho  Ho10  1  0.976407  0.784848  0.191091  1
  Ho  Ho11  1  0.023593  0.215152  0.808909  1
  Ga  Ga12  1  0.500000  0.500000  0.000000  1
  Co  Co13  1  0.623688  0.000154  0.623843  1
  Co  Co14  1  0.376312  0.999846  0.376157  1
  Co  Co15  1  0.113289  0.613283  0.499999  1
  Co  Co16  1  0.886711  0.386717  0.500001  1
  Co  Co17  1  0.000000  0.000000  0.000000  1
