# generated using pymatgen
data_Er4Lu16(BiSb3)3
_symmetry_space_group_name_H-M   'P 1'
_cell_length_a   8.00802099
_cell_length_b   9.22933500
_cell_length_c   11.67609408
_cell_angle_alpha   90.05278688
_cell_angle_beta   89.91969799
_cell_angle_gamma   89.99385573
_symmetry_Int_Tables_number   1
_chemical_formula_structural   Er4Lu16(BiSb3)3
_chemical_formula_sum   'Er4 Lu16 Bi3 Sb9'
_cell_volume   862.96381371
_cell_formula_units_Z   1
loop_
 _symmetry_equiv_pos_site_id
 _symmetry_equiv_pos_as_xyz
  1  'x, y, z'
loop_
 _atom_site_type_symbol
 _atom_site_label
 _atom_site_symmetry_multiplicity
 _atom_site_fract_x
 _atom_site_fract_y
 _atom_site_fract_z
 _atom_site_occupancy
  Er  Er0  1  0.314693  0.251283  0.217410  1
  Er  Er1  1  0.814970  0.248887  0.282496  1
  Er  Er2  1  0.683287  0.753540  0.781697  1
  Er  Er3  1  0.187928  0.751995  0.717090  1
  Lu  Lu4  1  0.352307  0.750550  0.216074  1
  Lu  Lu5  1  0.852664  0.749239  0.284084  1
  Lu  Lu6  1  0.644349  0.247652  0.782990  1
  Lu  Lu7  1  0.150475  0.246709  0.715421  1
  Lu  Lu8  1  0.691166  0.564885  0.059106  1
  Lu  Lu9  1  0.192390  0.935720  0.442495  1
  Lu  Lu10  1  0.310268  0.064360  0.938384  1
  Lu  Lu11  1  0.807995  0.435019  0.559569  1
  Lu  Lu12  1  0.311104  0.435343  0.940390  1
  Lu  Lu13  1  0.808872  0.063549  0.560297  1
  Lu  Lu14  1  0.689057  0.935715  0.059510  1
  Lu  Lu15  1  0.189333  0.564681  0.440734  1
  Lu  Lu16  1  0.473660  0.247554  0.491069  1
  Lu  Lu17  1  0.975119  0.250131  0.010574  1
  Lu  Lu18  1  0.524726  0.751953  0.512139  1
  Lu  Lu19  1  0.025676  0.750186  0.989054  1
  Bi  Bi20  1  0.934142  0.495624  0.824438  1
  Bi  Bi21  1  0.565477  0.504352  0.326071  1
  Bi  Bi22  1  0.066055  0.995722  0.175069  1
  Sb  Sb23  1  0.404588  0.749976  0.959740  1
  Sb  Sb24  1  0.904826  0.749682  0.540711  1
  Sb  Sb25  1  0.595730  0.250227  0.040243  1
  Sb  Sb26  1  0.094476  0.250137  0.459545  1
  Sb  Sb27  1  0.564849  0.994939  0.326968  1
  Sb  Sb28  1  0.064906  0.505170  0.172953  1
  Sb  Sb29  1  0.435153  0.495176  0.672993  1
  Sb  Sb30  1  0.934923  0.005161  0.827303  1
  Sb  Sb31  1  0.434837  0.004880  0.673382  1
