# generated using pymatgen
data_Dy5Y15(Bi2P)4
_symmetry_space_group_name_H-M   'P 1'
_cell_length_a   8.02665004
_cell_length_b   8.97884118
_cell_length_c   12.21033920
_cell_angle_alpha   89.97951136
_cell_angle_beta   90.00152769
_cell_angle_gamma   89.98929418
_symmetry_Int_Tables_number   1
_chemical_formula_structural   Dy5Y15(Bi2P)4
_chemical_formula_sum   'Dy5 Y15 Bi8 P4'
_cell_volume   879.99926808
_cell_formula_units_Z   1
loop_
 _symmetry_equiv_pos_site_id
 _symmetry_equiv_pos_as_xyz
  1  'x, y, z'
loop_
 _atom_site_type_symbol
 _atom_site_label
 _atom_site_symmetry_multiplicity
 _atom_site_fract_x
 _atom_site_fract_y
 _atom_site_fract_z
 _atom_site_occupancy
  Dy  Dy0  1  0.317720  0.548993  0.435860  1
  Dy  Dy1  1  0.817343  0.049152  0.064200  1
  Dy  Dy2  1  0.682312  0.451077  0.564118  1
  Dy  Dy3  1  0.817657  0.450840  0.064170  1
  Dy  Dy4  1  0.182355  0.548874  0.935941  1
  Y  Y5  1  0.851862  0.749874  0.795053  1
  Y  Y6  1  0.147988  0.250017  0.204873  1
  Y  Y7  1  0.351922  0.250192  0.704924  1
  Y  Y8  1  0.648130  0.749854  0.295085  1
  Y  Y9  1  0.377042  0.749598  0.699824  1
  Y  Y10  1  0.623088  0.250201  0.300073  1
  Y  Y11  1  0.876991  0.250279  0.800240  1
  Y  Y12  1  0.122908  0.749628  0.199817  1
  Y  Y13  1  0.957941  0.749325  0.501861  1
  Y  Y14  1  0.042020  0.250684  0.498124  1
  Y  Y15  1  0.458401  0.250343  0.998161  1
  Y  Y16  1  0.542292  0.749577  0.001878  1
  Y  Y17  1  0.682720  0.048258  0.564175  1
  Y  Y18  1  0.317268  0.951715  0.435809  1
  Y  Y19  1  0.182460  0.951780  0.935912  1
  Bi  Bi20  1  0.577817  0.490884  0.826928  1
  Bi  Bi21  1  0.422217  0.509174  0.173041  1
  Bi  Bi22  1  0.077777  0.509157  0.673038  1
  Bi  Bi23  1  0.422421  0.990755  0.172994  1
  Bi  Bi24  1  0.922206  0.490851  0.326932  1
  Bi  Bi25  1  0.577841  0.009085  0.827079  1
  Bi  Bi26  1  0.922263  0.009058  0.326914  1
  Bi  Bi27  1  0.077685  0.990849  0.672985  1
  P  P28  1  0.572530  0.749601  0.511999  1
  P  P29  1  0.427466  0.250423  0.487966  1
  P  P30  1  0.072168  0.250136  0.987997  1
  P  P31  1  0.927190  0.749768  0.012027  1
