# generated using pymatgen
data_NaMn7(As2O5)4
_symmetry_space_group_name_H-M   'P 1'
_cell_length_a   6.50494312
_cell_length_b   9.59642780
_cell_length_c   9.70908818
_cell_angle_alpha   67.33713635
_cell_angle_beta   81.57947247
_cell_angle_gamma   78.44712932
_symmetry_Int_Tables_number   1
_chemical_formula_structural   NaMn7(As2O5)4
_chemical_formula_sum   'Na1 Mn7 As8 O20'
_cell_volume   546.34371551
_cell_formula_units_Z   1
loop_
 _symmetry_equiv_pos_site_id
 _symmetry_equiv_pos_as_xyz
  1  'x, y, z'
loop_
 _atom_site_type_symbol
 _atom_site_label
 _atom_site_symmetry_multiplicity
 _atom_site_fract_x
 _atom_site_fract_y
 _atom_site_fract_z
 _atom_site_occupancy
  Na  Na0  1  0.334160  0.250754  0.483764  1
  Mn  Mn1  1  0.155031  0.912822  0.632839  1
  Mn  Mn2  1  0.593242  0.412817  0.158124  1
  Mn  Mn3  1  0.898709  0.594763  0.846781  1
  Mn  Mn4  1  0.102680  0.396477  0.156078  1
  Mn  Mn5  1  0.404555  0.582736  0.840127  1
  Mn  Mn6  1  0.830903  0.099241  0.373951  1
  Mn  Mn7  1  0.665520  0.743614  0.522472  1
  As  As8  1  0.796011  0.403849  0.471867  1
  As  As9  1  0.266574  0.278304  0.840221  1
  As  As10  1  0.379433  0.042655  0.262138  1
  As  As11  1  0.732136  0.726449  0.155593  1
  As  As12  1  0.210551  0.599916  0.519565  1
  As  As13  1  0.789535  0.217168  0.985693  1
  As  As14  1  0.617014  0.939495  0.754253  1
  As  As15  1  0.213912  0.781304  0.011915  1
  O  O16  1  0.832843  0.983031  0.606941  1
  O  O17  1  0.351178  0.690511  0.604961  1
  O  O18  1  0.959062  0.637127  0.608677  1
  O  O19  1  0.700894  0.620509  0.360365  1
  O  O20  1  0.818771  0.570381  0.090795  1
  O  O21  1  0.613052  0.964713  0.363849  1
  O  O22  1  0.381061  0.014803  0.660538  1
  O  O23  1  0.896019  0.228813  0.144015  1
  O  O24  1  0.041640  0.382943  0.377649  1
  O  O25  1  0.107661  0.771721  0.848951  1
  O  O26  1  0.165311  0.017828  0.412637  1
  O  O27  1  0.016281  0.217219  0.849606  1
  O  O28  1  0.680766  0.419889  0.916872  1
  O  O29  1  0.388211  0.241653  0.214189  1
  O  O30  1  0.176471  0.431544  0.909974  1
  O  O31  1  0.657502  0.317629  0.385649  1
  O  O32  1  0.622825  0.744351  0.767984  1
  O  O33  1  0.318057  0.579076  0.078324  1
  O  O34  1  0.298261  0.395401  0.640696  1
  O  O35  1  0.984169  0.788489  0.141952  1
