# generated using pymatgen
data_La7Pr3(Pb3S)2
_symmetry_space_group_name_H-M   'P 1'
_cell_length_a   9.67127400
_cell_length_b   9.67122172
_cell_length_c   7.07425200
_cell_angle_alpha   90.00199074
_cell_angle_beta   89.99865239
_cell_angle_gamma   120.00090279
_symmetry_Int_Tables_number   1
_chemical_formula_structural   La7Pr3(Pb3S)2
_chemical_formula_sum   'La7 Pr3 Pb6 S2'
_cell_volume   573.02323795
_cell_formula_units_Z   1
loop_
 _symmetry_equiv_pos_site_id
 _symmetry_equiv_pos_as_xyz
  1  'x, y, z'
loop_
 _atom_site_type_symbol
 _atom_site_label
 _atom_site_symmetry_multiplicity
 _atom_site_fract_x
 _atom_site_fract_y
 _atom_site_fract_z
 _atom_site_occupancy
  La  La0  1  0.756992  0.757266  0.750289  1
  La  La1  1  0.242737  0.999726  0.750289  1
  La  La2  1  0.000267  0.243003  0.750279  1
  La  La3  1  0.242739  0.243006  0.249711  1
  La  La4  1  0.756989  0.999727  0.249719  1
  La  La5  1  0.000271  0.757260  0.249721  1
  La  La6  1  0.666673  0.333346  0.500005  1
  Pr  Pr7  1  0.666673  0.333334  0.000001  1
  Pr  Pr8  1  0.333328  0.666667  0.999997  1
  Pr  Pr9  1  0.333338  0.666668  0.499996  1
  Pb  Pb10  1  0.396906  0.397495  0.750787  1
  Pb  Pb11  1  0.602511  0.999408  0.750789  1
  Pb  Pb12  1  0.000580  0.603087  0.750800  1
  Pb  Pb13  1  0.602505  0.603093  0.249207  1
  Pb  Pb14  1  0.396905  0.999418  0.249203  1
  Pb  Pb15  1  0.000587  0.397501  0.249208  1
  S  S16  1  0.999998  0.999999  0.000000  1
  S  S17  1  0.000000  0.999997  0.499998  1
