# generated using pymatgen
data_Tb9Er4Th7Sn16
_symmetry_space_group_name_H-M   'P 1'
_cell_length_a   8.14749925
_cell_length_b   8.25131807
_cell_length_c   15.61630500
_cell_angle_alpha   90.06785516
_cell_angle_beta   90.27705319
_cell_angle_gamma   89.89307134
_symmetry_Int_Tables_number   1
_chemical_formula_structural   Tb9Er4Th7Sn16
_chemical_formula_sum   'Tb9 Er4 Th7 Sn16'
_cell_volume   1049.83200062
_cell_formula_units_Z   1
loop_
 _symmetry_equiv_pos_site_id
 _symmetry_equiv_pos_as_xyz
  1  'x, y, z'
loop_
 _atom_site_type_symbol
 _atom_site_label
 _atom_site_symmetry_multiplicity
 _atom_site_fract_x
 _atom_site_fract_y
 _atom_site_fract_z
 _atom_site_occupancy
  Tb  Tb0  1  0.364241  0.835531  0.876447  1
  Tb  Tb1  1  0.862651  0.662875  0.623600  1
  Tb  Tb2  1  0.636483  0.164009  0.376843  1
  Tb  Tb3  1  0.134002  0.336246  0.122646  1
  Tb  Tb4  1  0.634800  0.164005  0.122627  1
  Tb  Tb5  1  0.137023  0.336498  0.376820  1
  Tb  Tb6  1  0.363117  0.837581  0.624217  1
  Tb  Tb7  1  0.865590  0.663019  0.876767  1
  Tb  Tb8  1  0.524706  0.323328  0.900330  1
  Er  Er9  1  0.193062  0.498455  0.750351  1
  Er  Er10  1  0.693798  0.001535  0.750250  1
  Er  Er11  1  0.806731  0.502095  0.250067  1
  Er  Er12  1  0.306642  0.997905  0.250143  1
  Th  Th13  1  0.020969  0.179696  0.597694  1
  Th  Th14  1  0.480115  0.679254  0.403373  1
  Th  Th15  1  0.978292  0.820904  0.096606  1
  Th  Th16  1  0.479179  0.679601  0.097315  1
  Th  Th17  1  0.979987  0.820588  0.403815  1
  Th  Th18  1  0.519164  0.320186  0.596069  1
  Th  Th19  1  0.019827  0.178239  0.902924  1
  Sn  Sn20  1  0.294847  0.035053  0.043370  1
  Sn  Sn21  1  0.797240  0.461726  0.457731  1
  Sn  Sn22  1  0.703016  0.962293  0.542772  1
  Sn  Sn23  1  0.208669  0.534120  0.956700  1
  Sn  Sn24  1  0.702457  0.962581  0.956771  1
  Sn  Sn25  1  0.202423  0.539746  0.542383  1
  Sn  Sn26  1  0.297243  0.038267  0.457994  1
  Sn  Sn27  1  0.793814  0.461418  0.041770  1
  Sn  Sn28  1  0.559152  0.620549  0.749315  1
  Sn  Sn29  1  0.058773  0.879703  0.750239  1
  Sn  Sn30  1  0.440409  0.378618  0.249711  1
  Sn  Sn31  1  0.940393  0.121162  0.249844  1
  Sn  Sn32  1  0.329205  0.146144  0.751953  1
  Sn  Sn33  1  0.825644  0.356671  0.750165  1
  Sn  Sn34  1  0.673839  0.857162  0.250310  1
  Sn  Sn35  1  0.172492  0.643236  0.250065  1
