# generated using pymatgen
data_Dy5YAl24Ir3Os5
_symmetry_space_group_name_H-M   'P 1'
_cell_length_a   8.79385519
_cell_length_b   8.80573749
_cell_length_c   9.58455018
_cell_angle_alpha   90.00645012
_cell_angle_beta   89.84070965
_cell_angle_gamma   119.47668866
_symmetry_Int_Tables_number   1
_chemical_formula_structural   Dy5YAl24Ir3Os5
_chemical_formula_sum   'Dy5 Y1 Al24 Ir3 Os5'
_cell_volume   646.11726844
_cell_formula_units_Z   1
loop_
 _symmetry_equiv_pos_site_id
 _symmetry_equiv_pos_as_xyz
  1  'x, y, z'
loop_
 _atom_site_type_symbol
 _atom_site_label
 _atom_site_symmetry_multiplicity
 _atom_site_fract_x
 _atom_site_fract_y
 _atom_site_fract_z
 _atom_site_occupancy
  Dy  Dy0  1  0.188472  0.385381  0.251246  1
  Dy  Dy1  1  0.811550  0.614805  0.748769  1
  Dy  Dy2  1  0.613156  0.811793  0.250225  1
  Dy  Dy3  1  0.386656  0.188173  0.749772  1
  Dy  Dy4  1  0.194786  0.808654  0.250844  1
  Y  Y5  1  0.805245  0.191460  0.749190  1
  Al  Al6  1  0.333675  0.668239  0.024893  1
  Al  Al7  1  0.666313  0.331777  0.975150  1
  Al  Al8  1  0.667599  0.332402  0.524109  1
  Al  Al9  1  0.332375  0.667589  0.475855  1
  Al  Al10  1  0.162650  0.326737  0.575998  1
  Al  Al11  1  0.837412  0.673259  0.424005  1
  Al  Al12  1  0.672632  0.836584  0.575358  1
  Al  Al13  1  0.835805  0.673556  0.076259  1
  Al  Al14  1  0.327358  0.163370  0.424629  1
  Al  Al15  1  0.164277  0.326448  0.923762  1
  Al  Al16  1  0.164185  0.835182  0.575504  1
  Al  Al17  1  0.326910  0.163148  0.076055  1
  Al  Al18  1  0.835819  0.164788  0.424527  1
  Al  Al19  1  0.673085  0.836802  0.923961  1
  Al  Al20  1  0.834132  0.163057  0.075321  1
  Al  Al21  1  0.165872  0.836907  0.924642  1
  Al  Al22  1  0.561045  0.125736  0.249673  1
  Al  Al23  1  0.438943  0.874278  0.750306  1
  Al  Al24  1  0.875317  0.439676  0.250526  1
  Al  Al25  1  0.124677  0.560337  0.749474  1
  Al  Al26  1  0.561226  0.438973  0.249666  1
  Al  Al27  1  0.438773  0.561018  0.750342  1
  Al  Al28  1  0.998904  0.001841  0.250036  1
  Al  Al29  1  0.001181  0.998115  0.749968  1
  Ir  Ir30  1  0.000049  0.500047  0.000065  1
  Ir  Ir31  1  0.500031  0.499985  0.999962  1
  Ir  Ir32  1  0.500029  0.499985  0.500046  1
  Os  Os33  1  0.499919  0.999941  0.000083  1
  Os  Os34  1  0.499874  0.999912  0.499869  1
  Os  Os35  1  0.000051  0.500068  0.499912  1
  Os  Os36  1  0.000014  0.999992  0.999972  1
  Os  Os37  1  0.000003  0.999988  0.500031  1
