# generated using pymatgen
data_Tb5In(NiRh8)2
_symmetry_space_group_name_H-M   'P 1'
_cell_length_a   5.27465600
_cell_length_b   5.27465765
_cell_length_c   17.26518700
_cell_angle_alpha   90.00000000
_cell_angle_beta   90.00000000
_cell_angle_gamma   119.99998964
_symmetry_Int_Tables_number   1
_chemical_formula_structural   Tb5In(NiRh8)2
_chemical_formula_sum   'Tb5 In1 Ni2 Rh16'
_cell_volume   415.99717580
_cell_formula_units_Z   1
loop_
 _symmetry_equiv_pos_site_id
 _symmetry_equiv_pos_as_xyz
  1  'x, y, z'
loop_
 _atom_site_type_symbol
 _atom_site_label
 _atom_site_symmetry_multiplicity
 _atom_site_fract_x
 _atom_site_fract_y
 _atom_site_fract_z
 _atom_site_occupancy
  Tb  Tb0  1  0.333333  0.666667  0.955717  1
  Tb  Tb1  1  0.666667  0.333333  0.042855  1
  Tb  Tb2  1  0.666667  0.333333  0.463320  1
  Tb  Tb3  1  0.333333  0.666667  0.742311  1
  Tb  Tb4  1  0.666667  0.333333  0.252747  1
  In  In5  1  0.333333  0.666667  0.541750  1
  Ni  Ni6  1  0.333333  0.666667  0.250942  1
  Ni  Ni7  1  0.666667  0.333333  0.749701  1
  Rh  Rh8  1  0.168850  0.831150  0.373793  1
  Rh  Rh9  1  0.168850  0.337702  0.373793  1
  Rh  Rh10  1  0.662298  0.831150  0.373793  1
  Rh  Rh11  1  0.831548  0.168452  0.625836  1
  Rh  Rh12  1  0.831548  0.663096  0.625836  1
  Rh  Rh13  1  0.336904  0.168452  0.625836  1
  Rh  Rh14  1  0.831783  0.168217  0.871624  1
  Rh  Rh15  1  0.831783  0.663565  0.871624  1
  Rh  Rh16  1  0.336435  0.168217  0.871624  1
  Rh  Rh17  1  0.168317  0.831683  0.128310  1
  Rh  Rh18  1  0.168317  0.336635  0.128310  1
  Rh  Rh19  1  0.663365  0.831683  0.128310  1
  Rh  Rh20  1  0.000000  0.000000  0.251730  1
  Rh  Rh21  1  0.000000  0.000000  0.749437  1
  Rh  Rh22  1  0.000000  0.000000  0.500602  1
  Rh  Rh23  1  0.000000  0.000000  0.000198  1
