# generated using pymatgen
data_Ru2N2F3
_symmetry_space_group_name_H-M   'P 1'
_cell_length_a   4.87128789
_cell_length_b   5.50797412
_cell_length_c   6.71353562
_cell_angle_alpha   103.17165783
_cell_angle_beta   111.27201515
_cell_angle_gamma   90.00000045
_symmetry_Int_Tables_number   1
_chemical_formula_structural   Ru2N2F3
_chemical_formula_sum   'Ru4 N4 F6'
_cell_volume   162.76199334
_cell_formula_units_Z   2
loop_
 _symmetry_equiv_pos_site_id
 _symmetry_equiv_pos_as_xyz
  1  'x, y, z'
loop_
 _atom_site_type_symbol
 _atom_site_label
 _atom_site_symmetry_multiplicity
 _atom_site_fract_x
 _atom_site_fract_y
 _atom_site_fract_z
 _atom_site_occupancy
  Ru  Ru0  1  0.392960  0.821055  0.323572  1
  Ru  Ru1  1  0.069388  0.678945  0.676428  1
  Ru  Ru2  1  0.607040  0.178945  0.676428  1
  Ru  Ru3  1  0.930612  0.321055  0.323572  1
  N  N4  1  0.739148  0.857672  0.590937  1
  N  N5  1  0.148210  0.642328  0.409063  1
  N  N6  1  0.260852  0.142328  0.409063  1
  N  N7  1  0.851790  0.357672  0.590937  1
  F  F8  1  0.531850  0.480076  0.201291  1
  F  F9  1  0.330560  0.019924  0.798709  1
  F  F10  1  0.468150  0.519924  0.798709  1
  F  F11  1  0.669440  0.980076  0.201291  1
  F  F12  1  0.087168  0.750000  0.000000  1
  F  F13  1  0.912832  0.250000  0.000000  1
