# generated using pymatgen
data_Y9TmCd3Ni
_symmetry_space_group_name_H-M   'P 1'
_cell_length_a   9.61146500
_cell_length_b   9.61146574
_cell_length_c   9.76850300
_cell_angle_alpha   90.00000000
_cell_angle_beta   90.00000000
_cell_angle_gamma   119.99999401
_symmetry_Int_Tables_number   1
_chemical_formula_structural   Y9TmCd3Ni
_chemical_formula_sum   'Y18 Tm2 Cd6 Ni2'
_cell_volume   781.51601684
_cell_formula_units_Z   2
loop_
 _symmetry_equiv_pos_site_id
 _symmetry_equiv_pos_as_xyz
  1  'x, y, z'
loop_
 _atom_site_type_symbol
 _atom_site_label
 _atom_site_symmetry_multiplicity
 _atom_site_fract_x
 _atom_site_fract_y
 _atom_site_fract_z
 _atom_site_occupancy
  Y  Y0  1  0.543455  0.456545  0.250000  1
  Y  Y1  1  0.543455  0.086909  0.250000  1
  Y  Y2  1  0.913091  0.456545  0.250000  1
  Y  Y3  1  0.456545  0.543455  0.750000  1
  Y  Y4  1  0.456545  0.913091  0.750000  1
  Y  Y5  1  0.086909  0.543455  0.750000  1
  Y  Y6  1  0.209529  0.790471  0.437483  1
  Y  Y7  1  0.209529  0.419059  0.437483  1
  Y  Y8  1  0.580941  0.790471  0.437483  1
  Y  Y9  1  0.790471  0.209529  0.562517  1
  Y  Y10  1  0.790471  0.580941  0.562517  1
  Y  Y11  1  0.419059  0.209529  0.562517  1
  Y  Y12  1  0.790471  0.209529  0.937483  1
  Y  Y13  1  0.790471  0.580941  0.937483  1
  Y  Y14  1  0.419059  0.209529  0.937483  1
  Y  Y15  1  0.209529  0.790471  0.062517  1
  Y  Y16  1  0.209529  0.419059  0.062517  1
  Y  Y17  1  0.580941  0.790471  0.062517  1
  Tm  Tm18  1  0.000000  0.000000  0.500000  1
  Tm  Tm19  1  0.000000  0.000000  0.000000  1
  Cd  Cd20  1  0.885712  0.114288  0.250000  1
  Cd  Cd21  1  0.885712  0.771423  0.250000  1
  Cd  Cd22  1  0.228577  0.114288  0.250000  1
  Cd  Cd23  1  0.114288  0.885712  0.750000  1
  Cd  Cd24  1  0.114288  0.228577  0.750000  1
  Cd  Cd25  1  0.771423  0.885712  0.750000  1
  Ni  Ni26  1  0.333333  0.666667  0.250000  1
  Ni  Ni27  1  0.666667  0.333333  0.750000  1
