# generated using pymatgen
data_LaNd(Sn2Ir)2
_symmetry_space_group_name_H-M   'P 1'
_cell_length_a   8.90211869
_cell_length_b   8.90211946
_cell_length_c   9.69983100
_cell_angle_alpha   90.00000000
_cell_angle_beta   90.00000000
_cell_angle_gamma   149.40565325
_symmetry_Int_Tables_number   1
_chemical_formula_structural   LaNd(Sn2Ir)2
_chemical_formula_sum   'La2 Nd2 Sn8 Ir4'
_cell_volume   391.22952194
_cell_formula_units_Z   2
loop_
 _symmetry_equiv_pos_site_id
 _symmetry_equiv_pos_as_xyz
  1  'x, y, z'
loop_
 _atom_site_type_symbol
 _atom_site_label
 _atom_site_symmetry_multiplicity
 _atom_site_fract_x
 _atom_site_fract_y
 _atom_site_fract_z
 _atom_site_occupancy
  La  La0  1  0.500000  0.500000  0.500000  1
  La  La1  1  0.500000  0.500000  0.000000  1
  Nd  Nd2  1  0.296267  0.703733  0.250000  1
  Nd  Nd3  1  0.703733  0.296267  0.750000  1
  Sn  Sn4  1  0.910084  0.089916  0.750000  1
  Sn  Sn5  1  0.923748  0.076252  0.250000  1
  Sn  Sn6  1  0.089916  0.910084  0.250000  1
  Sn  Sn7  1  0.076252  0.923748  0.750000  1
  Sn  Sn8  1  0.698482  0.301518  0.409102  1
  Sn  Sn9  1  0.301518  0.698482  0.590898  1
  Sn  Sn10  1  0.301518  0.698482  0.909102  1
  Sn  Sn11  1  0.698482  0.301518  0.090898  1
  Ir  Ir12  1  0.147267  0.852733  0.504940  1
  Ir  Ir13  1  0.852733  0.147267  0.004940  1
  Ir  Ir14  1  0.147267  0.852733  0.995060  1
  Ir  Ir15  1  0.852733  0.147267  0.495060  1
