# generated using pymatgen
data_Dy15LuInAg3Rh4
_symmetry_space_group_name_H-M   'P 1'
_cell_length_a   9.53044731
_cell_length_b   9.54219097
_cell_length_c   9.54219204
_cell_angle_alpha   60.27044982
_cell_angle_beta   60.32740312
_cell_angle_gamma   60.32740092
_symmetry_Int_Tables_number   1
_chemical_formula_structural   Dy15LuInAg3Rh4
_chemical_formula_sum   'Dy15 Lu1 In1 Ag3 Rh4'
_cell_volume   617.89491615
_cell_formula_units_Z   1
loop_
 _symmetry_equiv_pos_site_id
 _symmetry_equiv_pos_as_xyz
  1  'x, y, z'
loop_
 _atom_site_type_symbol
 _atom_site_label
 _atom_site_symmetry_multiplicity
 _atom_site_fract_x
 _atom_site_fract_y
 _atom_site_fract_z
 _atom_site_occupancy
  Dy  Dy0  1  0.689894  0.688918  0.310102  1
  Dy  Dy1  1  0.313702  0.687656  0.312372  1
  Dy  Dy2  1  0.934758  0.936211  0.559884  1
  Dy  Dy3  1  0.148183  0.148550  0.554486  1
  Dy  Dy4  1  0.563355  0.936821  0.562479  1
  Dy  Dy5  1  0.146739  0.148067  0.148067  1
  Dy  Dy6  1  0.313702  0.312372  0.687656  1
  Dy  Dy7  1  0.935825  0.563191  0.563191  1
  Dy  Dy8  1  0.563355  0.562479  0.936821  1
  Dy  Dy9  1  0.560364  0.935449  0.935449  1
  Dy  Dy10  1  0.934758  0.559884  0.936211  1
  Dy  Dy11  1  0.148183  0.554486  0.148550  1
  Dy  Dy12  1  0.310321  0.689964  0.689964  1
  Dy  Dy13  1  0.689894  0.310102  0.688918  1
  Dy  Dy14  1  0.555321  0.148567  0.148567  1
  Lu  Lu15  1  0.687984  0.312973  0.312973  1
  In  In16  1  0.921125  0.921090  0.921090  1
  Ag  Ag17  1  0.916877  0.917396  0.249069  1
  Ag  Ag18  1  0.249016  0.917089  0.917089  1
  Ag  Ag19  1  0.916877  0.249069  0.917396  1
  Rh  Rh20  1  0.359179  0.357151  0.357151  1
  Rh  Rh21  1  0.928349  0.356107  0.356107  1
  Rh  Rh22  1  0.356120  0.356534  0.929875  1
  Rh  Rh23  1  0.356120  0.929875  0.356534  1
