# generated using pymatgen
data_K2PrP2Se7
_symmetry_space_group_name_H-M   'P 1'
_cell_length_a   7.16332800
_cell_length_b   9.48471861
_cell_length_c   12.56699900
_cell_angle_alpha   93.60233390
_cell_angle_beta   106.56608779
_cell_angle_gamma   90.00658198
_symmetry_Int_Tables_number   1
_chemical_formula_structural   K2PrP2Se7
_chemical_formula_sum   'K4 Pr2 P4 Se14'
_cell_volume   816.62570156
_cell_formula_units_Z   2
loop_
 _symmetry_equiv_pos_site_id
 _symmetry_equiv_pos_as_xyz
  1  'x, y, z'
loop_
 _atom_site_type_symbol
 _atom_site_label
 _atom_site_symmetry_multiplicity
 _atom_site_fract_x
 _atom_site_fract_y
 _atom_site_fract_z
 _atom_site_occupancy
  K  K0  1  0.429157  0.695660  0.102767  1
  K  K1  1  0.175183  0.879958  0.614759  1
  K  K2  1  0.326105  0.304086  0.897093  1
  K  K3  1  0.560366  0.120014  0.384909  1
  Pr  Pr4  1  0.046555  0.537669  0.317137  1
  Pr  Pr5  1  0.729458  0.462430  0.682948  1
  P  P6  1  0.567487  0.707969  0.446713  1
  P  P7  1  0.120692  0.291954  0.553336  1
  P  P8  1  0.894902  0.391012  0.032708  1
  P  P9  1  0.862183  0.609095  0.967326  1
  Se  Se10  1  0.827787  0.244012  0.884793  1
  Se  Se11  1  0.488798  0.476661  0.431016  1
  Se  Se12  1  0.057996  0.523324  0.569236  1
  Se  Se13  1  0.913948  0.184902  0.626135  1
  Se  Se14  1  0.943342  0.755995  0.115271  1
  Se  Se15  1  0.415942  0.229637  0.653134  1
  Se  Se16  1  0.061173  0.616413  0.861945  1
  Se  Se17  1  0.762667  0.770376  0.346823  1
  Se  Se18  1  0.685906  0.771365  0.625579  1
  Se  Se19  1  0.199296  0.383672  0.138058  1
  Se  Se20  1  0.697955  0.387816  0.139132  1
  Se  Se21  1  0.059853  0.228705  0.374415  1
  Se  Se22  1  0.558849  0.612273  0.860940  1
  Se  Se23  1  0.288000  0.814997  0.373829  1
