# generated using pymatgen
data_ZrTe28
_symmetry_space_group_name_H-M   'P 1'
_cell_length_a   12.07044832
_cell_length_b   10.81983936
_cell_length_c   12.67756363
_cell_angle_alpha   115.00825207
_cell_angle_beta   124.68022490
_cell_angle_gamma   88.22720599
_symmetry_Int_Tables_number   1
_chemical_formula_structural   ZrTe28
_chemical_formula_sum   'Zr1 Te28'
_cell_volume   1184.08519891
_cell_formula_units_Z   1
loop_
 _symmetry_equiv_pos_site_id
 _symmetry_equiv_pos_as_xyz
  1  'x, y, z'
loop_
 _atom_site_type_symbol
 _atom_site_label
 _atom_site_symmetry_multiplicity
 _atom_site_fract_x
 _atom_site_fract_y
 _atom_site_fract_z
 _atom_site_occupancy
  Zr  Zr0  1  0.500000  0.000000  0.000000  1
  Te  Te1  1  0.246630  0.109077  0.422261  1
  Te  Te2  1  0.614802  0.156195  0.439752  1
  Te  Te3  1  0.269126  0.267912  0.902695  1
  Te  Te4  1  0.887781  0.299012  0.892338  1
  Te  Te5  1  0.208376  0.554890  0.718827  1
  Te  Te6  1  0.803346  0.517661  0.623860  1
  Te  Te7  1  0.385198  0.843805  0.560248  1
  Te  Te8  1  0.753370  0.890923  0.577739  1
  Te  Te9  1  0.112219  0.700988  0.107662  1
  Te  Te10  1  0.730874  0.732088  0.097305  1
  Te  Te11  1  0.196654  0.482339  0.376140  1
  Te  Te12  1  0.791624  0.445110  0.281173  1
  Te  Te13  1  0.757623  0.061641  0.852972  1
  Te  Te14  1  0.235195  0.979422  0.740011  1
  Te  Te15  1  0.828032  0.664105  0.889823  1
  Te  Te16  1  0.379409  0.782671  0.022173  1
  Te  Te17  1  0.499035  0.241263  0.220815  1
  Te  Te18  1  0.049062  0.279143  0.368589  1
  Te  Te19  1  0.764805  0.020578  0.259989  1
  Te  Te20  1  0.242377  0.938359  0.147028  1
  Te  Te21  1  0.620591  0.217329  0.977827  1
  Te  Te22  1  0.171968  0.335895  0.110177  1
  Te  Te23  1  0.950938  0.720857  0.631411  1
  Te  Te24  1  0.500965  0.758737  0.779185  1
  Te  Te25  1  0.056736  0.380350  0.735589  1
  Te  Te26  1  0.513260  0.300950  0.592309  1
  Te  Te27  1  0.486740  0.699050  0.407691  1
  Te  Te28  1  0.943264  0.619650  0.264411  1
