# generated using pymatgen
data_Pr2Re5(Tc4C)3
_symmetry_space_group_name_H-M   'P 1'
_cell_length_a   7.03850474
_cell_length_b   7.03850454
_cell_length_c   7.03423007
_cell_angle_alpha   82.95439712
_cell_angle_beta   82.95440901
_cell_angle_gamma   83.00547482
_symmetry_Int_Tables_number   1
_chemical_formula_structural   Pr2Re5(Tc4C)3
_chemical_formula_sum   'Pr2 Re5 Tc12 C3'
_cell_volume   341.21558130
_cell_formula_units_Z   1
loop_
 _symmetry_equiv_pos_site_id
 _symmetry_equiv_pos_as_xyz
  1  'x, y, z'
loop_
 _atom_site_type_symbol
 _atom_site_label
 _atom_site_symmetry_multiplicity
 _atom_site_fract_x
 _atom_site_fract_y
 _atom_site_fract_z
 _atom_site_occupancy
  Pr  Pr0  1  0.649102  0.648978  0.649480  1
  Pr  Pr1  1  0.351022  0.350898  0.350520  1
  Re  Re2  1  0.999796  0.000204  0.500000  1
  Re  Re3  1  0.500483  0.000094  0.000158  1
  Re  Re4  1  0.999906  0.499517  0.999842  1
  Re  Re5  1  0.999831  0.721744  0.278509  1
  Re  Re6  1  0.278256  0.000169  0.721491  1
  Tc  Tc7  1  0.721505  0.278495  0.000000  1
  Tc  Tc8  1  0.000029  0.278833  0.721590  1
  Tc  Tc9  1  0.721167  0.999971  0.278410  1
  Tc  Tc10  1  0.278736  0.721264  0.000000  1
  Tc  Tc11  1  0.347529  0.347478  0.867168  1
  Tc  Tc12  1  0.867030  0.347245  0.347290  1
  Tc  Tc13  1  0.347521  0.866987  0.347092  1
  Tc  Tc14  1  0.652522  0.652471  0.132832  1
  Tc  Tc15  1  0.133013  0.652479  0.652908  1
  Tc  Tc16  1  0.652755  0.132970  0.652710  1
  Tc  Tc17  1  0.902970  0.903259  0.903071  1
  Tc  Tc18  1  0.096741  0.097030  0.096929  1
  C  C19  1  0.500238  0.499762  0.000000  1
  C  C20  1  0.000002  0.500154  0.499707  1
  C  C21  1  0.499846  0.999998  0.500293  1
