# generated using pymatgen
data_Sm3Er5Re2(B12Ru)2
_symmetry_space_group_name_H-M   'P 1'
_cell_length_a   3.67922200
_cell_length_b   9.16442808
_cell_length_c   11.57900916
_cell_angle_alpha   90.18907320
_cell_angle_beta   90.00000000
_cell_angle_gamma   90.00000000
_symmetry_Int_Tables_number   1
_chemical_formula_structural   Sm3Er5Re2(B12Ru)2
_chemical_formula_sum   'Sm3 Er5 Re2 B24 Ru2'
_cell_volume   390.41850439
_cell_formula_units_Z   1
loop_
 _symmetry_equiv_pos_site_id
 _symmetry_equiv_pos_as_xyz
  1  'x, y, z'
loop_
 _atom_site_type_symbol
 _atom_site_label
 _atom_site_symmetry_multiplicity
 _atom_site_fract_x
 _atom_site_fract_y
 _atom_site_fract_z
 _atom_site_occupancy
  Sm  Sm0  1  0.000000  0.321301  0.412797  1
  Sm  Sm1  1  0.000000  0.678624  0.587463  1
  Sm  Sm2  1  0.000000  0.824009  0.084609  1
  Er  Er3  1  0.000000  0.175303  0.915728  1
  Er  Er4  1  0.000000  0.943131  0.369944  1
  Er  Er5  1  0.000000  0.057396  0.630115  1
  Er  Er6  1  0.000000  0.442397  0.128635  1
  Er  Er7  1  0.000000  0.556896  0.870820  1
  Re  Re8  1  0.000000  0.139167  0.179470  1
  Re  Re9  1  0.000000  0.862244  0.819947  1
  B  B10  1  0.500000  0.554907  0.431526  1
  B  B11  1  0.500000  0.444584  0.568983  1
  B  B12  1  0.500000  0.054677  0.066608  1
  B  B13  1  0.500000  0.947787  0.932038  1
  B  B14  1  0.500000  0.749633  0.417423  1
  B  B15  1  0.500000  0.250324  0.583255  1
  B  B16  1  0.500000  0.249563  0.080401  1
  B  B17  1  0.500000  0.750804  0.917514  1
  B  B18  1  0.500000  0.790495  0.266083  1
  B  B19  1  0.500000  0.208690  0.735328  1
  B  B20  1  0.500000  0.291447  0.233338  1
  B  B21  1  0.500000  0.708822  0.766028  1
  B  B22  1  0.500000  0.629840  0.185865  1
  B  B23  1  0.500000  0.368520  0.815268  1
  B  B24  1  0.500000  0.130515  0.314308  1
  B  B25  1  0.500000  0.870379  0.685707  1
  B  B26  1  0.500000  0.983812  0.212682  1
  B  B27  1  0.500000  0.018541  0.787662  1
  B  B28  1  0.500000  0.483921  0.286904  1
  B  B29  1  0.500000  0.515273  0.713429  1
  B  B30  1  0.500000  0.600268  0.027653  1
  B  B31  1  0.500000  0.397105  0.971442  1
  B  B32  1  0.500000  0.100248  0.472643  1
  B  B33  1  0.500000  0.900068  0.527563  1
  Ru  Ru34  1  0.000000  0.638643  0.320210  1
  Ru  Ru35  1  0.000000  0.360664  0.680611  1
