# generated using pymatgen
data_Tb3SnHg(RhPb)2
_symmetry_space_group_name_H-M   'P 1'
_cell_length_a   7.87108910
_cell_length_b   7.86696691
_cell_length_c   3.93704600
_cell_angle_alpha   90.00000000
_cell_angle_beta   90.00000000
_cell_angle_gamma   120.23470128
_symmetry_Int_Tables_number   1
_chemical_formula_structural   Tb3SnHg(RhPb)2
_chemical_formula_sum   'Tb3 Sn1 Hg1 Rh2 Pb2'
_cell_volume   210.62566923
_cell_formula_units_Z   1
loop_
 _symmetry_equiv_pos_site_id
 _symmetry_equiv_pos_as_xyz
  1  'x, y, z'
loop_
 _atom_site_type_symbol
 _atom_site_label
 _atom_site_symmetry_multiplicity
 _atom_site_fract_x
 _atom_site_fract_y
 _atom_site_fract_z
 _atom_site_occupancy
  Tb  Tb0  1  0.412695  0.025824  0.500000  1
  Tb  Tb1  1  0.978340  0.389907  0.500000  1
  Tb  Tb2  1  0.606796  0.581748  0.500000  1
  Sn  Sn3  1  0.258276  0.250161  0.000000  1
  Hg  Hg4  1  0.332324  0.660708  0.000000  1
  Rh  Rh5  1  0.657162  0.330934  0.000000  1
  Rh  Rh6  1  0.012117  0.012084  0.500000  1
  Pb  Pb7  1  0.747800  0.007274  0.000000  1
  Pb  Pb8  1  0.994491  0.741359  0.000000  1
