# generated using pymatgen
data_RbCa4V3O12
_symmetry_space_group_name_H-M   'P 1'
_cell_length_a   9.56836344
_cell_length_b   9.56836427
_cell_length_c   7.19674100
_cell_angle_alpha   72.90053216
_cell_angle_beta   72.90053064
_cell_angle_gamma   91.96468132
_symmetry_Int_Tables_number   1
_chemical_formula_structural   RbCa4V3O12
_chemical_formula_sum   'Rb2 Ca8 V6 O24'
_cell_volume   596.64350102
_cell_formula_units_Z   2
loop_
 _symmetry_equiv_pos_site_id
 _symmetry_equiv_pos_as_xyz
  1  'x, y, z'
loop_
 _atom_site_type_symbol
 _atom_site_label
 _atom_site_symmetry_multiplicity
 _atom_site_fract_x
 _atom_site_fract_y
 _atom_site_fract_z
 _atom_site_occupancy
  Rb  Rb0  1  0.975098  0.025956  0.752917  1
  Rb  Rb1  1  0.025956  0.975098  0.252917  1
  Ca  Ca2  1  0.261335  0.733013  0.764205  1
  Ca  Ca3  1  0.733013  0.261335  0.264205  1
  Ca  Ca4  1  0.937582  0.616342  0.645071  1
  Ca  Ca5  1  0.380107  0.067037  0.852027  1
  Ca  Ca6  1  0.067037  0.380107  0.352027  1
  Ca  Ca7  1  0.616342  0.937582  0.145071  1
  Ca  Ca8  1  0.522715  0.526678  0.549302  1
  Ca  Ca9  1  0.526678  0.522715  0.049302  1
  V  V10  1  0.706701  0.294764  0.747451  1
  V  V11  1  0.294764  0.706701  0.247451  1
  V  V12  1  0.126031  0.350298  0.860309  1
  V  V13  1  0.650867  0.873512  0.638242  1
  V  V14  1  0.873512  0.650867  0.138242  1
  V  V15  1  0.350298  0.126031  0.360309  1
  O  O16  1  0.174433  0.177763  0.872117  1
  O  O17  1  0.820356  0.820269  0.634609  1
  O  O18  1  0.820269  0.820356  0.134609  1
  O  O19  1  0.177763  0.174433  0.372117  1
  O  O20  1  0.706282  0.478358  0.754832  1
  O  O21  1  0.537360  0.278667  0.706596  1
  O  O22  1  0.278667  0.537360  0.206596  1
  O  O23  1  0.478358  0.706282  0.254832  1
  O  O24  1  0.828055  0.264650  0.534386  1
  O  O25  1  0.727531  0.182678  0.973030  1
  O  O26  1  0.182678  0.727531  0.473030  1
  O  O27  1  0.264650  0.828055  0.034386  1
  O  O28  1  0.992908  0.333284  0.095978  1
  O  O29  1  0.673314  0.004479  0.401119  1
  O  O30  1  0.004479  0.673314  0.901119  1
  O  O31  1  0.333284  0.992908  0.595978  1
  O  O32  1  0.284369  0.480087  0.789945  1
  O  O33  1  0.521256  0.713405  0.702997  1
  O  O34  1  0.713405  0.521256  0.202997  1
  O  O35  1  0.480087  0.284369  0.289945  1
  O  O36  1  0.038658  0.398770  0.675572  1
  O  O37  1  0.599347  0.957083  0.825096  1
  O  O38  1  0.957083  0.599347  0.325096  1
  O  O39  1  0.398770  0.038658  0.175572  1
