# generated using pymatgen
data_CsY(AgTe2)4
_symmetry_space_group_name_H-M   'P 1'
_cell_length_a   12.13315949
_cell_length_b   12.13315971
_cell_length_c   10.99788200
_cell_angle_alpha   85.05792158
_cell_angle_beta   85.05792150
_cell_angle_gamma   14.97212839
_symmetry_Int_Tables_number   1
_chemical_formula_structural   CsY(AgTe2)4
_chemical_formula_sum   'Cs1 Y1 Ag4 Te8'
_cell_volume   416.69498125
_cell_formula_units_Z   1
loop_
 _symmetry_equiv_pos_site_id
 _symmetry_equiv_pos_as_xyz
  1  'x, y, z'
loop_
 _atom_site_type_symbol
 _atom_site_label
 _atom_site_symmetry_multiplicity
 _atom_site_fract_x
 _atom_site_fract_y
 _atom_site_fract_z
 _atom_site_occupancy
  Cs  Cs0  1  0.000000  0.000000  0.000000  1
  Y  Y1  1  0.500000  0.500000  0.500000  1
  Ag  Ag2  1  0.232380  0.232380  0.125288  1
  Ag  Ag3  1  0.843495  0.843495  0.480124  1
  Ag  Ag4  1  0.156505  0.156505  0.519876  1
  Ag  Ag5  1  0.767620  0.767620  0.874712  1
  Te  Te6  1  0.916628  0.916628  0.678973  1
  Te  Te7  1  0.083372  0.083372  0.321027  1
  Te  Te8  1  0.581499  0.581499  0.706435  1
  Te  Te9  1  0.418501  0.418501  0.293565  1
  Te  Te10  1  0.653529  0.653529  0.989322  1
  Te  Te11  1  0.346471  0.346471  0.010678  1
  Te  Te12  1  0.741672  0.741672  0.347179  1
  Te  Te13  1  0.258328  0.258328  0.652821  1
