# generated using pymatgen
data_Zn2Ni3RhO8
_symmetry_space_group_name_H-M   'P 1'
_cell_length_a   5.93330537
_cell_length_b   5.93330516
_cell_length_c   6.03967427
_cell_angle_alpha   60.58089170
_cell_angle_beta   60.58089585
_cell_angle_gamma   59.99999326
_symmetry_Int_Tables_number   1
_chemical_formula_structural   Zn2Ni3RhO8
_chemical_formula_sum   'Zn2 Ni3 Rh1 O8'
_cell_volume   151.65257607
_cell_formula_units_Z   1
loop_
 _symmetry_equiv_pos_site_id
 _symmetry_equiv_pos_as_xyz
  1  'x, y, z'
loop_
 _atom_site_type_symbol
 _atom_site_label
 _atom_site_symmetry_multiplicity
 _atom_site_fract_x
 _atom_site_fract_y
 _atom_site_fract_z
 _atom_site_occupancy
  Zn  Zn0  1  0.491005  0.491005  0.526984  1
  Zn  Zn1  1  0.758995  0.758995  0.723016  1
  Ni  Ni2  1  0.125000  0.125000  0.125000  1
  Ni  Ni3  1  0.625000  0.125000  0.125000  1
  Ni  Ni4  1  0.125000  0.625000  0.125000  1
  Rh  Rh5  1  0.125000  0.125000  0.625000  1
  O  O6  1  0.890036  0.890036  0.870695  1
  O  O7  1  0.900769  0.359964  0.379305  1
  O  O8  1  0.359964  0.900769  0.379305  1
  O  O9  1  0.358435  0.358435  0.924695  1
  O  O10  1  0.890036  0.349231  0.870695  1
  O  O11  1  0.891565  0.891565  0.325305  1
  O  O12  1  0.349231  0.890036  0.870695  1
  O  O13  1  0.359964  0.359964  0.379305  1
