# generated using pymatgen
data_Ta4Co5P3
_symmetry_space_group_name_H-M   'P 1'
_cell_length_a   3.59499000
_cell_length_b   6.10549738
_cell_length_c   7.03582475
_cell_angle_alpha   91.55649630
_cell_angle_beta   90.00000000
_cell_angle_gamma   90.00000000
_symmetry_Int_Tables_number   1
_chemical_formula_structural   Ta4Co5P3
_chemical_formula_sum   'Ta4 Co5 P3'
_cell_volume   154.37375818
_cell_formula_units_Z   1
loop_
 _symmetry_equiv_pos_site_id
 _symmetry_equiv_pos_as_xyz
  1  'x, y, z'
loop_
 _atom_site_type_symbol
 _atom_site_label
 _atom_site_symmetry_multiplicity
 _atom_site_fract_x
 _atom_site_fract_y
 _atom_site_fract_z
 _atom_site_occupancy
  Ta  Ta0  1  0.250000  0.038206  0.831616  1
  Ta  Ta1  1  0.250000  0.526700  0.670567  1
  Ta  Ta2  1  0.750000  0.985345  0.183040  1
  Ta  Ta3  1  0.750000  0.462743  0.312874  1
  Co  Co4  1  0.250000  0.261646  0.125096  1
  Co  Co5  1  0.250000  0.127656  0.450249  1
  Co  Co6  1  0.250000  0.648216  0.059537  1
  Co  Co7  1  0.750000  0.855577  0.568438  1
  Co  Co8  1  0.750000  0.369626  0.921578  1
  P  P9  1  0.250000  0.764009  0.377779  1
  P  P10  1  0.750000  0.732025  0.880531  1
  P  P11  1  0.750000  0.228251  0.618696  1
