# generated using pymatgen
data_Tm5Co6
_symmetry_space_group_name_H-M   'P 1'
_cell_length_a   5.38000405
_cell_length_b   5.38000345
_cell_length_c   20.05063000
_cell_angle_alpha   90.00000000
_cell_angle_beta   90.00000000
_cell_angle_gamma   137.02852409
_symmetry_Int_Tables_number   1
_chemical_formula_structural   Tm5Co6
_chemical_formula_sum   'Tm10 Co12'
_cell_volume   395.58930244
_cell_formula_units_Z   2
loop_
 _symmetry_equiv_pos_site_id
 _symmetry_equiv_pos_as_xyz
  1  'x, y, z'
loop_
 _atom_site_type_symbol
 _atom_site_label
 _atom_site_symmetry_multiplicity
 _atom_site_fract_x
 _atom_site_fract_y
 _atom_site_fract_z
 _atom_site_occupancy
  Tm  Tm0  1  0.279475  0.720525  0.250000  1
  Tm  Tm1  1  0.282576  0.717424  0.065394  1
  Tm  Tm2  1  0.007969  0.992031  0.844867  1
  Tm  Tm3  1  0.720525  0.279475  0.750000  1
  Tm  Tm4  1  0.717424  0.282576  0.565394  1
  Tm  Tm5  1  0.992031  0.007969  0.344867  1
  Tm  Tm6  1  0.007969  0.992031  0.655133  1
  Tm  Tm7  1  0.717424  0.282576  0.934606  1
  Tm  Tm8  1  0.992031  0.007969  0.155133  1
  Tm  Tm9  1  0.282576  0.717424  0.434606  1
  Co  Co10  1  0.000000  0.000000  0.500000  1
  Co  Co11  1  0.000000  0.000000  0.000000  1
  Co  Co12  1  0.305741  0.694259  0.652863  1
  Co  Co13  1  0.570747  0.429253  0.445424  1
  Co  Co14  1  0.424972  0.575028  0.750000  1
  Co  Co15  1  0.429253  0.570747  0.945424  1
  Co  Co16  1  0.575028  0.424972  0.250000  1
  Co  Co17  1  0.429253  0.570747  0.554576  1
  Co  Co18  1  0.694259  0.305741  0.347137  1
  Co  Co19  1  0.694259  0.305741  0.152863  1
  Co  Co20  1  0.570747  0.429253  0.054576  1
  Co  Co21  1  0.305741  0.694259  0.847137  1
