# generated using pymatgen
data_Na3Li2Yb2P12Ir17
_symmetry_space_group_name_H-M   'P 1'
_cell_length_a   12.66953200
_cell_length_b   12.61952873
_cell_length_c   3.96092100
_cell_angle_alpha   90.00000000
_cell_angle_beta   90.00000000
_cell_angle_gamma   120.13116626
_symmetry_Int_Tables_number   1
_chemical_formula_structural   Na3Li2Yb2P12Ir17
_chemical_formula_sum   'Na3 Li2 Yb2 P12 Ir17'
_cell_volume   547.71544533
_cell_formula_units_Z   1
loop_
 _symmetry_equiv_pos_site_id
 _symmetry_equiv_pos_as_xyz
  1  'x, y, z'
loop_
 _atom_site_type_symbol
 _atom_site_label
 _atom_site_symmetry_multiplicity
 _atom_site_fract_x
 _atom_site_fract_y
 _atom_site_fract_z
 _atom_site_occupancy
  Na  Na0  1  0.002078  0.815230  0.000000  1
  Na  Na1  1  0.186848  0.184770  0.000000  1
  Na  Na2  1  0.815728  0.000000  0.000000  1
  Li  Li3  1  0.999474  0.442069  0.500000  1
  Li  Li4  1  0.557405  0.557931  0.500000  1
  Yb  Yb5  1  0.331971  0.664551  0.500000  1
  Yb  Yb6  1  0.667421  0.335449  0.500000  1
  P  P7  1  0.999075  0.631023  0.500000  1
  P  P8  1  0.368051  0.368977  0.500000  1
  P  P9  1  0.637120  0.000000  0.500000  1
  P  P10  1  0.515004  0.687885  0.000000  1
  P  P11  1  0.307772  0.825295  0.000000  1
  P  P12  1  0.170530  0.479007  0.000000  1
  P  P13  1  0.482477  0.174705  0.000000  1
  P  P14  1  0.691523  0.520993  0.000000  1
  P  P15  1  0.827120  0.312115  0.000000  1
  P  P16  1  0.996275  0.177214  0.500000  1
  P  P17  1  0.819061  0.822786  0.500000  1
  P  P18  1  0.179941  0.000000  0.500000  1
  Ir  Ir19  1  0.505790  0.869390  0.000000  1
  Ir  Ir20  1  0.129674  0.636892  0.000000  1
  Ir  Ir21  1  0.358675  0.486717  0.000000  1
  Ir  Ir22  1  0.492783  0.363108  0.000000  1
  Ir  Ir23  1  0.871959  0.513283  0.000000  1
  Ir  Ir24  1  0.636401  0.130610  0.000000  1
  Ir  Ir25  1  0.457771  0.000000  0.500000  1
  Ir  Ir26  1  0.995873  0.277407  0.000000  1
  Ir  Ir27  1  0.718467  0.722593  0.000000  1
  Ir  Ir28  1  0.287898  0.000000  0.000000  1
  Ir  Ir29  1  0.619508  0.803702  0.500000  1
  Ir  Ir30  1  0.195298  0.817795  0.500000  1
  Ir  Ir31  1  0.177492  0.373568  0.500000  1
  Ir  Ir32  1  0.377503  0.182205  0.500000  1
  Ir  Ir33  1  0.803924  0.626432  0.500000  1
  Ir  Ir34  1  0.815807  0.196298  0.500000  1
  Ir  Ir35  1  0.000300  0.000000  0.500000  1
