# generated using pymatgen
data_Ba4Pr7GdSe16
_symmetry_space_group_name_H-M   'P 1'
_cell_length_a   4.38490700
_cell_length_b   13.15924860
_cell_length_c   15.70611292
_cell_angle_alpha   89.82818627
_cell_angle_beta   90.00000000
_cell_angle_gamma   90.00000000
_symmetry_Int_Tables_number   1
_chemical_formula_structural   Ba4Pr7GdSe16
_chemical_formula_sum   'Ba4 Pr7 Gd1 Se16'
_cell_volume   906.27133016
_cell_formula_units_Z   1
loop_
 _symmetry_equiv_pos_site_id
 _symmetry_equiv_pos_as_xyz
  1  'x, y, z'
loop_
 _atom_site_type_symbol
 _atom_site_label
 _atom_site_symmetry_multiplicity
 _atom_site_fract_x
 _atom_site_fract_y
 _atom_site_fract_z
 _atom_site_occupancy
  Ba  Ba0  1  0.250000  0.757649  0.338429  1
  Ba  Ba1  1  0.250000  0.255480  0.163511  1
  Ba  Ba2  1  0.750000  0.242256  0.660352  1
  Ba  Ba3  1  0.750000  0.743989  0.837525  1
  Pr  Pr4  1  0.250000  0.427417  0.392186  1
  Pr  Pr5  1  0.250000  0.929994  0.109289  1
  Pr  Pr6  1  0.750000  0.571366  0.607993  1
  Pr  Pr7  1  0.750000  0.070910  0.891791  1
  Pr  Pr8  1  0.250000  0.420769  0.898732  1
  Pr  Pr9  1  0.250000  0.921967  0.600480  1
  Pr  Pr10  1  0.750000  0.578946  0.101322  1
  Gd  Gd11  1  0.750000  0.078097  0.398108  1
  Se  Se12  1  0.250000  0.206476  0.826067  1
  Se  Se13  1  0.250000  0.706713  0.672941  1
  Se  Se14  1  0.750000  0.793643  0.173828  1
  Se  Se15  1  0.750000  0.289167  0.328900  1
  Se  Se16  1  0.250000  0.130130  0.520536  1
  Se  Se17  1  0.250000  0.630927  0.974393  1
  Se  Se18  1  0.750000  0.873289  0.472931  1
  Se  Se19  1  0.750000  0.368968  0.025798  1
  Se  Se20  1  0.250000  0.523564  0.217365  1
  Se  Se21  1  0.250000  0.025638  0.286728  1
  Se  Se22  1  0.750000  0.476339  0.783012  1
  Se  Se23  1  0.750000  0.976222  0.716601  1
  Se  Se24  1  0.250000  0.417617  0.581479  1
  Se  Se25  1  0.250000  0.917459  0.919935  1
  Se  Se26  1  0.750000  0.582171  0.418541  1
  Se  Se27  1  0.750000  0.082835  0.081227  1
