# generated using pymatgen
data_Dy3YSi4(IrRh)2
_symmetry_space_group_name_H-M   'P 1'
_cell_length_a   4.24688600
_cell_length_b   6.89098224
_cell_length_c   7.43896426
_cell_angle_alpha   90.03034610
_cell_angle_beta   90.00000000
_cell_angle_gamma   90.00000000
_symmetry_Int_Tables_number   1
_chemical_formula_structural   Dy3YSi4(IrRh)2
_chemical_formula_sum   'Dy3 Y1 Si4 Ir2 Rh2'
_cell_volume   217.70286544
_cell_formula_units_Z   1
loop_
 _symmetry_equiv_pos_site_id
 _symmetry_equiv_pos_as_xyz
  1  'x, y, z'
loop_
 _atom_site_type_symbol
 _atom_site_label
 _atom_site_symmetry_multiplicity
 _atom_site_fract_x
 _atom_site_fract_y
 _atom_site_fract_z
 _atom_site_occupancy
  Dy  Dy0  1  0.750000  0.498580  0.311159  1
  Dy  Dy1  1  0.250000  0.000140  0.810869  1
  Dy  Dy2  1  0.750000  0.998589  0.188631  1
  Y  Y3  1  0.250000  0.500592  0.688863  1
  Si  Si4  1  0.250000  0.297075  0.107920  1
  Si  Si5  1  0.250000  0.797028  0.391969  1
  Si  Si6  1  0.750000  0.702352  0.896618  1
  Si  Si7  1  0.750000  0.202298  0.603350  1
  Ir  Ir8  1  0.250000  0.656604  0.069036  1
  Ir  Ir9  1  0.250000  0.156197  0.430969  1
  Rh  Rh10  1  0.750000  0.845607  0.569300  1
  Rh  Rh11  1  0.750000  0.344936  0.931316  1
