# generated using pymatgen
data_Na(ZrTe2)2
_symmetry_space_group_name_H-M   'P 1'
_cell_length_a   8.89506481
_cell_length_b   8.89506503
_cell_length_c   6.93239791
_cell_angle_alpha   66.68108072
_cell_angle_beta   66.68107806
_cell_angle_gamma   26.69540485
_symmetry_Int_Tables_number   1
_chemical_formula_structural   Na(ZrTe2)2
_chemical_formula_sum   'Na1 Zr2 Te4'
_cell_volume   225.10016055
_cell_formula_units_Z   1
loop_
 _symmetry_equiv_pos_site_id
 _symmetry_equiv_pos_as_xyz
  1  'x, y, z'
loop_
 _atom_site_type_symbol
 _atom_site_label
 _atom_site_symmetry_multiplicity
 _atom_site_fract_x
 _atom_site_fract_y
 _atom_site_fract_z
 _atom_site_occupancy
  Na  Na0  1  0.000000  0.000000  0.000000  1
  Zr  Zr1  1  0.750770  0.750770  0.239955  1
  Zr  Zr2  1  0.249230  0.249230  0.760045  1
  Te  Te3  1  0.136203  0.136203  0.206005  1
  Te  Te4  1  0.638746  0.638746  0.693055  1
  Te  Te5  1  0.863797  0.863797  0.793995  1
  Te  Te6  1  0.361254  0.361254  0.306945  1
