# generated using pymatgen
data_Tb3EuY2Ta2O14
_symmetry_space_group_name_H-M   'P 1'
_cell_length_a   6.51206352
_cell_length_b   6.51206313
_cell_length_c   7.54703291
_cell_angle_alpha   90.04539247
_cell_angle_beta   89.95460377
_cell_angle_gamma   108.78559581
_symmetry_Int_Tables_number   1
_chemical_formula_structural   Tb3EuY2Ta2O14
_chemical_formula_sum   'Tb3 Eu1 Y2 Ta2 O14'
_cell_volume   302.99783210
_cell_formula_units_Z   1
loop_
 _symmetry_equiv_pos_site_id
 _symmetry_equiv_pos_as_xyz
  1  'x, y, z'
loop_
 _atom_site_type_symbol
 _atom_site_label
 _atom_site_symmetry_multiplicity
 _atom_site_fract_x
 _atom_site_fract_y
 _atom_site_fract_z
 _atom_site_occupancy
  Tb  Tb0  1  0.463529  0.463529  0.500000  1
  Tb  Tb1  1  0.535884  0.998304  0.745165  1
  Tb  Tb2  1  0.998304  0.535884  0.254835  1
  Eu  Eu3  1  0.505508  0.505508  0.000000  1
  Y  Y4  1  0.466582  0.998745  0.245623  1
  Y  Y5  1  0.998745  0.466582  0.754377  1
  Ta  Ta6  1  0.997544  0.997544  0.500000  1
  Ta  Ta7  1  0.000745  0.000745  0.000000  1
  O  O8  1  0.691123  0.948904  0.460449  1
  O  O9  1  0.948904  0.691123  0.539551  1
  O  O10  1  0.679374  0.929831  0.029063  1
  O  O11  1  0.929831  0.679374  0.970937  1
  O  O12  1  0.326206  0.080347  0.527186  1
  O  O13  1  0.080347  0.326206  0.472814  1
  O  O14  1  0.316300  0.063386  0.962889  1
  O  O15  1  0.063386  0.316300  0.037111  1
  O  O16  1  0.934996  0.066243  0.750148  1
  O  O17  1  0.066243  0.934996  0.249852  1
  O  O18  1  0.367049  0.629415  0.744716  1
  O  O19  1  0.629415  0.367049  0.255284  1
  O  O20  1  0.639267  0.360717  0.744957  1
  O  O21  1  0.360717  0.639267  0.255043  1
