# generated using pymatgen
data_Hf6SnHgC4
_symmetry_space_group_name_H-M   'P 1'
_cell_length_a   3.32824200
_cell_length_b   3.32824276
_cell_length_c   19.95849500
_cell_angle_alpha   90.00000000
_cell_angle_beta   90.00000000
_cell_angle_gamma   119.99999244
_symmetry_Int_Tables_number   1
_chemical_formula_structural   Hf6SnHgC4
_chemical_formula_sum   'Hf6 Sn1 Hg1 C4'
_cell_volume   191.46453755
_cell_formula_units_Z   1
loop_
 _symmetry_equiv_pos_site_id
 _symmetry_equiv_pos_as_xyz
  1  'x, y, z'
loop_
 _atom_site_type_symbol
 _atom_site_label
 _atom_site_symmetry_multiplicity
 _atom_site_fract_x
 _atom_site_fract_y
 _atom_site_fract_z
 _atom_site_occupancy
  Hf  Hf0  1  0.000000  0.000000  0.999435  1
  Hf  Hf1  1  0.333333  0.666667  0.126952  1
  Hf  Hf2  1  0.333333  0.666667  0.373048  1
  Hf  Hf3  1  0.000000  0.000000  0.500565  1
  Hf  Hf4  1  0.666667  0.333333  0.627260  1
  Hf  Hf5  1  0.666667  0.333333  0.872740  1
  Sn  Sn6  1  0.000000  0.000000  0.750000  1
  Hg  Hg7  1  0.000000  0.000000  0.250000  1
  C  C8  1  0.333333  0.666667  0.930707  1
  C  C9  1  0.666667  0.333333  0.069030  1
  C  C10  1  0.666667  0.333333  0.430970  1
  C  C11  1  0.333333  0.666667  0.569293  1
