# generated using pymatgen
data_PaTa2(Nb2Cl9)2
_symmetry_space_group_name_H-M   'P 1'
_cell_length_a   10.28344308
_cell_length_b   10.28177447
_cell_length_c   10.28723400
_cell_angle_alpha   55.91307268
_cell_angle_beta   55.90209383
_cell_angle_gamma   55.90151692
_symmetry_Int_Tables_number   1
_chemical_formula_structural   PaTa2(Nb2Cl9)2
_chemical_formula_sum   'Pa1 Ta2 Nb4 Cl18'
_cell_volume   696.12705717
_cell_formula_units_Z   1
loop_
 _symmetry_equiv_pos_site_id
 _symmetry_equiv_pos_as_xyz
  1  'x, y, z'
loop_
 _atom_site_type_symbol
 _atom_site_label
 _atom_site_symmetry_multiplicity
 _atom_site_fract_x
 _atom_site_fract_y
 _atom_site_fract_z
 _atom_site_occupancy
  Pa  Pa0  1  0.000934  0.998931  0.000135  1
  Ta  Ta1  1  0.411114  0.307163  0.644945  1
  Ta  Ta2  1  0.354954  0.589341  0.692500  1
  Nb  Nb3  1  0.693957  0.354349  0.588798  1
  Nb  Nb4  1  0.306704  0.645901  0.410304  1
  Nb  Nb5  1  0.646253  0.410681  0.305746  1
  Nb  Nb6  1  0.589768  0.693990  0.353583  1
  Cl  Cl7  1  0.564929  0.163765  0.446274  1
  Cl  Cl8  1  0.225795  0.373807  0.902769  1
  Cl  Cl9  1  0.905824  0.224230  0.372519  1
  Cl  Cl10  1  0.372286  0.905999  0.224796  1
  Cl  Cl11  1  0.775538  0.627614  0.094249  1
  Cl  Cl12  1  0.096048  0.774157  0.629577  1
  Cl  Cl13  1  0.707261  0.957455  0.158665  1
  Cl  Cl14  1  0.955378  0.157862  0.708828  1
  Cl  Cl15  1  0.161165  0.705756  0.953038  1
  Cl  Cl16  1  0.293258  0.047547  0.839987  1
  Cl  Cl17  1  0.043215  0.840630  0.293190  1
  Cl  Cl18  1  0.841702  0.291538  0.043476  1
  Cl  Cl19  1  0.553766  0.434987  0.836004  1
  Cl  Cl20  1  0.165600  0.440276  0.569211  1
  Cl  Cl21  1  0.442901  0.567030  0.163770  1
  Cl  Cl22  1  0.431077  0.834401  0.559575  1
  Cl  Cl23  1  0.836357  0.557126  0.432765  1
  Cl  Cl24  1  0.624214  0.095462  0.775298  1
