# generated using pymatgen
data_LiHf6Fe2Os3
_symmetry_space_group_name_H-M   'P 1'
_cell_length_a   4.57267400
_cell_length_b   6.43183300
_cell_length_c   13.78343600
_cell_angle_alpha   90.00000000
_cell_angle_beta   90.00237090
_cell_angle_gamma   90.00000000
_symmetry_Int_Tables_number   1
_chemical_formula_structural   LiHf6Fe2Os3
_chemical_formula_sum   'Li2 Hf12 Fe4 Os6'
_cell_volume   405.38016373
_cell_formula_units_Z   2
loop_
 _symmetry_equiv_pos_site_id
 _symmetry_equiv_pos_as_xyz
  1  'x, y, z'
loop_
 _atom_site_type_symbol
 _atom_site_label
 _atom_site_symmetry_multiplicity
 _atom_site_fract_x
 _atom_site_fract_y
 _atom_site_fract_z
 _atom_site_occupancy
  Li  Li0  1  0.000021  0.499999  0.999856  1
  Li  Li1  1  0.499772  0.000000  0.166775  1
  Hf  Hf2  1  0.500023  0.247255  0.996835  1
  Hf  Hf3  1  0.500023  0.752746  0.996835  1
  Hf  Hf4  1  0.999879  0.252843  0.169789  1
  Hf  Hf5  1  0.999879  0.747157  0.169789  1
  Hf  Hf6  1  0.499901  0.251665  0.336779  1
  Hf  Hf7  1  0.499901  0.748335  0.336779  1
  Hf  Hf8  1  0.000001  0.250049  0.500660  1
  Hf  Hf9  1  0.000001  0.749950  0.500660  1
  Hf  Hf10  1  0.500097  0.250006  0.666048  1
  Hf  Hf11  1  0.500097  0.749994  0.666048  1
  Hf  Hf12  1  0.000117  0.248370  0.829928  1
  Hf  Hf13  1  0.000117  0.751630  0.829928  1
  Fe  Fe14  1  0.999881  0.499999  0.335829  1
  Fe  Fe15  1  0.500001  0.000000  0.500838  1
  Fe  Fe16  1  0.000122  0.499999  0.665819  1
  Fe  Fe17  1  0.500136  0.000000  0.830742  1
  Os  Os18  1  0.000023  0.000000  0.000464  1
  Os  Os19  1  0.499880  0.499999  0.166260  1
  Os  Os20  1  0.999888  0.000000  0.332532  1
  Os  Os21  1  0.500000  0.499999  0.500263  1
  Os  Os22  1  0.000108  0.000000  0.666415  1
  Os  Os23  1  0.500131  0.499999  0.834130  1
