# generated using pymatgen
data_Sc8Tc(B8Ru)3
_symmetry_space_group_name_H-M   'P 1'
_cell_length_a   3.49626300
_cell_length_b   8.87431534
_cell_length_c   11.19257726
_cell_angle_alpha   89.95608853
_cell_angle_beta   90.00000000
_cell_angle_gamma   90.00000000
_symmetry_Int_Tables_number   1
_chemical_formula_structural   Sc8Tc(B8Ru)3
_chemical_formula_sum   'Sc8 Tc1 B24 Ru3'
_cell_volume   347.27132533
_cell_formula_units_Z   1
loop_
 _symmetry_equiv_pos_site_id
 _symmetry_equiv_pos_as_xyz
  1  'x, y, z'
loop_
 _atom_site_type_symbol
 _atom_site_label
 _atom_site_symmetry_multiplicity
 _atom_site_fract_x
 _atom_site_fract_y
 _atom_site_fract_z
 _atom_site_occupancy
  Sc  Sc0  1  0.000000  0.818247  0.084647  1
  Sc  Sc1  1  0.000000  0.184316  0.911260  1
  Sc  Sc2  1  0.000000  0.319119  0.417019  1
  Sc  Sc3  1  0.000000  0.678923  0.587115  1
  Sc  Sc4  1  0.000000  0.443780  0.127605  1
  Sc  Sc5  1  0.000000  0.555209  0.872346  1
  Sc  Sc6  1  0.000000  0.943456  0.372547  1
  Sc  Sc7  1  0.000000  0.056505  0.627297  1
  Tc  Tc8  1  0.000000  0.361720  0.679699  1
  B  B9  1  0.500000  0.053260  0.064720  1
  B  B10  1  0.500000  0.946585  0.935015  1
  B  B11  1  0.500000  0.553374  0.434744  1
  B  B12  1  0.500000  0.447398  0.564783  1
  B  B13  1  0.500000  0.251771  0.078599  1
  B  B14  1  0.500000  0.748061  0.921234  1
  B  B15  1  0.500000  0.751570  0.421487  1
  B  B16  1  0.500000  0.248013  0.578755  1
  B  B17  1  0.500000  0.293536  0.236013  1
  B  B18  1  0.500000  0.706488  0.764493  1
  B  B19  1  0.500000  0.793773  0.264134  1
  B  B20  1  0.500000  0.205692  0.735998  1
  B  B21  1  0.500000  0.129509  0.317820  1
  B  B22  1  0.500000  0.870409  0.682612  1
  B  B23  1  0.500000  0.629676  0.182244  1
  B  B24  1  0.500000  0.370635  0.817450  1
  B  B25  1  0.500000  0.479395  0.287377  1
  B  B26  1  0.500000  0.521570  0.712587  1
  B  B27  1  0.500000  0.979286  0.212437  1
  B  B28  1  0.500000  0.020646  0.787546  1
  B  B29  1  0.500000  0.100990  0.471922  1
  B  B30  1  0.500000  0.897990  0.527893  1
  B  B31  1  0.500000  0.601852  0.028053  1
  B  B32  1  0.500000  0.398447  0.972477  1
  Ru  Ru33  1  0.000000  0.138466  0.179931  1
  Ru  Ru34  1  0.000000  0.861442  0.820472  1
  Ru  Ru35  1  0.000000  0.638891  0.319668  1
