# generated using pymatgen
data_KU2Se5
_symmetry_space_group_name_H-M   'P 1'
_cell_length_a   7.78917400
_cell_length_b   8.78926826
_cell_length_c   12.23549147
_cell_angle_alpha   90.17253801
_cell_angle_beta   90.00000000
_cell_angle_gamma   90.00000000
_symmetry_Int_Tables_number   1
_chemical_formula_structural   KU2Se5
_chemical_formula_sum   'K4 U8 Se20'
_cell_volume   837.65189403
_cell_formula_units_Z   4
loop_
 _symmetry_equiv_pos_site_id
 _symmetry_equiv_pos_as_xyz
  1  'x, y, z'
loop_
 _atom_site_type_symbol
 _atom_site_label
 _atom_site_symmetry_multiplicity
 _atom_site_fract_x
 _atom_site_fract_y
 _atom_site_fract_z
 _atom_site_occupancy
  K  K0  1  0.055231  0.490801  0.331838  1
  K  K1  1  0.555231  0.509199  0.168162  1
  K  K2  1  0.944769  0.509199  0.668162  1
  K  K3  1  0.444769  0.490801  0.831838  1
  U  U4  1  0.025312  0.999223  0.319162  1
  U  U5  1  0.525312  0.000777  0.180838  1
  U  U6  1  0.974688  0.000777  0.680838  1
  U  U7  1  0.474688  0.999223  0.819162  1
  U  U8  1  0.069317  0.749349  0.007996  1
  U  U9  1  0.569317  0.250651  0.492004  1
  U  U10  1  0.930683  0.250651  0.992004  1
  U  U11  1  0.430683  0.749349  0.507996  1
  Se  Se12  1  0.663079  0.954919  0.404637  1
  Se  Se13  1  0.163079  0.045081  0.095363  1
  Se  Se14  1  0.336921  0.045081  0.595363  1
  Se  Se15  1  0.836921  0.954919  0.904637  1
  Se  Se16  1  0.450087  0.794764  0.001916  1
  Se  Se17  1  0.950087  0.205236  0.498084  1
  Se  Se18  1  0.549913  0.205236  0.998084  1
  Se  Se19  1  0.049913  0.794764  0.501916  1
  Se  Se20  1  0.837039  0.788818  0.185603  1
  Se  Se21  1  0.337039  0.211182  0.314397  1
  Se  Se22  1  0.162961  0.211182  0.814397  1
  Se  Se23  1  0.662961  0.788818  0.685603  1
  Se  Se24  1  0.309374  0.780649  0.285051  1
  Se  Se25  1  0.809374  0.219351  0.214949  1
  Se  Se26  1  0.690626  0.219351  0.714949  1
  Se  Se27  1  0.190626  0.780649  0.785051  1
  Se  Se28  1  0.174482  0.458326  0.072086  1
  Se  Se29  1  0.674482  0.541674  0.427914  1
  Se  Se30  1  0.825518  0.541674  0.927914  1
  Se  Se31  1  0.325518  0.458326  0.572086  1
