# generated using pymatgen
data_Er7Sn23(IrRu2)2
_symmetry_space_group_name_H-M   'P 1'
_cell_length_a   9.83477047
_cell_length_b   9.83477096
_cell_length_c   10.08591313
_cell_angle_alpha   90.01572892
_cell_angle_beta   89.98427006
_cell_angle_gamma   120.07965556
_symmetry_Int_Tables_number   1
_chemical_formula_structural   Er7Sn23(IrRu2)2
_chemical_formula_sum   'Er7 Sn23 Ir2 Ru4'
_cell_volume   844.16075853
_cell_formula_units_Z   1
loop_
 _symmetry_equiv_pos_site_id
 _symmetry_equiv_pos_as_xyz
  1  'x, y, z'
loop_
 _atom_site_type_symbol
 _atom_site_label
 _atom_site_symmetry_multiplicity
 _atom_site_fract_x
 _atom_site_fract_y
 _atom_site_fract_z
 _atom_site_occupancy
  Er  Er0  1  0.484446  0.515554  0.303823  1
  Er  Er1  1  0.515554  0.484446  0.696177  1
  Er  Er2  1  0.484080  0.968921  0.304268  1
  Er  Er3  1  0.515920  0.031079  0.695732  1
  Er  Er4  1  0.031079  0.515920  0.304268  1
  Er  Er5  1  0.968921  0.484080  0.695732  1
  Er  Er6  1  0.000000  0.000000  0.000000  1
  Sn  Sn7  1  0.118538  0.881462  0.273816  1
  Sn  Sn8  1  0.881462  0.118538  0.726184  1
  Sn  Sn9  1  0.119659  0.237055  0.276073  1
  Sn  Sn10  1  0.880341  0.762945  0.723927  1
  Sn  Sn11  1  0.762945  0.880341  0.276073  1
  Sn  Sn12  1  0.237055  0.119659  0.723927  1
  Sn  Sn13  1  0.779516  0.220484  0.462419  1
  Sn  Sn14  1  0.220484  0.779516  0.537581  1
  Sn  Sn15  1  0.780061  0.559494  0.461503  1
  Sn  Sn16  1  0.219939  0.440506  0.538497  1
  Sn  Sn17  1  0.440506  0.219939  0.461503  1
  Sn  Sn18  1  0.559494  0.780061  0.538497  1
  Sn  Sn19  1  0.351549  0.001675  0.001278  1
  Sn  Sn20  1  0.648451  0.998325  0.998722  1
  Sn  Sn21  1  0.001675  0.351549  0.998722  1
  Sn  Sn22  1  0.998325  0.648451  0.001278  1
  Sn  Sn23  1  0.650787  0.650787  0.000000  1
  Sn  Sn24  1  0.349213  0.349213  0.000000  1
  Sn  Sn25  1  0.333441  0.666559  0.128221  1
  Sn  Sn26  1  0.666559  0.333441  0.871779  1
  Sn  Sn27  1  0.334326  0.665674  0.821563  1
  Sn  Sn28  1  0.665674  0.334326  0.178437  1
  Sn  Sn29  1  0.000000  0.000000  0.500000  1
  Ir  Ir30  1  0.829485  0.170515  0.200904  1
  Ir  Ir31  1  0.170515  0.829485  0.799096  1
  Ru  Ru32  1  0.830330  0.660302  0.201275  1
  Ru  Ru33  1  0.169670  0.339698  0.798725  1
  Ru  Ru34  1  0.339698  0.169670  0.201275  1
  Ru  Ru35  1  0.660302  0.830330  0.798725  1
