# generated using pymatgen
data_CaLa15(MgTc)4
_symmetry_space_group_name_H-M   'P 1'
_cell_length_a   10.15649507
_cell_length_b   10.16080306
_cell_length_c   10.15649454
_cell_angle_alpha   59.98597215
_cell_angle_beta   59.87094819
_cell_angle_gamma   59.98596557
_symmetry_Int_Tables_number   1
_chemical_formula_structural   CaLa15(MgTc)4
_chemical_formula_sum   'Ca1 La15 Mg4 Tc4'
_cell_volume   740.25852322
_cell_formula_units_Z   1
loop_
 _symmetry_equiv_pos_site_id
 _symmetry_equiv_pos_as_xyz
  1  'x, y, z'
loop_
 _atom_site_type_symbol
 _atom_site_label
 _atom_site_symmetry_multiplicity
 _atom_site_fract_x
 _atom_site_fract_y
 _atom_site_fract_z
 _atom_site_occupancy
  Ca  Ca0  1  0.558942  0.941058  0.558942  1
  La  La1  1  0.188387  0.187109  0.811913  1
  La  La2  1  0.555974  0.555875  0.944301  1
  La  La3  1  0.968474  0.344320  0.342885  1
  La  La4  1  0.813193  0.186807  0.813193  1
  La  La5  1  0.188390  0.811610  0.188390  1
  La  La6  1  0.342885  0.344320  0.968474  1
  La  La7  1  0.343110  0.970410  0.343110  1
  La  La8  1  0.944301  0.943849  0.555974  1
  La  La9  1  0.944301  0.555875  0.555974  1
  La  La10  1  0.343110  0.343369  0.343110  1
  La  La11  1  0.811913  0.812591  0.188387  1
  La  La12  1  0.811913  0.187109  0.188387  1
  La  La13  1  0.555974  0.943849  0.944301  1
  La  La14  1  0.944419  0.555581  0.944419  1
  La  La15  1  0.188387  0.812591  0.811913  1
  Mg  Mg16  1  0.577530  0.576170  0.577530  1
  Mg  Mg17  1  0.577530  0.268771  0.577530  1
  Mg  Mg18  1  0.577972  0.577543  0.266943  1
  Mg  Mg19  1  0.266943  0.577543  0.577972  1
  Tc  Tc20  1  0.133390  0.601201  0.133390  1
  Tc  Tc21  1  0.603387  0.135214  0.126186  1
  Tc  Tc22  1  0.126186  0.135214  0.603387  1
  Tc  Tc23  1  0.133390  0.132019  0.133390  1
