# generated using pymatgen
data_Ho4Cd2Pd3Au
_symmetry_space_group_name_H-M   'P 1'
_cell_length_a   7.81026627
_cell_length_b   7.81026627
_cell_length_c   3.67168700
_cell_angle_alpha   90.00000000
_cell_angle_beta   90.00000000
_cell_angle_gamma   89.72026500
_symmetry_Int_Tables_number   1
_chemical_formula_structural   Ho4Cd2Pd3Au
_chemical_formula_sum   'Ho4 Cd2 Pd3 Au1'
_cell_volume   223.97118941
_cell_formula_units_Z   1
loop_
 _symmetry_equiv_pos_site_id
 _symmetry_equiv_pos_as_xyz
  1  'x, y, z'
loop_
 _atom_site_type_symbol
 _atom_site_label
 _atom_site_symmetry_multiplicity
 _atom_site_fract_x
 _atom_site_fract_y
 _atom_site_fract_z
 _atom_site_occupancy
  Ho  Ho0  1  0.672319  0.172319  0.500000  1
  Ho  Ho1  1  0.335044  0.835044  0.500000  1
  Ho  Ho2  1  0.170974  0.320415  0.500000  1
  Ho  Ho3  1  0.820415  0.670974  0.500000  1
  Cd  Cd4  1  0.998890  0.002941  0.000000  1
  Cd  Cd5  1  0.502941  0.498890  0.000000  1
  Pd  Pd6  1  0.870651  0.370651  0.000000  1
  Pd  Pd7  1  0.628879  0.873398  0.000000  1
  Pd  Pd8  1  0.373398  0.128879  0.000000  1
  Au  Au9  1  0.126489  0.626489  0.000000  1
