# generated using pymatgen
data_La6Zn3CuPd12Rh
_symmetry_space_group_name_H-M   'P 1'
_cell_length_a   8.44070241
_cell_length_b   8.44070324
_cell_length_c   8.44070282
_cell_angle_alpha   109.49649297
_cell_angle_beta   109.49648956
_cell_angle_gamma   109.49649890
_symmetry_Int_Tables_number   1
_chemical_formula_structural   La6Zn3CuPd12Rh
_chemical_formula_sum   'La6 Zn3 Cu1 Pd12 Rh1'
_cell_volume   462.49484603
_cell_formula_units_Z   1
loop_
 _symmetry_equiv_pos_site_id
 _symmetry_equiv_pos_as_xyz
  1  'x, y, z'
loop_
 _atom_site_type_symbol
 _atom_site_label
 _atom_site_symmetry_multiplicity
 _atom_site_fract_x
 _atom_site_fract_y
 _atom_site_fract_z
 _atom_site_occupancy
  La  La0  1  0.698962  0.698962  0.996940  1
  La  La1  1  0.301038  0.003060  0.301038  1
  La  La2  1  0.003060  0.301038  0.301038  1
  La  La3  1  0.301038  0.301038  0.003060  1
  La  La4  1  0.698962  0.996940  0.698962  1
  La  La5  1  0.996940  0.698962  0.698962  1
  Zn  Zn6  1  0.000000  0.000000  0.500000  1
  Zn  Zn7  1  0.000000  0.500000  0.000000  1
  Zn  Zn8  1  0.500000  0.000000  0.000000  1
  Cu  Cu9  1  0.500000  0.500000  0.500000  1
  Pd  Pd10  1  0.331972  0.331972  0.664465  1
  Pd  Pd11  1  0.668226  0.000000  0.331774  1
  Pd  Pd12  1  0.000000  0.668226  0.331774  1
  Pd  Pd13  1  0.668226  0.331774  0.000000  1
  Pd  Pd14  1  0.331972  0.664465  0.331972  1
  Pd  Pd15  1  0.000000  0.331774  0.668226  1
  Pd  Pd16  1  0.331774  0.668226  0.000000  1
  Pd  Pd17  1  0.331774  0.000000  0.668226  1
  Pd  Pd18  1  0.664465  0.331972  0.331972  1
  Pd  Pd19  1  0.668028  0.668028  0.335535  1
  Pd  Pd20  1  0.668028  0.335535  0.668028  1
  Pd  Pd21  1  0.335535  0.668028  0.668028  1
  Rh  Rh22  1  0.000000  0.000000  0.000000  1
