# generated using pymatgen
data_Dy3Sn3Ir2Au
_symmetry_space_group_name_H-M   'P 1'
_cell_length_a   7.66641600
_cell_length_b   7.66641649
_cell_length_c   3.89238400
_cell_angle_alpha   90.00000000
_cell_angle_beta   90.00000000
_cell_angle_gamma   120.00000652
_symmetry_Int_Tables_number   1
_chemical_formula_structural   Dy3Sn3Ir2Au
_chemical_formula_sum   'Dy3 Sn3 Ir2 Au1'
_cell_volume   198.12125604
_cell_formula_units_Z   1
loop_
 _symmetry_equiv_pos_site_id
 _symmetry_equiv_pos_as_xyz
  1  'x, y, z'
loop_
 _atom_site_type_symbol
 _atom_site_label
 _atom_site_symmetry_multiplicity
 _atom_site_fract_x
 _atom_site_fract_y
 _atom_site_fract_z
 _atom_site_occupancy
  Dy  Dy0  1  0.390798  0.409109  0.500000  1
  Dy  Dy1  1  0.590891  0.981689  0.500000  1
  Dy  Dy2  1  0.018311  0.609202  0.500000  1
  Sn  Sn3  1  0.740729  0.742298  0.000000  1
  Sn  Sn4  1  0.257702  0.998430  0.000000  1
  Sn  Sn5  1  0.001570  0.259271  0.000000  1
  Ir  Ir6  1  0.333333  0.666667  0.000000  1
  Ir  Ir7  1  0.000000  0.000000  0.500000  1
  Au  Au8  1  0.666667  0.333333  0.000000  1
