# generated using pymatgen
data_Hf9ZrSn3B2Sb3
_symmetry_space_group_name_H-M   'P 1'
_cell_length_a   8.46787200
_cell_length_b   8.46787177
_cell_length_c   5.75176200
_cell_angle_alpha   90.00000000
_cell_angle_beta   90.00000000
_cell_angle_gamma   120.00000091
_symmetry_Int_Tables_number   1
_chemical_formula_structural   Hf9ZrSn3B2Sb3
_chemical_formula_sum   'Hf9 Zr1 Sn3 B2 Sb3'
_cell_volume   357.17420957
_cell_formula_units_Z   1
loop_
 _symmetry_equiv_pos_site_id
 _symmetry_equiv_pos_as_xyz
  1  'x, y, z'
loop_
 _atom_site_type_symbol
 _atom_site_label
 _atom_site_symmetry_multiplicity
 _atom_site_fract_x
 _atom_site_fract_y
 _atom_site_fract_z
 _atom_site_occupancy
  Hf  Hf0  1  0.666667  0.333333  0.001341  1
  Hf  Hf1  1  0.333333  0.666667  0.000919  1
  Hf  Hf2  1  0.333333  0.666667  0.498855  1
  Hf  Hf3  1  0.770489  0.770690  0.749920  1
  Hf  Hf4  1  0.229310  0.999799  0.749920  1
  Hf  Hf5  1  0.000201  0.229511  0.749920  1
  Hf  Hf6  1  0.231242  0.231313  0.249925  1
  Hf  Hf7  1  0.768687  0.999929  0.249925  1
  Hf  Hf8  1  0.000071  0.768758  0.249925  1
  Zr  Zr9  1  0.666667  0.333333  0.499707  1
  Sn  Sn10  1  0.600838  0.601380  0.249340  1
  Sn  Sn11  1  0.398620  0.999457  0.249340  1
  Sn  Sn12  1  0.000543  0.399162  0.249340  1
  B  B13  1  0.000000  0.000000  0.000769  1
  B  B14  1  0.000000  0.000000  0.499171  1
  Sb  Sb15  1  0.400865  0.401544  0.750561  1
  Sb  Sb16  1  0.598456  0.999321  0.750561  1
  Sb  Sb17  1  0.000679  0.599135  0.750561  1
