# generated using pymatgen
data_Sc2Ga9IrPtRh
_symmetry_space_group_name_H-M   'P 1'
_cell_length_a   7.53632255
_cell_length_b   7.53633080
_cell_length_c   9.38403433
_cell_angle_alpha   89.98878295
_cell_angle_beta   89.98861104
_cell_angle_gamma   120.12604719
_symmetry_Int_Tables_number   1
_chemical_formula_structural   Sc2Ga9IrPtRh
_chemical_formula_sum   'Sc4 Ga18 Ir2 Pt2 Rh2'
_cell_volume   460.98479567
_cell_formula_units_Z   2
loop_
 _symmetry_equiv_pos_site_id
 _symmetry_equiv_pos_as_xyz
  1  'x, y, z'
loop_
 _atom_site_type_symbol
 _atom_site_label
 _atom_site_symmetry_multiplicity
 _atom_site_fract_x
 _atom_site_fract_y
 _atom_site_fract_z
 _atom_site_occupancy
  Sc  Sc0  1  0.996149  0.671138  0.250173  1
  Sc  Sc1  1  0.003851  0.328862  0.749827  1
  Sc  Sc2  1  0.671137  0.996148  0.250173  1
  Sc  Sc3  1  0.328863  0.003852  0.749827  1
  Ga  Ga4  1  0.131491  0.131490  0.249720  1
  Ga  Ga5  1  0.868509  0.868510  0.750280  1
  Ga  Ga6  1  0.994150  0.338171  0.084084  1
  Ga  Ga7  1  0.005850  0.661829  0.915916  1
  Ga  Ga8  1  0.004783  0.662294  0.584683  1
  Ga  Ga9  1  0.337706  0.995217  0.415317  1
  Ga  Ga10  1  0.995217  0.337706  0.415317  1
  Ga  Ga11  1  0.662294  0.004783  0.584683  1
  Ga  Ga12  1  0.661829  0.005850  0.915916  1
  Ga  Ga13  1  0.338171  0.994150  0.084084  1
  Ga  Ga14  1  0.332850  0.332850  0.573873  1
  Ga  Ga15  1  0.667150  0.667150  0.426127  1
  Ga  Ga16  1  0.666791  0.666791  0.074051  1
  Ga  Ga17  1  0.333209  0.333209  0.925949  1
  Ga  Ga18  1  0.336875  0.552046  0.248985  1
  Ga  Ga19  1  0.663125  0.447954  0.751015  1
  Ga  Ga20  1  0.552045  0.336874  0.248985  1
  Ga  Ga21  1  0.447955  0.663126  0.751015  1
  Ir  Ir22  1  0.328939  0.671061  0.500000  1
  Ir  Ir23  1  0.671061  0.328939  0.500000  1
  Pt  Pt24  1  0.000000  0.000000  0.000000  1
  Pt  Pt25  1  0.000000  0.000000  0.500000  1
  Rh  Rh26  1  0.670681  0.329319  0.000000  1
  Rh  Rh27  1  0.329319  0.670681  0.000000  1
