# generated using pymatgen
data_Co2Re2Tc3Ru
_symmetry_space_group_name_H-M   'P 1'
_cell_length_a   5.38124053
_cell_length_b   5.39135852
_cell_length_c   4.30021700
_cell_angle_alpha   90.00000000
_cell_angle_beta   90.00000000
_cell_angle_gamma   119.88705801
_symmetry_Int_Tables_number   1
_chemical_formula_structural   Co2Re2Tc3Ru
_chemical_formula_sum   'Co2 Re2 Tc3 Ru1'
_cell_volume   108.16699343
_cell_formula_units_Z   1
loop_
 _symmetry_equiv_pos_site_id
 _symmetry_equiv_pos_as_xyz
  1  'x, y, z'
loop_
 _atom_site_type_symbol
 _atom_site_label
 _atom_site_symmetry_multiplicity
 _atom_site_fract_x
 _atom_site_fract_y
 _atom_site_fract_z
 _atom_site_occupancy
  Co  Co0  1  0.331719  0.664980  0.750000  1
  Co  Co1  1  0.664735  0.328325  0.250000  1
  Re  Re2  1  0.169139  0.831102  0.250000  1
  Re  Re3  1  0.833035  0.169729  0.750000  1
  Tc  Tc4  1  0.664443  0.833217  0.250000  1
  Tc  Tc5  1  0.833479  0.666693  0.750000  1
  Tc  Tc6  1  0.335842  0.168542  0.750000  1
  Ru  Ru7  1  0.167608  0.337413  0.250000  1
