# generated using pymatgen
data_Zr14AlPd19
_symmetry_space_group_name_H-M   'P 1'
_cell_length_a   8.16488137
_cell_length_b   8.16488442
_cell_length_c   9.76194378
_cell_angle_alpha   90.56505093
_cell_angle_beta   90.56499293
_cell_angle_gamma   106.80952883
_symmetry_Int_Tables_number   1
_chemical_formula_structural   Zr14AlPd19
_chemical_formula_sum   'Zr14 Al1 Pd19'
_cell_volume   622.89076121
_cell_formula_units_Z   1
loop_
 _symmetry_equiv_pos_site_id
 _symmetry_equiv_pos_as_xyz
  1  'x, y, z'
loop_
 _atom_site_type_symbol
 _atom_site_label
 _atom_site_symmetry_multiplicity
 _atom_site_fract_x
 _atom_site_fract_y
 _atom_site_fract_z
 _atom_site_occupancy
  Zr  Zr0  1  0.689599  0.306781  0.499594  1
  Zr  Zr1  1  0.203299  0.811298  0.994641  1
  Zr  Zr2  1  0.505878  0.999968  0.748393  1
  Zr  Zr3  1  0.998646  0.496160  0.250729  1
  Zr  Zr4  1  0.999968  0.505878  0.748393  1
  Zr  Zr5  1  0.496160  0.998645  0.250728  1
  Zr  Zr6  1  0.817488  0.817488  0.803103  1
  Zr  Zr7  1  0.196326  0.196326  0.182700  1
  Zr  Zr8  1  0.308714  0.308714  0.690136  1
  Zr  Zr9  1  0.674139  0.674138  0.326393  1
  Zr  Zr10  1  0.999503  0.999503  0.499227  1
  Zr  Zr11  1  0.499889  0.499889  0.002567  1
  Zr  Zr12  1  0.306781  0.689599  0.499594  1
  Zr  Zr13  1  0.811298  0.203299  0.994641  1
  Al  Al14  1  0.890941  0.890941  0.108594  1
  Pd  Pd15  1  0.358624  0.648757  0.793973  1
  Pd  Pd16  1  0.348304  0.646652  0.207883  1
  Pd  Pd17  1  0.861611  0.153879  0.706239  1
  Pd  Pd18  1  0.852027  0.125842  0.283453  1
  Pd  Pd19  1  0.153879  0.861611  0.706238  1
  Pd  Pd20  1  0.125842  0.852027  0.283453  1
  Pd  Pd21  1  0.648757  0.358624  0.793973  1
  Pd  Pd22  1  0.646652  0.348304  0.207883  1
  Pd  Pd23  1  0.645396  0.938555  0.503109  1
  Pd  Pd24  1  0.059090  0.352519  0.495534  1
  Pd  Pd25  1  0.144233  0.442138  0.995269  1
  Pd  Pd26  1  0.580119  0.854885  0.008865  1
  Pd  Pd27  1  0.938555  0.645396  0.503109  1
  Pd  Pd28  1  0.352519  0.059090  0.495535  1
  Pd  Pd29  1  0.442138  0.144233  0.995269  1
  Pd  Pd30  1  0.854886  0.580121  0.008866  1
  Pd  Pd31  1  0.602359  0.602359  0.606014  1
  Pd  Pd32  1  0.393361  0.393361  0.396786  1
  Pd  Pd33  1  0.093019  0.093019  0.909115  1
