# generated using pymatgen
data_SmSc(Re2Si)4
_symmetry_space_group_name_H-M   'P 1'
_cell_length_a   7.38965744
_cell_length_b   7.38965715
_cell_length_c   4.14454800
_cell_angle_alpha   90.00000000
_cell_angle_beta   90.00000000
_cell_angle_gamma   91.68215763
_symmetry_Int_Tables_number   1
_chemical_formula_structural   SmSc(Re2Si)4
_chemical_formula_sum   'Sm1 Sc1 Re8 Si4'
_cell_volume   226.22394436
_cell_formula_units_Z   1
loop_
 _symmetry_equiv_pos_site_id
 _symmetry_equiv_pos_as_xyz
  1  'x, y, z'
loop_
 _atom_site_type_symbol
 _atom_site_label
 _atom_site_symmetry_multiplicity
 _atom_site_fract_x
 _atom_site_fract_y
 _atom_site_fract_z
 _atom_site_occupancy
  Sm  Sm0  1  0.000000  0.000000  0.500000  1
  Sc  Sc1  1  0.500000  0.500000  0.000000  1
  Re  Re2  1  0.587286  0.161154  0.500000  1
  Re  Re3  1  0.412714  0.838846  0.500000  1
  Re  Re4  1  0.101927  0.348051  0.000000  1
  Re  Re5  1  0.898073  0.651949  0.000000  1
  Re  Re6  1  0.161154  0.587286  0.500000  1
  Re  Re7  1  0.838846  0.412714  0.500000  1
  Re  Re8  1  0.348051  0.101927  0.000000  1
  Re  Re9  1  0.651949  0.898073  0.000000  1
  Si  Si10  1  0.700315  0.700315  0.500000  1
  Si  Si11  1  0.299685  0.299685  0.500000  1
  Si  Si12  1  0.214286  0.785714  0.000000  1
  Si  Si13  1  0.785714  0.214286  0.000000  1
