# generated using pymatgen
data_Ca2LuGa8Ag3
_symmetry_space_group_name_H-M   'P 1'
_cell_length_a   4.38674425
_cell_length_b   8.36920860
_cell_length_c   8.36920793
_cell_angle_alpha   71.10532091
_cell_angle_beta   74.80669695
_cell_angle_gamma   74.80669825
_symmetry_Int_Tables_number   1
_chemical_formula_structural   Ca2LuGa8Ag3
_chemical_formula_sum   'Ca2 Lu1 Ga8 Ag3'
_cell_volume   275.21112379
_cell_formula_units_Z   1
loop_
 _symmetry_equiv_pos_site_id
 _symmetry_equiv_pos_as_xyz
  1  'x, y, z'
loop_
 _atom_site_type_symbol
 _atom_site_label
 _atom_site_symmetry_multiplicity
 _atom_site_fract_x
 _atom_site_fract_y
 _atom_site_fract_z
 _atom_site_occupancy
  Ca  Ca0  1  0.499993  0.500007  0.500007  1
  Ca  Ca1  1  0.200140  0.799860  0.799860  1
  Lu  Lu2  1  0.797421  0.202579  0.202579  1
  Ga  Ga3  1  0.357788  0.358424  0.926001  1
  Ga  Ga4  1  0.644367  0.633998  0.077267  1
  Ga  Ga5  1  0.357788  0.926001  0.358424  1
  Ga  Ga6  1  0.644367  0.077267  0.633998  1
  Ga  Ga7  1  0.161125  0.469059  0.208691  1
  Ga  Ga8  1  0.838868  0.527475  0.794789  1
  Ga  Ga9  1  0.161125  0.208691  0.469059  1
  Ga  Ga10  1  0.838868  0.794789  0.527475  1
  Ag  Ag11  1  0.498701  0.001299  0.001299  1
  Ag  Ag12  1  0.999725  0.807956  0.192594  1
  Ag  Ag13  1  0.999725  0.192594  0.807956  1
