# generated using pymatgen
data_Tb3Th11(Tc2Ru)2
_symmetry_space_group_name_H-M   'P 1'
_cell_length_a   9.84056701
_cell_length_b   9.89589970
_cell_length_c   6.39792461
_cell_angle_alpha   89.79659977
_cell_angle_beta   89.92586967
_cell_angle_gamma   120.09008800
_symmetry_Int_Tables_number   1
_chemical_formula_structural   Tb3Th11(Tc2Ru)2
_chemical_formula_sum   'Tb3 Th11 Tc4 Ru2'
_cell_volume   539.06944715
_cell_formula_units_Z   1
loop_
 _symmetry_equiv_pos_site_id
 _symmetry_equiv_pos_as_xyz
  1  'x, y, z'
loop_
 _atom_site_type_symbol
 _atom_site_label
 _atom_site_symmetry_multiplicity
 _atom_site_fract_x
 _atom_site_fract_y
 _atom_site_fract_z
 _atom_site_occupancy
  Tb  Tb0  1  0.459713  0.535829  0.293657  1
  Tb  Tb1  1  0.070287  0.533729  0.298589  1
  Tb  Tb2  1  0.926167  0.463036  0.799138  1
  Th  Th3  1  0.250352  0.126869  0.509074  1
  Th  Th4  1  0.543712  0.079690  0.798801  1
  Th  Th5  1  0.750336  0.873582  0.012994  1
  Th  Th6  1  0.666586  0.334546  0.273185  1
  Th  Th7  1  0.124480  0.871215  0.008498  1
  Th  Th8  1  0.462841  0.923530  0.300713  1
  Th  Th9  1  0.540033  0.464153  0.797985  1
  Th  Th10  1  0.876391  0.127205  0.512180  1
  Th  Th11  1  0.124055  0.251048  0.011815  1
  Th  Th12  1  0.874621  0.750933  0.511157  1
  Th  Th13  1  0.332481  0.664953  0.769357  1
  Tc  Tc14  1  0.814924  0.635986  0.047838  1
  Tc  Tc15  1  0.815195  0.178537  0.050527  1
  Tc  Tc16  1  0.629559  0.816380  0.549426  1
  Tc  Tc17  1  0.367635  0.185484  0.040713  1
  Ru  Ru18  1  0.183396  0.363896  0.553198  1
  Ru  Ru19  1  0.187236  0.819403  0.545149  1
