# generated using pymatgen
data_Tb4Tm2Si3Au
_symmetry_space_group_name_H-M   'P 1'
_cell_length_a   7.52187647
_cell_length_b   7.52187647
_cell_length_c   4.24507400
_cell_angle_alpha   90.00000000
_cell_angle_beta   90.00000000
_cell_angle_gamma   88.60861984
_symmetry_Int_Tables_number   1
_chemical_formula_structural   Tb4Tm2Si3Au
_chemical_formula_sum   'Tb4 Tm2 Si3 Au1'
_cell_volume   240.10963634
_cell_formula_units_Z   1
loop_
 _symmetry_equiv_pos_site_id
 _symmetry_equiv_pos_as_xyz
  1  'x, y, z'
loop_
 _atom_site_type_symbol
 _atom_site_label
 _atom_site_symmetry_multiplicity
 _atom_site_fract_x
 _atom_site_fract_y
 _atom_site_fract_z
 _atom_site_occupancy
  Tb  Tb0  1  0.674559  0.174559  0.500000  1
  Tb  Tb1  1  0.335234  0.835234  0.500000  1
  Tb  Tb2  1  0.173489  0.315402  0.500000  1
  Tb  Tb3  1  0.815402  0.673489  0.500000  1
  Tm  Tm4  1  0.007106  0.997704  0.000000  1
  Tm  Tm5  1  0.497704  0.507106  0.000000  1
  Si  Si6  1  0.871652  0.371652  0.000000  1
  Si  Si7  1  0.621288  0.885060  0.000000  1
  Si  Si8  1  0.385060  0.121288  0.000000  1
  Au  Au9  1  0.118506  0.618506  0.000000  1
