# generated using pymatgen
data_Dy6Y4Si6H
_symmetry_space_group_name_H-M   'P 1'
_cell_length_a   8.46144900
_cell_length_b   8.46025471
_cell_length_c   6.31165200
_cell_angle_alpha   90.00089185
_cell_angle_beta   89.99821655
_cell_angle_gamma   120.00466588
_symmetry_Int_Tables_number   1
_chemical_formula_structural   Dy6Y4Si6H
_chemical_formula_sum   'Dy6 Y4 Si6 H1'
_cell_volume   391.27440162
_cell_formula_units_Z   1
loop_
 _symmetry_equiv_pos_site_id
 _symmetry_equiv_pos_as_xyz
  1  'x, y, z'
loop_
 _atom_site_type_symbol
 _atom_site_label
 _atom_site_symmetry_multiplicity
 _atom_site_fract_x
 _atom_site_fract_y
 _atom_site_fract_z
 _atom_site_occupancy
  Dy  Dy0  1  0.333319  0.666651  0.499992  1
  Dy  Dy1  1  0.666669  0.333349  0.499992  1
  Dy  Dy2  1  0.666666  0.333344  0.000011  1
  Dy  Dy3  1  0.333321  0.666656  0.000011  1
  Dy  Dy4  1  0.000013  0.752770  0.248045  1
  Dy  Dy5  1  0.247242  0.247230  0.248045  1
  Y  Y6  1  0.752789  0.000000  0.248023  1
  Y  Y7  1  0.000035  0.247271  0.751966  1
  Y  Y8  1  0.752764  0.752729  0.751966  1
  Y  Y9  1  0.247253  0.000000  0.751974  1
  Si  Si10  1  0.000018  0.391309  0.250485  1
  Si  Si11  1  0.608710  0.608691  0.250485  1
  Si  Si12  1  0.391225  0.000000  0.250496  1
  Si  Si13  1  0.999984  0.608757  0.749519  1
  Si  Si14  1  0.391227  0.391243  0.749519  1
  Si  Si15  1  0.608733  0.000000  0.749509  1
  H  H16  1  0.000031  0.000000  0.499961  1
