# generated using pymatgen
data_Ac7Dy(AgSn)8
_symmetry_space_group_name_H-M   'P 1'
_cell_length_a   9.80459900
_cell_length_b   9.80459942
_cell_length_c   8.19144900
_cell_angle_alpha   90.00000000
_cell_angle_beta   90.00000000
_cell_angle_gamma   120.00000197
_symmetry_Int_Tables_number   1
_chemical_formula_structural   Ac7Dy(AgSn)8
_chemical_formula_sum   'Ac7 Dy1 Ag8 Sn8'
_cell_volume   681.94766292
_cell_formula_units_Z   1
loop_
 _symmetry_equiv_pos_site_id
 _symmetry_equiv_pos_as_xyz
  1  'x, y, z'
loop_
 _atom_site_type_symbol
 _atom_site_label
 _atom_site_symmetry_multiplicity
 _atom_site_fract_x
 _atom_site_fract_y
 _atom_site_fract_z
 _atom_site_occupancy
  Ac  Ac0  1  0.514189  0.028377  0.496411  1
  Ac  Ac1  1  0.514189  0.485811  0.496411  1
  Ac  Ac2  1  0.971623  0.485811  0.496411  1
  Ac  Ac3  1  0.484632  0.969264  0.996203  1
  Ac  Ac4  1  0.484632  0.515368  0.996203  1
  Ac  Ac5  1  0.030736  0.515368  0.996203  1
  Ac  Ac6  1  0.000000  0.000000  0.494455  1
  Dy  Dy7  1  0.000000  0.000000  0.994804  1
  Ag  Ag8  1  0.165817  0.331633  0.277441  1
  Ag  Ag9  1  0.165817  0.834183  0.277441  1
  Ag  Ag10  1  0.668367  0.834183  0.277441  1
  Ag  Ag11  1  0.836754  0.673509  0.807068  1
  Ag  Ag12  1  0.836754  0.163246  0.807068  1
  Ag  Ag13  1  0.326491  0.163246  0.807068  1
  Ag  Ag14  1  0.333333  0.666667  0.694963  1
  Ag  Ag15  1  0.666667  0.333333  0.192472  1
  Sn  Sn16  1  0.163910  0.327822  0.720767  1
  Sn  Sn17  1  0.163910  0.836090  0.720767  1
  Sn  Sn18  1  0.672178  0.836090  0.720767  1
  Sn  Sn19  1  0.838122  0.676244  0.203663  1
  Sn  Sn20  1  0.838122  0.161878  0.203663  1
  Sn  Sn21  1  0.323756  0.161878  0.203663  1
  Sn  Sn22  1  0.333333  0.666667  0.286872  1
  Sn  Sn23  1  0.666667  0.333333  0.773778  1
