# generated using pymatgen
data_Nd3Cd2GaPt3
_symmetry_space_group_name_H-M   'P 1'
_cell_length_a   7.70811200
_cell_length_b   7.60671322
_cell_length_c   4.01790600
_cell_angle_alpha   90.00000000
_cell_angle_beta   90.00000000
_cell_angle_gamma   119.56578662
_symmetry_Int_Tables_number   1
_chemical_formula_structural   Nd3Cd2GaPt3
_chemical_formula_sum   'Nd3 Cd2 Ga1 Pt3'
_cell_volume   204.90808979
_cell_formula_units_Z   1
loop_
 _symmetry_equiv_pos_site_id
 _symmetry_equiv_pos_as_xyz
  1  'x, y, z'
loop_
 _atom_site_type_symbol
 _atom_site_label
 _atom_site_symmetry_multiplicity
 _atom_site_fract_x
 _atom_site_fract_y
 _atom_site_fract_z
 _atom_site_occupancy
  Nd  Nd0  1  0.406146  0.405911  0.500000  1
  Nd  Nd1  1  0.593854  0.999765  0.500000  1
  Nd  Nd2  1  0.000000  0.581163  0.500000  1
  Cd  Cd3  1  0.754973  0.750057  0.000000  1
  Cd  Cd4  1  0.245027  0.995084  0.000000  1
  Ga  Ga5  1  0.000000  0.252749  0.000000  1
  Pt  Pt6  1  0.675044  0.327199  0.000000  1
  Pt  Pt7  1  0.324956  0.652156  0.000000  1
  Pt  Pt8  1  0.000000  0.035916  0.500000  1
