# generated using pymatgen
data_Ti5Cr(Fe5B2)2
_symmetry_space_group_name_H-M   'P 1'
_cell_length_a   8.62530500
_cell_length_b   8.62530500
_cell_length_c   2.87771300
_cell_angle_alpha   90.00000000
_cell_angle_beta   90.00000000
_cell_angle_gamma   90.00000000
_symmetry_Int_Tables_number   1
_chemical_formula_structural   Ti5Cr(Fe5B2)2
_chemical_formula_sum   'Ti5 Cr1 Fe10 B4'
_cell_volume   214.09000928
_cell_formula_units_Z   1
loop_
 _symmetry_equiv_pos_site_id
 _symmetry_equiv_pos_as_xyz
  1  'x, y, z'
loop_
 _atom_site_type_symbol
 _atom_site_label
 _atom_site_symmetry_multiplicity
 _atom_site_fract_x
 _atom_site_fract_y
 _atom_site_fract_z
 _atom_site_occupancy
  Ti  Ti0  1  0.500000  0.500000  0.000000  1
  Ti  Ti1  1  0.824580  0.325745  0.000000  1
  Ti  Ti2  1  0.325745  0.175420  0.000000  1
  Ti  Ti3  1  0.674255  0.824580  0.000000  1
  Ti  Ti4  1  0.175420  0.674255  0.000000  1
  Cr  Cr5  1  0.000000  0.000000  0.000000  1
  Fe  Fe6  1  0.500000  0.000000  0.500000  1
  Fe  Fe7  1  0.000000  0.500000  0.500000  1
  Fe  Fe8  1  0.065669  0.212371  0.500000  1
  Fe  Fe9  1  0.212371  0.934331  0.500000  1
  Fe  Fe10  1  0.787629  0.065669  0.500000  1
  Fe  Fe11  1  0.934331  0.787629  0.500000  1
  Fe  Fe12  1  0.427081  0.720084  0.500000  1
  Fe  Fe13  1  0.572919  0.279916  0.500000  1
  Fe  Fe14  1  0.720084  0.572919  0.500000  1
  Fe  Fe15  1  0.279916  0.427081  0.500000  1
  B  B16  1  0.622222  0.122189  0.000000  1
  B  B17  1  0.122189  0.377778  0.000000  1
  B  B18  1  0.877811  0.622222  0.000000  1
  B  B19  1  0.377778  0.877811  0.000000  1
