# generated using pymatgen
data_Er3Lu(SiRh2)8
_symmetry_space_group_name_H-M   'P 1'
_cell_length_a   4.11690400
_cell_length_b   9.06774992
_cell_length_c   11.25330615
_cell_angle_alpha   90.05167501
_cell_angle_beta   90.00000000
_cell_angle_gamma   90.00000000
_symmetry_Int_Tables_number   1
_chemical_formula_structural   Er3Lu(SiRh2)8
_chemical_formula_sum   'Er3 Lu1 Si8 Rh16'
_cell_volume   420.09763015
_cell_formula_units_Z   1
loop_
 _symmetry_equiv_pos_site_id
 _symmetry_equiv_pos_as_xyz
  1  'x, y, z'
loop_
 _atom_site_type_symbol
 _atom_site_label
 _atom_site_symmetry_multiplicity
 _atom_site_fract_x
 _atom_site_fract_y
 _atom_site_fract_z
 _atom_site_occupancy
  Er  Er0  1  0.250000  0.146843  0.825237  1
  Er  Er1  1  0.250000  0.353202  0.325485  1
  Er  Er2  1  0.750000  0.852986  0.174685  1
  Lu  Lu3  1  0.750000  0.646792  0.674753  1
  Si  Si4  1  0.250000  0.412084  0.637288  1
  Si  Si5  1  0.250000  0.088586  0.137115  1
  Si  Si6  1  0.750000  0.588625  0.362925  1
  Si  Si7  1  0.750000  0.911033  0.862525  1
  Si  Si8  1  0.250000  0.616926  0.058612  1
  Si  Si9  1  0.250000  0.883117  0.558729  1
  Si  Si10  1  0.750000  0.383260  0.941451  1
  Si  Si11  1  0.750000  0.116844  0.441487  1
  Rh  Rh12  1  0.250000  0.616322  0.502471  1
  Rh  Rh13  1  0.250000  0.884479  0.000168  1
  Rh  Rh14  1  0.750000  0.385120  0.499501  1
  Rh  Rh15  1  0.750000  0.115452  0.999179  1
  Rh  Rh16  1  0.250000  0.685993  0.269282  1
  Rh  Rh17  1  0.250000  0.811599  0.767724  1
  Rh  Rh18  1  0.750000  0.314394  0.731126  1
  Rh  Rh19  1  0.750000  0.186508  0.231214  1
  Rh  Rh20  1  0.250000  0.172589  0.559750  1
  Rh  Rh21  1  0.250000  0.327679  0.059355  1
  Rh  Rh22  1  0.750000  0.827395  0.440926  1
  Rh  Rh23  1  0.750000  0.672089  0.939615  1
  Rh  Rh24  1  0.250000  0.007161  0.343992  1
  Rh  Rh25  1  0.250000  0.493197  0.843507  1
  Rh  Rh26  1  0.750000  0.992345  0.656082  1
  Rh  Rh27  1  0.750000  0.507379  0.155812  1
