# generated using pymatgen
data_Nd2Al6CoNiHg2
_symmetry_space_group_name_H-M   'P 1'
_cell_length_a   4.13999808
_cell_length_b   6.74157500
_cell_length_c   8.28016914
_cell_angle_alpha   90.00000000
_cell_angle_beta   104.47719902
_cell_angle_gamma   90.00000000
_symmetry_Int_Tables_number   1
_chemical_formula_structural   Nd2Al6CoNiHg2
_chemical_formula_sum   'Nd2 Al6 Co1 Ni1 Hg2'
_cell_volume   223.76232699
_cell_formula_units_Z   1
loop_
 _symmetry_equiv_pos_site_id
 _symmetry_equiv_pos_as_xyz
  1  'x, y, z'
loop_
 _atom_site_type_symbol
 _atom_site_label
 _atom_site_symmetry_multiplicity
 _atom_site_fract_x
 _atom_site_fract_y
 _atom_site_fract_z
 _atom_site_occupancy
  Nd  Nd0  1  0.878259  0.750000  0.756519  1
  Nd  Nd1  1  0.121795  0.250000  0.243589  1
  Al  Al2  1  0.081319  0.750000  0.162637  1
  Al  Al3  1  0.919710  0.250000  0.839422  1
  Al  Al4  1  0.694178  0.557807  0.388358  1
  Al  Al5  1  0.305529  0.445862  0.611057  1
  Al  Al6  1  0.694178  0.942193  0.388358  1
  Al  Al7  1  0.305529  0.054138  0.611057  1
  Co  Co8  1  0.225058  0.750000  0.450116  1
  Ni  Ni9  1  0.774618  0.250000  0.549236  1
  Hg  Hg10  1  0.499913  0.499277  0.999826  1
  Hg  Hg11  1  0.499913  0.000723  0.999826  1
