# generated using pymatgen
data_Al11Re2TcPd
_symmetry_space_group_name_H-M   'P 1'
_cell_length_a   5.20087544
_cell_length_b   5.19473387
_cell_length_c   9.04483915
_cell_angle_alpha   105.28155438
_cell_angle_beta   88.54907746
_cell_angle_gamma   99.94884359
_symmetry_Int_Tables_number   1
_chemical_formula_structural   Al11Re2TcPd
_chemical_formula_sum   'Al11 Re2 Tc1 Pd1'
_cell_volume   232.12838671
_cell_formula_units_Z   1
loop_
 _symmetry_equiv_pos_site_id
 _symmetry_equiv_pos_as_xyz
  1  'x, y, z'
loop_
 _atom_site_type_symbol
 _atom_site_label
 _atom_site_symmetry_multiplicity
 _atom_site_fract_x
 _atom_site_fract_y
 _atom_site_fract_z
 _atom_site_occupancy
  Al  Al0  1  0.824626  0.269822  0.628236  1
  Al  Al1  1  0.172412  0.716887  0.376944  1
  Al  Al2  1  0.154105  0.476376  0.879002  1
  Al  Al3  1  0.849241  0.547302  0.132167  1
  Al  Al4  1  0.003503  0.002909  0.990308  1
  Al  Al5  1  0.522711  0.103136  0.880213  1
  Al  Al6  1  0.487160  0.901401  0.131364  1
  Al  Al7  1  0.573821  0.329970  0.372428  1
  Al  Al8  1  0.424384  0.674701  0.626674  1
  Al  Al9  1  0.935497  0.800687  0.655614  1
  Al  Al10  1  0.050148  0.165729  0.318816  1
  Re  Re11  1  0.670232  0.612551  0.866986  1
  Re  Re12  1  0.331126  0.386951  0.133289  1
  Tc  Tc13  1  0.689978  0.853688  0.397672  1
  Pd  Pd14  1  0.311056  0.157893  0.610288  1
