# generated using pymatgen
data_K7Mn8TlP8(O7F2)4
_symmetry_space_group_name_H-M   'P 1'
_cell_length_a   6.99333500
_cell_length_b   10.81134700
_cell_length_c   11.46570100
_cell_angle_alpha   90.00000000
_cell_angle_beta   90.00000000
_cell_angle_gamma   90.00000000
_symmetry_Int_Tables_number   1
_chemical_formula_structural   K7Mn8TlP8(O7F2)4
_chemical_formula_sum   'K7 Mn8 Tl1 P8 O28 F8'
_cell_volume   866.89151355
_cell_formula_units_Z   1
loop_
 _symmetry_equiv_pos_site_id
 _symmetry_equiv_pos_as_xyz
  1  'x, y, z'
loop_
 _atom_site_type_symbol
 _atom_site_label
 _atom_site_symmetry_multiplicity
 _atom_site_fract_x
 _atom_site_fract_y
 _atom_site_fract_z
 _atom_site_occupancy
  K  K0  1  0.998117  0.435467  0.327721  1
  K  K1  1  0.499491  0.063455  0.826185  1
  K  K2  1  0.500762  0.437377  0.827866  1
  K  K3  1  0.999998  0.936319  0.674386  1
  K  K4  1  0.000366  0.564102  0.674011  1
  K  K5  1  0.000531  0.063316  0.326178  1
  K  K6  1  0.500967  0.933951  0.173906  1
  Mn  Mn7  1  0.500586  0.248433  0.334747  1
  Mn  Mn8  1  0.500550  0.750287  0.665569  1
  Mn  Mn9  1  0.000078  0.500454  0.998811  1
  Mn  Mn10  1  0.999918  0.249886  0.834357  1
  Mn  Mn11  1  0.999334  0.999725  0.999605  1
  Mn  Mn12  1  0.999905  0.750558  0.165200  1
  Mn  Mn13  1  0.500128  0.999794  0.500226  1
  Mn  Mn14  1  0.500722  0.500123  0.501242  1
  Tl  Tl15  1  0.497977  0.562739  0.174165  1
  P  P16  1  0.785096  0.748870  0.422933  1
  P  P17  1  0.215585  0.251421  0.577930  1
  P  P18  1  0.284385  0.250308  0.077956  1
  P  P19  1  0.715348  0.248201  0.077810  1
  P  P20  1  0.715509  0.749577  0.920928  1
  P  P21  1  0.784601  0.248572  0.577873  1
  P  P22  1  0.283343  0.752964  0.919882  1
  P  P23  1  0.214697  0.751672  0.423243  1
  O  O24  1  0.999883  0.750798  0.483111  1
  O  O25  1  0.775219  0.112478  0.083870  1
  O  O26  1  0.197584  0.689407  0.303604  1
  O  O27  1  0.674496  0.326555  0.486799  1
  O  O28  1  0.701927  0.309430  0.198325  1
  O  O29  1  0.825185  0.826797  0.012686  1
  O  O30  1  0.724487  0.112876  0.583929  1
  O  O31  1  0.673632  0.826623  0.513399  1
  O  O32  1  0.725943  0.612783  0.417203  1
  O  O33  1  0.499098  0.754607  0.977447  1
  O  O34  1  0.325878  0.673333  0.513401  1
  O  O35  1  0.275381  0.887198  0.416358  1
  O  O36  1  0.222017  0.385793  0.084002  1
  O  O37  1  0.173593  0.674943  0.010882  1
  O  O38  1  0.325710  0.173380  0.486967  1
  O  O39  1  0.704953  0.810924  0.800541  1
  O  O40  1  0.798442  0.310694  0.697710  1
  O  O41  1  0.000079  0.250038  0.518809  1
  O  O42  1  0.299019  0.188841  0.198010  1
  O  O43  1  0.297369  0.690212  0.800308  1
  O  O44  1  0.275665  0.387189  0.584070  1
  O  O45  1  0.201461  0.189461  0.697805  1
  O  O46  1  0.825397  0.326323  0.987053  1
  O  O47  1  0.499825  0.250002  0.019059  1
  O  O48  1  0.800224  0.810847  0.303189  1
  O  O49  1  0.774444  0.613534  0.915663  1
  O  O50  1  0.221405  0.888350  0.913516  1
  O  O51  1  0.174758  0.172428  0.986825  1
  F  F52  1  0.117259  0.929069  0.156012  1
  F  F53  1  0.382992  0.929101  0.656244  1
  F  F54  1  0.380282  0.427238  0.345411  1
  F  F55  1  0.882351  0.071612  0.843705  1
  F  F56  1  0.117111  0.428623  0.843559  1
  F  F57  1  0.617253  0.070206  0.343852  1
  F  F58  1  0.617206  0.571127  0.656768  1
  F  F59  1  0.894477  0.569607  0.157176  1
