# generated using pymatgen
data_CaSmAlO4
_symmetry_space_group_name_H-M   'P 1'
_cell_length_a   11.54561600
_cell_length_b   5.28193700
_cell_length_c   6.70654700
_cell_angle_alpha   90.00001613
_cell_angle_beta   89.99995779
_cell_angle_gamma   89.99997554
_symmetry_Int_Tables_number   1
_chemical_formula_structural   CaSmAlO4
_chemical_formula_sum   'Ca4 Sm4 Al4 O16'
_cell_volume   408.98680659
_cell_formula_units_Z   4
loop_
 _symmetry_equiv_pos_site_id
 _symmetry_equiv_pos_as_xyz
  1  'x, y, z'
loop_
 _atom_site_type_symbol
 _atom_site_label
 _atom_site_symmetry_multiplicity
 _atom_site_fract_x
 _atom_site_fract_y
 _atom_site_fract_z
 _atom_site_occupancy
  Ca  Ca0  1  0.499998  0.500009  0.487140  1
  Ca  Ca1  1  0.500002  0.499991  0.987139  1
  Ca  Ca2  1  0.000002  0.000007  0.987134  1
  Ca  Ca3  1  0.999999  0.999992  0.487138  1
  Sm  Sm4  1  0.220462  0.506975  0.237137  1
  Sm  Sm5  1  0.779539  0.493024  0.737138  1
  Sm  Sm6  1  0.279538  0.006976  0.737138  1
  Sm  Sm7  1  0.720462  0.993024  0.237139  1
  Al  Al8  1  0.404850  0.065388  0.237142  1
  Al  Al9  1  0.595150  0.934610  0.737142  1
  Al  Al10  1  0.095150  0.565387  0.737140  1
  Al  Al11  1  0.904851  0.434611  0.237140  1
  O  O12  1  0.402618  0.732616  0.237153  1
  O  O13  1  0.597382  0.267385  0.737154  1
  O  O14  1  0.097382  0.232618  0.737153  1
  O  O15  1  0.902618  0.767383  0.237154  1
  O  O16  1  0.166249  0.720778  0.529989  1
  O  O17  1  0.833751  0.279221  0.029989  1
  O  O18  1  0.333751  0.220778  0.029990  1
  O  O19  1  0.666250  0.779222  0.529990  1
  O  O20  1  0.333749  0.220766  0.444290  1
  O  O21  1  0.666251  0.779234  0.944290  1
  O  O22  1  0.166250  0.720766  0.944289  1
  O  O23  1  0.833750  0.279234  0.444289  1
  O  O24  1  0.546319  0.206873  0.237153  1
  O  O25  1  0.453682  0.793127  0.737152  1
  O  O26  1  0.953681  0.706875  0.737152  1
  O  O27  1  0.046319  0.293126  0.237152  1
