# generated using pymatgen
data_Dy4Zr4Ir3Pt
_symmetry_space_group_name_H-M   'P 1'
_cell_length_a   4.64621400
_cell_length_b   7.10791224
_cell_length_c   8.25162401
_cell_angle_alpha   89.63741110
_cell_angle_beta   90.00000000
_cell_angle_gamma   90.00000000
_symmetry_Int_Tables_number   1
_chemical_formula_structural   Dy4Zr4Ir3Pt
_chemical_formula_sum   'Dy4 Zr4 Ir3 Pt1'
_cell_volume   272.50344735
_cell_formula_units_Z   1
loop_
 _symmetry_equiv_pos_site_id
 _symmetry_equiv_pos_as_xyz
  1  'x, y, z'
loop_
 _atom_site_type_symbol
 _atom_site_label
 _atom_site_symmetry_multiplicity
 _atom_site_fract_x
 _atom_site_fract_y
 _atom_site_fract_z
 _atom_site_occupancy
  Dy  Dy0  1  0.250000  0.981332  0.321594  1
  Dy  Dy1  1  0.250000  0.486473  0.175310  1
  Dy  Dy2  1  0.750000  0.013852  0.678064  1
  Dy  Dy3  1  0.750000  0.516709  0.825644  1
  Zr  Zr4  1  0.250000  0.356896  0.580673  1
  Zr  Zr5  1  0.250000  0.857768  0.923102  1
  Zr  Zr6  1  0.750000  0.647246  0.424203  1
  Zr  Zr7  1  0.750000  0.142937  0.075587  1
  Ir  Ir8  1  0.250000  0.232033  0.908866  1
  Ir  Ir9  1  0.250000  0.729433  0.589893  1
  Ir  Ir10  1  0.750000  0.768558  0.091142  1
  Pt  Pt11  1  0.750000  0.266764  0.405919  1
