# generated using pymatgen
data_Tm7Lu3(In2Bi)2
_symmetry_space_group_name_H-M   'P 1'
_cell_length_a   6.51859605
_cell_length_b   8.90809493
_cell_length_c   8.87629551
_cell_angle_alpha   119.76481706
_cell_angle_beta   90.00773308
_cell_angle_gamma   89.98504356
_symmetry_Int_Tables_number   1
_chemical_formula_structural   Tm7Lu3(In2Bi)2
_chemical_formula_sum   'Tm7 Lu3 In4 Bi2'
_cell_volume   447.43053698
_cell_formula_units_Z   1
loop_
 _symmetry_equiv_pos_site_id
 _symmetry_equiv_pos_as_xyz
  1  'x, y, z'
loop_
 _atom_site_type_symbol
 _atom_site_label
 _atom_site_symmetry_multiplicity
 _atom_site_fract_x
 _atom_site_fract_y
 _atom_site_fract_z
 _atom_site_occupancy
  Tm  Tm0  1  0.007226  0.328719  0.667286  1
  Tm  Tm1  1  0.749763  0.227610  0.990599  1
  Tm  Tm2  1  0.749860  0.771905  0.761920  1
  Tm  Tm3  1  0.749820  0.999845  0.237693  1
  Tm  Tm4  1  0.250132  0.765549  0.000840  1
  Tm  Tm5  1  0.250178  0.234320  0.234705  1
  Tm  Tm6  1  0.250250  0.999960  0.763643  1
  Lu  Lu7  1  0.492376  0.328433  0.667220  1
  Lu  Lu8  1  0.492654  0.671495  0.338793  1
  Lu  Lu9  1  0.007620  0.671606  0.338892  1
  In  In10  1  0.749637  0.999836  0.595041  1
  In  In11  1  0.250425  0.398608  0.004006  1
  In  In12  1  0.250430  0.601542  0.604657  1
  In  In13  1  0.250433  0.999847  0.398083  1
  Bi  Bi14  1  0.749606  0.603705  0.000322  1
  Bi  Bi15  1  0.749590  0.397021  0.396303  1
