# generated using pymatgen
data_Li8TbNp7N16
_symmetry_space_group_name_H-M   'P 1'
_cell_length_a   21.93819929
_cell_length_b   4.34702111
_cell_length_c   4.34552027
_cell_angle_alpha   89.99776344
_cell_angle_beta   90.01487629
_cell_angle_gamma   89.97887185
_symmetry_Int_Tables_number   1
_chemical_formula_structural   Li8TbNp7N16
_chemical_formula_sum   'Li8 Tb1 Np7 N16'
_cell_volume   414.41404117
_cell_formula_units_Z   1
loop_
 _symmetry_equiv_pos_site_id
 _symmetry_equiv_pos_as_xyz
  1  'x, y, z'
loop_
 _atom_site_type_symbol
 _atom_site_label
 _atom_site_symmetry_multiplicity
 _atom_site_fract_x
 _atom_site_fract_y
 _atom_site_fract_z
 _atom_site_occupancy
  Li  Li0  1  0.186924  0.999667  0.748457  1
  Li  Li1  1  0.812585  0.000454  0.250813  1
  Li  Li2  1  0.311624  0.999258  0.248925  1
  Li  Li3  1  0.674624  0.000335  0.750931  1
  Li  Li4  1  0.045768  0.500130  0.749998  1
  Li  Li5  1  0.950240  0.500435  0.249984  1
  Li  Li6  1  0.438422  0.499024  0.249983  1
  Li  Li7  1  0.579914  0.500423  0.750651  1
  Tb  Tb8  1  0.812571  0.500575  0.750897  1
  Np  Np9  1  0.438134  0.999361  0.750216  1
  Np  Np10  1  0.562634  0.000638  0.250543  1
  Np  Np11  1  0.062452  0.000112  0.250277  1
  Np  Np12  1  0.937779  0.000437  0.750003  1
  Np  Np13  1  0.312473  0.499554  0.749195  1
  Np  Np14  1  0.687228  0.500305  0.250888  1
  Np  Np15  1  0.186669  0.499881  0.248903  1
  N  N16  1  0.331811  0.999013  0.749007  1
  N  N17  1  0.663761  0.000345  0.251030  1
  N  N18  1  0.164933  0.999433  0.248884  1
  N  N19  1  0.845000  0.000529  0.750777  1
  N  N20  1  0.417154  0.499116  0.749888  1
  N  N21  1  0.585167  0.500241  0.250463  1
  N  N22  1  0.076209  0.500195  0.250116  1
  N  N23  1  0.931652  0.500452  0.749870  1
  N  N24  1  0.040020  0.999993  0.749844  1
  N  N25  1  0.961306  0.000542  0.250013  1
  N  N26  1  0.460204  0.999332  0.249715  1
  N  N27  1  0.549001  0.000448  0.750644  1
  N  N28  1  0.207655  0.499676  0.748644  1
  N  N29  1  0.780142  0.500671  0.250885  1
  N  N30  1  0.292661  0.499232  0.248642  1
  N  N31  1  0.693282  0.500194  0.750912  1
