# generated using pymatgen
data_La10CuGeBi6
_symmetry_space_group_name_H-M   'P 1'
_cell_length_a   9.84936200
_cell_length_b   9.84936226
_cell_length_c   6.73943100
_cell_angle_alpha   90.00000000
_cell_angle_beta   90.00000000
_cell_angle_gamma   119.99999914
_symmetry_Int_Tables_number   1
_chemical_formula_structural   La10CuGeBi6
_chemical_formula_sum   'La10 Cu1 Ge1 Bi6'
_cell_volume   566.20027683
_cell_formula_units_Z   1
loop_
 _symmetry_equiv_pos_site_id
 _symmetry_equiv_pos_as_xyz
  1  'x, y, z'
loop_
 _atom_site_type_symbol
 _atom_site_label
 _atom_site_symmetry_multiplicity
 _atom_site_fract_x
 _atom_site_fract_y
 _atom_site_fract_z
 _atom_site_occupancy
  La  La0  1  0.666667  0.333333  0.000000  1
  La  La1  1  0.333333  0.666667  0.000000  1
  La  La2  1  0.333333  0.666667  0.500000  1
  La  La3  1  0.666667  0.333333  0.500000  1
  La  La4  1  0.746389  0.746389  0.753213  1
  La  La5  1  0.253611  0.000000  0.753213  1
  La  La6  1  0.000000  0.253611  0.753213  1
  La  La7  1  0.253611  0.253611  0.246787  1
  La  La8  1  0.746389  0.000000  0.246787  1
  La  La9  1  0.000000  0.746389  0.246787  1
  Cu  Cu10  1  0.000000  0.000000  0.500000  1
  Ge  Ge11  1  0.000000  0.000000  0.000000  1
  Bi  Bi12  1  0.384954  0.384954  0.749622  1
  Bi  Bi13  1  0.615046  0.000000  0.749622  1
  Bi  Bi14  1  0.000000  0.615046  0.749622  1
  Bi  Bi15  1  0.615046  0.615046  0.250378  1
  Bi  Bi16  1  0.384954  0.000000  0.250378  1
  Bi  Bi17  1  0.000000  0.384954  0.250378  1
