# generated using pymatgen
data_LaYb2Pt9
_symmetry_space_group_name_H-M   'P 1'
_cell_length_a   9.40083991
_cell_length_b   9.40084122
_cell_length_c   9.40083892
_cell_angle_alpha   33.55745258
_cell_angle_beta   33.55745106
_cell_angle_gamma   33.55744703
_symmetry_Int_Tables_number   1
_chemical_formula_structural   LaYb2Pt9
_chemical_formula_sum   'La1 Yb2 Pt9'
_cell_volume   226.11866457
_cell_formula_units_Z   1
loop_
 _symmetry_equiv_pos_site_id
 _symmetry_equiv_pos_as_xyz
  1  'x, y, z'
loop_
 _atom_site_type_symbol
 _atom_site_label
 _atom_site_symmetry_multiplicity
 _atom_site_fract_x
 _atom_site_fract_y
 _atom_site_fract_z
 _atom_site_occupancy
  La  La0  1  0.000000  0.000000  0.000000  1
  Yb  Yb1  1  0.142154  0.142154  0.142154  1
  Yb  Yb2  1  0.857846  0.857846  0.857846  1
  Pt  Pt3  1  0.586675  0.586675  0.082464  1
  Pt  Pt4  1  0.332493  0.332493  0.332493  1
  Pt  Pt5  1  0.917535  0.413325  0.413326  1
  Pt  Pt6  1  0.413325  0.917535  0.413326  1
  Pt  Pt7  1  0.500000  0.500000  0.500000  1
  Pt  Pt8  1  0.586675  0.082465  0.586674  1
  Pt  Pt9  1  0.082465  0.586675  0.586674  1
  Pt  Pt10  1  0.667507  0.667507  0.667507  1
  Pt  Pt11  1  0.413325  0.413325  0.917536  1
