# generated using pymatgen
data_Rb8Y6PtBr20
_symmetry_space_group_name_H-M   'P 1'
_cell_length_a   12.40636453
_cell_length_b   12.40636505
_cell_length_c   12.40636400
_cell_angle_alpha   60.00000280
_cell_angle_beta   60.00000140
_cell_angle_gamma   60.00000233
_symmetry_Int_Tables_number   1
_chemical_formula_structural   Rb8Y6PtBr20
_chemical_formula_sum   'Rb8 Y6 Pt1 Br20'
_cell_volume   1350.26383573
_cell_formula_units_Z   1
loop_
 _symmetry_equiv_pos_site_id
 _symmetry_equiv_pos_as_xyz
  1  'x, y, z'
loop_
 _atom_site_type_symbol
 _atom_site_label
 _atom_site_symmetry_multiplicity
 _atom_site_fract_x
 _atom_site_fract_y
 _atom_site_fract_z
 _atom_site_occupancy
  Rb  Rb0  1  0.358402  0.358402  0.358402  1
  Rb  Rb1  1  0.641598  0.641598  0.641598  1
  Rb  Rb2  1  0.358402  0.358402  0.924793  1
  Rb  Rb3  1  0.358402  0.924793  0.358402  1
  Rb  Rb4  1  0.641598  0.641598  0.075207  1
  Rb  Rb5  1  0.641598  0.075207  0.641598  1
  Rb  Rb6  1  0.924793  0.358402  0.358402  1
  Rb  Rb7  1  0.075207  0.641598  0.641598  1
  Y  Y8  1  0.841908  0.158092  0.158092  1
  Y  Y9  1  0.158092  0.841908  0.841908  1
  Y  Y10  1  0.158092  0.841908  0.158092  1
  Y  Y11  1  0.841908  0.158092  0.841908  1
  Y  Y12  1  0.158092  0.158092  0.841908  1
  Y  Y13  1  0.841908  0.841908  0.158092  1
  Pt  Pt14  1  0.000000  0.000000  0.000000  1
  Br  Br15  1  0.331665  0.000000  0.000000  1
  Br  Br16  1  0.668335  0.000000  0.000000  1
  Br  Br17  1  0.000000  0.331665  0.668335  1
  Br  Br18  1  0.000000  0.668335  0.331665  1
  Br  Br19  1  0.000000  0.331665  0.000000  1
  Br  Br20  1  0.668335  0.000000  0.331665  1
  Br  Br21  1  0.000000  0.668335  0.000000  1
  Br  Br22  1  0.331665  0.000000  0.668335  1
  Br  Br23  1  0.000000  0.000000  0.331665  1
  Br  Br24  1  0.000000  0.000000  0.668335  1
  Br  Br25  1  0.668335  0.331665  0.000000  1
  Br  Br26  1  0.331665  0.668335  0.000000  1
  Br  Br27  1  0.678255  0.321745  0.321745  1
  Br  Br28  1  0.321745  0.678255  0.678255  1
  Br  Br29  1  0.321745  0.678255  0.321745  1
  Br  Br30  1  0.678255  0.321745  0.678255  1
  Br  Br31  1  0.321745  0.321745  0.678255  1
  Br  Br32  1  0.678255  0.678255  0.321745  1
  Br  Br33  1  0.250000  0.250000  0.250000  1
  Br  Br34  1  0.750000  0.750000  0.750000  1
