# generated using pymatgen
data_Pa6Bi7SbRh6
_symmetry_space_group_name_H-M   'P 1'
_cell_length_a   8.49482081
_cell_length_b   8.49492581
_cell_length_c   8.49486802
_cell_angle_alpha   109.46462116
_cell_angle_beta   109.47075841
_cell_angle_gamma   109.46682816
_symmetry_Int_Tables_number   1
_chemical_formula_structural   Pa6Bi7SbRh6
_chemical_formula_sum   'Pa6 Bi7 Sb1 Rh6'
_cell_volume   471.96515208
_cell_formula_units_Z   1
loop_
 _symmetry_equiv_pos_site_id
 _symmetry_equiv_pos_as_xyz
  1  'x, y, z'
loop_
 _atom_site_type_symbol
 _atom_site_label
 _atom_site_symmetry_multiplicity
 _atom_site_fract_x
 _atom_site_fract_y
 _atom_site_fract_z
 _atom_site_occupancy
  Pa  Pa0  1  0.373922  0.251038  0.619547  1
  Pa  Pa1  1  0.125374  0.752740  0.877307  1
  Pa  Pa2  1  0.619563  0.373907  0.251046  1
  Pa  Pa3  1  0.877333  0.125384  0.752746  1
  Pa  Pa4  1  0.251024  0.619532  0.373900  1
  Pa  Pa5  1  0.752683  0.877272  0.125359  1
  Bi  Bi6  1  0.499976  0.002481  0.823799  1
  Bi  Bi7  1  0.823804  0.499945  0.002459  1
  Bi  Bi8  1  0.002460  0.823819  0.499931  1
  Bi  Bi9  1  0.677785  0.677826  0.677801  1
  Bi  Bi10  1  0.323861  0.500174  0.999033  1
  Bi  Bi11  1  0.500238  0.999086  0.323907  1
  Bi  Bi12  1  0.999056  0.323865  0.500223  1
  Sb  Sb13  1  0.172577  0.172582  0.172589  1
  Rh  Rh14  1  0.882141  0.246864  0.122925  1
  Rh  Rh15  1  0.625283  0.748453  0.374660  1
  Rh  Rh16  1  0.122915  0.882131  0.246819  1
  Rh  Rh17  1  0.374664  0.625322  0.748485  1
  Rh  Rh18  1  0.246859  0.122849  0.882133  1
  Rh  Rh19  1  0.748482  0.374731  0.625332  1
