# generated using pymatgen
data_Zr4Mn2FeB4Ru9
_symmetry_space_group_name_H-M   'P 1'
_cell_length_a   9.28599354
_cell_length_b   9.28599354
_cell_length_c   3.08652200
_cell_angle_alpha   90.00000000
_cell_angle_beta   90.00000000
_cell_angle_gamma   89.41371177
_symmetry_Int_Tables_number   1
_chemical_formula_structural   Zr4Mn2FeB4Ru9
_chemical_formula_sum   'Zr4 Mn2 Fe1 B4 Ru9'
_cell_volume   266.13585823
_cell_formula_units_Z   1
loop_
 _symmetry_equiv_pos_site_id
 _symmetry_equiv_pos_as_xyz
  1  'x, y, z'
loop_
 _atom_site_type_symbol
 _atom_site_label
 _atom_site_symmetry_multiplicity
 _atom_site_fract_x
 _atom_site_fract_y
 _atom_site_fract_z
 _atom_site_occupancy
  Zr  Zr0  1  0.672872  0.172872  0.000000  1
  Zr  Zr1  1  0.327128  0.827128  0.000000  1
  Zr  Zr2  1  0.178652  0.321348  0.000000  1
  Zr  Zr3  1  0.821348  0.678652  0.000000  1
  Mn  Mn4  1  0.000000  0.000000  0.000000  1
  Mn  Mn5  1  0.500000  0.500000  0.000000  1
  Fe  Fe6  1  0.500000  0.000000  0.500000  1
  B  B7  1  0.124504  0.624504  0.000000  1
  B  B8  1  0.875496  0.375496  0.000000  1
  B  B9  1  0.615174  0.884826  0.000000  1
  B  B10  1  0.384826  0.115174  0.000000  1
  Ru  Ru11  1  0.219954  0.066549  0.500000  1
  Ru  Ru12  1  0.780046  0.933451  0.500000  1
  Ru  Ru13  1  0.068904  0.786513  0.500000  1
  Ru  Ru14  1  0.713487  0.431096  0.500000  1
  Ru  Ru15  1  0.931096  0.213487  0.500000  1
  Ru  Ru16  1  0.286513  0.568904  0.500000  1
  Ru  Ru17  1  0.566549  0.719954  0.500000  1
  Ru  Ru18  1  0.433451  0.280046  0.500000  1
  Ru  Ru19  1  0.000000  0.500000  0.500000  1
