# generated using pymatgen
data_Y12Ho4Cd4Pt3Rh
_symmetry_space_group_name_H-M   'P 1'
_cell_length_a   9.68863113
_cell_length_b   9.68863119
_cell_length_c   9.68863024
_cell_angle_alpha   60.02070696
_cell_angle_beta   60.02070361
_cell_angle_gamma   60.02070491
_symmetry_Int_Tables_number   1
_chemical_formula_structural   Y12Ho4Cd4Pt3Rh
_chemical_formula_sum   'Y12 Ho4 Cd4 Pt3 Rh1'
_cell_volume   643.39255208
_cell_formula_units_Z   1
loop_
 _symmetry_equiv_pos_site_id
 _symmetry_equiv_pos_as_xyz
  1  'x, y, z'
loop_
 _atom_site_type_symbol
 _atom_site_label
 _atom_site_symmetry_multiplicity
 _atom_site_fract_x
 _atom_site_fract_y
 _atom_site_fract_z
 _atom_site_occupancy
  Y  Y0  1  0.812937  0.190115  0.190115  1
  Y  Y1  1  0.189451  0.810134  0.810134  1
  Y  Y2  1  0.190115  0.812937  0.190115  1
  Y  Y3  1  0.810134  0.189451  0.810134  1
  Y  Y4  1  0.190115  0.190115  0.812937  1
  Y  Y5  1  0.810134  0.810134  0.189451  1
  Y  Y6  1  0.935723  0.564838  0.564838  1
  Y  Y7  1  0.562564  0.936504  0.936504  1
  Y  Y8  1  0.564838  0.935723  0.564838  1
  Y  Y9  1  0.936504  0.562564  0.936504  1
  Y  Y10  1  0.564838  0.564838  0.935723  1
  Y  Y11  1  0.936504  0.936504  0.562564  1
  Ho  Ho12  1  0.350527  0.350527  0.350527  1
  Ho  Ho13  1  0.352086  0.352086  0.944421  1
  Ho  Ho14  1  0.352086  0.944421  0.352086  1
  Ho  Ho15  1  0.944421  0.352086  0.352086  1
  Cd  Cd16  1  0.581109  0.581109  0.581109  1
  Cd  Cd17  1  0.580755  0.580755  0.254587  1
  Cd  Cd18  1  0.580755  0.254587  0.580755  1
  Cd  Cd19  1  0.254587  0.580755  0.580755  1
  Pt  Pt20  1  0.143648  0.143648  0.568117  1
  Pt  Pt21  1  0.143648  0.568117  0.143648  1
  Pt  Pt22  1  0.568117  0.143648  0.143648  1
  Rh  Rh23  1  0.144409  0.144409  0.144409  1
