# generated using pymatgen
data_Sc3GeAs2IrRu2
_symmetry_space_group_name_H-M   'P 1'
_cell_length_a   6.72208672
_cell_length_b   6.70227316
_cell_length_c   3.81006400
_cell_angle_alpha   90.00000000
_cell_angle_beta   90.00000000
_cell_angle_gamma   119.90255615
_symmetry_Int_Tables_number   1
_chemical_formula_structural   Sc3GeAs2IrRu2
_chemical_formula_sum   'Sc3 Ge1 As2 Ir1 Ru2'
_cell_volume   148.80404554
_cell_formula_units_Z   1
loop_
 _symmetry_equiv_pos_site_id
 _symmetry_equiv_pos_as_xyz
  1  'x, y, z'
loop_
 _atom_site_type_symbol
 _atom_site_label
 _atom_site_symmetry_multiplicity
 _atom_site_fract_x
 _atom_site_fract_y
 _atom_site_fract_z
 _atom_site_occupancy
  Sc  Sc0  1  0.413797  0.413468  0.000000  1
  Sc  Sc1  1  0.586203  0.999670  0.000000  1
  Sc  Sc2  1  0.000000  0.585303  0.000000  1
  Ge  Ge3  1  0.000000  0.997426  0.000000  1
  As  As4  1  0.665515  0.334088  0.500000  1
  As  As5  1  0.334485  0.668574  0.500000  1
  Ir  Ir6  1  0.000000  0.244922  0.500000  1
  Ru  Ru7  1  0.755130  0.755839  0.500000  1
  Ru  Ru8  1  0.244870  0.000709  0.500000  1
