# generated using pymatgen
data_SmNi4SnPd
_symmetry_space_group_name_H-M   'P 1'
_cell_length_a   4.94289500
_cell_length_b   4.94289470
_cell_length_c   20.21984200
_cell_angle_alpha   90.00000000
_cell_angle_beta   90.00000000
_cell_angle_gamma   120.00000872
_symmetry_Int_Tables_number   1
_chemical_formula_structural   SmNi4SnPd
_chemical_formula_sum   'Sm4 Ni16 Sn4 Pd4'
_cell_volume   427.82986209
_cell_formula_units_Z   4
loop_
 _symmetry_equiv_pos_site_id
 _symmetry_equiv_pos_as_xyz
  1  'x, y, z'
loop_
 _atom_site_type_symbol
 _atom_site_label
 _atom_site_symmetry_multiplicity
 _atom_site_fract_x
 _atom_site_fract_y
 _atom_site_fract_z
 _atom_site_occupancy
  Sm  Sm0  1  0.333333  0.666667  0.250000  1
  Sm  Sm1  1  0.666667  0.333333  0.750000  1
  Sm  Sm2  1  0.000000  0.000000  0.500000  1
  Sm  Sm3  1  0.000000  0.000000  0.000000  1
  Ni  Ni4  1  0.000000  0.000000  0.250000  1
  Ni  Ni5  1  0.000000  0.000000  0.750000  1
  Ni  Ni6  1  0.333333  0.666667  0.750000  1
  Ni  Ni7  1  0.666667  0.333333  0.250000  1
  Ni  Ni8  1  0.834566  0.165434  0.350153  1
  Ni  Ni9  1  0.834566  0.669132  0.350153  1
  Ni  Ni10  1  0.330868  0.165434  0.350153  1
  Ni  Ni11  1  0.165434  0.834566  0.649847  1
  Ni  Ni12  1  0.165434  0.330868  0.649847  1
  Ni  Ni13  1  0.669132  0.834566  0.649847  1
  Ni  Ni14  1  0.165434  0.834566  0.850153  1
  Ni  Ni15  1  0.165434  0.330868  0.850153  1
  Ni  Ni16  1  0.669132  0.834566  0.850153  1
  Ni  Ni17  1  0.834566  0.165434  0.149847  1
  Ni  Ni18  1  0.834566  0.669132  0.149847  1
  Ni  Ni19  1  0.330868  0.165434  0.149847  1
  Sn  Sn20  1  0.333333  0.666667  0.406135  1
  Sn  Sn21  1  0.666667  0.333333  0.593865  1
  Sn  Sn22  1  0.666667  0.333333  0.906135  1
  Sn  Sn23  1  0.333333  0.666667  0.093865  1
  Pd  Pd24  1  0.333333  0.666667  0.960182  1
  Pd  Pd25  1  0.666667  0.333333  0.039818  1
  Pd  Pd26  1  0.666667  0.333333  0.460182  1
  Pd  Pd27  1  0.333333  0.666667  0.539818  1
