# generated using pymatgen
data_Tb3Nd(ZnSi)4
_symmetry_space_group_name_H-M   'P 1'
_cell_length_a   4.17192300
_cell_length_b   4.17192299
_cell_length_c   16.08189800
_cell_angle_alpha   90.00000000
_cell_angle_beta   90.00000000
_cell_angle_gamma   120.00000801
_symmetry_Int_Tables_number   1
_chemical_formula_structural   Tb3Nd(ZnSi)4
_chemical_formula_sum   'Tb3 Nd1 Zn4 Si4'
_cell_volume   242.40438243
_cell_formula_units_Z   1
loop_
 _symmetry_equiv_pos_site_id
 _symmetry_equiv_pos_as_xyz
  1  'x, y, z'
loop_
 _atom_site_type_symbol
 _atom_site_label
 _atom_site_symmetry_multiplicity
 _atom_site_fract_x
 _atom_site_fract_y
 _atom_site_fract_z
 _atom_site_occupancy
  Tb  Tb0  1  0.000000  0.000000  0.246348  1
  Tb  Tb1  1  0.000000  0.000000  0.753652  1
  Tb  Tb2  1  0.000000  0.000000  0.000000  1
  Nd  Nd3  1  0.000000  0.000000  0.500000  1
  Zn  Zn4  1  0.333333  0.666667  0.135682  1
  Zn  Zn5  1  0.666667  0.333333  0.864318  1
  Zn  Zn6  1  0.666667  0.333333  0.642359  1
  Zn  Zn7  1  0.333333  0.666667  0.357641  1
  Si  Si8  1  0.333333  0.666667  0.624068  1
  Si  Si9  1  0.666667  0.333333  0.375932  1
  Si  Si10  1  0.666667  0.333333  0.116666  1
  Si  Si11  1  0.333333  0.666667  0.883334  1
