# generated using pymatgen
data_Zr3Ta2Al3N
_symmetry_space_group_name_H-M   'P 1'
_cell_length_a   8.06778700
_cell_length_b   8.06778805
_cell_length_c   5.50275100
_cell_angle_alpha   90.00000000
_cell_angle_beta   90.00000000
_cell_angle_gamma   119.99999158
_symmetry_Int_Tables_number   1
_chemical_formula_structural   Zr3Ta2Al3N
_chemical_formula_sum   'Zr6 Ta4 Al6 N2'
_cell_volume   310.18403002
_cell_formula_units_Z   2
loop_
 _symmetry_equiv_pos_site_id
 _symmetry_equiv_pos_as_xyz
  1  'x, y, z'
loop_
 _atom_site_type_symbol
 _atom_site_label
 _atom_site_symmetry_multiplicity
 _atom_site_fract_x
 _atom_site_fract_y
 _atom_site_fract_z
 _atom_site_occupancy
  Zr  Zr0  1  0.229792  0.000000  0.250000  1
  Zr  Zr1  1  0.770208  0.000000  0.750000  1
  Zr  Zr2  1  0.000000  0.229792  0.250000  1
  Zr  Zr3  1  0.000000  0.770208  0.750000  1
  Zr  Zr4  1  0.770208  0.770208  0.250000  1
  Zr  Zr5  1  0.229792  0.229792  0.750000  1
  Ta  Ta6  1  0.333333  0.666667  0.000000  1
  Ta  Ta7  1  0.666667  0.333333  0.000000  1
  Ta  Ta8  1  0.666667  0.333333  0.500000  1
  Ta  Ta9  1  0.333333  0.666667  0.500000  1
  Al  Al10  1  0.587770  0.000000  0.250000  1
  Al  Al11  1  0.412230  0.000000  0.750000  1
  Al  Al12  1  0.000000  0.587770  0.250000  1
  Al  Al13  1  0.000000  0.412230  0.750000  1
  Al  Al14  1  0.412230  0.412230  0.250000  1
  Al  Al15  1  0.587770  0.587770  0.750000  1
  N  N16  1  0.000000  0.000000  0.000000  1
  N  N17  1  0.000000  0.000000  0.500000  1
