# generated using pymatgen
data_Ho5Er3(BBr6)2
_symmetry_space_group_name_H-M   'P 1'
_cell_length_a   3.94067200
_cell_length_b   13.11647430
_cell_length_c   13.58137231
_cell_angle_alpha   89.97568069
_cell_angle_beta   90.00000000
_cell_angle_gamma   90.00000000
_symmetry_Int_Tables_number   1
_chemical_formula_structural   Ho5Er3(BBr6)2
_chemical_formula_sum   'Ho5 Er3 B2 Br12'
_cell_volume   701.99014640
_cell_formula_units_Z   1
loop_
 _symmetry_equiv_pos_site_id
 _symmetry_equiv_pos_as_xyz
  1  'x, y, z'
loop_
 _atom_site_type_symbol
 _atom_site_label
 _atom_site_symmetry_multiplicity
 _atom_site_fract_x
 _atom_site_fract_y
 _atom_site_fract_z
 _atom_site_occupancy
  Ho  Ho0  1  0.000000  0.101250  0.080406  1
  Ho  Ho1  1  0.500000  0.122287  0.856023  1
  Ho  Ho2  1  0.500000  0.877513  0.143809  1
  Ho  Ho3  1  0.500000  0.622304  0.643824  1
  Ho  Ho4  1  0.500000  0.377682  0.356157  1
  Er  Er5  1  0.000000  0.898815  0.919661  1
  Er  Er6  1  0.000000  0.600988  0.419832  1
  Er  Er7  1  0.000000  0.399045  0.580166  1
  B  B8  1  0.500000  0.999641  0.999718  1
  B  B9  1  0.500000  0.500029  0.500027  1
  Br  Br10  1  0.500000  0.268422  0.681637  1
  Br  Br11  1  0.500000  0.731589  0.318378  1
  Br  Br12  1  0.500000  0.768353  0.818278  1
  Br  Br13  1  0.500000  0.232267  0.182206  1
  Br  Br14  1  0.000000  0.261032  0.930962  1
  Br  Br15  1  0.000000  0.739130  0.068604  1
  Br  Br16  1  0.000000  0.481007  0.239600  1
  Br  Br17  1  0.000000  0.519052  0.760428  1
  Br  Br18  1  0.000000  0.980514  0.260739  1
  Br  Br19  1  0.000000  0.019055  0.739507  1
  Br  Br20  1  0.000000  0.239249  0.431452  1
  Br  Br21  1  0.000000  0.760776  0.568590  1
