# generated using pymatgen
data_HoEr3(Al8Pd3)3
_symmetry_space_group_name_H-M   'P 1'
_cell_length_a   7.54013299
_cell_length_b   7.56423769
_cell_length_c   13.16242200
_cell_angle_alpha   84.58530548
_cell_angle_beta   79.08649457
_cell_angle_gamma   60.01856708
_symmetry_Int_Tables_number   1
_chemical_formula_structural   HoEr3(Al8Pd3)3
_chemical_formula_sum   'Ho1 Er3 Al24 Pd9'
_cell_volume   638.50650023
_cell_formula_units_Z   1
loop_
 _symmetry_equiv_pos_site_id
 _symmetry_equiv_pos_as_xyz
  1  'x, y, z'
loop_
 _atom_site_type_symbol
 _atom_site_label
 _atom_site_symmetry_multiplicity
 _atom_site_fract_x
 _atom_site_fract_y
 _atom_site_fract_z
 _atom_site_occupancy
  Ho  Ho0  1  0.393233  0.168704  0.808685  1
  Er  Er1  1  0.606899  0.830941  0.191534  1
  Er  Er2  1  0.733765  0.498183  0.808384  1
  Er  Er3  1  0.266062  0.502064  0.191592  1
  Al  Al4  1  0.684617  0.833171  0.944841  1
  Al  Al5  1  0.315675  0.166321  0.055914  1
  Al  Al6  1  0.146164  0.833022  0.561610  1
  Al  Al7  1  0.853931  0.166982  0.438222  1
  Al  Al8  1  0.479232  0.166623  0.559049  1
  Al  Al9  1  0.520799  0.833345  0.440703  1
  Al  Al10  1  0.217320  0.165246  0.329312  1
  Al  Al11  1  0.783195  0.834417  0.670290  1
  Al  Al12  1  0.437230  0.506751  0.670438  1
  Al  Al13  1  0.562882  0.493612  0.329157  1
  Al  Al14  1  0.108896  0.159723  0.669371  1
  Al  Al15  1  0.890869  0.840285  0.330192  1
  Al  Al16  1  0.353027  0.499797  0.944957  1
  Al  Al17  1  0.646796  0.500747  0.055403  1
  Al  Al18  1  0.014889  0.167781  0.954054  1
  Al  Al19  1  0.984458  0.832227  0.046434  1
  Al  Al20  1  0.186968  0.499395  0.440678  1
  Al  Al21  1  0.813030  0.500635  0.559194  1
  Al  Al22  1  0.733338  0.164019  0.183651  1
  Al  Al23  1  0.266660  0.835326  0.816323  1
  Al  Al24  1  0.061077  0.631071  0.815192  1
  Al  Al25  1  0.938249  0.369516  0.184815  1
  Al  Al26  1  0.855472  0.042100  0.816014  1
  Al  Al27  1  0.145079  0.957881  0.184021  1
  Pd  Pd28  1  0.119880  0.491870  0.638608  1
  Pd  Pd29  1  0.880383  0.508152  0.361267  1
  Pd  Pd30  1  0.656563  0.171750  0.000114  1
  Pd  Pd31  1  0.343236  0.828381  0.000087  1
  Pd  Pd32  1  0.537617  0.166811  0.361326  1
  Pd  Pd33  1  0.462331  0.833338  0.638494  1
  Pd  Pd34  1  0.777782  0.175257  0.637808  1
  Pd  Pd35  1  0.222220  0.824651  0.362052  1
  Pd  Pd36  1  0.000174  0.499904  0.000218  1
