# generated using pymatgen
data_Sc5Co2P12Ru17
_symmetry_space_group_name_H-M   'P 1'
_cell_length_a   12.33266491
_cell_length_b   12.41210951
_cell_length_c   3.88309500
_cell_angle_alpha   90.00000000
_cell_angle_beta   90.00000000
_cell_angle_gamma   120.21331720
_symmetry_Int_Tables_number   1
_chemical_formula_structural   Sc5Co2P12Ru17
_chemical_formula_sum   'Sc5 Co2 P12 Ru17'
_cell_volume   513.65749752
_cell_formula_units_Z   1
loop_
 _symmetry_equiv_pos_site_id
 _symmetry_equiv_pos_as_xyz
  1  'x, y, z'
loop_
 _atom_site_type_symbol
 _atom_site_label
 _atom_site_symmetry_multiplicity
 _atom_site_fract_x
 _atom_site_fract_y
 _atom_site_fract_z
 _atom_site_occupancy
  Sc  Sc0  1  0.666828  0.332537  0.000000  1
  Sc  Sc1  1  0.333172  0.665710  0.000000  1
  Sc  Sc2  1  0.180985  0.181682  0.500000  1
  Sc  Sc3  1  0.819015  0.000697  0.500000  1
  Sc  Sc4  1  0.000000  0.816270  0.500000  1
  Co  Co5  1  0.000000  0.277001  0.500000  1
  Co  Co6  1  0.000000  0.002827  0.000000  1
  P  P7  1  0.369290  0.370317  0.000000  1
  P  P8  1  0.630710  0.001027  0.000000  1
  P  P9  1  0.000000  0.627405  0.000000  1
  P  P10  1  0.836194  0.308720  0.500000  1
  P  P11  1  0.692651  0.523152  0.500000  1
  P  P12  1  0.478660  0.171062  0.500000  1
  P  P13  1  0.307349  0.830500  0.500000  1
  P  P14  1  0.521340  0.692401  0.500000  1
  P  P15  1  0.163806  0.472526  0.500000  1
  P  P16  1  0.828048  0.827239  0.000000  1
  P  P17  1  0.171952  0.999191  0.000000  1
  P  P18  1  0.000000  0.175130  0.000000  1
  Ru  Ru19  1  0.555035  0.557508  0.000000  1
  Ru  Ru20  1  0.444965  0.002472  0.000000  1
  Ru  Ru21  1  0.000000  0.440928  0.000000  1
  Ru  Ru22  1  0.821590  0.190413  0.000000  1
  Ru  Ru23  1  0.811441  0.626999  0.000000  1
  Ru  Ru24  1  0.372309  0.184313  0.000000  1
  Ru  Ru25  1  0.188559  0.815557  0.000000  1
  Ru  Ru26  1  0.627691  0.812004  0.000000  1
  Ru  Ru27  1  0.178410  0.368823  0.000000  1
  Ru  Ru28  1  0.639060  0.130089  0.500000  1
  Ru  Ru29  1  0.872293  0.506462  0.500000  1
  Ru  Ru30  1  0.491558  0.365398  0.500000  1
  Ru  Ru31  1  0.127707  0.634170  0.500000  1
  Ru  Ru32  1  0.508442  0.873840  0.500000  1
  Ru  Ru33  1  0.360940  0.491029  0.500000  1
  Ru  Ru34  1  0.724637  0.724619  0.500000  1
  Ru  Ru35  1  0.275363  0.999983  0.500000  1
