# generated using pymatgen
data_Th7ReIr2
_symmetry_space_group_name_H-M   'P 1'
_cell_length_a   10.06219662
_cell_length_b   10.12916370
_cell_length_c   6.34239437
_cell_angle_alpha   90.00000515
_cell_angle_beta   90.17037691
_cell_angle_gamma   120.22040290
_symmetry_Int_Tables_number   1
_chemical_formula_structural   Th7ReIr2
_chemical_formula_sum   'Th14 Re2 Ir4'
_cell_volume   558.57161945
_cell_formula_units_Z   2
loop_
 _symmetry_equiv_pos_site_id
 _symmetry_equiv_pos_as_xyz
  1  'x, y, z'
loop_
 _atom_site_type_symbol
 _atom_site_label
 _atom_site_symmetry_multiplicity
 _atom_site_fract_x
 _atom_site_fract_y
 _atom_site_fract_z
 _atom_site_occupancy
  Th  Th0  1  0.458075  0.540982  0.295784  1
  Th  Th1  1  0.083888  0.541944  0.297611  1
  Th  Th2  1  0.923593  0.461796  0.795373  1
  Th  Th3  1  0.249188  0.124595  0.504688  1
  Th  Th4  1  0.536368  0.078332  0.793506  1
  Th  Th5  1  0.744016  0.872008  0.003491  1
  Th  Th6  1  0.666246  0.333122  0.293263  1
  Th  Th7  1  0.126389  0.872164  0.005645  1
  Th  Th8  1  0.458075  0.917093  0.295784  1
  Th  Th9  1  0.536368  0.458037  0.793506  1
  Th  Th10  1  0.876082  0.129238  0.504592  1
  Th  Th11  1  0.126389  0.254224  0.005645  1
  Th  Th12  1  0.876082  0.746845  0.504592  1
  Th  Th13  1  0.333219  0.666610  0.785749  1
  Re  Re14  1  0.189154  0.373154  0.551079  1
  Re  Re15  1  0.189154  0.816000  0.551079  1
  Ir  Ir16  1  0.809784  0.622742  0.050312  1
  Ir  Ir17  1  0.809784  0.187042  0.050312  1
  Ir  Ir18  1  0.630431  0.815216  0.550080  1
  Ir  Ir19  1  0.377715  0.188857  0.051905  1
