# generated using pymatgen
data_Er3Co9GeP5
_symmetry_space_group_name_H-M   'P 1'
_cell_length_a   10.53256900
_cell_length_b   3.70261900
_cell_length_c   12.23498000
_cell_angle_alpha   90.00000000
_cell_angle_beta   90.00000000
_cell_angle_gamma   90.00000000
_symmetry_Int_Tables_number   1
_chemical_formula_structural   Er3Co9GeP5
_chemical_formula_sum   'Er6 Co18 Ge2 P10'
_cell_volume   477.14085239
_cell_formula_units_Z   2
loop_
 _symmetry_equiv_pos_site_id
 _symmetry_equiv_pos_as_xyz
  1  'x, y, z'
loop_
 _atom_site_type_symbol
 _atom_site_label
 _atom_site_symmetry_multiplicity
 _atom_site_fract_x
 _atom_site_fract_y
 _atom_site_fract_z
 _atom_site_occupancy
  Er  Er0  1  0.071473  0.750000  0.208365  1
  Er  Er1  1  0.428527  0.750000  0.208365  1
  Er  Er2  1  0.250000  0.750000  0.478110  1
  Er  Er3  1  0.750000  0.250000  0.527765  1
  Er  Er4  1  0.564857  0.250000  0.792623  1
  Er  Er5  1  0.935143  0.250000  0.792623  1
  Co  Co6  1  0.087088  0.250000  0.001078  1
  Co  Co7  1  0.412912  0.250000  0.001078  1
  Co  Co8  1  0.250000  0.750000  0.013057  1
  Co  Co9  1  0.750000  0.750000  0.169254  1
  Co  Co10  1  0.630278  0.250000  0.304093  1
  Co  Co11  1  0.869722  0.250000  0.304093  1
  Co  Co12  1  0.250000  0.250000  0.296999  1
  Co  Co13  1  0.544258  0.750000  0.434127  1
  Co  Co14  1  0.955742  0.750000  0.434127  1
  Co  Co15  1  0.048717  0.250000  0.569705  1
  Co  Co16  1  0.451283  0.250000  0.569705  1
  Co  Co17  1  0.750000  0.750000  0.697731  1
  Co  Co18  1  0.129938  0.750000  0.707992  1
  Co  Co19  1  0.370062  0.750000  0.707992  1
  Co  Co20  1  0.250000  0.250000  0.838889  1
  Co  Co21  1  0.750000  0.250000  0.968793  1
  Co  Co22  1  0.582682  0.750000  0.984304  1
  Co  Co23  1  0.917317  0.750000  0.984304  1
  Ge  Ge24  1  0.603205  0.250000  0.109497  1
  Ge  Ge25  1  0.896795  0.250000  0.109497  1
  P  P26  1  0.250000  0.250000  0.115919  1
  P  P27  1  0.750000  0.750000  0.350052  1
  P  P28  1  0.062545  0.250000  0.385412  1
  P  P29  1  0.437455  0.250000  0.385412  1
  P  P30  1  0.558922  0.750000  0.617341  1
  P  P31  1  0.941078  0.750000  0.617341  1
  P  P32  1  0.250000  0.250000  0.655257  1
  P  P33  1  0.750000  0.750000  0.875994  1
  P  P34  1  0.097966  0.750000  0.891555  1
  P  P35  1  0.402035  0.750000  0.891555  1
