# generated using pymatgen
data_Dy7Ho13(FeBi2)4
_symmetry_space_group_name_H-M   'P 1'
_cell_length_a   7.94399600
_cell_length_b   8.91326700
_cell_length_c   12.38636600
_cell_angle_alpha   90.00000000
_cell_angle_beta   90.00291402
_cell_angle_gamma   90.00000000
_symmetry_Int_Tables_number   1
_chemical_formula_structural   Dy7Ho13(FeBi2)4
_chemical_formula_sum   'Dy7 Ho13 Fe4 Bi8'
_cell_volume   877.04088907
_cell_formula_units_Z   1
loop_
 _symmetry_equiv_pos_site_id
 _symmetry_equiv_pos_as_xyz
  1  'x, y, z'
loop_
 _atom_site_type_symbol
 _atom_site_label
 _atom_site_symmetry_multiplicity
 _atom_site_fract_x
 _atom_site_fract_y
 _atom_site_fract_z
 _atom_site_occupancy
  Dy  Dy0  1  0.347413  0.750000  0.700759  1
  Dy  Dy1  1  0.652576  0.250000  0.299248  1
  Dy  Dy2  1  0.847423  0.250000  0.799247  1
  Dy  Dy3  1  0.152587  0.750000  0.200755  1
  Dy  Dy4  1  0.884416  0.750000  0.812444  1
  Dy  Dy5  1  0.115588  0.250000  0.187554  1
  Dy  Dy6  1  0.384413  0.250000  0.687556  1
  Ho  Ho7  1  0.615563  0.750000  0.312468  1
  Ho  Ho8  1  0.673780  0.536654  0.562531  1
  Ho  Ho9  1  0.326234  0.463384  0.437447  1
  Ho  Ho10  1  0.173792  0.463359  0.937451  1
  Ho  Ho11  1  0.326234  0.036616  0.437447  1
  Ho  Ho12  1  0.826204  0.536643  0.062549  1
  Ho  Ho13  1  0.673780  0.963346  0.562531  1
  Ho  Ho14  1  0.826204  0.963357  0.062549  1
  Ho  Ho15  1  0.173792  0.036641  0.937451  1
  Ho  Ho16  1  0.056205  0.750000  0.495246  1
  Ho  Ho17  1  0.943785  0.250000  0.504756  1
  Ho  Ho18  1  0.556211  0.250000  0.004756  1
  Ho  Ho19  1  0.443799  0.750000  0.995248  1
  Fe  Fe20  1  0.070996  0.750000  0.990904  1
  Fe  Fe21  1  0.928996  0.250000  0.009097  1
  Fe  Fe22  1  0.571003  0.250000  0.509098  1
  Fe  Fe23  1  0.429007  0.750000  0.490888  1
  Bi  Bi24  1  0.570874  0.507443  0.827035  1
  Bi  Bi25  1  0.429145  0.492575  0.172976  1
  Bi  Bi26  1  0.070874  0.492556  0.672967  1
  Bi  Bi27  1  0.429145  0.007425  0.172976  1
  Bi  Bi28  1  0.929105  0.507461  0.327032  1
  Bi  Bi29  1  0.570874  0.992557  0.827035  1
  Bi  Bi30  1  0.929105  0.992539  0.327032  1
  Bi  Bi31  1  0.070874  0.007444  0.672967  1
