# generated using pymatgen
data_Ac2Yb4Ir3
_symmetry_space_group_name_H-M   'P 1'
_cell_length_a   7.70738100
_cell_length_b   7.82251345
_cell_length_c   4.43499100
_cell_angle_alpha   90.00000000
_cell_angle_beta   90.00000000
_cell_angle_gamma   119.51430800
_symmetry_Int_Tables_number   1
_chemical_formula_structural   Ac2Yb4Ir3
_chemical_formula_sum   'Ac2 Yb4 Ir3'
_cell_volume   232.69191181
_cell_formula_units_Z   1
loop_
 _symmetry_equiv_pos_site_id
 _symmetry_equiv_pos_as_xyz
  1  'x, y, z'
loop_
 _atom_site_type_symbol
 _atom_site_label
 _atom_site_symmetry_multiplicity
 _atom_site_fract_x
 _atom_site_fract_y
 _atom_site_fract_z
 _atom_site_occupancy
  Ac  Ac0  1  0.999324  0.415402  0.500000  1
  Ac  Ac1  1  0.583922  0.584598  0.500000  1
  Yb  Yb2  1  0.411105  0.000000  0.500000  1
  Yb  Yb3  1  0.011261  0.761258  0.000000  1
  Yb  Yb4  1  0.250004  0.238742  0.000000  1
  Yb  Yb5  1  0.740819  0.000000  0.000000  1
  Ir  Ir6  1  0.333614  0.659309  0.000000  1
  Ir  Ir7  1  0.674305  0.340691  0.000000  1
  Ir  Ir8  1  0.995645  0.000000  0.500000  1
