# generated using pymatgen
data_Gd2NiRu3
_symmetry_space_group_name_H-M   'P 1'
_cell_length_a   5.27663529
_cell_length_b   5.27663562
_cell_length_c   5.27663500
_cell_angle_alpha   59.99999761
_cell_angle_beta   59.99999553
_cell_angle_gamma   60.00000271
_symmetry_Int_Tables_number   1
_chemical_formula_structural   Gd2NiRu3
_chemical_formula_sum   'Gd2 Ni1 Ru3'
_cell_volume   103.88580862
_cell_formula_units_Z   1
loop_
 _symmetry_equiv_pos_site_id
 _symmetry_equiv_pos_as_xyz
  1  'x, y, z'
loop_
 _atom_site_type_symbol
 _atom_site_label
 _atom_site_symmetry_multiplicity
 _atom_site_fract_x
 _atom_site_fract_y
 _atom_site_fract_z
 _atom_site_occupancy
  Gd  Gd0  1  0.250001  0.250001  0.250001  1
  Gd  Gd1  1  0.000000  0.000000  0.000000  1
  Ni  Ni2  1  0.625000  0.625000  0.625000  1
  Ru  Ru3  1  0.625000  0.124999  0.625000  1
  Ru  Ru4  1  0.124999  0.625000  0.625000  1
  Ru  Ru5  1  0.625000  0.625000  0.124999  1
