# generated using pymatgen
data_Hf6Ti2Nb2CuSn6Ge
_symmetry_space_group_name_H-M   'P 1'
_cell_length_a   8.51121900
_cell_length_b   8.51122023
_cell_length_c   5.71932600
_cell_angle_alpha   90.00000000
_cell_angle_beta   90.00000000
_cell_angle_gamma   119.99999912
_symmetry_Int_Tables_number   1
_chemical_formula_structural   Hf6Ti2Nb2CuSn6Ge
_chemical_formula_sum   'Hf6 Ti2 Nb2 Cu1 Sn6 Ge1'
_cell_volume   358.80549117
_cell_formula_units_Z   1
loop_
 _symmetry_equiv_pos_site_id
 _symmetry_equiv_pos_as_xyz
  1  'x, y, z'
loop_
 _atom_site_type_symbol
 _atom_site_label
 _atom_site_symmetry_multiplicity
 _atom_site_fract_x
 _atom_site_fract_y
 _atom_site_fract_z
 _atom_site_occupancy
  Hf  Hf0  1  0.265127  0.999876  0.251040  1
  Hf  Hf1  1  0.265127  0.265251  0.748960  1
  Hf  Hf2  1  0.000124  0.734873  0.748960  1
  Hf  Hf3  1  0.000124  0.265251  0.251040  1
  Hf  Hf4  1  0.734749  0.734873  0.251040  1
  Hf  Hf5  1  0.734749  0.999876  0.748960  1
  Ti  Ti6  1  0.333333  0.666667  0.000000  1
  Ti  Ti7  1  0.666667  0.333333  0.500000  1
  Nb  Nb8  1  0.666667  0.333333  0.000000  1
  Nb  Nb9  1  0.333333  0.666667  0.500000  1
  Cu  Cu10  1  0.000000  0.000000  0.500000  1
  Sn  Sn11  1  0.608100  0.999858  0.251436  1
  Sn  Sn12  1  0.608100  0.608242  0.748564  1
  Sn  Sn13  1  0.000142  0.391900  0.748564  1
  Sn  Sn14  1  0.000142  0.608242  0.251436  1
  Sn  Sn15  1  0.391758  0.391900  0.251436  1
  Sn  Sn16  1  0.391758  0.999858  0.748564  1
  Ge  Ge17  1  0.000000  0.000000  0.000000  1
