# generated using pymatgen
data_Y2Ho3Sn4
_symmetry_space_group_name_H-M   'P 1'
_cell_length_a   8.02413500
_cell_length_b   8.16209200
_cell_length_c   15.46138900
_cell_angle_alpha   90.00000000
_cell_angle_beta   90.00000000
_cell_angle_gamma   90.00000000
_symmetry_Int_Tables_number   1
_chemical_formula_structural   Y2Ho3Sn4
_chemical_formula_sum   'Y8 Ho12 Sn16'
_cell_volume   1012.62400707
_cell_formula_units_Z   4
loop_
 _symmetry_equiv_pos_site_id
 _symmetry_equiv_pos_as_xyz
  1  'x, y, z'
loop_
 _atom_site_type_symbol
 _atom_site_label
 _atom_site_symmetry_multiplicity
 _atom_site_fract_x
 _atom_site_fract_y
 _atom_site_fract_z
 _atom_site_occupancy
  Y  Y0  1  0.522799  0.320507  0.901967  1
  Y  Y1  1  0.022799  0.179493  0.598033  1
  Y  Y2  1  0.477201  0.679493  0.401967  1
  Y  Y3  1  0.977201  0.820507  0.098033  1
  Y  Y4  1  0.477201  0.679493  0.098033  1
  Y  Y5  1  0.977201  0.820507  0.401967  1
  Y  Y6  1  0.522799  0.320507  0.598033  1
  Y  Y7  1  0.022799  0.179493  0.901967  1
  Ho  Ho8  1  0.367188  0.836038  0.878037  1
  Ho  Ho9  1  0.867188  0.663962  0.621963  1
  Ho  Ho10  1  0.632812  0.163962  0.378037  1
  Ho  Ho11  1  0.132812  0.336038  0.121963  1
  Ho  Ho12  1  0.632812  0.163962  0.121963  1
  Ho  Ho13  1  0.132812  0.336038  0.378037  1
  Ho  Ho14  1  0.367188  0.836038  0.621963  1
  Ho  Ho15  1  0.867188  0.663962  0.878037  1
  Ho  Ho16  1  0.198227  0.503106  0.750000  1
  Ho  Ho17  1  0.698227  0.996894  0.750000  1
  Ho  Ho18  1  0.801773  0.496894  0.250000  1
  Ho  Ho19  1  0.301773  0.003106  0.250000  1
  Sn  Sn20  1  0.292348  0.034584  0.041848  1
  Sn  Sn21  1  0.792348  0.465416  0.458152  1
  Sn  Sn22  1  0.707652  0.965416  0.541848  1
  Sn  Sn23  1  0.207652  0.534584  0.958152  1
  Sn  Sn24  1  0.707652  0.965416  0.958152  1
  Sn  Sn25  1  0.207652  0.534584  0.541848  1
  Sn  Sn26  1  0.292348  0.034584  0.458152  1
  Sn  Sn27  1  0.792348  0.465416  0.041848  1
  Sn  Sn28  1  0.564961  0.620312  0.750000  1
  Sn  Sn29  1  0.064961  0.879688  0.750000  1
  Sn  Sn30  1  0.435039  0.379688  0.250000  1
  Sn  Sn31  1  0.935039  0.120312  0.250000  1
  Sn  Sn32  1  0.330554  0.146946  0.750000  1
  Sn  Sn33  1  0.830554  0.353054  0.750000  1
  Sn  Sn34  1  0.669446  0.853054  0.250000  1
  Sn  Sn35  1  0.169446  0.646946  0.250000  1
