# generated using pymatgen
data_Ca8Tb3Pr9Sn16
_symmetry_space_group_name_H-M   'P 1'
_cell_length_a   8.03494566
_cell_length_b   8.49646247
_cell_length_c   16.01637987
_cell_angle_alpha   90.05607979
_cell_angle_beta   89.99711745
_cell_angle_gamma   89.94738591
_symmetry_Int_Tables_number   1
_chemical_formula_structural   Ca8Tb3Pr9Sn16
_chemical_formula_sum   'Ca8 Tb3 Pr9 Sn16'
_cell_volume   1093.41507323
_cell_formula_units_Z   1
loop_
 _symmetry_equiv_pos_site_id
 _symmetry_equiv_pos_as_xyz
  1  'x, y, z'
loop_
 _atom_site_type_symbol
 _atom_site_label
 _atom_site_symmetry_multiplicity
 _atom_site_fract_x
 _atom_site_fract_y
 _atom_site_fract_z
 _atom_site_occupancy
  Ca  Ca0  1  0.169706  0.328440  0.123644  1
  Ca  Ca1  1  0.668187  0.171797  0.123943  1
  Ca  Ca2  1  0.168532  0.328323  0.377369  1
  Ca  Ca3  1  0.330030  0.829430  0.622588  1
  Ca  Ca4  1  0.162369  0.499068  0.748838  1
  Ca  Ca5  1  0.661434  0.001383  0.748307  1
  Ca  Ca6  1  0.840071  0.498729  0.249777  1
  Ca  Ca7  1  0.337609  0.002548  0.249628  1
  Tb  Tb8  1  0.330900  0.828198  0.875661  1
  Tb  Tb9  1  0.831459  0.671179  0.624092  1
  Tb  Tb10  1  0.666713  0.172937  0.375843  1
  Pr  Pr11  1  0.832695  0.673930  0.875869  1
  Pr  Pr12  1  0.491292  0.315404  0.904316  1
  Pr  Pr13  1  0.993490  0.183970  0.595673  1
  Pr  Pr14  1  0.506899  0.685371  0.404040  1
  Pr  Pr15  1  0.009726  0.814047  0.097159  1
  Pr  Pr16  1  0.508001  0.684232  0.096580  1
  Pr  Pr17  1  0.008455  0.814845  0.404603  1
  Pr  Pr18  1  0.490524  0.316430  0.595123  1
  Pr  Pr19  1  0.992587  0.183317  0.904143  1
  Sn  Sn20  1  0.327011  0.033280  0.037304  1
  Sn  Sn21  1  0.823511  0.462267  0.462593  1
  Sn  Sn22  1  0.676144  0.961983  0.536699  1
  Sn  Sn23  1  0.174718  0.536945  0.960858  1
  Sn  Sn24  1  0.667335  0.964103  0.961094  1
  Sn  Sn25  1  0.166239  0.535749  0.539478  1
  Sn  Sn26  1  0.332606  0.036208  0.460135  1
  Sn  Sn27  1  0.828776  0.463891  0.038909  1
  Sn  Sn28  1  0.529981  0.606346  0.749149  1
  Sn  Sn29  1  0.032661  0.891732  0.749755  1
  Sn  Sn30  1  0.469755  0.394431  0.252198  1
  Sn  Sn31  1  0.965257  0.104856  0.252813  1
  Sn  Sn32  1  0.290569  0.140278  0.750707  1
  Sn  Sn33  1  0.789675  0.362255  0.749080  1
  Sn  Sn34  1  0.711420  0.861083  0.251518  1
  Sn  Sn35  1  0.213660  0.641010  0.250516  1
