# generated using pymatgen
data_Zr2FeB2AsRu4
_symmetry_space_group_name_H-M   'P 1'
_cell_length_a   9.24092900
_cell_length_b   9.24092900
_cell_length_c   3.07677800
_cell_angle_alpha   90.00000000
_cell_angle_beta   90.00000000
_cell_angle_gamma   90.00000000
_symmetry_Int_Tables_number   1
_chemical_formula_structural   Zr2FeB2AsRu4
_chemical_formula_sum   'Zr4 Fe2 B4 As2 Ru8'
_cell_volume   262.74074591
_cell_formula_units_Z   2
loop_
 _symmetry_equiv_pos_site_id
 _symmetry_equiv_pos_as_xyz
  1  'x, y, z'
loop_
 _atom_site_type_symbol
 _atom_site_label
 _atom_site_symmetry_multiplicity
 _atom_site_fract_x
 _atom_site_fract_y
 _atom_site_fract_z
 _atom_site_occupancy
  Zr  Zr0  1  0.673747  0.173747  0.000000  1
  Zr  Zr1  1  0.326253  0.826253  0.000000  1
  Zr  Zr2  1  0.173747  0.326253  0.000000  1
  Zr  Zr3  1  0.826253  0.673747  0.000000  1
  Fe  Fe4  1  0.500000  0.000000  0.500000  1
  Fe  Fe5  1  0.000000  0.500000  0.500000  1
  B  B6  1  0.115179  0.615179  0.000000  1
  B  B7  1  0.884821  0.384821  0.000000  1
  B  B8  1  0.615179  0.884821  0.000000  1
  B  B9  1  0.384821  0.115179  0.000000  1
  As  As10  1  0.000000  0.000000  0.000000  1
  As  As11  1  0.500000  0.500000  0.000000  1
  Ru  Ru12  1  0.218801  0.064365  0.500000  1
  Ru  Ru13  1  0.781199  0.935635  0.500000  1
  Ru  Ru14  1  0.064365  0.781199  0.500000  1
  Ru  Ru15  1  0.718801  0.435635  0.500000  1
  Ru  Ru16  1  0.935635  0.218801  0.500000  1
  Ru  Ru17  1  0.281199  0.564365  0.500000  1
  Ru  Ru18  1  0.564365  0.718801  0.500000  1
  Ru  Ru19  1  0.435635  0.281199  0.500000  1
