# generated using pymatgen
data_NdTm(PN3)2
_symmetry_space_group_name_H-M   'P 1'
_cell_length_a   7.20482661
_cell_length_b   7.20482714
_cell_length_c   4.86594025
_cell_angle_alpha   88.21531148
_cell_angle_beta   88.21530152
_cell_angle_gamma   101.64923325
_symmetry_Int_Tables_number   1
_chemical_formula_structural   NdTm(PN3)2
_chemical_formula_sum   'Nd2 Tm2 P4 N12'
_cell_volume   247.08503933
_cell_formula_units_Z   2
loop_
 _symmetry_equiv_pos_site_id
 _symmetry_equiv_pos_as_xyz
  1  'x, y, z'
loop_
 _atom_site_type_symbol
 _atom_site_label
 _atom_site_symmetry_multiplicity
 _atom_site_fract_x
 _atom_site_fract_y
 _atom_site_fract_z
 _atom_site_occupancy
  Nd  Nd0  1  0.098455  0.901545  0.250000  1
  Nd  Nd1  1  0.901545  0.098455  0.750000  1
  Tm  Tm2  1  0.295781  0.704219  0.750000  1
  Tm  Tm3  1  0.704219  0.295781  0.250000  1
  P  P4  1  0.376680  0.228923  0.808750  1
  P  P5  1  0.623320  0.771077  0.191250  1
  P  P6  1  0.771077  0.623320  0.691250  1
  P  P7  1  0.228923  0.376680  0.308750  1
  N  N8  1  0.976722  0.750265  0.737015  1
  N  N9  1  0.764161  0.394883  0.788385  1
  N  N10  1  0.750265  0.976722  0.237015  1
  N  N11  1  0.235839  0.605117  0.211615  1
  N  N12  1  0.023278  0.249735  0.262985  1
  N  N13  1  0.249735  0.023278  0.762985  1
  N  N14  1  0.605117  0.235839  0.711615  1
  N  N15  1  0.609416  0.715752  0.861816  1
  N  N16  1  0.390584  0.284248  0.138184  1
  N  N17  1  0.394883  0.764161  0.288385  1
  N  N18  1  0.715752  0.609416  0.361816  1
  N  N19  1  0.284248  0.390584  0.638184  1
