# generated using pymatgen
data_SmCr4(CuO4)3
_symmetry_space_group_name_H-M   'P 1'
_cell_length_a   6.42531311
_cell_length_b   6.42532664
_cell_length_c   6.42531940
_cell_angle_alpha   70.49377784
_cell_angle_beta   70.51809667
_cell_angle_gamma   109.42547241
_symmetry_Int_Tables_number   1
_chemical_formula_structural   SmCr4(CuO4)3
_chemical_formula_sum   'Sm1 Cr4 Cu3 O12'
_cell_volume   204.20318405
_cell_formula_units_Z   1
loop_
 _symmetry_equiv_pos_site_id
 _symmetry_equiv_pos_as_xyz
  1  'x, y, z'
loop_
 _atom_site_type_symbol
 _atom_site_label
 _atom_site_symmetry_multiplicity
 _atom_site_fract_x
 _atom_site_fract_y
 _atom_site_fract_z
 _atom_site_occupancy
  Sm  Sm0  1  0.000002  0.000001  0.000000  1
  Cr  Cr1  1  0.999998  0.499996  0.000008  1
  Cr  Cr2  1  0.499973  0.499981  0.500021  1
  Cr  Cr3  1  0.500002  0.999989  0.000031  1
  Cr  Cr4  1  0.999994  0.999986  0.499977  1
  Cu  Cu5  1  0.500006  0.000006  0.499995  1
  Cu  Cu6  1  0.500004  0.500007  0.999993  1
  Cu  Cu7  1  0.000006  0.500008  0.499996  1
  O  O8  1  0.859172  0.692104  0.832936  1
  O  O9  1  0.474962  0.307901  0.832926  1
  O  O10  1  0.525039  0.692107  0.167066  1
  O  O11  1  0.140832  0.307897  0.167065  1
  O  O12  1  0.833359  0.140803  0.692553  1
  O  O13  1  0.833360  0.525928  0.307433  1
  O  O14  1  0.166639  0.474077  0.692563  1
  O  O15  1  0.166648  0.859203  0.307439  1
  O  O16  1  0.308283  0.167286  0.524432  1
  O  O17  1  0.691720  0.167290  0.140999  1
  O  O18  1  0.308287  0.832718  0.859000  1
  O  O19  1  0.691714  0.832713  0.475565  1
