# generated using pymatgen
data_Ca4Dy2Si24Os3Ru5
_symmetry_space_group_name_H-M   'P 1'
_cell_length_a   10.16080156
_cell_length_b   10.16080068
_cell_length_c   8.16066933
_cell_angle_alpha   90.01299635
_cell_angle_beta   90.01300717
_cell_angle_gamma   132.63651509
_symmetry_Int_Tables_number   1
_chemical_formula_structural   Ca4Dy2Si24Os3Ru5
_chemical_formula_sum   'Ca4 Dy2 Si24 Os3 Ru5'
_cell_volume   619.81493599
_cell_formula_units_Z   1
loop_
 _symmetry_equiv_pos_site_id
 _symmetry_equiv_pos_as_xyz
  1  'x, y, z'
loop_
 _atom_site_type_symbol
 _atom_site_label
 _atom_site_symmetry_multiplicity
 _atom_site_fract_x
 _atom_site_fract_y
 _atom_site_fract_z
 _atom_site_occupancy
  Ca  Ca0  1  0.500161  0.499839  0.500000  1
  Ca  Ca1  1  0.999752  0.000248  0.000000  1
  Ca  Ca2  1  0.500461  0.000234  0.749956  1
  Ca  Ca3  1  0.999766  0.499539  0.250044  1
  Dy  Dy4  1  0.499799  0.999988  0.250019  1
  Dy  Dy5  1  0.000012  0.500201  0.749981  1
  Si  Si6  1  0.795881  0.204119  0.500000  1
  Si  Si7  1  0.295338  0.704662  0.000000  1
  Si  Si8  1  0.204703  0.795297  0.500000  1
  Si  Si9  1  0.704651  0.295349  0.000000  1
  Si  Si10  1  0.332368  0.335352  0.832194  1
  Si  Si11  1  0.664648  0.667632  0.167806  1
  Si  Si12  1  0.167867  0.164242  0.331920  1
  Si  Si13  1  0.835758  0.832133  0.668080  1
  Si  Si14  1  0.122374  0.889954  0.729788  1
  Si  Si15  1  0.110046  0.877626  0.270212  1
  Si  Si16  1  0.607775  0.375260  0.228977  1
  Si  Si17  1  0.624740  0.392225  0.771023  1
  Si  Si18  1  0.874503  0.107041  0.269431  1
  Si  Si19  1  0.892959  0.125497  0.730569  1
  Si  Si20  1  0.390698  0.623286  0.770470  1
  Si  Si21  1  0.376714  0.609302  0.229530  1
  Si  Si22  1  0.346120  0.112853  0.506003  1
  Si  Si23  1  0.887147  0.653880  0.493997  1
  Si  Si24  1  0.387027  0.154224  0.008884  1
  Si  Si25  1  0.845776  0.612973  0.991116  1
  Si  Si26  1  0.653871  0.886506  0.489929  1
  Si  Si27  1  0.113494  0.346129  0.510071  1
  Si  Si28  1  0.613155  0.847022  0.994199  1
  Si  Si29  1  0.152978  0.386845  0.005801  1
  Os  Os30  1  0.670932  0.329068  0.500000  1
  Os  Os31  1  0.170215  0.829785  0.000000  1
  Os  Os32  1  0.329868  0.670132  0.500000  1
  Ru  Ru33  1  0.829007  0.170993  0.000000  1
  Ru  Ru34  1  0.126755  0.126642  0.624744  1
  Ru  Ru35  1  0.873358  0.873245  0.375256  1
  Ru  Ru36  1  0.373084  0.373758  0.124767  1
  Ru  Ru37  1  0.626242  0.626916  0.875233  1
