# generated using pymatgen
data_CeTmTh2(Al3Ir)6
_symmetry_space_group_name_H-M   'P 1'
_cell_length_a   7.61282716
_cell_length_b   7.61606871
_cell_length_c   9.45539500
_cell_angle_alpha   90.00000000
_cell_angle_beta   90.00000000
_cell_angle_gamma   119.50883866
_symmetry_Int_Tables_number   1
_chemical_formula_structural   CeTmTh2(Al3Ir)6
_chemical_formula_sum   'Ce1 Tm1 Th2 Al18 Ir6'
_cell_volume   477.10653372
_cell_formula_units_Z   1
loop_
 _symmetry_equiv_pos_site_id
 _symmetry_equiv_pos_as_xyz
  1  'x, y, z'
loop_
 _atom_site_type_symbol
 _atom_site_label
 _atom_site_symmetry_multiplicity
 _atom_site_fract_x
 _atom_site_fract_y
 _atom_site_fract_z
 _atom_site_occupancy
  Ce  Ce0  1  0.002605  0.328264  0.750000  1
  Tm  Tm1  1  0.327819  0.005356  0.750000  1
  Th  Th2  1  0.994987  0.671436  0.250000  1
  Th  Th3  1  0.670692  0.994463  0.250000  1
  Al  Al4  1  0.135799  0.133665  0.250000  1
  Al  Al5  1  0.871607  0.871480  0.750000  1
  Al  Al6  1  0.006033  0.335721  0.071614  1
  Al  Al7  1  0.001077  0.667208  0.919543  1
  Al  Al8  1  0.001077  0.667208  0.580457  1
  Al  Al9  1  0.335438  0.004952  0.431385  1
  Al  Al10  1  0.006033  0.335721  0.428386  1
  Al  Al11  1  0.661355  0.997967  0.580376  1
  Al  Al12  1  0.661355  0.997967  0.919624  1
  Al  Al13  1  0.335438  0.004952  0.068615  1
  Al  Al14  1  0.333947  0.332009  0.556129  1
  Al  Al15  1  0.663198  0.663080  0.456364  1
  Al  Al16  1  0.663198  0.663080  0.043636  1
  Al  Al17  1  0.333947  0.332009  0.943871  1
  Al  Al18  1  0.341964  0.544206  0.250000  1
  Al  Al19  1  0.657232  0.448916  0.750000  1
  Al  Al20  1  0.544074  0.339354  0.250000  1
  Al  Al21  1  0.449500  0.659914  0.750000  1
  Ir  Ir22  1  0.673506  0.328236  0.000048  1
  Ir  Ir23  1  0.328170  0.672993  0.000466  1
  Ir  Ir24  1  0.328170  0.672993  0.499534  1
  Ir  Ir25  1  0.673506  0.328236  0.499952  1
  Ir  Ir26  1  0.999138  0.999307  0.000351  1
  Ir  Ir27  1  0.999138  0.999307  0.499649  1
