# generated using pymatgen
data_Ti13Al9(Fe3Co)2
_symmetry_space_group_name_H-M   'P 1'
_cell_length_a   8.47868732
_cell_length_b   8.48149634
_cell_length_c   8.47868763
_cell_angle_alpha   59.81208075
_cell_angle_beta   59.78016321
_cell_angle_gamma   59.81209679
_symmetry_Int_Tables_number   1
_chemical_formula_structural   Ti13Al9(Fe3Co)2
_chemical_formula_sum   'Ti13 Al9 Fe6 Co2'
_cell_volume   429.19310061
_cell_formula_units_Z   1
loop_
 _symmetry_equiv_pos_site_id
 _symmetry_equiv_pos_as_xyz
  1  'x, y, z'
loop_
 _atom_site_type_symbol
 _atom_site_label
 _atom_site_symmetry_multiplicity
 _atom_site_fract_x
 _atom_site_fract_y
 _atom_site_fract_z
 _atom_site_occupancy
  Ti  Ti0  1  0.208388  0.210382  0.793127  1
  Ti  Ti1  1  0.793127  0.210382  0.208388  1
  Ti  Ti2  1  0.209871  0.790720  0.209871  1
  Ti  Ti3  1  0.802297  0.800223  0.180948  1
  Ti  Ti4  1  0.180948  0.800223  0.802297  1
  Ti  Ti5  1  0.801336  0.181888  0.801336  1
  Ti  Ti6  1  0.381305  0.381462  0.381305  1
  Ti  Ti7  1  0.383223  0.857797  0.383223  1
  Ti  Ti8  1  0.858476  0.384034  0.381613  1
  Ti  Ti9  1  0.381613  0.384034  0.858476  1
  Ti  Ti10  1  0.841731  0.469264  0.841731  1
  Ti  Ti11  1  0.468630  0.842715  0.841906  1
  Ti  Ti12  1  0.841906  0.842715  0.468630  1
  Al  Al13  1  0.159350  0.158688  0.159350  1
  Al  Al14  1  0.161364  0.521438  0.161364  1
  Al  Al15  1  0.521445  0.161971  0.161788  1
  Al  Al16  1  0.161788  0.161971  0.521445  1
  Al  Al17  1  0.617984  0.617974  0.617984  1
  Al  Al18  1  0.618063  0.146078  0.618063  1
  Al  Al19  1  0.145704  0.617229  0.619045  1
  Al  Al20  1  0.619045  0.617229  0.145704  1
  Al  Al21  1  0.828235  0.828610  0.828235  1
  Fe  Fe22  1  0.002542  0.498070  0.002542  1
  Fe  Fe23  1  0.501547  0.503030  0.000800  1
  Fe  Fe24  1  0.000800  0.503030  0.501547  1
  Fe  Fe25  1  0.502487  0.000133  0.502487  1
  Fe  Fe26  1  0.500273  0.500265  0.500273  1
  Fe  Fe27  1  0.004238  0.003669  0.004238  1
  Co  Co28  1  0.003813  0.002387  0.498468  1
  Co  Co29  1  0.498468  0.002387  0.003813  1
