# generated using pymatgen
data_Cs12TbYbSe8
_symmetry_space_group_name_H-M   'P 1'
_cell_length_a   11.61668500
_cell_length_b   11.61668534
_cell_length_c   8.79068200
_cell_angle_alpha   90.00000000
_cell_angle_beta   90.00000000
_cell_angle_gamma   119.99999618
_symmetry_Int_Tables_number   1
_chemical_formula_structural   Cs12TbYbSe8
_chemical_formula_sum   'Cs12 Tb1 Yb1 Se8'
_cell_volume   1027.34818323
_cell_formula_units_Z   1
loop_
 _symmetry_equiv_pos_site_id
 _symmetry_equiv_pos_as_xyz
  1  'x, y, z'
loop_
 _atom_site_type_symbol
 _atom_site_label
 _atom_site_symmetry_multiplicity
 _atom_site_fract_x
 _atom_site_fract_y
 _atom_site_fract_z
 _atom_site_occupancy
  Cs  Cs0  1  0.136359  0.863641  0.537995  1
  Cs  Cs1  1  0.282104  0.141051  0.050114  1
  Cs  Cs2  1  0.858949  0.717896  0.050114  1
  Cs  Cs3  1  0.136359  0.272717  0.537995  1
  Cs  Cs4  1  0.727283  0.863641  0.537995  1
  Cs  Cs5  1  0.858949  0.141051  0.050114  1
  Cs  Cs6  1  0.534867  0.465133  0.367537  1
  Cs  Cs7  1  0.056446  0.528223  0.854725  1
  Cs  Cs8  1  0.471777  0.943554  0.854725  1
  Cs  Cs9  1  0.534867  0.069734  0.367537  1
  Cs  Cs10  1  0.930266  0.465133  0.367537  1
  Cs  Cs11  1  0.471777  0.528223  0.854725  1
  Tb  Tb12  1  0.333333  0.666667  0.255130  1
  Yb  Yb13  1  0.666667  0.333333  0.758873  1
  Se  Se14  1  0.333333  0.666667  0.568467  1
  Se  Se15  1  0.666667  0.333333  0.082626  1
  Se  Se16  1  0.204134  0.795866  0.150942  1
  Se  Se17  1  0.395001  0.197501  0.656789  1
  Se  Se18  1  0.802499  0.604999  0.656789  1
  Se  Se19  1  0.204134  0.408270  0.150942  1
  Se  Se20  1  0.591730  0.795866  0.150942  1
  Se  Se21  1  0.802499  0.197501  0.656789  1
