# generated using pymatgen
data_Tb12SiTc2Ni2Sn
_symmetry_space_group_name_H-M   'P 1'
_cell_length_a   8.44078915
_cell_length_b   8.44078978
_cell_length_c   8.44078882
_cell_angle_alpha   103.97784730
_cell_angle_beta   111.22205798
_cell_angle_gamma   113.35767589
_symmetry_Int_Tables_number   1
_chemical_formula_structural   Tb12SiTc2Ni2Sn
_chemical_formula_sum   'Tb12 Si1 Tc2 Ni2 Sn1'
_cell_volume   459.61483365
_cell_formula_units_Z   1
loop_
 _symmetry_equiv_pos_site_id
 _symmetry_equiv_pos_as_xyz
  1  'x, y, z'
loop_
 _atom_site_type_symbol
 _atom_site_label
 _atom_site_symmetry_multiplicity
 _atom_site_fract_x
 _atom_site_fract_y
 _atom_site_fract_z
 _atom_site_occupancy
  Tb  Tb0  1  0.694046  0.263722  0.957767  1
  Tb  Tb1  1  0.305954  0.736278  0.042233  1
  Tb  Tb2  1  0.694046  0.736278  0.430324  1
  Tb  Tb3  1  0.305954  0.263722  0.569676  1
  Tb  Tb4  1  0.815293  0.147101  0.331808  1
  Tb  Tb5  1  0.815293  0.483485  0.668192  1
  Tb  Tb6  1  0.184707  0.852899  0.668192  1
  Tb  Tb7  1  0.184707  0.516515  0.331808  1
  Tb  Tb8  1  0.601051  0.779734  0.821318  1
  Tb  Tb9  1  0.958417  0.779734  0.178682  1
  Tb  Tb10  1  0.041583  0.220266  0.821318  1
  Tb  Tb11  1  0.398949  0.220266  0.178682  1
  Si  Si12  1  0.500000  0.500000  0.000000  1
  Tc  Tc13  1  0.822551  0.500000  0.322551  1
  Tc  Tc14  1  0.177449  0.500000  0.677449  1
  Ni  Ni15  1  0.000000  0.116977  0.116977  1
  Ni  Ni16  1  0.000000  0.883023  0.883023  1
  Sn  Sn17  1  0.500000  0.000000  0.500000  1
