# generated using pymatgen
data_Sr4Cd2IrWO12
_symmetry_space_group_name_H-M   'P 1'
_cell_length_a   5.79095027
_cell_length_b   5.94735294
_cell_length_c   8.23308732
_cell_angle_alpha   89.51080548
_cell_angle_beta   90.03213996
_cell_angle_gamma   90.01524633
_symmetry_Int_Tables_number   1
_chemical_formula_structural   Sr4Cd2IrWO12
_chemical_formula_sum   'Sr4 Cd2 Ir1 W1 O12'
_cell_volume   283.54393128
_cell_formula_units_Z   1
loop_
 _symmetry_equiv_pos_site_id
 _symmetry_equiv_pos_as_xyz
  1  'x, y, z'
loop_
 _atom_site_type_symbol
 _atom_site_label
 _atom_site_symmetry_multiplicity
 _atom_site_fract_x
 _atom_site_fract_y
 _atom_site_fract_z
 _atom_site_occupancy
  Sr  Sr0  1  0.488378  0.046842  0.245676  1
  Sr  Sr1  1  0.008814  0.550403  0.248206  1
  Sr  Sr2  1  0.991185  0.449597  0.751795  1
  Sr  Sr3  1  0.511623  0.953158  0.754324  1
  Cd  Cd4  1  0.499999  0.500000  0.000000  1
  Cd  Cd5  1  0.000000  0.000000  0.500000  1
  Ir  Ir6  1  0.000000  0.000000  0.000000  1
  W  W7  1  0.500000  0.500000  0.500000  1
  O  O8  1  0.275459  0.815718  0.042423  1
  O  O9  1  0.178432  0.272468  0.050230  1
  O  O10  1  0.910709  0.968432  0.228412  1
  O  O11  1  0.584450  0.471041  0.270458  1
  O  O12  1  0.320464  0.771570  0.450466  1
  O  O13  1  0.225471  0.316623  0.460207  1
  O  O14  1  0.774528  0.683377  0.539794  1
  O  O15  1  0.679535  0.228430  0.549534  1
  O  O16  1  0.415549  0.528961  0.729541  1
  O  O17  1  0.089290  0.031570  0.771589  1
  O  O18  1  0.821569  0.727532  0.949770  1
  O  O19  1  0.724540  0.184282  0.957576  1
