# generated using pymatgen
data_Tm8Hf12Si15Os
_symmetry_space_group_name_H-M   'P 1'
_cell_length_a   7.25558526
_cell_length_b   7.25143451
_cell_length_c   13.32868949
_cell_angle_alpha   89.85223825
_cell_angle_beta   89.86844393
_cell_angle_gamma   90.03500568
_symmetry_Int_Tables_number   1
_chemical_formula_structural   Tm8Hf12Si15Os
_chemical_formula_sum   'Tm8 Hf12 Si15 Os1'
_cell_volume   701.26337543
_cell_formula_units_Z   1
loop_
 _symmetry_equiv_pos_site_id
 _symmetry_equiv_pos_as_xyz
  1  'x, y, z'
loop_
 _atom_site_type_symbol
 _atom_site_label
 _atom_site_symmetry_multiplicity
 _atom_site_fract_x
 _atom_site_fract_y
 _atom_site_fract_z
 _atom_site_occupancy
  Tm  Tm0  1  0.997220  0.347017  0.214970  1
  Tm  Tm1  1  0.004237  0.654967  0.714645  1
  Tm  Tm2  1  0.158015  0.495349  0.463421  1
  Tm  Tm3  1  0.503886  0.843761  0.034161  1
  Tm  Tm4  1  0.844959  0.502778  0.965278  1
  Tm  Tm5  1  0.496305  0.158105  0.534288  1
  Tm  Tm6  1  0.344152  0.996577  0.784730  1
  Tm  Tm7  1  0.654673  0.003254  0.284764  1
  Hf  Hf8  1  0.175651  0.174212  0.998310  1
  Hf  Hf9  1  0.826973  0.826068  0.500570  1
  Hf  Hf10  1  0.324631  0.665088  0.253023  1
  Hf  Hf11  1  0.674344  0.325412  0.750322  1
  Hf  Hf12  1  0.154576  0.004998  0.373297  1
  Hf  Hf13  1  0.851074  0.002928  0.875096  1
  Hf  Hf14  1  0.502881  0.650026  0.626366  1
  Hf  Hf15  1  0.351981  0.497366  0.873059  1
  Hf  Hf16  1  0.495390  0.346428  0.127908  1
  Hf  Hf17  1  0.644088  0.498350  0.377422  1
  Hf  Hf18  1  0.997975  0.148256  0.625721  1
  Hf  Hf19  1  0.999122  0.849307  0.124294  1
  Si  Si20  1  0.640327  0.705365  0.819630  1
  Si  Si21  1  0.206066  0.860134  0.568257  1
  Si  Si22  1  0.139404  0.795525  0.932059  1
  Si  Si23  1  0.796878  0.139013  0.066851  1
  Si  Si24  1  0.860341  0.200718  0.434483  1
  Si  Si25  1  0.295794  0.360336  0.682417  1
  Si  Si26  1  0.703489  0.641073  0.181259  1
  Si  Si27  1  0.292047  0.045104  0.183174  1
  Si  Si28  1  0.703435  0.951795  0.685620  1
  Si  Si29  1  0.452838  0.799863  0.438626  1
  Si  Si30  1  0.204325  0.550556  0.061120  1
  Si  Si31  1  0.547908  0.202842  0.935167  1
  Si  Si32  1  0.797543  0.452288  0.566067  1
  Si  Si33  1  0.047472  0.297391  0.814446  1
  Si  Si34  1  0.947132  0.708582  0.314155  1
  Os  Os35  1  0.362869  0.299167  0.315022  1
