# generated using pymatgen
data_Dy7Tm(SiI6)2
_symmetry_space_group_name_H-M   'P 1'
_cell_length_a   4.19970300
_cell_length_b   14.01522150
_cell_length_c   14.75529460
_cell_angle_alpha   89.94685241
_cell_angle_beta   90.00000000
_cell_angle_gamma   90.00000000
_symmetry_Int_Tables_number   1
_chemical_formula_structural   Dy7Tm(SiI6)2
_chemical_formula_sum   'Dy7 Tm1 Si2 I12'
_cell_volume   868.49283972
_cell_formula_units_Z   1
loop_
 _symmetry_equiv_pos_site_id
 _symmetry_equiv_pos_as_xyz
  1  'x, y, z'
loop_
 _atom_site_type_symbol
 _atom_site_label
 _atom_site_symmetry_multiplicity
 _atom_site_fract_x
 _atom_site_fract_y
 _atom_site_fract_z
 _atom_site_occupancy
  Dy  Dy0  1  0.500000  0.114601  0.347594  1
  Dy  Dy1  1  0.500000  0.885415  0.652409  1
  Dy  Dy2  1  0.500000  0.614340  0.152255  1
  Dy  Dy3  1  0.500000  0.385477  0.847855  1
  Dy  Dy4  1  0.000000  0.111030  0.574766  1
  Dy  Dy5  1  0.000000  0.888966  0.425241  1
  Dy  Dy6  1  0.000000  0.610126  0.925840  1
  Tm  Tm7  1  0.000000  0.389989  0.074013  1
  Si  Si8  1  0.500000  0.000009  0.499984  1
  Si  Si9  1  0.500000  0.498452  0.001039  1
  I  I10  1  0.500000  0.249001  0.161244  1
  I  I11  1  0.500000  0.753111  0.837510  1
  I  I12  1  0.500000  0.746550  0.337309  1
  I  I13  1  0.500000  0.253370  0.662741  1
  I  I14  1  0.000000  0.258910  0.414709  1
  I  I15  1  0.000000  0.741105  0.585229  1
  I  I16  1  0.000000  0.758734  0.085093  1
  I  I17  1  0.000000  0.241855  0.916269  1
  I  I18  1  0.000000  0.999731  0.240073  1
  I  I19  1  0.000000  0.000400  0.759887  1
  I  I20  1  0.000000  0.498365  0.258613  1
  I  I21  1  0.000000  0.500461  0.740327  1
