# generated using pymatgen
data_TbEr5(SiIr)4
_symmetry_space_group_name_H-M   'P 1'
_cell_length_a   5.54139632
_cell_length_b   5.54139502
_cell_length_c   13.19807934
_cell_angle_alpha   89.88032001
_cell_angle_beta   90.11967960
_cell_angle_gamma   136.85647123
_symmetry_Int_Tables_number   1
_chemical_formula_structural   TbEr5(SiIr)4
_chemical_formula_sum   'Tb1 Er5 Si4 Ir4'
_cell_volume   277.13733009
_cell_formula_units_Z   1
loop_
 _symmetry_equiv_pos_site_id
 _symmetry_equiv_pos_as_xyz
  1  'x, y, z'
loop_
 _atom_site_type_symbol
 _atom_site_label
 _atom_site_symmetry_multiplicity
 _atom_site_fract_x
 _atom_site_fract_y
 _atom_site_fract_z
 _atom_site_occupancy
  Tb  Tb0  1  0.775808  0.224192  0.603995  1
  Er  Er1  1  0.516603  0.483397  0.249662  1
  Er  Er2  1  0.225220  0.774780  0.394998  1
  Er  Er3  1  0.775161  0.224839  0.895981  1
  Er  Er4  1  0.483785  0.516215  0.751007  1
  Er  Er5  1  0.224640  0.775360  0.104313  1
  Si  Si6  1  0.063344  0.936656  0.589928  1
  Si  Si7  1  0.062432  0.937568  0.910256  1
  Si  Si8  1  0.938186  0.061814  0.408391  1
  Si  Si9  1  0.936818  0.063182  0.090739  1
  Ir  Ir10  1  0.809123  0.190877  0.249939  1
  Ir  Ir11  1  0.189432  0.810568  0.751225  1
  Ir  Ir12  1  0.499570  0.500430  0.000671  1
  Ir  Ir13  1  0.499879  0.500121  0.498896  1
