# generated using pymatgen
data_TmLu19(CoBi2)4
_symmetry_space_group_name_H-M   'P 1'
_cell_length_a   7.80327420
_cell_length_b   8.82455200
_cell_length_c   12.20215431
_cell_angle_alpha   90.00000000
_cell_angle_beta   89.97410156
_cell_angle_gamma   90.00000000
_symmetry_Int_Tables_number   1
_chemical_formula_structural   TmLu19(CoBi2)4
_chemical_formula_sum   'Tm1 Lu19 Co4 Bi8'
_cell_volume   840.24512801
_cell_formula_units_Z   1
loop_
 _symmetry_equiv_pos_site_id
 _symmetry_equiv_pos_as_xyz
  1  'x, y, z'
loop_
 _atom_site_type_symbol
 _atom_site_label
 _atom_site_symmetry_multiplicity
 _atom_site_fract_x
 _atom_site_fract_y
 _atom_site_fract_z
 _atom_site_occupancy
  Tm  Tm0  1  0.346312  0.750000  0.700057  1
  Lu  Lu1  1  0.653477  0.250000  0.300490  1
  Lu  Lu2  1  0.846542  0.250000  0.800513  1
  Lu  Lu3  1  0.153478  0.750000  0.199477  1
  Lu  Lu4  1  0.886554  0.750000  0.813060  1
  Lu  Lu5  1  0.113255  0.250000  0.186935  1
  Lu  Lu6  1  0.386753  0.250000  0.686932  1
  Lu  Lu7  1  0.613161  0.750000  0.313105  1
  Lu  Lu8  1  0.673365  0.538221  0.562574  1
  Lu  Lu9  1  0.326905  0.461465  0.437196  1
  Lu  Lu10  1  0.173080  0.461450  0.937300  1
  Lu  Lu11  1  0.326905  0.038535  0.437196  1
  Lu  Lu12  1  0.826858  0.538501  0.062723  1
  Lu  Lu13  1  0.673365  0.961779  0.562574  1
  Lu  Lu14  1  0.826858  0.961499  0.062723  1
  Lu  Lu15  1  0.173080  0.038550  0.937300  1
  Lu  Lu16  1  0.057128  0.750000  0.497691  1
  Lu  Lu17  1  0.942440  0.250000  0.502104  1
  Lu  Lu18  1  0.557568  0.250000  0.002124  1
  Lu  Lu19  1  0.442551  0.750000  0.998042  1
  Co  Co20  1  0.067348  0.750000  0.992126  1
  Co  Co21  1  0.932783  0.250000  0.007868  1
  Co  Co22  1  0.567322  0.250000  0.507826  1
  Co  Co23  1  0.432836  0.750000  0.491840  1
  Bi  Bi24  1  0.570112  0.509688  0.827422  1
  Bi  Bi25  1  0.430202  0.489972  0.172754  1
  Bi  Bi26  1  0.069476  0.489718  0.672692  1
  Bi  Bi27  1  0.430202  0.010028  0.172754  1
  Bi  Bi28  1  0.930247  0.509991  0.327244  1
  Bi  Bi29  1  0.570112  0.990312  0.827422  1
  Bi  Bi30  1  0.930247  0.990009  0.327244  1
  Bi  Bi31  1  0.069476  0.010282  0.672692  1
