# generated using pymatgen
data_Tb15YCd2Hg2(PdPt)2
_symmetry_space_group_name_H-M   'P 1'
_cell_length_a   9.71347925
_cell_length_b   9.71347874
_cell_length_c   9.70946800
_cell_angle_alpha   60.01366465
_cell_angle_beta   60.01366639
_cell_angle_gamma   60.05356314
_symmetry_Int_Tables_number   1
_chemical_formula_structural   Tb15YCd2Hg2(PdPt)2
_chemical_formula_sum   'Tb15 Y1 Cd2 Hg2 Pd2 Pt2'
_cell_volume   648.17949875
_cell_formula_units_Z   1
loop_
 _symmetry_equiv_pos_site_id
 _symmetry_equiv_pos_as_xyz
  1  'x, y, z'
loop_
 _atom_site_type_symbol
 _atom_site_label
 _atom_site_symmetry_multiplicity
 _atom_site_fract_x
 _atom_site_fract_y
 _atom_site_fract_z
 _atom_site_occupancy
  Tb  Tb0  1  0.353425  0.353425  0.349589  1
  Tb  Tb1  1  0.353425  0.353425  0.943560  1
  Tb  Tb2  1  0.358457  0.933843  0.353851  1
  Tb  Tb3  1  0.933843  0.358457  0.353851  1
  Tb  Tb4  1  0.809628  0.189567  0.190378  1
  Tb  Tb5  1  0.189567  0.809628  0.810427  1
  Tb  Tb6  1  0.189567  0.809628  0.190378  1
  Tb  Tb7  1  0.809628  0.189567  0.810427  1
  Tb  Tb8  1  0.190350  0.190350  0.809650  1
  Tb  Tb9  1  0.809630  0.809630  0.190370  1
  Tb  Tb10  1  0.935409  0.564790  0.564675  1
  Tb  Tb11  1  0.564790  0.935409  0.935125  1
  Tb  Tb12  1  0.564790  0.935409  0.564675  1
  Tb  Tb13  1  0.935409  0.564790  0.935125  1
  Tb  Tb14  1  0.564771  0.564771  0.935229  1
  Y  Y15  1  0.935046  0.935046  0.564954  1
  Cd  Cd16  1  0.579559  0.255437  0.582503  1
  Cd  Cd17  1  0.255437  0.579559  0.582503  1
  Hg  Hg18  1  0.584835  0.584835  0.588617  1
  Hg  Hg19  1  0.584835  0.584835  0.241714  1
  Pd  Pd20  1  0.143502  0.143502  0.147204  1
  Pd  Pd21  1  0.143502  0.143502  0.565792  1
  Pt  Pt22  1  0.141684  0.568911  0.144704  1
  Pt  Pt23  1  0.568911  0.141684  0.144704  1
