# generated using pymatgen
data_CsRb3(InBr3)4
_symmetry_space_group_name_H-M   'P 1'
_cell_length_a   9.00548200
_cell_length_b   9.00548184
_cell_length_c   11.43552800
_cell_angle_alpha   90.00000000
_cell_angle_beta   90.00000000
_cell_angle_gamma   120.00000059
_symmetry_Int_Tables_number   1
_chemical_formula_structural   CsRb3(InBr3)4
_chemical_formula_sum   'Cs1 Rb3 In4 Br12'
_cell_volume   803.15759018
_cell_formula_units_Z   1
loop_
 _symmetry_equiv_pos_site_id
 _symmetry_equiv_pos_as_xyz
  1  'x, y, z'
loop_
 _atom_site_type_symbol
 _atom_site_label
 _atom_site_symmetry_multiplicity
 _atom_site_fract_x
 _atom_site_fract_y
 _atom_site_fract_z
 _atom_site_occupancy
  Cs  Cs0  1  0.666667  0.333334  0.127623  1
  Rb  Rb1  1  0.000000  0.000000  0.276606  1
  Rb  Rb2  1  0.000000  0.000000  0.722698  1
  Rb  Rb3  1  0.333334  0.666667  0.871071  1
  In  In4  1  0.333334  0.666667  0.251164  1
  In  In5  1  0.333334  0.666667  0.497859  1
  In  In6  1  0.666667  0.333334  0.503139  1
  In  In7  1  0.666667  0.333334  0.748774  1
  Br  Br8  1  0.115398  0.390536  0.132774  1
  Br  Br9  1  0.609464  0.724863  0.132774  1
  Br  Br10  1  0.275139  0.884603  0.132774  1
  Br  Br11  1  0.692063  0.092080  0.388865  1
  Br  Br12  1  0.400017  0.307937  0.388865  1
  Br  Br13  1  0.907921  0.599983  0.388865  1
  Br  Br14  1  0.093958  0.402296  0.614917  1
  Br  Br15  1  0.597704  0.691661  0.614917  1
  Br  Br16  1  0.308339  0.906043  0.614917  1
  Br  Br17  1  0.719114  0.109358  0.863800  1
  Br  Br18  1  0.390245  0.280886  0.863800  1
  Br  Br19  1  0.890643  0.609756  0.863800  1
