# generated using pymatgen
data_Pa2Al3Rh
_symmetry_space_group_name_H-M   'P 1'
_cell_length_a   5.63135700
_cell_length_b   5.63135569
_cell_length_c   8.28993500
_cell_angle_alpha   90.00000000
_cell_angle_beta   90.00000000
_cell_angle_gamma   120.00000180
_symmetry_Int_Tables_number   1
_chemical_formula_structural   Pa2Al3Rh
_chemical_formula_sum   'Pa4 Al6 Rh2'
_cell_volume   227.67102828
_cell_formula_units_Z   2
loop_
 _symmetry_equiv_pos_site_id
 _symmetry_equiv_pos_as_xyz
  1  'x, y, z'
loop_
 _atom_site_type_symbol
 _atom_site_label
 _atom_site_symmetry_multiplicity
 _atom_site_fract_x
 _atom_site_fract_y
 _atom_site_fract_z
 _atom_site_occupancy
  Pa  Pa0  1  0.666666  0.333334  0.087029  1
  Pa  Pa1  1  0.666666  0.333334  0.412970  1
  Pa  Pa2  1  0.333334  0.666667  0.587029  1
  Pa  Pa3  1  0.333334  0.666667  0.912971  1
  Al  Al4  1  0.164268  0.328538  0.250000  1
  Al  Al5  1  0.164268  0.835732  0.250000  1
  Al  Al6  1  0.671462  0.835732  0.250000  1
  Al  Al7  1  0.328538  0.164269  0.750000  1
  Al  Al8  1  0.835732  0.164269  0.750000  1
  Al  Al9  1  0.835731  0.671461  0.750000  1
  Rh  Rh10  1  0.000000  0.000000  0.000000  1
  Rh  Rh11  1  0.000000  0.000000  0.500000  1
