# generated using pymatgen
data_Ta12Zn11NiN2
_symmetry_space_group_name_H-M   'P 1'
_cell_length_a   8.13849302
_cell_length_b   8.13341664
_cell_length_c   8.13849300
_cell_angle_alpha   59.97935567
_cell_angle_beta   60.00000415
_cell_angle_gamma   59.97935898
_symmetry_Int_Tables_number   1
_chemical_formula_structural   Ta12Zn11NiN2
_chemical_formula_sum   'Ta12 Zn11 Ni1 N2'
_cell_volume   380.81184553
_cell_formula_units_Z   1
loop_
 _symmetry_equiv_pos_site_id
 _symmetry_equiv_pos_as_xyz
  1  'x, y, z'
loop_
 _atom_site_type_symbol
 _atom_site_label
 _atom_site_symmetry_multiplicity
 _atom_site_fract_x
 _atom_site_fract_y
 _atom_site_fract_z
 _atom_site_occupancy
  Ta  Ta0  1  0.189282  0.811480  0.189282  1
  Ta  Ta1  1  0.438461  0.061998  0.438461  1
  Ta  Ta2  1  0.438461  0.061998  0.061080  1
  Ta  Ta3  1  0.441353  0.442363  0.058142  1
  Ta  Ta4  1  0.189282  0.811480  0.809956  1
  Ta  Ta5  1  0.058142  0.442363  0.058142  1
  Ta  Ta6  1  0.809956  0.811480  0.189282  1
  Ta  Ta7  1  0.058142  0.442363  0.441353  1
  Ta  Ta8  1  0.188166  0.191088  0.810373  1
  Ta  Ta9  1  0.810373  0.191088  0.188166  1
  Ta  Ta10  1  0.810373  0.191088  0.810373  1
  Ta  Ta11  1  0.061080  0.061998  0.438461  1
  Zn  Zn12  1  0.416572  0.417359  0.749495  1
  Zn  Zn13  1  0.749495  0.417359  0.416572  1
  Zn  Zn14  1  0.416572  0.417359  0.416572  1
  Zn  Zn15  1  0.833167  0.830423  0.503244  1
  Zn  Zn16  1  0.417220  0.748338  0.417220  1
  Zn  Zn17  1  0.833167  0.830423  0.833167  1
  Zn  Zn18  1  0.503244  0.830423  0.833167  1
  Zn  Zn19  1  0.625263  0.124211  0.625263  1
  Zn  Zn20  1  0.627608  0.622799  0.121985  1
  Zn  Zn21  1  0.121985  0.622799  0.627608  1
  Zn  Zn22  1  0.627608  0.622799  0.627608  1
  Ni  Ni23  1  0.836230  0.491311  0.836230  1
  N  N24  1  0.000060  0.999821  0.000060  1
  N  N25  1  0.248737  0.253789  0.248737  1
