# generated using pymatgen
data_Tb5Er(PaCo3)2
_symmetry_space_group_name_H-M   'P 1'
_cell_length_a   5.93611229
_cell_length_b   5.93611258
_cell_length_c   14.13559400
_cell_angle_alpha   90.00000000
_cell_angle_beta   90.00000000
_cell_angle_gamma   143.76375911
_symmetry_Int_Tables_number   1
_chemical_formula_structural   Tb5Er(PaCo3)2
_chemical_formula_sum   'Tb5 Er1 Pa2 Co6'
_cell_volume   294.43605672
_cell_formula_units_Z   1
loop_
 _symmetry_equiv_pos_site_id
 _symmetry_equiv_pos_as_xyz
  1  'x, y, z'
loop_
 _atom_site_type_symbol
 _atom_site_label
 _atom_site_symmetry_multiplicity
 _atom_site_fract_x
 _atom_site_fract_y
 _atom_site_fract_z
 _atom_site_occupancy
  Tb  Tb0  1  0.780802  0.219198  0.384590  1
  Tb  Tb1  1  0.220210  0.779790  0.614652  1
  Tb  Tb2  1  0.780802  0.219198  0.115410  1
  Tb  Tb3  1  0.220210  0.779790  0.885348  1
  Tb  Tb4  1  0.492595  0.507405  0.750000  1
  Er  Er5  1  0.508339  0.491661  0.250000  1
  Pa  Pa6  1  0.500248  0.499752  0.499478  1
  Pa  Pa7  1  0.500248  0.499752  0.000522  1
  Co  Co8  1  0.078219  0.921781  0.397801  1
  Co  Co9  1  0.921031  0.078969  0.599925  1
  Co  Co10  1  0.078219  0.921781  0.102199  1
  Co  Co11  1  0.921031  0.078969  0.900075  1
  Co  Co12  1  0.200842  0.799158  0.250000  1
  Co  Co13  1  0.797205  0.202795  0.750000  1
