# generated using pymatgen
data_Tb4Zr3RhF28
_symmetry_space_group_name_H-M   'P 1'
_cell_length_a   5.74267070
_cell_length_b   9.07239767
_cell_length_c   12.16029129
_cell_angle_alpha   62.68378364
_cell_angle_beta   90.10431980
_cell_angle_gamma   89.90840459
_symmetry_Int_Tables_number   1
_chemical_formula_structural   Tb4Zr3RhF28
_chemical_formula_sum   'Tb4 Zr3 Rh1 F28'
_cell_volume   562.89693905
_cell_formula_units_Z   1
loop_
 _symmetry_equiv_pos_site_id
 _symmetry_equiv_pos_as_xyz
  1  'x, y, z'
loop_
 _atom_site_type_symbol
 _atom_site_label
 _atom_site_symmetry_multiplicity
 _atom_site_fract_x
 _atom_site_fract_y
 _atom_site_fract_z
 _atom_site_occupancy
  Tb  Tb0  1  0.260490  0.814217  0.270636  1
  Tb  Tb1  1  0.742742  0.184802  0.732614  1
  Tb  Tb2  1  0.757272  0.184412  0.233725  1
  Tb  Tb3  1  0.239810  0.814020  0.760187  1
  Zr  Zr4  1  0.756258  0.726802  0.043804  1
  Zr  Zr5  1  0.245204  0.274018  0.954637  1
  Zr  Zr6  1  0.254732  0.274547  0.456180  1
  Rh  Rh7  1  0.741682  0.726914  0.545072  1
  F  F8  1  0.940853  0.708753  0.423649  1
  F  F9  1  0.035705  0.290057  0.581235  1
  F  F10  1  0.464883  0.291215  0.079713  1
  F  F11  1  0.534370  0.710983  0.919149  1
  F  F12  1  0.486006  0.732510  0.150738  1
  F  F13  1  0.517553  0.269462  0.848929  1
  F  F14  1  0.978343  0.264119  0.354477  1
  F  F15  1  0.019277  0.730104  0.640871  1
  F  F16  1  0.968382  0.749198  0.172058  1
  F  F17  1  0.036095  0.251250  0.826590  1
  F  F18  1  0.465492  0.252021  0.328124  1
  F  F19  1  0.545906  0.743212  0.670000  1
  F  F20  1  0.773657  0.475023  0.141327  1
  F  F21  1  0.228257  0.525256  0.857231  1
  F  F22  1  0.261369  0.526188  0.359559  1
  F  F23  1  0.734272  0.488112  0.640330  1
  F  F24  1  0.951070  0.277373  0.049379  1
  F  F25  1  0.047600  0.723253  0.947674  1
  F  F26  1  0.455929  0.718243  0.454982  1
  F  F27  1  0.549392  0.284310  0.547778  1
  F  F28  1  0.743936  0.965954  0.453111  1
  F  F29  1  0.262423  0.023670  0.555558  1
  F  F30  1  0.244155  0.023781  0.059951  1
  F  F31  1  0.757042  0.978173  0.941136  1
  F  F32  1  0.573254  0.973050  0.235481  1
  F  F33  1  0.427422  0.026192  0.762343  1
  F  F34  1  0.072219  0.025551  0.269915  1
  F  F35  1  0.926946  0.973256  0.731857  1
