# generated using pymatgen
data_TbY9B2I15
_symmetry_space_group_name_H-M   'P 1'
_cell_length_a   9.62819650
_cell_length_b   10.37936035
_cell_length_c   11.31680174
_cell_angle_alpha   91.71245236
_cell_angle_beta   114.41832402
_cell_angle_gamma   110.46877718
_symmetry_Int_Tables_number   1
_chemical_formula_structural   TbY9B2I15
_chemical_formula_sum   'Tb1 Y9 B2 I15'
_cell_volume   944.37346612
_cell_formula_units_Z   1
loop_
 _symmetry_equiv_pos_site_id
 _symmetry_equiv_pos_as_xyz
  1  'x, y, z'
loop_
 _atom_site_type_symbol
 _atom_site_label
 _atom_site_symmetry_multiplicity
 _atom_site_fract_x
 _atom_site_fract_y
 _atom_site_fract_z
 _atom_site_occupancy
  Tb  Tb0  1  0.784721  0.393950  0.268083  1
  Y  Y1  1  0.215758  0.606531  0.732066  1
  Y  Y2  1  0.662705  0.751850  0.825211  1
  Y  Y3  1  0.337145  0.248063  0.174751  1
  Y  Y4  1  0.523097  0.712746  0.086013  1
  Y  Y5  1  0.476824  0.287184  0.913948  1
  Y  Y6  1  0.580435  0.043791  0.309296  1
  Y  Y7  1  0.419441  0.956095  0.690637  1
  Y  Y8  1  0.707569  0.069973  0.045596  1
  Y  Y9  1  0.292316  0.929903  0.954333  1
  B  B10  1  0.468484  0.822734  0.880040  1
  B  B11  1  0.531461  0.177204  0.119933  1
  I  I12  1  0.999973  0.999985  0.999988  1
  I  I13  1  0.638536  0.882673  0.582669  1
  I  I14  1  0.361469  0.117323  0.417325  1
  I  I15  1  0.885199  0.299461  0.531675  1
  I  I16  1  0.114991  0.700565  0.468627  1
  I  I17  1  0.284671  0.760073  0.177820  1
  I  I18  1  0.715303  0.239911  0.822160  1
  I  I19  1  0.055137  0.340029  0.225445  1
  I  I20  1  0.160195  0.055989  0.701669  1
  I  I21  1  0.839776  0.943991  0.298320  1
  I  I22  1  0.228378  0.409786  0.942031  1
  I  I23  1  0.771566  0.590266  0.057847  1
  I  I24  1  0.409500  0.459294  0.659748  1
  I  I25  1  0.590325  0.540758  0.340278  1
  I  I26  1  0.945027  0.659871  0.774492  1
