# generated using pymatgen
data_Tb19DyIrRu11
_symmetry_space_group_name_H-M   'P 1'
_cell_length_a   10.86983074
_cell_length_b   10.86960389
_cell_length_c   6.40858502
_cell_angle_alpha   89.97945470
_cell_angle_beta   89.97530323
_cell_angle_gamma   90.01259646
_symmetry_Int_Tables_number   1
_chemical_formula_structural   Tb19DyIrRu11
_chemical_formula_sum   'Tb19 Dy1 Ir1 Ru11'
_cell_volume   757.17901727
_cell_formula_units_Z   1
loop_
 _symmetry_equiv_pos_site_id
 _symmetry_equiv_pos_as_xyz
  1  'x, y, z'
loop_
 _atom_site_type_symbol
 _atom_site_label
 _atom_site_symmetry_multiplicity
 _atom_site_fract_x
 _atom_site_fract_y
 _atom_site_fract_z
 _atom_site_occupancy
  Tb  Tb0  1  0.292151  0.087084  0.377571  1
  Tb  Tb1  1  0.292158  0.913716  0.877804  1
  Tb  Tb2  1  0.708052  0.087218  0.877599  1
  Tb  Tb3  1  0.707976  0.912899  0.377565  1
  Tb  Tb4  1  0.587395  0.792460  0.877584  1
  Tb  Tb5  1  0.587143  0.207553  0.377350  1
  Tb  Tb6  1  0.413207  0.792847  0.377214  1
  Tb  Tb7  1  0.412839  0.208140  0.877530  1
  Tb  Tb8  1  0.207595  0.412612  0.622366  1
  Tb  Tb9  1  0.207098  0.586802  0.122834  1
  Tb  Tb10  1  0.792513  0.412849  0.122712  1
  Tb  Tb11  1  0.791798  0.587151  0.622411  1
  Tb  Tb12  1  0.912930  0.707851  0.122434  1
  Tb  Tb13  1  0.912768  0.291953  0.622400  1
  Tb  Tb14  1  0.086304  0.707830  0.622210  1
  Tb  Tb15  1  0.087083  0.292018  0.122437  1
  Tb  Tb16  1  0.000011  0.000176  0.500041  1
  Tb  Tb17  1  0.999824  0.999990  0.999955  1
  Tb  Tb18  1  0.501159  0.499349  0.000986  1
  Dy  Dy19  1  0.500608  0.498888  0.499082  1
  Ir  Ir20  1  0.346484  0.653514  0.749788  1
  Ru  Ru21  1  0.847070  0.152933  0.249984  1
  Ru  Ru22  1  0.847044  0.846901  0.749830  1
  Ru  Ru23  1  0.153101  0.152953  0.750205  1
  Ru  Ru24  1  0.153620  0.846374  0.249983  1
  Ru  Ru25  1  0.652640  0.347360  0.749866  1
  Ru  Ru26  1  0.652128  0.652984  0.250296  1
  Ru  Ru27  1  0.347016  0.347870  0.249969  1
  Ru  Ru28  1  0.500020  0.999624  0.123937  1
  Ru  Ru29  1  0.499973  0.000089  0.624417  1
  Ru  Ru30  1  0.999919  0.500027  0.875609  1
  Ru  Ru31  1  0.000373  0.499985  0.376028  1
