# generated using pymatgen
data_BaVSbF12
_symmetry_space_group_name_H-M   'P 1'
_cell_length_a   5.51996646
_cell_length_b   5.72653715
_cell_length_c   9.87184081
_cell_angle_alpha   90.99353069
_cell_angle_beta   106.82035028
_cell_angle_gamma   117.21301888
_symmetry_Int_Tables_number   1
_chemical_formula_structural   BaVSbF12
_chemical_formula_sum   'Ba1 V1 Sb1 F12'
_cell_volume   261.50068395
_cell_formula_units_Z   1
loop_
 _symmetry_equiv_pos_site_id
 _symmetry_equiv_pos_as_xyz
  1  'x, y, z'
loop_
 _atom_site_type_symbol
 _atom_site_label
 _atom_site_symmetry_multiplicity
 _atom_site_fract_x
 _atom_site_fract_y
 _atom_site_fract_z
 _atom_site_occupancy
  Ba  Ba0  1  0.020997  0.976183  0.891469  1
  V  V1  1  0.152735  0.508475  0.584688  1
  Sb  Sb2  1  0.441772  0.681846  0.143601  1
  F  F3  1  0.099573  0.522910  0.967397  1
  F  F4  1  0.488223  0.642844  0.751991  1
  F  F5  1  0.972941  0.253560  0.689473  1
  F  F6  1  0.061535  0.730311  0.676368  1
  F  F7  1  0.268513  0.296192  0.527308  1
  F  F8  1  0.346517  0.772518  0.504235  1
  F  F9  1  0.826789  0.381026  0.440365  1
  F  F10  1  0.779120  0.844109  0.305450  1
  F  F11  1  0.226844  0.402682  0.229313  1
  F  F12  1  0.285226  0.907215  0.176512  1
  F  F13  1  0.627411  0.940065  0.029692  1
  F  F14  1  0.549795  0.450059  0.060137  1
