# generated using pymatgen
data_Hf8V12Si3Ge13
_symmetry_space_group_name_H-M   'P 1'
_cell_length_a   6.60685600
_cell_length_b   6.74014558
_cell_length_c   12.91484300
_cell_angle_alpha   90.00000000
_cell_angle_beta   90.00000000
_cell_angle_gamma   89.87682514
_symmetry_Int_Tables_number   1
_chemical_formula_structural   Hf8V12Si3Ge13
_chemical_formula_sum   'Hf8 V12 Si3 Ge13'
_cell_volume   575.11175612
_cell_formula_units_Z   1
loop_
 _symmetry_equiv_pos_site_id
 _symmetry_equiv_pos_as_xyz
  1  'x, y, z'
loop_
 _atom_site_type_symbol
 _atom_site_label
 _atom_site_symmetry_multiplicity
 _atom_site_fract_x
 _atom_site_fract_y
 _atom_site_fract_z
 _atom_site_occupancy
  Hf  Hf0  1  0.488267  0.671534  0.593058  1
  Hf  Hf1  1  0.988261  0.829645  0.905555  1
  Hf  Hf2  1  0.512711  0.330112  0.092165  1
  Hf  Hf3  1  0.012437  0.175283  0.407528  1
  Hf  Hf4  1  0.512711  0.330112  0.407835  1
  Hf  Hf5  1  0.012437  0.175283  0.092472  1
  Hf  Hf6  1  0.488267  0.671534  0.906942  1
  Hf  Hf7  1  0.988261  0.829645  0.594445  1
  V  V8  1  0.659076  0.166499  0.627806  1
  V  V9  1  0.158889  0.334450  0.872523  1
  V  V10  1  0.347200  0.833286  0.126463  1
  V  V11  1  0.834007  0.660045  0.373783  1
  V  V12  1  0.347200  0.833286  0.373537  1
  V  V13  1  0.834007  0.660045  0.126217  1
  V  V14  1  0.659076  0.166499  0.872194  1
  V  V15  1  0.158889  0.334450  0.627477  1
  V  V16  1  0.831662  0.486591  0.750000  1
  V  V17  1  0.330305  0.011756  0.750000  1
  V  V18  1  0.168326  0.509098  0.250000  1
  V  V19  1  0.665242  0.987829  0.250000  1
  Si  Si20  1  0.460659  0.373230  0.750000  1
  Si  Si21  1  0.962695  0.124991  0.750000  1
  Si  Si22  1  0.536713  0.623974  0.250000  1
  Ge  Ge23  1  0.680946  0.956085  0.458733  1
  Ge  Ge24  1  0.177397  0.546694  0.041622  1
  Ge  Ge25  1  0.321961  0.044835  0.958432  1
  Ge  Ge26  1  0.821871  0.455246  0.542641  1
  Ge  Ge27  1  0.321961  0.044835  0.541568  1
  Ge  Ge28  1  0.821871  0.455246  0.957359  1
  Ge  Ge29  1  0.680946  0.956085  0.041267  1
  Ge  Ge30  1  0.177397  0.546694  0.458378  1
  Ge  Ge31  1  0.036308  0.873639  0.250000  1
  Ge  Ge32  1  0.689530  0.858691  0.750000  1
  Ge  Ge33  1  0.191213  0.641067  0.750000  1
  Ge  Ge34  1  0.312211  0.145135  0.250000  1
  Ge  Ge35  1  0.809086  0.356572  0.250000  1
