# generated using pymatgen
data_HoTm9ZnBi5
_symmetry_space_group_name_H-M   'P 1'
_cell_length_a   8.09475100
_cell_length_b   9.35332300
_cell_length_c   11.86919200
_cell_angle_alpha   90.00000000
_cell_angle_beta   90.00000000
_cell_angle_gamma   90.00000000
_symmetry_Int_Tables_number   1
_chemical_formula_structural   HoTm9ZnBi5
_chemical_formula_sum   'Ho2 Tm18 Zn2 Bi10'
_cell_volume   898.65000584
_cell_formula_units_Z   2
loop_
 _symmetry_equiv_pos_site_id
 _symmetry_equiv_pos_as_xyz
  1  'x, y, z'
loop_
 _atom_site_type_symbol
 _atom_site_label
 _atom_site_symmetry_multiplicity
 _atom_site_fract_x
 _atom_site_fract_y
 _atom_site_fract_z
 _atom_site_occupancy
  Ho  Ho0  1  0.688291  0.750000  0.781933  1
  Ho  Ho1  1  0.188291  0.750000  0.718067  1
  Tm  Tm2  1  0.346586  0.750000  0.217472  1
  Tm  Tm3  1  0.846586  0.750000  0.282528  1
  Tm  Tm4  1  0.646436  0.250000  0.794766  1
  Tm  Tm5  1  0.146436  0.250000  0.705234  1
  Tm  Tm6  1  0.690903  0.547417  0.058895  1
  Tm  Tm7  1  0.190903  0.952583  0.441105  1
  Tm  Tm8  1  0.315367  0.071316  0.943935  1
  Tm  Tm9  1  0.815367  0.428684  0.556065  1
  Tm  Tm10  1  0.315367  0.428684  0.943935  1
  Tm  Tm11  1  0.815367  0.071316  0.556065  1
  Tm  Tm12  1  0.690903  0.952583  0.058895  1
  Tm  Tm13  1  0.190903  0.547417  0.441105  1
  Tm  Tm14  1  0.464949  0.250000  0.489968  1
  Tm  Tm15  1  0.964949  0.250000  0.010032  1
  Tm  Tm16  1  0.518633  0.750000  0.508538  1
  Tm  Tm17  1  0.018633  0.750000  0.991462  1
  Tm  Tm18  1  0.323105  0.250000  0.211889  1
  Tm  Tm19  1  0.823105  0.250000  0.288111  1
  Zn  Zn20  1  0.590866  0.250000  0.041255  1
  Zn  Zn21  1  0.090866  0.250000  0.458745  1
  Bi  Bi22  1  0.404821  0.750000  0.959007  1
  Bi  Bi23  1  0.904821  0.750000  0.540993  1
  Bi  Bi24  1  0.562391  0.998810  0.322410  1
  Bi  Bi25  1  0.062391  0.501190  0.177590  1
  Bi  Bi26  1  0.439496  0.496155  0.675219  1
  Bi  Bi27  1  0.939496  0.003845  0.824781  1
  Bi  Bi28  1  0.439496  0.003845  0.675219  1
  Bi  Bi29  1  0.939496  0.496155  0.824781  1
  Bi  Bi30  1  0.562391  0.501190  0.322410  1
  Bi  Bi31  1  0.062391  0.998810  0.177590  1
