# generated using pymatgen
data_Tb7YRe3B24Os
_symmetry_space_group_name_H-M   'P 1'
_cell_length_a   3.69322600
_cell_length_b   9.20106646
_cell_length_c   11.59132001
_cell_angle_alpha   89.92410523
_cell_angle_beta   90.00000000
_cell_angle_gamma   90.00000000
_symmetry_Int_Tables_number   1
_chemical_formula_structural   Tb7YRe3B24Os
_chemical_formula_sum   'Tb7 Y1 Re3 B24 Os1'
_cell_volume   393.89146150
_cell_formula_units_Z   1
loop_
 _symmetry_equiv_pos_site_id
 _symmetry_equiv_pos_as_xyz
  1  'x, y, z'
loop_
 _atom_site_type_symbol
 _atom_site_label
 _atom_site_symmetry_multiplicity
 _atom_site_fract_x
 _atom_site_fract_y
 _atom_site_fract_z
 _atom_site_occupancy
  Tb  Tb0  1  0.000000  0.822063  0.085770  1
  Tb  Tb1  1  0.000000  0.177207  0.912410  1
  Tb  Tb2  1  0.000000  0.324546  0.415537  1
  Tb  Tb3  1  0.000000  0.676629  0.586343  1
  Tb  Tb4  1  0.000000  0.442035  0.130265  1
  Tb  Tb5  1  0.000000  0.557094  0.870343  1
  Tb  Tb6  1  0.000000  0.942298  0.370048  1
  Y  Y7  1  0.000000  0.057368  0.629207  1
  Re  Re8  1  0.000000  0.863076  0.822030  1
  Re  Re9  1  0.000000  0.637871  0.320602  1
  Re  Re10  1  0.000000  0.361867  0.679063  1
  B  B11  1  0.500000  0.053574  0.067417  1
  B  B12  1  0.500000  0.947349  0.932810  1
  B  B13  1  0.500000  0.552965  0.433009  1
  B  B14  1  0.500000  0.446951  0.567342  1
  B  B15  1  0.500000  0.247527  0.081968  1
  B  B16  1  0.500000  0.751865  0.918320  1
  B  B17  1  0.500000  0.748196  0.418366  1
  B  B18  1  0.500000  0.251988  0.581517  1
  B  B19  1  0.500000  0.289835  0.234277  1
  B  B20  1  0.500000  0.709382  0.765780  1
  B  B21  1  0.500000  0.790657  0.265440  1
  B  B22  1  0.500000  0.208705  0.734016  1
  B  B23  1  0.500000  0.130984  0.313670  1
  B  B24  1  0.500000  0.869851  0.686237  1
  B  B25  1  0.500000  0.630792  0.185658  1
  B  B26  1  0.500000  0.368915  0.813828  1
  B  B27  1  0.500000  0.482772  0.288360  1
  B  B28  1  0.500000  0.517323  0.712017  1
  B  B29  1  0.500000  0.983499  0.211685  1
  B  B30  1  0.500000  0.018198  0.787980  1
  B  B31  1  0.500000  0.102100  0.471266  1
  B  B32  1  0.500000  0.898441  0.528483  1
  B  B33  1  0.500000  0.601182  0.028700  1
  B  B34  1  0.500000  0.397330  0.971579  1
  Os  Os35  1  0.000000  0.137565  0.178659  1
