# generated using pymatgen
data_DyHo5V2(Co4P3)4
_symmetry_space_group_name_H-M   'P 1'
_cell_length_a   3.67925000
_cell_length_b   10.53000700
_cell_length_c   12.20112600
_cell_angle_alpha   90.00000000
_cell_angle_beta   90.00000000
_cell_angle_gamma   90.00000000
_symmetry_Int_Tables_number   1
_chemical_formula_structural   DyHo5V2(Co4P3)4
_chemical_formula_sum   'Dy1 Ho5 V2 Co16 P12'
_cell_volume   472.70246879
_cell_formula_units_Z   1
loop_
 _symmetry_equiv_pos_site_id
 _symmetry_equiv_pos_as_xyz
  1  'x, y, z'
loop_
 _atom_site_type_symbol
 _atom_site_label
 _atom_site_symmetry_multiplicity
 _atom_site_fract_x
 _atom_site_fract_y
 _atom_site_fract_z
 _atom_site_occupancy
  Dy  Dy0  1  0.500000  0.000000  0.476770  1
  Ho  Ho1  1  0.000000  0.500000  0.523173  1
  Ho  Ho2  1  0.500000  0.818736  0.204394  1
  Ho  Ho3  1  0.500000  0.181264  0.204394  1
  Ho  Ho4  1  0.000000  0.681199  0.795574  1
  Ho  Ho5  1  0.000000  0.318801  0.795574  1
  V  V6  1  0.500000  0.500000  0.154156  1
  V  V7  1  0.000000  0.000000  0.845958  1
  Co  Co8  1  0.500000  0.500000  0.701925  1
  Co  Co9  1  0.000000  0.000000  0.297878  1
  Co  Co10  1  0.000000  0.500000  0.986739  1
  Co  Co11  1  0.500000  0.000000  0.013221  1
  Co  Co12  1  0.500000  0.332457  0.992947  1
  Co  Co13  1  0.500000  0.667543  0.992947  1
  Co  Co14  1  0.000000  0.167578  0.007042  1
  Co  Co15  1  0.000000  0.832422  0.007042  1
  Co  Co16  1  0.500000  0.296324  0.431157  1
  Co  Co17  1  0.500000  0.703676  0.431157  1
  Co  Co18  1  0.000000  0.204358  0.568876  1
  Co  Co19  1  0.000000  0.795642  0.568876  1
  Co  Co20  1  0.500000  0.878496  0.707822  1
  Co  Co21  1  0.500000  0.121504  0.707822  1
  Co  Co22  1  0.000000  0.621335  0.292204  1
  Co  Co23  1  0.000000  0.378665  0.292204  1
  P  P24  1  0.500000  0.500000  0.881855  1
  P  P25  1  0.000000  0.000000  0.118095  1
  P  P26  1  0.500000  0.500000  0.347339  1
  P  P27  1  0.000000  0.000000  0.653064  1
  P  P28  1  0.500000  0.311581  0.616022  1
  P  P29  1  0.500000  0.688419  0.616022  1
  P  P30  1  0.000000  0.188897  0.383873  1
  P  P31  1  0.000000  0.811103  0.383873  1
  P  P32  1  0.500000  0.845787  0.891820  1
  P  P33  1  0.500000  0.154213  0.891820  1
  P  P34  1  0.000000  0.654169  0.108181  1
  P  P35  1  0.000000  0.345831  0.108181  1
