# generated using pymatgen
data_Li2Y2As6Ir7
_symmetry_space_group_name_H-M   'P 1'
_cell_length_a   7.21112880
_cell_length_b   7.11779782
_cell_length_c   7.11779828
_cell_angle_alpha   109.34561853
_cell_angle_beta   109.27118000
_cell_angle_gamma   109.27117644
_symmetry_Int_Tables_number   1
_chemical_formula_structural   Li2Y2As6Ir7
_chemical_formula_sum   'Li2 Y2 As6 Ir7'
_cell_volume   283.04690160
_cell_formula_units_Z   1
loop_
 _symmetry_equiv_pos_site_id
 _symmetry_equiv_pos_as_xyz
  1  'x, y, z'
loop_
 _atom_site_type_symbol
 _atom_site_label
 _atom_site_symmetry_multiplicity
 _atom_site_fract_x
 _atom_site_fract_y
 _atom_site_fract_z
 _atom_site_occupancy
  Li  Li0  1  0.500000  0.000000  0.000000  1
  Li  Li1  1  0.500000  0.500000  0.500000  1
  Y  Y2  1  0.000000  0.000000  0.500000  1
  Y  Y3  1  0.000000  0.500000  0.000000  1
  As  As4  1  0.670126  0.684329  0.985797  1
  As  As5  1  0.329874  0.315671  0.014203  1
  As  As6  1  0.000000  0.684514  0.684514  1
  As  As7  1  0.000000  0.315486  0.315486  1
  As  As8  1  0.670126  0.985797  0.684329  1
  As  As9  1  0.329874  0.014203  0.315671  1
  Ir  Ir10  1  0.000000  0.000000  0.000000  1
  Ir  Ir11  1  0.252398  0.503063  0.749335  1
  Ir  Ir12  1  0.747602  0.250665  0.496937  1
  Ir  Ir13  1  0.500000  0.250000  0.750000  1
  Ir  Ir14  1  0.500000  0.750000  0.250000  1
  Ir  Ir15  1  0.747602  0.496937  0.250665  1
  Ir  Ir16  1  0.252398  0.749335  0.503063  1
