# generated using pymatgen
data_Nb8SiB4Mo2P
_symmetry_space_group_name_H-M   'P 1'
_cell_length_a   7.27323285
_cell_length_b   7.27323249
_cell_length_c   7.27323204
_cell_angle_alpha   129.64781573
_cell_angle_beta   129.64780890
_cell_angle_gamma   73.97042509
_symmetry_Int_Tables_number   1
_chemical_formula_structural   Nb8SiB4Mo2P
_chemical_formula_sum   'Nb8 Si1 B4 Mo2 P1'
_cell_volume   222.47127486
_cell_formula_units_Z   1
loop_
 _symmetry_equiv_pos_site_id
 _symmetry_equiv_pos_as_xyz
  1  'x, y, z'
loop_
 _atom_site_type_symbol
 _atom_site_label
 _atom_site_symmetry_multiplicity
 _atom_site_fract_x
 _atom_site_fract_y
 _atom_site_fract_z
 _atom_site_occupancy
  Nb  Nb0  1  0.806364  0.968736  0.497323  1
  Nb  Nb1  1  0.309040  0.806364  0.837629  1
  Nb  Nb2  1  0.190960  0.028587  0.497323  1
  Nb  Nb3  1  0.531264  0.693636  0.502677  1
  Nb  Nb4  1  0.028587  0.531264  0.837629  1
  Nb  Nb5  1  0.693636  0.190960  0.162371  1
  Nb  Nb6  1  0.968736  0.471413  0.162371  1
  Nb  Nb7  1  0.471413  0.309040  0.502677  1
  Si  Si8  1  0.250000  0.250000  0.000000  1
  B  B9  1  0.383106  0.883106  0.266212  1
  B  B10  1  0.883106  0.616894  0.500000  1
  B  B11  1  0.616894  0.116894  0.733788  1
  B  B12  1  0.116894  0.383106  0.500000  1
  Mo  Mo13  1  0.001058  0.001058  0.000000  1
  Mo  Mo14  1  0.498942  0.498942  0.000000  1
  P  P15  1  0.750000  0.750000  0.000000  1
