# generated using pymatgen
data_YHo9(In2Cu)4
_symmetry_space_group_name_H-M   'P 1'
_cell_length_a   3.64929000
_cell_length_b   8.00296111
_cell_length_c   17.90202124
_cell_angle_alpha   89.98128840
_cell_angle_beta   90.00000000
_cell_angle_gamma   90.00000000
_symmetry_Int_Tables_number   1
_chemical_formula_structural   YHo9(In2Cu)4
_chemical_formula_sum   'Y1 Ho9 In8 Cu4'
_cell_volume   522.83075692
_cell_formula_units_Z   1
loop_
 _symmetry_equiv_pos_site_id
 _symmetry_equiv_pos_as_xyz
  1  'x, y, z'
loop_
 _atom_site_type_symbol
 _atom_site_label
 _atom_site_symmetry_multiplicity
 _atom_site_fract_x
 _atom_site_fract_y
 _atom_site_fract_z
 _atom_site_occupancy
  Y  Y0  1  0.000000  0.500000  0.500000  1
  Ho  Ho1  1  0.000000  0.000000  0.000000  1
  Ho  Ho2  1  0.000000  0.738070  0.279927  1
  Ho  Ho3  1  0.000000  0.261930  0.720073  1
  Ho  Ho4  1  0.000000  0.761933  0.780086  1
  Ho  Ho5  1  0.000000  0.238067  0.219914  1
  Ho  Ho6  1  0.000000  0.616522  0.082925  1
  Ho  Ho7  1  0.000000  0.383478  0.917075  1
  Ho  Ho8  1  0.000000  0.883857  0.583090  1
  Ho  Ho9  1  0.000000  0.116143  0.416910  1
  In  In10  1  0.500000  0.709480  0.930484  1
  In  In11  1  0.500000  0.290520  0.069516  1
  In  In12  1  0.500000  0.791323  0.430324  1
  In  In13  1  0.500000  0.208677  0.569676  1
  In  In14  1  0.500000  0.580253  0.650481  1
  In  In15  1  0.500000  0.419747  0.349519  1
  In  In16  1  0.500000  0.920092  0.150114  1
  In  In17  1  0.500000  0.079908  0.849886  1
  Cu  Cu18  1  0.500000  0.523930  0.197213  1
  Cu  Cu19  1  0.500000  0.476070  0.802787  1
  Cu  Cu20  1  0.500000  0.976069  0.697273  1
  Cu  Cu21  1  0.500000  0.023931  0.302727  1
