# generated using pymatgen
data_Pr2Dy3Lu3(WO6)4
_symmetry_space_group_name_H-M   'P 1'
_cell_length_a   5.43390823
_cell_length_b   7.74559350
_cell_length_c   11.45818968
_cell_angle_alpha   75.73020194
_cell_angle_beta   90.02038345
_cell_angle_gamma   90.10360701
_symmetry_Int_Tables_number   1
_chemical_formula_structural   Pr2Dy3Lu3(WO6)4
_chemical_formula_sum   'Pr2 Dy3 Lu3 W4 O24'
_cell_volume   467.38138569
_cell_formula_units_Z   1
loop_
 _symmetry_equiv_pos_site_id
 _symmetry_equiv_pos_as_xyz
  1  'x, y, z'
loop_
 _atom_site_type_symbol
 _atom_site_label
 _atom_site_symmetry_multiplicity
 _atom_site_fract_x
 _atom_site_fract_y
 _atom_site_fract_z
 _atom_site_occupancy
  Pr  Pr0  1  0.314643  0.499460  0.749550  1
  Pr  Pr1  1  0.685882  0.499177  0.251296  1
  Dy  Dy2  1  0.255890  0.000496  0.748574  1
  Dy  Dy3  1  0.184618  0.797413  0.076634  1
  Dy  Dy4  1  0.744615  0.000683  0.251844  1
  Lu  Lu5  1  0.183700  0.204144  0.421982  1
  Lu  Lu6  1  0.815222  0.204558  0.921702  1
  Lu  Lu7  1  0.816943  0.796073  0.577897  1
  W  W8  1  0.746126  0.728584  0.883020  1
  W  W9  1  0.255389  0.728569  0.385796  1
  W  W10  1  0.745418  0.270952  0.615437  1
  W  W11  1  0.254369  0.270690  0.115342  1
  O  O12  1  0.538885  0.158297  0.067414  1
  O  O13  1  0.041697  0.059943  0.102653  1
  O  O14  1  0.015177  0.722574  0.767828  1
  O  O15  1  0.457794  0.160844  0.567169  1
  O  O16  1  0.342936  0.492082  0.388043  1
  O  O17  1  0.951238  0.056092  0.602272  1
  O  O18  1  0.548804  0.796057  0.723482  1
  O  O19  1  0.455366  0.796241  0.228017  1
  O  O20  1  0.140559  0.642930  0.546876  1
  O  O21  1  0.049331  0.944221  0.398171  1
  O  O22  1  0.462165  0.842746  0.928683  1
  O  O23  1  0.451521  0.202173  0.275479  1
  O  O24  1  0.859751  0.356354  0.454031  1
  O  O25  1  0.656494  0.491521  0.885844  1
  O  O26  1  0.347001  0.505673  0.112543  1
  O  O27  1  0.951299  0.944595  0.896144  1
  O  O28  1  0.541350  0.840328  0.434655  1
  O  O29  1  0.987590  0.278672  0.232949  1
  O  O30  1  0.548093  0.203113  0.774808  1
  O  O31  1  0.853138  0.641123  0.045265  1
  O  O32  1  0.013532  0.277222  0.731783  1
  O  O33  1  0.140822  0.357024  0.953750  1
  O  O34  1  0.985294  0.722050  0.270830  1
  O  O35  1  0.657350  0.507327  0.612236  1
