# generated using pymatgen
data_Hf5ZrTi4Ga5Ge
_symmetry_space_group_name_H-M   'P 1'
_cell_length_a   7.87580200
_cell_length_b   7.88601412
_cell_length_c   5.46092300
_cell_angle_alpha   90.00000000
_cell_angle_beta   90.00000000
_cell_angle_gamma   119.95717212
_symmetry_Int_Tables_number   1
_chemical_formula_structural   Hf5ZrTi4Ga5Ge
_chemical_formula_sum   'Hf5 Zr1 Ti4 Ga5 Ge1'
_cell_volume   293.85716706
_cell_formula_units_Z   1
loop_
 _symmetry_equiv_pos_site_id
 _symmetry_equiv_pos_as_xyz
  1  'x, y, z'
loop_
 _atom_site_type_symbol
 _atom_site_label
 _atom_site_symmetry_multiplicity
 _atom_site_fract_x
 _atom_site_fract_y
 _atom_site_fract_z
 _atom_site_occupancy
  Hf  Hf0  1  0.242984  0.000000  0.250000  1
  Hf  Hf1  1  0.241915  0.243016  0.750000  1
  Hf  Hf2  1  0.998898  0.756984  0.750000  1
  Hf  Hf3  1  0.001221  0.243814  0.250000  1
  Hf  Hf4  1  0.757408  0.756186  0.250000  1
  Zr  Zr5  1  0.756269  0.000000  0.750000  1
  Ti  Ti6  1  0.666697  0.332422  0.000358  1
  Ti  Ti7  1  0.334274  0.667578  0.499642  1
  Ti  Ti8  1  0.666697  0.332422  0.499642  1
  Ti  Ti9  1  0.334274  0.667578  0.000358  1
  Ga  Ga10  1  0.396964  0.000000  0.750000  1
  Ga  Ga11  1  0.000207  0.600610  0.250000  1
  Ga  Ga12  1  0.000887  0.401523  0.750000  1
  Ga  Ga13  1  0.599363  0.598477  0.750000  1
  Ga  Ga14  1  0.399597  0.399390  0.250000  1
  Ge  Ge15  1  0.602345  0.000000  0.250000  1
