# generated using pymatgen
data_Er20Ir6(PdPt)3
_symmetry_space_group_name_H-M   'P 1'
_cell_length_a   10.96229161
_cell_length_b   10.95415926
_cell_length_c   6.30699668
_cell_angle_alpha   89.98686970
_cell_angle_beta   90.06386172
_cell_angle_gamma   89.97862478
_symmetry_Int_Tables_number   1
_chemical_formula_structural   Er20Ir6(PdPt)3
_chemical_formula_sum   'Er20 Ir6 Pd3 Pt3'
_cell_volume   757.36057270
_cell_formula_units_Z   1
loop_
 _symmetry_equiv_pos_site_id
 _symmetry_equiv_pos_as_xyz
  1  'x, y, z'
loop_
 _atom_site_type_symbol
 _atom_site_label
 _atom_site_symmetry_multiplicity
 _atom_site_fract_x
 _atom_site_fract_y
 _atom_site_fract_z
 _atom_site_occupancy
  Er  Er0  1  0.296667  0.089828  0.370638  1
  Er  Er1  1  0.296045  0.907813  0.874133  1
  Er  Er2  1  0.702156  0.088210  0.870247  1
  Er  Er3  1  0.701782  0.911593  0.369656  1
  Er  Er4  1  0.581404  0.791892  0.873839  1
  Er  Er5  1  0.581423  0.207901  0.374054  1
  Er  Er6  1  0.410631  0.793529  0.378912  1
  Er  Er7  1  0.412406  0.206848  0.878621  1
  Er  Er8  1  0.209858  0.416511  0.622913  1
  Er  Er9  1  0.209201  0.585851  0.122807  1
  Er  Er10  1  0.795313  0.414671  0.124194  1
  Er  Er11  1  0.795263  0.585895  0.624521  1
  Er  Er12  1  0.914766  0.702885  0.129946  1
  Er  Er13  1  0.912865  0.297487  0.629145  1
  Er  Er14  1  0.093182  0.703665  0.626545  1
  Er  Er15  1  0.092770  0.297663  0.129884  1
  Er  Er16  1  0.000469  0.999158  0.499648  1
  Er  Er17  1  0.000380  0.999511  0.000126  1
  Er  Er18  1  0.497240  0.498893  0.000293  1
  Er  Er19  1  0.497385  0.501168  0.499828  1
  Ir  Ir20  1  0.346377  0.345071  0.250621  1
  Ir  Ir21  1  0.346575  0.654266  0.750539  1
  Ir  Ir22  1  0.500663  0.999979  0.120277  1
  Ir  Ir23  1  0.500360  0.000177  0.621075  1
  Ir  Ir24  1  0.999555  0.500099  0.878892  1
  Ir  Ir25  1  0.999391  0.499245  0.379719  1
  Pd  Pd26  1  0.845393  0.153584  0.250668  1
  Pd  Pd27  1  0.844750  0.845962  0.750361  1
  Pd  Pd28  1  0.153375  0.154454  0.749704  1
  Pt  Pt29  1  0.152709  0.846201  0.249350  1
  Pt  Pt30  1  0.654672  0.346285  0.749491  1
  Pt  Pt31  1  0.654976  0.653704  0.249353  1
