# generated using pymatgen
data_Sm4Mg4Ir3Rh
_symmetry_space_group_name_H-M   'P 1'
_cell_length_a   4.16593600
_cell_length_b   7.20722674
_cell_length_c   8.70993900
_cell_angle_alpha   89.62092050
_cell_angle_beta   90.00000000
_cell_angle_gamma   90.00000000
_symmetry_Int_Tables_number   1
_chemical_formula_structural   Sm4Mg4Ir3Rh
_chemical_formula_sum   'Sm4 Mg4 Ir3 Rh1'
_cell_volume   261.50884776
_cell_formula_units_Z   1
loop_
 _symmetry_equiv_pos_site_id
 _symmetry_equiv_pos_as_xyz
  1  'x, y, z'
loop_
 _atom_site_type_symbol
 _atom_site_label
 _atom_site_symmetry_multiplicity
 _atom_site_fract_x
 _atom_site_fract_y
 _atom_site_fract_z
 _atom_site_occupancy
  Sm  Sm0  1  0.250000  0.539270  0.176938  1
  Sm  Sm1  1  0.750000  0.464694  0.825794  1
  Sm  Sm2  1  0.750000  0.955995  0.675248  1
  Sm  Sm3  1  0.250000  0.038539  0.322816  1
  Mg  Mg4  1  0.250000  0.633753  0.559183  1
  Mg  Mg5  1  0.750000  0.364935  0.440828  1
  Mg  Mg6  1  0.750000  0.866306  0.059611  1
  Mg  Mg7  1  0.250000  0.135474  0.941213  1
  Ir  Ir8  1  0.250000  0.755314  0.869404  1
  Ir  Ir9  1  0.750000  0.247986  0.128718  1
  Ir  Ir10  1  0.750000  0.746832  0.371813  1
  Rh  Rh11  1  0.250000  0.250900  0.628434  1
