# generated using pymatgen
data_Yb3Al9Tc3Os4
_symmetry_space_group_name_H-M   'P 1'
_cell_length_a   8.84670800
_cell_length_b   8.84670911
_cell_length_c   9.59184000
_cell_angle_alpha   90.00000000
_cell_angle_beta   90.00000000
_cell_angle_gamma   120.00001079
_symmetry_Int_Tables_number   1
_chemical_formula_structural   Yb3Al9Tc3Os4
_chemical_formula_sum   'Yb6 Al18 Tc6 Os8'
_cell_volume   650.12362875
_cell_formula_units_Z   2
loop_
 _symmetry_equiv_pos_site_id
 _symmetry_equiv_pos_as_xyz
  1  'x, y, z'
loop_
 _atom_site_type_symbol
 _atom_site_label
 _atom_site_symmetry_multiplicity
 _atom_site_fract_x
 _atom_site_fract_y
 _atom_site_fract_z
 _atom_site_occupancy
  Yb  Yb0  1  0.198118  0.396238  0.250000  1
  Yb  Yb1  1  0.801882  0.603762  0.750000  1
  Yb  Yb2  1  0.603762  0.801882  0.250000  1
  Yb  Yb3  1  0.396238  0.198118  0.750000  1
  Yb  Yb4  1  0.198118  0.801882  0.250000  1
  Yb  Yb5  1  0.801882  0.198118  0.750000  1
  Al  Al6  1  0.333333  0.666667  0.001231  1
  Al  Al7  1  0.666667  0.333333  0.998769  1
  Al  Al8  1  0.666667  0.333333  0.501231  1
  Al  Al9  1  0.333333  0.666667  0.498769  1
  Al  Al10  1  0.164297  0.328595  0.580145  1
  Al  Al11  1  0.835703  0.671405  0.419855  1
  Al  Al12  1  0.671405  0.835703  0.580145  1
  Al  Al13  1  0.835703  0.671405  0.080145  1
  Al  Al14  1  0.328595  0.164297  0.419855  1
  Al  Al15  1  0.164297  0.328595  0.919855  1
  Al  Al16  1  0.164297  0.835703  0.580145  1
  Al  Al17  1  0.328595  0.164297  0.080145  1
  Al  Al18  1  0.835703  0.164297  0.419855  1
  Al  Al19  1  0.671405  0.835703  0.919855  1
  Al  Al20  1  0.835703  0.164297  0.080145  1
  Al  Al21  1  0.164297  0.835703  0.919855  1
  Al  Al22  1  0.000000  0.000000  0.250000  1
  Al  Al23  1  0.000000  0.000000  0.750000  1
  Tc  Tc24  1  0.570116  0.140232  0.250000  1
  Tc  Tc25  1  0.429884  0.859768  0.750000  1
  Tc  Tc26  1  0.859768  0.429884  0.250000  1
  Tc  Tc27  1  0.140232  0.570116  0.750000  1
  Tc  Tc28  1  0.570116  0.429884  0.250000  1
  Tc  Tc29  1  0.429884  0.570116  0.750000  1
  Os  Os30  1  0.500000  0.000000  0.000000  1
  Os  Os31  1  0.000000  0.500000  0.000000  1
  Os  Os32  1  0.500000  0.000000  0.500000  1
  Os  Os33  1  0.500000  0.500000  0.000000  1
  Os  Os34  1  0.000000  0.500000  0.500000  1
  Os  Os35  1  0.500000  0.500000  0.500000  1
  Os  Os36  1  0.000000  0.000000  0.000000  1
  Os  Os37  1  0.000000  0.000000  0.500000  1
