# generated using pymatgen
data_Sr2Ir2O6F
_symmetry_space_group_name_H-M   'P 1'
_cell_length_a   7.45171432
_cell_length_b   7.45171302
_cell_length_c   7.45171300
_cell_angle_alpha   59.99999567
_cell_angle_beta   60.00000144
_cell_angle_gamma   60.00000032
_symmetry_Int_Tables_number   1
_chemical_formula_structural   Sr2Ir2O6F
_chemical_formula_sum   'Sr4 Ir4 O12 F2'
_cell_volume   292.58592605
_cell_formula_units_Z   2
loop_
 _symmetry_equiv_pos_site_id
 _symmetry_equiv_pos_as_xyz
  1  'x, y, z'
loop_
 _atom_site_type_symbol
 _atom_site_label
 _atom_site_symmetry_multiplicity
 _atom_site_fract_x
 _atom_site_fract_y
 _atom_site_fract_z
 _atom_site_occupancy
  Sr  Sr0  1  0.125000  0.125000  0.625000  1
  Sr  Sr1  1  0.125000  0.625000  0.125000  1
  Sr  Sr2  1  0.625000  0.125000  0.125000  1
  Sr  Sr3  1  0.125000  0.125000  0.125000  1
  Ir  Ir4  1  0.625000  0.625000  0.125000  1
  Ir  Ir5  1  0.625000  0.125000  0.625000  1
  Ir  Ir6  1  0.125000  0.625000  0.625000  1
  Ir  Ir7  1  0.625000  0.625000  0.625000  1
  O  O8  1  0.300543  0.300543  0.699457  1
  O  O9  1  0.699457  0.699457  0.300543  1
  O  O10  1  0.949457  0.550543  0.550543  1
  O  O11  1  0.699457  0.300543  0.300543  1
  O  O12  1  0.550543  0.949457  0.550543  1
  O  O13  1  0.550543  0.550543  0.949457  1
  O  O14  1  0.300543  0.699457  0.699457  1
  O  O15  1  0.949457  0.550543  0.949457  1
  O  O16  1  0.550543  0.949457  0.949457  1
  O  O17  1  0.699457  0.300543  0.699457  1
  O  O18  1  0.300543  0.699457  0.300543  1
  O  O19  1  0.949457  0.949457  0.550543  1
  F  F20  1  0.250000  0.250000  0.250000  1
  F  F21  1  0.000000  0.000000  0.000000  1
