# generated using pymatgen
data_TmNb3(PO4)6
_symmetry_space_group_name_H-M   'P 1'
_cell_length_a   8.88681629
_cell_length_b   8.88212754
_cell_length_c   9.18265762
_cell_angle_alpha   90.10045711
_cell_angle_beta   118.84420873
_cell_angle_gamma   120.00760455
_symmetry_Int_Tables_number   1
_chemical_formula_structural   TmNb3(PO4)6
_chemical_formula_sum   'Tm1 Nb3 P6 O24'
_cell_volume   520.81277238
_cell_formula_units_Z   1
loop_
 _symmetry_equiv_pos_site_id
 _symmetry_equiv_pos_as_xyz
  1  'x, y, z'
loop_
 _atom_site_type_symbol
 _atom_site_label
 _atom_site_symmetry_multiplicity
 _atom_site_fract_x
 _atom_site_fract_y
 _atom_site_fract_z
 _atom_site_occupancy
  Tm  Tm0  1  0.220647  0.861673  0.082211  1
  Nb  Nb1  1  0.787171  0.642487  0.430219  1
  Nb  Nb2  1  0.214234  0.358017  0.571352  1
  Nb  Nb3  1  0.784589  0.141202  0.926375  1
  P  P4  1  0.984180  0.962528  0.249242  1
  P  P5  1  0.286538  0.522083  0.251198  1
  P  P6  1  0.285468  0.753220  0.747524  1
  P  P7  1  0.728580  0.263779  0.252656  1
  P  P8  1  0.716735  0.464025  0.748715  1
  P  P9  1  0.998532  0.034150  0.750883  1
  O  O10  1  0.301330  0.695054  0.229692  1
  O  O11  1  0.846048  0.989737  0.080640  1
  O  O12  1  0.856987  0.857864  0.591163  1
  O  O13  1  0.834188  0.797307  0.282000  1
  O  O14  1  0.128157  0.929516  0.237380  1
  O  O15  1  0.485465  0.538722  0.285183  1
  O  O16  1  0.093187  0.731827  0.582551  1
  O  O17  1  0.889126  0.630007  0.908924  1
  O  O18  1  0.280734  0.767567  0.907523  1
  O  O19  1  0.487658  0.927510  0.775981  1
  O  O20  1  0.731011  0.491967  0.587218  1
  O  O21  1  0.739105  0.443933  0.278422  1
  O  O22  1  0.293162  0.586542  0.709376  1
  O  O23  1  0.280436  0.490222  0.414112  1
  O  O24  1  0.538551  0.105233  0.237105  1
  O  O25  1  0.733952  0.233519  0.088491  1
  O  O26  1  0.091136  0.350489  0.087354  1
  O  O27  1  0.928011  0.299349  0.417848  1
  O  O28  1  0.499800  0.413904  0.701724  1
  O  O29  1  0.850682  0.062063  0.775822  1
  O  O30  1  0.121933  0.203875  0.705396  1
  O  O31  1  0.113226  0.133355  0.408268  1
  O  O32  1  0.149148  0.024805  0.915537  1
  O  O33  1  0.720297  0.292470  0.781911  1
