# generated using pymatgen
data_Cs3K2Li(ReH9)3
_symmetry_space_group_name_H-M   'P 1'
_cell_length_a   9.56348637
_cell_length_b   9.69813456
_cell_length_c   6.24001400
_cell_angle_alpha   90.00000000
_cell_angle_beta   90.00000000
_cell_angle_gamma   120.46685847
_symmetry_Int_Tables_number   1
_chemical_formula_structural   Cs3K2Li(ReH9)3
_chemical_formula_sum   'Cs3 K2 Li1 Re3 H27'
_cell_volume   498.83656122
_cell_formula_units_Z   1
loop_
 _symmetry_equiv_pos_site_id
 _symmetry_equiv_pos_as_xyz
  1  'x, y, z'
loop_
 _atom_site_type_symbol
 _atom_site_label
 _atom_site_symmetry_multiplicity
 _atom_site_fract_x
 _atom_site_fract_y
 _atom_site_fract_z
 _atom_site_occupancy
  Cs  Cs0  1  0.000000  0.587409  0.000000  1
  Cs  Cs1  1  0.413972  0.412575  0.000000  1
  Cs  Cs2  1  0.586028  0.998604  0.000000  1
  K  K3  1  0.750950  0.761217  0.500000  1
  K  K4  1  0.249050  0.010267  0.500000  1
  Li  Li5  1  0.000000  0.384316  0.500000  1
  Re  Re6  1  0.683251  0.333401  0.500000  1
  Re  Re7  1  0.316749  0.650152  0.500000  1
  Re  Re8  1  0.000000  0.996721  0.000000  1
  H  H9  1  0.799859  0.306434  0.688195  1
  H  H10  1  0.703827  0.460936  0.701463  1
  H  H11  1  0.544289  0.224858  0.693513  1
  H  H12  1  0.200141  0.506575  0.311805  1
  H  H13  1  0.544289  0.224858  0.306487  1
  H  H14  1  0.799859  0.306434  0.311805  1
  H  H15  1  0.703827  0.460936  0.298537  1
  H  H16  1  0.296173  0.757110  0.701463  1
  H  H17  1  0.455711  0.680569  0.693513  1
  H  H18  1  0.181651  0.005127  0.000000  1
  H  H19  1  0.818349  0.823476  0.000000  1
  H  H20  1  0.000000  0.169548  0.000000  1
  H  H21  1  0.878048  0.003065  0.194573  1
  H  H22  1  0.121952  0.125017  0.805427  1
  H  H23  1  0.000000  0.871537  0.803505  1
  H  H24  1  0.000000  0.871537  0.196495  1
  H  H25  1  0.121952  0.125017  0.194573  1
  H  H26  1  0.878048  0.003065  0.805427  1
  H  H27  1  0.131399  0.632076  0.500000  1
  H  H28  1  0.468776  0.842646  0.500000  1
  H  H29  1  0.360506  0.503108  0.500000  1
  H  H30  1  0.531224  0.373870  0.500000  1
  H  H31  1  0.868601  0.500678  0.500000  1
  H  H32  1  0.639494  0.142603  0.500000  1
  H  H33  1  0.200141  0.506575  0.688195  1
  H  H34  1  0.296173  0.757110  0.298537  1
  H  H35  1  0.455711  0.680569  0.306487  1
