# generated using pymatgen
data_CeTm2In3Rh2Au
_symmetry_space_group_name_H-M   'P 1'
_cell_length_a   7.72930053
_cell_length_b   7.72253244
_cell_length_c   3.78644700
_cell_angle_alpha   90.00000000
_cell_angle_beta   90.00000000
_cell_angle_gamma   119.27462854
_symmetry_Int_Tables_number   1
_chemical_formula_structural   CeTm2In3Rh2Au
_chemical_formula_sum   'Ce1 Tm2 In3 Rh2 Au1'
_cell_volume   197.14722393
_cell_formula_units_Z   1
loop_
 _symmetry_equiv_pos_site_id
 _symmetry_equiv_pos_as_xyz
  1  'x, y, z'
loop_
 _atom_site_type_symbol
 _atom_site_label
 _atom_site_symmetry_multiplicity
 _atom_site_fract_x
 _atom_site_fract_y
 _atom_site_fract_z
 _atom_site_occupancy
  Ce  Ce0  1  0.605646  0.023545  0.000000  1
  Tm  Tm1  1  0.987518  0.590526  0.000000  1
  Tm  Tm2  1  0.414430  0.395960  0.000000  1
  In  In3  1  0.741345  0.733917  0.500000  1
  In  In4  1  0.009432  0.264882  0.500000  1
  In  In5  1  0.251627  0.003337  0.500000  1
  Rh  Rh6  1  0.665192  0.323916  0.500000  1
  Rh  Rh7  1  0.990983  0.996286  0.000000  1
  Au  Au8  1  0.333828  0.667630  0.500000  1
