# generated using pymatgen
data_NaCa2(SnP)6
_symmetry_space_group_name_H-M   'P 1'
_cell_length_a   6.95169809
_cell_length_b   6.95169884
_cell_length_c   9.17946575
_cell_angle_alpha   82.74428816
_cell_angle_beta   82.74429051
_cell_angle_gamma   120.03236877
_symmetry_Int_Tables_number   1
_chemical_formula_structural   NaCa2(SnP)6
_chemical_formula_sum   'Na1 Ca2 Sn6 P6'
_cell_volume   371.58391514
_cell_formula_units_Z   1
loop_
 _symmetry_equiv_pos_site_id
 _symmetry_equiv_pos_as_xyz
  1  'x, y, z'
loop_
 _atom_site_type_symbol
 _atom_site_label
 _atom_site_symmetry_multiplicity
 _atom_site_fract_x
 _atom_site_fract_y
 _atom_site_fract_z
 _atom_site_occupancy
  Na  Na0  1  0.000000  0.000000  0.000000  1
  Ca  Ca1  1  0.666555  0.333445  0.000000  1
  Ca  Ca2  1  0.333445  0.666555  0.000000  1
  Sn  Sn3  1  0.545956  0.879680  0.360621  1
  Sn  Sn4  1  0.213216  0.213216  0.362119  1
  Sn  Sn5  1  0.879680  0.545956  0.360621  1
  Sn  Sn6  1  0.454044  0.120320  0.639379  1
  Sn  Sn7  1  0.120320  0.454044  0.639379  1
  Sn  Sn8  1  0.786784  0.786784  0.637881  1
  P  P9  1  0.406275  0.406275  0.789589  1
  P  P10  1  0.070066  0.733237  0.789803  1
  P  P11  1  0.733237  0.070066  0.789803  1
  P  P12  1  0.593725  0.593725  0.210411  1
  P  P13  1  0.266763  0.929934  0.210197  1
  P  P14  1  0.929934  0.266763  0.210197  1
