# generated using pymatgen
data_Er3InIr8
_symmetry_space_group_name_H-M   'P 1'
_cell_length_a   5.33483000
_cell_length_b   5.33482974
_cell_length_c   8.64499400
_cell_angle_alpha   90.00000000
_cell_angle_beta   90.00000000
_cell_angle_gamma   120.00000164
_symmetry_Int_Tables_number   1
_chemical_formula_structural   Er3InIr8
_chemical_formula_sum   'Er3 In1 Ir8'
_cell_volume   213.07694855
_cell_formula_units_Z   1
loop_
 _symmetry_equiv_pos_site_id
 _symmetry_equiv_pos_as_xyz
  1  'x, y, z'
loop_
 _atom_site_type_symbol
 _atom_site_label
 _atom_site_symmetry_multiplicity
 _atom_site_fract_x
 _atom_site_fract_y
 _atom_site_fract_z
 _atom_site_occupancy
  Er  Er0  1  0.333334  0.666667  0.419217  1
  Er  Er1  1  0.666667  0.333333  0.569303  1
  Er  Er2  1  0.666667  0.333333  0.941029  1
  In  In3  1  0.333334  0.666667  0.059073  1
  Ir  Ir4  1  0.000000  0.000000  0.001848  1
  Ir  Ir5  1  0.339612  0.169806  0.251848  1
  Ir  Ir6  1  0.830193  0.169806  0.251848  1
  Ir  Ir7  1  0.830194  0.660386  0.251848  1
  Ir  Ir8  1  0.000000  0.000000  0.503418  1
  Ir  Ir9  1  0.170572  0.341144  0.750190  1
  Ir  Ir10  1  0.170573  0.829429  0.750190  1
  Ir  Ir11  1  0.658856  0.829429  0.750190  1
