# generated using pymatgen
data_Rb7(FeSe2)4
_symmetry_space_group_name_H-M   'P 1'
_cell_length_a   10.47241535
_cell_length_b   10.47241454
_cell_length_c   16.88336021
_cell_angle_alpha   64.82158391
_cell_angle_beta   64.82158538
_cell_angle_gamma   48.15217104
_symmetry_Int_Tables_number   1
_chemical_formula_structural   Rb7(FeSe2)4
_chemical_formula_sum   'Rb14 Fe8 Se16'
_cell_volume   1220.40950364
_cell_formula_units_Z   2
loop_
 _symmetry_equiv_pos_site_id
 _symmetry_equiv_pos_as_xyz
  1  'x, y, z'
loop_
 _atom_site_type_symbol
 _atom_site_label
 _atom_site_symmetry_multiplicity
 _atom_site_fract_x
 _atom_site_fract_y
 _atom_site_fract_z
 _atom_site_occupancy
  Rb  Rb0  1  0.231287  0.768713  0.750000  1
  Rb  Rb1  1  0.768713  0.231287  0.250000  1
  Rb  Rb2  1  0.241450  0.746646  0.990115  1
  Rb  Rb3  1  0.253354  0.758550  0.509885  1
  Rb  Rb4  1  0.758550  0.253354  0.009885  1
  Rb  Rb5  1  0.746646  0.241450  0.490115  1
  Rb  Rb6  1  0.002314  0.520283  0.610853  1
  Rb  Rb7  1  0.479717  0.997686  0.889147  1
  Rb  Rb8  1  0.997686  0.479717  0.389147  1
  Rb  Rb9  1  0.520283  0.002314  0.110853  1
  Rb  Rb10  1  0.012027  0.506616  0.860918  1
  Rb  Rb11  1  0.493384  0.987973  0.639082  1
  Rb  Rb12  1  0.987973  0.493384  0.139082  1
  Rb  Rb13  1  0.506616  0.012027  0.360918  1
  Fe  Fe14  1  0.680554  0.429968  0.667381  1
  Fe  Fe15  1  0.570032  0.319446  0.832619  1
  Fe  Fe16  1  0.319446  0.570032  0.332619  1
  Fe  Fe17  1  0.429968  0.680554  0.167381  1
  Fe  Fe18  1  0.894064  0.213793  0.776958  1
  Fe  Fe19  1  0.786207  0.105936  0.723042  1
  Fe  Fe20  1  0.105936  0.786207  0.223042  1
  Fe  Fe21  1  0.213793  0.894064  0.276958  1
  Se  Se22  1  0.650229  0.514473  0.791962  1
  Se  Se23  1  0.485527  0.349771  0.708038  1
  Se  Se24  1  0.349771  0.485527  0.208038  1
  Se  Se25  1  0.514473  0.650229  0.291962  1
  Se  Se26  1  0.981117  0.187646  0.622349  1
  Se  Se27  1  0.812354  0.018883  0.877651  1
  Se  Se28  1  0.018883  0.812354  0.377651  1
  Se  Se29  1  0.187646  0.981117  0.122349  1
  Se  Se30  1  0.672617  0.608722  0.046368  1
  Se  Se31  1  0.391278  0.327383  0.453632  1
  Se  Se32  1  0.327383  0.391278  0.953632  1
  Se  Se33  1  0.608722  0.672617  0.546368  1
  Se  Se34  1  0.868024  0.866279  0.682579  1
  Se  Se35  1  0.133721  0.131976  0.817421  1
  Se  Se36  1  0.131976  0.133721  0.317421  1
  Se  Se37  1  0.866279  0.868024  0.182579  1
