# generated using pymatgen
data_Yb3ThRu2(PtO7)2
_symmetry_space_group_name_H-M   'P 1'
_cell_length_a   7.28373373
_cell_length_b   7.28373359
_cell_length_c   7.33425442
_cell_angle_alpha   59.84066844
_cell_angle_beta   59.84067200
_cell_angle_gamma   59.66581073
_symmetry_Int_Tables_number   1
_chemical_formula_structural   Yb3ThRu2(PtO7)2
_chemical_formula_sum   'Yb3 Th1 Ru2 Pt2 O14'
_cell_volume   273.77600098
_cell_formula_units_Z   1
loop_
 _symmetry_equiv_pos_site_id
 _symmetry_equiv_pos_as_xyz
  1  'x, y, z'
loop_
 _atom_site_type_symbol
 _atom_site_label
 _atom_site_symmetry_multiplicity
 _atom_site_fract_x
 _atom_site_fract_y
 _atom_site_fract_z
 _atom_site_occupancy
  Yb  Yb0  1  0.625000  0.125000  0.125000  1
  Yb  Yb1  1  0.125000  0.125000  0.625000  1
  Yb  Yb2  1  0.125000  0.625000  0.125000  1
  Th  Th3  1  0.125000  0.125000  0.125000  1
  Ru  Ru4  1  0.625000  0.625000  0.625000  1
  Ru  Ru5  1  0.625000  0.625000  0.125000  1
  Pt  Pt6  1  0.125000  0.625000  0.625000  1
  Pt  Pt7  1  0.625000  0.125000  0.625000  1
  O  O8  1  0.002222  0.002222  0.003500  1
  O  O9  1  0.247778  0.247778  0.246500  1
  O  O10  1  0.285436  0.285436  0.710359  1
  O  O11  1  0.558591  0.558591  0.942688  1
  O  O12  1  0.697910  0.299813  0.709701  1
  O  O13  1  0.703090  0.293990  0.290257  1
  O  O14  1  0.299813  0.697910  0.709701  1
  O  O15  1  0.293990  0.703090  0.290257  1
  O  O16  1  0.691409  0.691409  0.307312  1
  O  O17  1  0.950187  0.552090  0.540299  1
  O  O18  1  0.546910  0.956010  0.959743  1
  O  O19  1  0.964564  0.964564  0.539641  1
  O  O20  1  0.956010  0.546910  0.959743  1
  O  O21  1  0.552090  0.950187  0.540299  1
