# generated using pymatgen
data_K3Sr3AlSb4
_symmetry_space_group_name_H-M   'P 1'
_cell_length_a   10.89390100
_cell_length_b   10.89390124
_cell_length_c   8.01198000
_cell_angle_alpha   90.00000000
_cell_angle_beta   90.00000000
_cell_angle_gamma   120.00000231
_symmetry_Int_Tables_number   1
_chemical_formula_structural   K3Sr3AlSb4
_chemical_formula_sum   'K6 Sr6 Al2 Sb8'
_cell_volume   823.45019383
_cell_formula_units_Z   2
loop_
 _symmetry_equiv_pos_site_id
 _symmetry_equiv_pos_as_xyz
  1  'x, y, z'
loop_
 _atom_site_type_symbol
 _atom_site_label
 _atom_site_symmetry_multiplicity
 _atom_site_fract_x
 _atom_site_fract_y
 _atom_site_fract_z
 _atom_site_occupancy
  K  K0  1  0.861080  0.138920  0.542220  1
  K  K1  1  0.277840  0.138920  0.542220  1
  K  K2  1  0.861080  0.722160  0.542220  1
  K  K3  1  0.138920  0.861080  0.042220  1
  K  K4  1  0.722160  0.861080  0.042220  1
  K  K5  1  0.138920  0.277840  0.042220  1
  Sr  Sr6  1  0.477000  0.523000  0.734671  1
  Sr  Sr7  1  0.046000  0.523000  0.734671  1
  Sr  Sr8  1  0.477000  0.954000  0.734671  1
  Sr  Sr9  1  0.523000  0.477000  0.234671  1
  Sr  Sr10  1  0.954000  0.477000  0.234671  1
  Sr  Sr11  1  0.523000  0.046000  0.234671  1
  Al  Al12  1  0.666667  0.333333  0.853531  1
  Al  Al13  1  0.333333  0.666667  0.353531  1
  Sb  Sb14  1  0.802370  0.197630  0.964088  1
  Sb  Sb15  1  0.395261  0.197630  0.964088  1
  Sb  Sb16  1  0.802370  0.604739  0.964088  1
  Sb  Sb17  1  0.197630  0.802370  0.464088  1
  Sb  Sb18  1  0.604739  0.802370  0.464088  1
  Sb  Sb19  1  0.197630  0.395261  0.464088  1
  Sb  Sb20  1  0.666667  0.333333  0.508897  1
  Sb  Sb21  1  0.333333  0.666667  0.008897  1
