# generated using pymatgen
data_Ce7Pr4O20
_symmetry_space_group_name_H-M   'P 1'
_cell_length_a   6.77628759
_cell_length_b   6.80855802
_cell_length_c   10.37587802
_cell_angle_alpha   96.36243397
_cell_angle_beta   89.99962347
_cell_angle_gamma   99.84194078
_symmetry_Int_Tables_number   1
_chemical_formula_structural   Ce7Pr4O20
_chemical_formula_sum   'Ce7 Pr4 O20'
_cell_volume   468.67138736
_cell_formula_units_Z   1
loop_
 _symmetry_equiv_pos_site_id
 _symmetry_equiv_pos_as_xyz
  1  'x, y, z'
loop_
 _atom_site_type_symbol
 _atom_site_label
 _atom_site_symmetry_multiplicity
 _atom_site_fract_x
 _atom_site_fract_y
 _atom_site_fract_z
 _atom_site_occupancy
  Ce  Ce0  1  0.880034  0.446083  0.827228  1
  Ce  Ce1  1  0.272181  0.640082  0.526515  1
  Ce  Ce2  1  0.729788  0.358941  0.474687  1
  Ce  Ce3  1  0.357491  0.146752  0.724142  1
  Ce  Ce4  1  0.643672  0.855400  0.275533  1
  Ce  Ce5  1  0.470123  0.734183  0.917036  1
  Ce  Ce6  1  0.526462  0.263869  0.081104  1
  Pr  Pr7  1  0.997756  0.001750  0.999842  1
  Pr  Pr8  1  0.178527  0.103179  0.364920  1
  Pr  Pr9  1  0.819111  0.895822  0.635920  1
  Pr  Pr10  1  0.122782  0.554864  0.172844  1
  O  O11  1  0.140681  0.652144  0.949495  1
  O  O12  1  0.853479  0.339966  0.030614  1
  O  O13  1  0.041327  0.172916  0.794935  1
  O  O14  1  0.952897  0.842691  0.206063  1
  O  O15  1  0.042964  0.436929  0.380833  1
  O  O16  1  0.956626  0.560230  0.632448  1
  O  O17  1  0.163090  0.938473  0.567498  1
  O  O18  1  0.833878  0.059711  0.437251  1
  O  O19  1  0.350662  0.036024  0.923509  1
  O  O20  1  0.644226  0.964557  0.072390  1
  O  O21  1  0.213039  0.224900  0.152250  1
  O  O22  1  0.788460  0.762732  0.847604  1
  O  O23  1  0.322699  0.796027  0.338954  1
  O  O24  1  0.683204  0.209025  0.667985  1
  O  O25  1  0.366166  0.338611  0.547656  1
  O  O26  1  0.637439  0.659040  0.455239  1
  O  O27  1  0.452211  0.812168  0.701024  1
  O  O28  1  0.553855  0.191945  0.298245  1
  O  O29  1  0.476926  0.591249  0.123200  1
  O  O30  1  0.528244  0.409736  0.873037  1
