# generated using pymatgen
data_Tb4Si12Tc3Ni17
_symmetry_space_group_name_H-M   'P 1'
_cell_length_a   3.75624300
_cell_length_b   10.66125166
_cell_length_c   12.09209487
_cell_angle_alpha   89.45190567
_cell_angle_beta   90.00000000
_cell_angle_gamma   90.00000000
_symmetry_Int_Tables_number   1
_chemical_formula_structural   Tb4Si12Tc3Ni17
_chemical_formula_sum   'Tb4 Si12 Tc3 Ni17'
_cell_volume   484.22092138
_cell_formula_units_Z   1
loop_
 _symmetry_equiv_pos_site_id
 _symmetry_equiv_pos_as_xyz
  1  'x, y, z'
loop_
 _atom_site_type_symbol
 _atom_site_label
 _atom_site_symmetry_multiplicity
 _atom_site_fract_x
 _atom_site_fract_y
 _atom_site_fract_z
 _atom_site_occupancy
  Tb  Tb0  1  0.250000  0.581339  0.701477  1
  Tb  Tb1  1  0.250000  0.912874  0.204627  1
  Tb  Tb2  1  0.750000  0.414591  0.297090  1
  Tb  Tb3  1  0.750000  0.084958  0.794593  1
  Si  Si4  1  0.250000  0.413986  0.110922  1
  Si  Si5  1  0.250000  0.091106  0.606059  1
  Si  Si6  1  0.750000  0.585523  0.889202  1
  Si  Si7  1  0.750000  0.913258  0.388898  1
  Si  Si8  1  0.250000  0.270890  0.869089  1
  Si  Si9  1  0.250000  0.229083  0.375948  1
  Si  Si10  1  0.750000  0.728629  0.130534  1
  Si  Si11  1  0.750000  0.773131  0.629685  1
  Si  Si12  1  0.250000  0.598468  0.392325  1
  Si  Si13  1  0.250000  0.901195  0.891102  1
  Si  Si14  1  0.750000  0.395487  0.606066  1
  Si  Si15  1  0.750000  0.098829  0.110185  1
  Tc  Tc16  1  0.250000  0.705926  0.989797  1
  Tc  Tc17  1  0.250000  0.792246  0.490017  1
  Tc  Tc18  1  0.750000  0.292760  0.010237  1
  Ni  Ni19  1  0.750000  0.210172  0.510098  1
  Ni  Ni20  1  0.250000  0.407630  0.489166  1
  Ni  Ni21  1  0.250000  0.091618  0.990480  1
  Ni  Ni22  1  0.750000  0.591812  0.510341  1
  Ni  Ni23  1  0.750000  0.908938  0.010101  1
  Ni  Ni24  1  0.250000  0.212629  0.179571  1
  Ni  Ni25  1  0.250000  0.284647  0.678004  1
  Ni  Ni26  1  0.750000  0.786534  0.821771  1
  Ni  Ni27  1  0.750000  0.713463  0.323229  1
  Ni  Ni28  1  0.250000  0.888729  0.698008  1
  Ni  Ni29  1  0.250000  0.613656  0.200669  1
  Ni  Ni30  1  0.750000  0.116747  0.303620  1
  Ni  Ni31  1  0.750000  0.386265  0.799679  1
  Ni  Ni32  1  0.250000  0.468672  0.928373  1
  Ni  Ni33  1  0.250000  0.030145  0.427911  1
  Ni  Ni34  1  0.750000  0.530921  0.072073  1
  Ni  Ni35  1  0.750000  0.973147  0.569053  1
