# generated using pymatgen
data_Dy3ErLuSi3H
_symmetry_space_group_name_H-M   'P 1'
_cell_length_a   8.39475100
_cell_length_b   8.39475294
_cell_length_c   6.17338800
_cell_angle_alpha   90.00000000
_cell_angle_beta   90.00000000
_cell_angle_gamma   120.00000417
_symmetry_Int_Tables_number   1
_chemical_formula_structural   Dy3ErLuSi3H
_chemical_formula_sum   'Dy6 Er2 Lu2 Si6 H2'
_cell_volume   376.76445634
_cell_formula_units_Z   2
loop_
 _symmetry_equiv_pos_site_id
 _symmetry_equiv_pos_as_xyz
  1  'x, y, z'
loop_
 _atom_site_type_symbol
 _atom_site_label
 _atom_site_symmetry_multiplicity
 _atom_site_fract_x
 _atom_site_fract_y
 _atom_site_fract_z
 _atom_site_occupancy
  Dy  Dy0  1  0.749435  0.749435  0.749380  1
  Dy  Dy1  1  0.250565  0.000000  0.749380  1
  Dy  Dy2  1  0.000000  0.250565  0.749380  1
  Dy  Dy3  1  0.250565  0.250565  0.250620  1
  Dy  Dy4  1  0.749435  0.000000  0.250620  1
  Dy  Dy5  1  0.000000  0.749435  0.250620  1
  Er  Er6  1  0.666667  0.333333  0.000000  1
  Er  Er7  1  0.333333  0.666667  0.000000  1
  Lu  Lu8  1  0.333333  0.666667  0.500000  1
  Lu  Lu9  1  0.666667  0.333333  0.500000  1
  Si  Si10  1  0.390743  0.390743  0.748033  1
  Si  Si11  1  0.609257  0.000000  0.748033  1
  Si  Si12  1  0.000000  0.609257  0.748033  1
  Si  Si13  1  0.609257  0.609257  0.251967  1
  Si  Si14  1  0.390743  0.000000  0.251967  1
  Si  Si15  1  0.000000  0.390743  0.251967  1
  H  H16  1  0.000000  0.000000  0.500000  1
  H  H17  1  0.000000  0.000000  0.000000  1
