# generated using pymatgen
data_ZnTePtO6
_symmetry_space_group_name_H-M   'P 1'
_cell_length_a   4.68296200
_cell_length_b   4.68296200
_cell_length_c   9.43134400
_cell_angle_alpha   90.00000000
_cell_angle_beta   90.00000000
_cell_angle_gamma   89.99992659
_symmetry_Int_Tables_number   1
_chemical_formula_structural   ZnTePtO6
_chemical_formula_sum   'Zn2 Te2 Pt2 O12'
_cell_volume   206.83062921
_cell_formula_units_Z   2
loop_
 _symmetry_equiv_pos_site_id
 _symmetry_equiv_pos_as_xyz
  1  'x, y, z'
loop_
 _atom_site_type_symbol
 _atom_site_label
 _atom_site_symmetry_multiplicity
 _atom_site_fract_x
 _atom_site_fract_y
 _atom_site_fract_z
 _atom_site_occupancy
  Zn  Zn0  1  0.500000  0.500000  0.833744  1
  Zn  Zn1  1  0.000000  0.000000  0.333747  1
  Te  Te2  1  0.500000  0.500000  0.501601  1
  Te  Te3  1  0.000000  0.000000  0.001583  1
  Pt  Pt4  1  0.500000  0.500000  0.166146  1
  Pt  Pt5  1  0.000000  0.000000  0.666179  1
  O  O6  1  0.199285  0.800715  0.500694  1
  O  O7  1  0.800715  0.199285  0.500694  1
  O  O8  1  0.300708  0.300708  0.000711  1
  O  O9  1  0.699292  0.699292  0.000711  1
  O  O10  1  0.192574  0.807426  0.161661  1
  O  O11  1  0.807426  0.192574  0.161661  1
  O  O12  1  0.307434  0.307434  0.661642  1
  O  O13  1  0.692566  0.692566  0.661642  1
  O  O14  1  0.812138  0.187862  0.836904  1
  O  O15  1  0.187862  0.812138  0.836904  1
  O  O16  1  0.687872  0.687872  0.336887  1
  O  O17  1  0.312129  0.312129  0.336887  1
