# generated using pymatgen
data_K8Sr4TiSiP8
_symmetry_space_group_name_H-M   'P 1'
_cell_length_a   10.00528114
_cell_length_b   9.97709320
_cell_length_c   7.58053355
_cell_angle_alpha   88.30957872
_cell_angle_beta   88.12535236
_cell_angle_gamma   119.27847995
_symmetry_Int_Tables_number   1
_chemical_formula_structural   K8Sr4TiSiP8
_chemical_formula_sum   'K8 Sr4 Ti1 Si1 P8'
_cell_volume   658.79581783
_cell_formula_units_Z   1
loop_
 _symmetry_equiv_pos_site_id
 _symmetry_equiv_pos_as_xyz
  1  'x, y, z'
loop_
 _atom_site_type_symbol
 _atom_site_label
 _atom_site_symmetry_multiplicity
 _atom_site_fract_x
 _atom_site_fract_y
 _atom_site_fract_z
 _atom_site_occupancy
  K  K0  1  0.052652  0.523193  0.613534  1
  K  K1  1  0.524713  0.056290  0.113333  1
  K  K2  1  0.276716  0.133468  0.828532  1
  K  K3  1  0.873513  0.732651  0.763423  1
  K  K4  1  0.859669  0.145627  0.800353  1
  K  K5  1  0.731583  0.873023  0.265613  1
  K  K6  1  0.134598  0.277787  0.330443  1
  K  K7  1  0.146034  0.860028  0.302212  1
  Sr  Sr8  1  0.471589  0.940297  0.606720  1
  Sr  Sr9  1  0.473710  0.522040  0.619803  1
  Sr  Sr10  1  0.933364  0.467550  0.108715  1
  Sr  Sr11  1  0.524114  0.469128  0.119365  1
  Ti  Ti12  1  0.335383  0.665184  0.008187  1
  Si  Si13  1  0.665290  0.336313  0.504651  1
  P  P14  1  0.666288  0.351049  0.812774  1
  P  P15  1  0.355436  0.668951  0.327586  1
  P  P16  1  0.592695  0.787324  0.873690  1
  P  P17  1  0.205073  0.400344  0.925772  1
  P  P18  1  0.197949  0.788843  0.904206  1
  P  P19  1  0.410198  0.210883  0.426082  1
  P  P20  1  0.783581  0.585643  0.376470  1
  P  P21  1  0.785849  0.204384  0.406029  1
