# generated using pymatgen
data_K3HS3
_symmetry_space_group_name_H-M   'P 1'
_cell_length_a   4.97781001
_cell_length_b   5.13982275
_cell_length_c   9.82408830
_cell_angle_alpha   109.35122505
_cell_angle_beta   89.95873914
_cell_angle_gamma   60.72731523
_symmetry_Int_Tables_number   1
_chemical_formula_structural   K3HS3
_chemical_formula_sum   'K3 H1 S3'
_cell_volume   202.78183059
_cell_formula_units_Z   1
loop_
 _symmetry_equiv_pos_site_id
 _symmetry_equiv_pos_as_xyz
  1  'x, y, z'
loop_
 _atom_site_type_symbol
 _atom_site_label
 _atom_site_symmetry_multiplicity
 _atom_site_fract_x
 _atom_site_fract_y
 _atom_site_fract_z
 _atom_site_occupancy
  K  K0  1  0.570841  0.890849  0.209204  1
  K  K1  1  0.165679  0.697910  0.552707  1
  K  K2  1  0.364598  0.303913  0.903134  1
  H  H3  1  0.848450  0.351208  0.570771  1
  S  S4  1  0.774167  0.485311  0.720666  1
  S  S5  1  0.949614  0.134186  0.089723  1
  S  S6  1  0.842736  0.342277  0.325871  1
