# generated using pymatgen
data_Y16MgIn3Rh4
_symmetry_space_group_name_H-M   'P 1'
_cell_length_a   9.72249691
_cell_length_b   9.72249676
_cell_length_c   9.69541094
_cell_angle_alpha   59.90754315
_cell_angle_beta   59.90754476
_cell_angle_gamma   59.99999700
_symmetry_Int_Tables_number   1
_chemical_formula_structural   Y16MgIn3Rh4
_chemical_formula_sum   'Y16 Mg1 In3 Rh4'
_cell_volume   647.14038697
_cell_formula_units_Z   1
loop_
 _symmetry_equiv_pos_site_id
 _symmetry_equiv_pos_as_xyz
  1  'x, y, z'
loop_
 _atom_site_type_symbol
 _atom_site_label
 _atom_site_symmetry_multiplicity
 _atom_site_fract_x
 _atom_site_fract_y
 _atom_site_fract_z
 _atom_site_occupancy
  Y  Y0  1  0.686702  0.312574  0.314021  1
  Y  Y1  1  0.686702  0.686702  0.314021  1
  Y  Y2  1  0.312574  0.686702  0.314021  1
  Y  Y3  1  0.936284  0.936284  0.563190  1
  Y  Y4  1  0.149392  0.149392  0.551825  1
  Y  Y5  1  0.564242  0.936284  0.563190  1
  Y  Y6  1  0.150064  0.150064  0.149836  1
  Y  Y7  1  0.310626  0.310626  0.690039  1
  Y  Y8  1  0.936284  0.564242  0.563190  1
  Y  Y9  1  0.562726  0.562726  0.936637  1
  Y  Y10  1  0.562726  0.937910  0.936637  1
  Y  Y11  1  0.937910  0.562726  0.936637  1
  Y  Y12  1  0.150064  0.550037  0.149836  1
  Y  Y13  1  0.310626  0.688709  0.690039  1
  Y  Y14  1  0.688709  0.310626  0.690039  1
  Y  Y15  1  0.550037  0.150064  0.149836  1
  Mg  Mg16  1  0.923574  0.923574  0.229277  1
  In  In17  1  0.250332  0.916156  0.917356  1
  In  In18  1  0.916156  0.250332  0.917356  1
  In  In19  1  0.916156  0.916156  0.917356  1
  Rh  Rh20  1  0.356840  0.356840  0.358272  1
  Rh  Rh21  1  0.928048  0.356840  0.358272  1
  Rh  Rh22  1  0.356386  0.356386  0.930844  1
  Rh  Rh23  1  0.356840  0.928048  0.358272  1
