# generated using pymatgen
data_Ca3Au5
_symmetry_space_group_name_H-M   'P 1'
_cell_length_a   7.40010000
_cell_length_b   7.40009949
_cell_length_c   3.95894900
_cell_angle_alpha   90.00000000
_cell_angle_beta   90.00000000
_cell_angle_gamma   120.00000229
_symmetry_Int_Tables_number   1
_chemical_formula_structural   Ca3Au5
_chemical_formula_sum   'Ca3 Au5'
_cell_volume   187.75247724
_cell_formula_units_Z   1
loop_
 _symmetry_equiv_pos_site_id
 _symmetry_equiv_pos_as_xyz
  1  'x, y, z'
loop_
 _atom_site_type_symbol
 _atom_site_label
 _atom_site_symmetry_multiplicity
 _atom_site_fract_x
 _atom_site_fract_y
 _atom_site_fract_z
 _atom_site_occupancy
  Ca  Ca0  1  0.376342  0.000000  0.000000  1
  Ca  Ca1  1  0.000000  0.376342  0.000000  1
  Ca  Ca2  1  0.623659  0.623657  0.000000  1
  Au  Au3  1  0.766555  0.000000  0.499999  1
  Au  Au4  1  0.233445  0.233445  0.499999  1
  Au  Au5  1  0.666666  0.333333  0.499999  1
  Au  Au6  1  0.333333  0.666667  0.499999  1
  Au  Au7  1  0.000000  0.766555  0.499999  1
