# generated using pymatgen
data_V6ZnGa2NiN2
_symmetry_space_group_name_H-M   'P 1'
_cell_length_a   6.55038050
_cell_length_b   6.54691151
_cell_length_c   6.54882500
_cell_angle_alpha   90.00000000
_cell_angle_beta   90.00000000
_cell_angle_gamma   89.95495882
_symmetry_Int_Tables_number   1
_chemical_formula_structural   V6ZnGa2NiN2
_chemical_formula_sum   'V12 Zn2 Ga4 Ni2 N4'
_cell_volume   280.84471146
_cell_formula_units_Z   2
loop_
 _symmetry_equiv_pos_site_id
 _symmetry_equiv_pos_as_xyz
  1  'x, y, z'
loop_
 _atom_site_type_symbol
 _atom_site_label
 _atom_site_symmetry_multiplicity
 _atom_site_fract_x
 _atom_site_fract_y
 _atom_site_fract_z
 _atom_site_occupancy
  V  V0  1  0.787006  0.961137  0.375059  1
  V  V1  1  0.712994  0.038863  0.875059  1
  V  V2  1  0.209302  0.460763  0.125543  1
  V  V3  1  0.290698  0.539237  0.625543  1
  V  V4  1  0.958453  0.375924  0.789123  1
  V  V5  1  0.035878  0.874461  0.712361  1
  V  V6  1  0.464122  0.125539  0.212361  1
  V  V7  1  0.541547  0.624076  0.289123  1
  V  V8  1  0.376302  0.787041  0.958549  1
  V  V9  1  0.873994  0.710116  0.036858  1
  V  V10  1  0.123698  0.212959  0.458549  1
  V  V11  1  0.626006  0.289884  0.536858  1
  Zn  Zn12  1  0.178494  0.820665  0.321614  1
  Zn  Zn13  1  0.321506  0.179335  0.821614  1
  Ga  Ga14  1  0.580161  0.430648  0.928682  1
  Ga  Ga15  1  0.434495  0.921899  0.575255  1
  Ga  Ga16  1  0.919839  0.569352  0.428682  1
  Ga  Ga17  1  0.065505  0.078101  0.075255  1
  Ni  Ni18  1  0.820867  0.322816  0.179030  1
  Ni  Ni19  1  0.679133  0.677184  0.679030  1
  N  N20  1  0.875053  0.124835  0.622672  1
  N  N21  1  0.624947  0.875165  0.122672  1
  N  N22  1  0.123454  0.622761  0.875252  1
  N  N23  1  0.376546  0.377239  0.375252  1
