# generated using pymatgen
data_MnF17
_symmetry_space_group_name_H-M   'P 1'
_cell_length_a   8.59275291
_cell_length_b   7.88677775
_cell_length_c   9.94739054
_cell_angle_alpha   84.24633869
_cell_angle_beta   88.50605187
_cell_angle_gamma   69.81458777
_symmetry_Int_Tables_number   1
_chemical_formula_structural   MnF17
_chemical_formula_sum   'Mn2 F34'
_cell_volume   629.50802779
_cell_formula_units_Z   2
loop_
 _symmetry_equiv_pos_site_id
 _symmetry_equiv_pos_as_xyz
  1  'x, y, z'
loop_
 _atom_site_type_symbol
 _atom_site_label
 _atom_site_symmetry_multiplicity
 _atom_site_fract_x
 _atom_site_fract_y
 _atom_site_fract_z
 _atom_site_occupancy
  Mn  Mn0  1  0.856215  0.250221  0.781177  1
  Mn  Mn1  1  0.143785  0.749779  0.218823  1
  F  F2  1  0.607725  0.218644  0.496225  1
  F  F3  1  0.392275  0.781356  0.503775  1
  F  F4  1  0.834465  0.683028  0.701815  1
  F  F5  1  0.165535  0.316972  0.298185  1
  F  F6  1  0.080472  0.789987  0.856461  1
  F  F7  1  0.919528  0.210013  0.143539  1
  F  F8  1  0.554640  0.155900  0.381519  1
  F  F9  1  0.445360  0.844100  0.618481  1
  F  F10  1  0.650418  0.319364  0.714645  1
  F  F11  1  0.349582  0.680636  0.285355  1
  F  F12  1  0.932909  0.090276  0.643691  1
  F  F13  1  0.067091  0.909724  0.356309  1
  F  F14  1  0.909813  0.362575  0.617105  1
  F  F15  1  0.090187  0.637425  0.382895  1
  F  F16  1  0.856379  0.826944  0.614020  1
  F  F17  1  0.143621  0.173056  0.385980  1
  F  F18  1  0.802384  0.443988  0.870666  1
  F  F19  1  0.197616  0.556012  0.129334  1
  F  F20  1  0.214357  0.691236  0.776424  1
  F  F21  1  0.785643  0.308764  0.223576  1
  F  F22  1  0.935884  0.807852  0.163726  1
  F  F23  1  0.064116  0.192148  0.836274  1
  F  F24  1  0.814038  0.095424  0.902374  1
  F  F25  1  0.185962  0.904576  0.097626  1
  F  F26  1  0.483456  0.594468  0.983513  1
  F  F27  1  0.516544  0.405532  0.016487  1
  F  F28  1  0.475562  0.084675  0.864170  1
  F  F29  1  0.524438  0.915325  0.135830  1
  F  F30  1  0.294721  0.229112  0.615113  1
  F  F31  1  0.705279  0.770888  0.384887  1
  F  F32  1  0.241193  0.393768  0.677976  1
  F  F33  1  0.758807  0.606232  0.322024  1
  F  F34  1  0.554594  0.898488  0.844221  1
  F  F35  1  0.445406  0.101512  0.155779  1
