# generated using pymatgen
data_Er3PtRh2Pb3
_symmetry_space_group_name_H-M   'P 1'
_cell_length_a   7.87626100
_cell_length_b   7.87626029
_cell_length_c   3.69610900
_cell_angle_alpha   90.00000000
_cell_angle_beta   90.00000000
_cell_angle_gamma   120.00000720
_symmetry_Int_Tables_number   1
_chemical_formula_structural   Er3PtRh2Pb3
_chemical_formula_sum   'Er3 Pt1 Rh2 Pb3'
_cell_volume   198.57086582
_cell_formula_units_Z   1
loop_
 _symmetry_equiv_pos_site_id
 _symmetry_equiv_pos_as_xyz
  1  'x, y, z'
loop_
 _atom_site_type_symbol
 _atom_site_label
 _atom_site_symmetry_multiplicity
 _atom_site_fract_x
 _atom_site_fract_y
 _atom_site_fract_z
 _atom_site_occupancy
  Er  Er0  1  0.402761  0.395614  0.500000  1
  Er  Er1  1  0.604386  0.007148  0.500000  1
  Er  Er2  1  0.992852  0.597239  0.500000  1
  Pt  Pt3  1  0.333333  0.666667  0.000000  1
  Rh  Rh4  1  0.666667  0.333333  0.000000  1
  Rh  Rh5  1  0.000000  0.000000  0.500000  1
  Pb  Pb6  1  0.730922  0.731505  0.000000  1
  Pb  Pb7  1  0.268495  0.999417  0.000000  1
  Pb  Pb8  1  0.000583  0.269078  0.000000  1
