# generated using pymatgen
data_Tb10Pr6Cd4Pd3Ru
_symmetry_space_group_name_H-M   'P 1'
_cell_length_a   9.84388322
_cell_length_b   9.84388408
_cell_length_c   9.84388218
_cell_angle_alpha   59.82223458
_cell_angle_beta   59.82224168
_cell_angle_gamma   59.82223459
_symmetry_Int_Tables_number   1
_chemical_formula_structural   Tb10Pr6Cd4Pd3Ru
_chemical_formula_sum   'Tb10 Pr6 Cd4 Pd3 Ru1'
_cell_volume   671.78222700
_cell_formula_units_Z   1
loop_
 _symmetry_equiv_pos_site_id
 _symmetry_equiv_pos_as_xyz
  1  'x, y, z'
loop_
 _atom_site_type_symbol
 _atom_site_label
 _atom_site_symmetry_multiplicity
 _atom_site_fract_x
 _atom_site_fract_y
 _atom_site_fract_z
 _atom_site_occupancy
  Tb  Tb0  1  0.352542  0.352542  0.352542  1
  Tb  Tb1  1  0.347254  0.347254  0.952364  1
  Tb  Tb2  1  0.347254  0.952364  0.347254  1
  Tb  Tb3  1  0.952364  0.347254  0.347254  1
  Tb  Tb4  1  0.819531  0.186375  0.186375  1
  Tb  Tb5  1  0.185864  0.811571  0.811571  1
  Tb  Tb6  1  0.186375  0.819531  0.186375  1
  Tb  Tb7  1  0.811571  0.185864  0.811571  1
  Tb  Tb8  1  0.186375  0.186375  0.819531  1
  Tb  Tb9  1  0.811571  0.811571  0.185864  1
  Pr  Pr10  1  0.936805  0.562620  0.562620  1
  Pr  Pr11  1  0.557525  0.938716  0.938716  1
  Pr  Pr12  1  0.562620  0.936805  0.562620  1
  Pr  Pr13  1  0.938716  0.557525  0.938716  1
  Pr  Pr14  1  0.562620  0.562620  0.936805  1
  Pr  Pr15  1  0.938716  0.938716  0.557525  1
  Cd  Cd16  1  0.578935  0.578935  0.578935  1
  Cd  Cd17  1  0.579527  0.579527  0.260692  1
  Cd  Cd18  1  0.579527  0.260692  0.579527  1
  Cd  Cd19  1  0.260692  0.579527  0.579527  1
  Pd  Pd20  1  0.144993  0.144993  0.570568  1
  Pd  Pd21  1  0.144993  0.570568  0.144993  1
  Pd  Pd22  1  0.570568  0.144993  0.144993  1
  Ru  Ru23  1  0.143064  0.143064  0.143064  1
