# generated using pymatgen
data_TmLu2Ni6B2Ru
_symmetry_space_group_name_H-M   'P 1'
_cell_length_a   4.98904700
_cell_length_b   5.13069379
_cell_length_c   14.26981200
_cell_angle_alpha   90.00000000
_cell_angle_beta   90.00000000
_cell_angle_gamma   119.09087621
_symmetry_Int_Tables_number   1
_chemical_formula_structural   TmLu2Ni6B2Ru
_chemical_formula_sum   'Tm2 Lu4 Ni12 B4 Ru2'
_cell_volume   319.18954811
_cell_formula_units_Z   2
loop_
 _symmetry_equiv_pos_site_id
 _symmetry_equiv_pos_as_xyz
  1  'x, y, z'
loop_
 _atom_site_type_symbol
 _atom_site_label
 _atom_site_symmetry_multiplicity
 _atom_site_fract_x
 _atom_site_fract_y
 _atom_site_fract_z
 _atom_site_occupancy
  Tm  Tm0  1  0.332138  0.664276  0.750613  1
  Tm  Tm1  1  0.667862  0.335724  0.250613  1
  Lu  Lu2  1  0.332670  0.665342  0.533756  1
  Lu  Lu3  1  0.667330  0.334658  0.033756  1
  Lu  Lu4  1  0.662135  0.324268  0.466858  1
  Lu  Lu5  1  0.337865  0.675732  0.966858  1
  Ni  Ni6  1  0.995617  0.991234  0.998119  1
  Ni  Ni7  1  0.004383  0.008766  0.498119  1
  Ni  Ni8  1  0.667742  0.833820  0.147697  1
  Ni  Ni9  1  0.166077  0.833820  0.147697  1
  Ni  Ni10  1  0.833923  0.166180  0.647697  1
  Ni  Ni11  1  0.332258  0.166180  0.647697  1
  Ni  Ni12  1  0.832697  0.665393  0.850859  1
  Ni  Ni13  1  0.832157  0.163259  0.852803  1
  Ni  Ni14  1  0.331103  0.163259  0.852803  1
  Ni  Ni15  1  0.668897  0.836741  0.352803  1
  Ni  Ni16  1  0.167843  0.836741  0.352803  1
  Ni  Ni17  1  0.167303  0.334607  0.350859  1
  B  B18  1  0.337070  0.674142  0.251330  1
  B  B19  1  0.662930  0.325858  0.751330  1
  B  B20  1  0.000271  0.000543  0.251278  1
  B  B21  1  0.999729  0.999457  0.751278  1
  Ru  Ru22  1  0.165612  0.331224  0.146190  1
  Ru  Ru23  1  0.834388  0.668776  0.646190  1
