# generated using pymatgen
data_Sr3Sn4(IrRh)2
_symmetry_space_group_name_H-M   'P 1'
_cell_length_a   7.09572489
_cell_length_b   7.07412628
_cell_length_c   7.07412641
_cell_angle_alpha   109.43209432
_cell_angle_beta   109.42907759
_cell_angle_gamma   109.42906316
_symmetry_Int_Tables_number   1
_chemical_formula_structural   Sr3Sn4(IrRh)2
_chemical_formula_sum   'Sr3 Sn4 Ir2 Rh2'
_cell_volume   273.76648712
_cell_formula_units_Z   1
loop_
 _symmetry_equiv_pos_site_id
 _symmetry_equiv_pos_as_xyz
  1  'x, y, z'
loop_
 _atom_site_type_symbol
 _atom_site_label
 _atom_site_symmetry_multiplicity
 _atom_site_fract_x
 _atom_site_fract_y
 _atom_site_fract_z
 _atom_site_occupancy
  Sr  Sr0  1  0.500000  0.500306  0.000306  1
  Sr  Sr1  1  0.000000  0.499218  0.499218  1
  Sr  Sr2  1  0.500000  0.000306  0.500306  1
  Sn  Sn3  1  0.385466  0.000104  0.000104  1
  Sn  Sn4  1  0.000000  0.000322  0.385714  1
  Sn  Sn5  1  0.000000  0.385714  0.000322  1
  Sn  Sn6  1  0.614533  0.614637  0.614638  1
  Ir  Ir7  1  0.250055  0.249619  0.249619  1
  Ir  Ir8  1  0.749945  0.999563  0.999563  1
  Rh  Rh9  1  0.000000  0.750758  0.999452  1
  Rh  Rh10  1  0.000000  0.999452  0.750758  1
