# generated using pymatgen
data_Li4LaNd(ErSi3)2
_symmetry_space_group_name_H-M   'P 1'
_cell_length_a   9.33922280
_cell_length_b   9.33922340
_cell_length_c   6.83582700
_cell_angle_alpha   90.00000000
_cell_angle_beta   90.00000000
_cell_angle_gamma   153.15095183
_symmetry_Int_Tables_number   1
_chemical_formula_structural   Li4LaNd(ErSi3)2
_chemical_formula_sum   'Li4 La1 Nd1 Er2 Si6'
_cell_volume   269.28141530
_cell_formula_units_Z   1
loop_
 _symmetry_equiv_pos_site_id
 _symmetry_equiv_pos_as_xyz
  1  'x, y, z'
loop_
 _atom_site_type_symbol
 _atom_site_label
 _atom_site_symmetry_multiplicity
 _atom_site_fract_x
 _atom_site_fract_y
 _atom_site_fract_z
 _atom_site_occupancy
  Li  Li0  1  0.190617  0.809383  0.059337  1
  Li  Li1  1  0.190617  0.809383  0.440663  1
  Li  Li2  1  0.809563  0.190437  0.940195  1
  Li  Li3  1  0.809563  0.190437  0.559805  1
  La  La4  1  0.554030  0.445970  0.250000  1
  Nd  Nd5  1  0.445759  0.554241  0.750000  1
  Er  Er6  1  0.344200  0.655800  0.250000  1
  Er  Er7  1  0.655716  0.344284  0.750000  1
  Si  Si8  1  0.724875  0.275125  0.250000  1
  Si  Si9  1  0.276271  0.723729  0.750000  1
  Si  Si10  1  0.059323  0.940677  0.923334  1
  Si  Si11  1  0.940071  0.059929  0.074861  1
  Si  Si12  1  0.940071  0.059929  0.425139  1
  Si  Si13  1  0.059323  0.940677  0.576666  1
