# generated using pymatgen
data_Sr2V3InO11
_symmetry_space_group_name_H-M   'P 1'
_cell_length_a   7.04046240
_cell_length_b   7.08112912
_cell_length_c   10.17381996
_cell_angle_alpha   100.63913964
_cell_angle_beta   94.57337445
_cell_angle_gamma   95.10623690
_symmetry_Int_Tables_number   1
_chemical_formula_structural   Sr2V3InO11
_chemical_formula_sum   'Sr4 V6 In2 O22'
_cell_volume   494.11066104
_cell_formula_units_Z   2
loop_
 _symmetry_equiv_pos_site_id
 _symmetry_equiv_pos_as_xyz
  1  'x, y, z'
loop_
 _atom_site_type_symbol
 _atom_site_label
 _atom_site_symmetry_multiplicity
 _atom_site_fract_x
 _atom_site_fract_y
 _atom_site_fract_z
 _atom_site_occupancy
  Sr  Sr0  1  0.649457  0.248707  0.973144  1
  Sr  Sr1  1  0.350543  0.751293  0.026856  1
  Sr  Sr2  1  0.324774  0.401532  0.632537  1
  Sr  Sr3  1  0.675226  0.598468  0.367463  1
  V  V4  1  0.623799  0.118588  0.353363  1
  V  V5  1  0.376201  0.881412  0.646637  1
  V  V6  1  0.159228  0.234551  0.962469  1
  V  V7  1  0.840772  0.765449  0.037531  1
  V  V8  1  0.143124  0.441877  0.266941  1
  V  V9  1  0.856876  0.558123  0.733059  1
  In  In10  1  0.875491  0.041381  0.640769  1
  In  In11  1  0.124509  0.958619  0.359231  1
  O  O12  1  0.962448  0.357898  0.655545  1
  O  O13  1  0.037552  0.642102  0.344455  1
  O  O14  1  0.023153  0.345678  0.098117  1
  O  O15  1  0.976847  0.654322  0.901883  1
  O  O16  1  0.423327  0.700521  0.522956  1
  O  O17  1  0.576673  0.299479  0.477044  1
  O  O18  1  0.696855  0.236703  0.232812  1
  O  O19  1  0.303145  0.763297  0.767188  1
  O  O20  1  0.972746  0.110739  0.848737  1
  O  O21  1  0.027254  0.889261  0.151263  1
  O  O22  1  0.680110  0.909058  0.987855  1
  O  O23  1  0.319890  0.090942  0.012145  1
  O  O24  1  0.581584  0.048527  0.702939  1
  O  O25  1  0.418416  0.951473  0.297061  1
  O  O26  1  0.184672  0.015036  0.579173  1
  O  O27  1  0.815328  0.984964  0.420827  1
  O  O28  1  0.299092  0.397795  0.896742  1
  O  O29  1  0.700908  0.602205  0.103258  1
  O  O30  1  0.640415  0.479692  0.773400  1
  O  O31  1  0.359585  0.520308  0.226600  1
  O  O32  1  0.843664  0.726919  0.628411  1
  O  O33  1  0.156336  0.273081  0.371589  1
