# generated using pymatgen
data_Er6ZrTi(Co4P3)4
_symmetry_space_group_name_H-M   'P 1'
_cell_length_a   3.69207400
_cell_length_b   10.62096700
_cell_length_c   12.29237300
_cell_angle_alpha   90.00000000
_cell_angle_beta   90.00000000
_cell_angle_gamma   90.00000000
_symmetry_Int_Tables_number   1
_chemical_formula_structural   Er6ZrTi(Co4P3)4
_chemical_formula_sum   'Er6 Zr1 Ti1 Co16 P12'
_cell_volume   482.02569165
_cell_formula_units_Z   1
loop_
 _symmetry_equiv_pos_site_id
 _symmetry_equiv_pos_as_xyz
  1  'x, y, z'
loop_
 _atom_site_type_symbol
 _atom_site_label
 _atom_site_symmetry_multiplicity
 _atom_site_fract_x
 _atom_site_fract_y
 _atom_site_fract_z
 _atom_site_occupancy
  Er  Er0  1  0.750000  0.250000  0.474620  1
  Er  Er1  1  0.250000  0.750000  0.530083  1
  Er  Er2  1  0.250000  0.930277  0.795591  1
  Er  Er3  1  0.250000  0.569723  0.795591  1
  Er  Er4  1  0.750000  0.072658  0.204556  1
  Er  Er5  1  0.750000  0.427342  0.204556  1
  Zr  Zr6  1  0.750000  0.750000  0.156926  1
  Ti  Ti7  1  0.250000  0.250000  0.843631  1
  Co  Co8  1  0.250000  0.250000  0.296793  1
  Co  Co9  1  0.750000  0.750000  0.702527  1
  Co  Co10  1  0.750000  0.250000  0.011321  1
  Co  Co11  1  0.250000  0.750000  0.984298  1
  Co  Co12  1  0.250000  0.415293  0.003346  1
  Co  Co13  1  0.250000  0.084707  0.003346  1
  Co  Co14  1  0.750000  0.579176  0.990173  1
  Co  Co15  1  0.750000  0.920824  0.990173  1
  Co  Co16  1  0.250000  0.453240  0.568625  1
  Co  Co17  1  0.250000  0.046760  0.568625  1
  Co  Co18  1  0.750000  0.544237  0.434365  1
  Co  Co19  1  0.750000  0.955763  0.434365  1
  Co  Co20  1  0.250000  0.873545  0.298834  1
  Co  Co21  1  0.250000  0.626455  0.298834  1
  Co  Co22  1  0.750000  0.128578  0.705225  1
  Co  Co23  1  0.750000  0.371422  0.705225  1
  P  P24  1  0.250000  0.250000  0.116248  1
  P  P25  1  0.750000  0.750000  0.881825  1
  P  P26  1  0.250000  0.250000  0.644858  1
  P  P27  1  0.750000  0.750000  0.363686  1
  P  P28  1  0.250000  0.437803  0.384972  1
  P  P29  1  0.250000  0.062197  0.384972  1
  P  P30  1  0.750000  0.560030  0.617055  1
  P  P31  1  0.750000  0.939970  0.617055  1
  P  P32  1  0.250000  0.914097  0.104500  1
  P  P33  1  0.250000  0.585903  0.104500  1
  P  P34  1  0.750000  0.093855  0.889350  1
  P  P35  1  0.750000  0.406145  0.889350  1
