# generated using pymatgen
data_YbDy16Y3(Cd3Ru)2
_symmetry_space_group_name_H-M   'P 1'
_cell_length_a   9.63071700
_cell_length_b   9.63071625
_cell_length_c   9.82800100
_cell_angle_alpha   90.00000000
_cell_angle_beta   90.00000000
_cell_angle_gamma   119.99999915
_symmetry_Int_Tables_number   1
_chemical_formula_structural   YbDy16Y3(Cd3Ru)2
_chemical_formula_sum   'Yb1 Dy16 Y3 Cd6 Ru2'
_cell_volume   789.42892676
_cell_formula_units_Z   1
loop_
 _symmetry_equiv_pos_site_id
 _symmetry_equiv_pos_as_xyz
  1  'x, y, z'
loop_
 _atom_site_type_symbol
 _atom_site_label
 _atom_site_symmetry_multiplicity
 _atom_site_fract_x
 _atom_site_fract_y
 _atom_site_fract_z
 _atom_site_occupancy
  Yb  Yb0  1  0.000000  0.000000  0.500024  1
  Dy  Dy1  1  0.000000  0.000000  0.999960  1
  Dy  Dy2  1  0.210745  0.789255  0.439458  1
  Dy  Dy3  1  0.210745  0.421491  0.439458  1
  Dy  Dy4  1  0.578509  0.789255  0.439458  1
  Dy  Dy5  1  0.789249  0.210751  0.560484  1
  Dy  Dy6  1  0.789249  0.578496  0.560484  1
  Dy  Dy7  1  0.421504  0.210751  0.560484  1
  Dy  Dy8  1  0.789793  0.210207  0.940274  1
  Dy  Dy9  1  0.789793  0.579586  0.940274  1
  Dy  Dy10  1  0.420414  0.210207  0.940274  1
  Dy  Dy11  1  0.210200  0.789800  0.059785  1
  Dy  Dy12  1  0.210200  0.420401  0.059785  1
  Dy  Dy13  1  0.579599  0.789800  0.059785  1
  Dy  Dy14  1  0.541628  0.458372  0.250897  1
  Dy  Dy15  1  0.541628  0.083256  0.250897  1
  Dy  Dy16  1  0.916744  0.458372  0.250897  1
  Y  Y17  1  0.458378  0.541622  0.749103  1
  Y  Y18  1  0.458378  0.916757  0.749103  1
  Y  Y19  1  0.083243  0.541622  0.749103  1
  Cd  Cd20  1  0.884979  0.115021  0.250244  1
  Cd  Cd21  1  0.884979  0.769959  0.250244  1
  Cd  Cd22  1  0.230041  0.115021  0.250244  1
  Cd  Cd23  1  0.115011  0.884989  0.749760  1
  Cd  Cd24  1  0.115011  0.230021  0.749760  1
  Cd  Cd25  1  0.769979  0.884989  0.749760  1
  Ru  Ru26  1  0.333333  0.666667  0.250505  1
  Ru  Ru27  1  0.666667  0.333333  0.749496  1
