# generated using pymatgen
data_TbLu7In3Ni
_symmetry_space_group_name_H-M   'P 1'
_cell_length_a   10.22534200
_cell_length_b   10.22534256
_cell_length_c   6.88057200
_cell_angle_alpha   90.00000000
_cell_angle_beta   90.00000000
_cell_angle_gamma   120.00000467
_symmetry_Int_Tables_number   1
_chemical_formula_structural   TbLu7In3Ni
_chemical_formula_sum   'Tb2 Lu14 In6 Ni2'
_cell_volume   623.03273205
_cell_formula_units_Z   2
loop_
 _symmetry_equiv_pos_site_id
 _symmetry_equiv_pos_as_xyz
  1  'x, y, z'
loop_
 _atom_site_type_symbol
 _atom_site_label
 _atom_site_symmetry_multiplicity
 _atom_site_fract_x
 _atom_site_fract_y
 _atom_site_fract_z
 _atom_site_occupancy
  Tb  Tb0  1  0.000000  0.000000  0.498755  1
  Tb  Tb1  1  0.000000  0.000000  0.998755  1
  Lu  Lu2  1  0.466573  0.533427  0.479445  1
  Lu  Lu3  1  0.066856  0.533427  0.479445  1
  Lu  Lu4  1  0.466573  0.933144  0.479445  1
  Lu  Lu5  1  0.533427  0.466573  0.979445  1
  Lu  Lu6  1  0.933144  0.466573  0.979445  1
  Lu  Lu7  1  0.533427  0.066856  0.979445  1
  Lu  Lu8  1  0.820900  0.179100  0.276618  1
  Lu  Lu9  1  0.358199  0.179100  0.276618  1
  Lu  Lu10  1  0.820900  0.641801  0.276618  1
  Lu  Lu11  1  0.179100  0.820900  0.776618  1
  Lu  Lu12  1  0.641801  0.820900  0.776618  1
  Lu  Lu13  1  0.179100  0.358199  0.776618  1
  Lu  Lu14  1  0.333333  0.666667  0.092584  1
  Lu  Lu15  1  0.666667  0.333333  0.592584  1
  In  In16  1  0.163371  0.836629  0.235028  1
  In  In17  1  0.673258  0.836629  0.235028  1
  In  In18  1  0.163371  0.326742  0.235028  1
  In  In19  1  0.836629  0.163371  0.735028  1
  In  In20  1  0.326742  0.163371  0.735028  1
  In  In21  1  0.836629  0.673258  0.735028  1
  Ni  Ni22  1  0.333333  0.666667  0.707662  1
  Ni  Ni23  1  0.666667  0.333333  0.207662  1
