# generated using pymatgen
data_Ce9Nd(Si2Ru3)2
_symmetry_space_group_name_H-M   'P 1'
_cell_length_a   8.29153582
_cell_length_b   8.29153584
_cell_length_c   8.29153620
_cell_angle_alpha   109.48389681
_cell_angle_beta   109.48389262
_cell_angle_gamma   109.48390024
_symmetry_Int_Tables_number   1
_chemical_formula_structural   Ce9Nd(Si2Ru3)2
_chemical_formula_sum   'Ce9 Nd1 Si4 Ru6'
_cell_volume   438.61056310
_cell_formula_units_Z   1
loop_
 _symmetry_equiv_pos_site_id
 _symmetry_equiv_pos_as_xyz
  1  'x, y, z'
loop_
 _atom_site_type_symbol
 _atom_site_label
 _atom_site_symmetry_multiplicity
 _atom_site_fract_x
 _atom_site_fract_y
 _atom_site_fract_z
 _atom_site_occupancy
  Ce  Ce0  1  0.295172  0.545767  0.750662  1
  Ce  Ce1  1  0.750662  0.295172  0.545767  1
  Ce  Ce2  1  0.545767  0.750662  0.295172  1
  Ce  Ce3  1  0.727282  0.498242  0.004971  1
  Ce  Ce4  1  0.004971  0.727282  0.498242  1
  Ce  Ce5  1  0.498242  0.004971  0.727282  1
  Ce  Ce6  1  0.247326  0.200201  0.950497  1
  Ce  Ce7  1  0.950497  0.247326  0.200201  1
  Ce  Ce8  1  0.200201  0.950497  0.247326  1
  Nd  Nd9  1  0.758570  0.758570  0.758570  1
  Si  Si10  1  0.388581  0.388581  0.388581  1
  Si  Si11  1  0.105002  0.501651  0.002130  1
  Si  Si12  1  0.002130  0.105002  0.501651  1
  Si  Si13  1  0.501651  0.002130  0.105002  1
  Ru  Ru14  1  0.888365  0.143614  0.751729  1
  Ru  Ru15  1  0.751729  0.888365  0.143614  1
  Ru  Ru16  1  0.143614  0.751729  0.888365  1
  Ru  Ru17  1  0.253791  0.618075  0.368373  1
  Ru  Ru18  1  0.368373  0.253791  0.618075  1
  Ru  Ru19  1  0.618075  0.368373  0.253791  1
