# generated using pymatgen
data_La2ErTm(ZnSn)4
_symmetry_space_group_name_H-M   'P 1'
_cell_length_a   4.54190200
_cell_length_b   4.54190242
_cell_length_c   16.48679800
_cell_angle_alpha   90.00000000
_cell_angle_beta   90.00000000
_cell_angle_gamma   119.99999693
_symmetry_Int_Tables_number   1
_chemical_formula_structural   La2ErTm(ZnSn)4
_chemical_formula_sum   'La2 Er1 Tm1 Zn4 Sn4'
_cell_volume   294.53880526
_cell_formula_units_Z   1
loop_
 _symmetry_equiv_pos_site_id
 _symmetry_equiv_pos_as_xyz
  1  'x, y, z'
loop_
 _atom_site_type_symbol
 _atom_site_label
 _atom_site_symmetry_multiplicity
 _atom_site_fract_x
 _atom_site_fract_y
 _atom_site_fract_z
 _atom_site_occupancy
  La  La0  1  0.000000  0.000000  0.999938  1
  La  La1  1  0.000000  0.000000  0.500062  1
  Er  Er2  1  0.000000  0.000000  0.250000  1
  Tm  Tm3  1  0.000000  0.000000  0.750000  1
  Zn  Zn4  1  0.333333  0.666667  0.165764  1
  Zn  Zn5  1  0.666667  0.333333  0.833877  1
  Zn  Zn6  1  0.666667  0.333333  0.666123  1
  Zn  Zn7  1  0.333333  0.666667  0.334236  1
  Sn  Sn8  1  0.333333  0.666667  0.620225  1
  Sn  Sn9  1  0.666667  0.333333  0.379813  1
  Sn  Sn10  1  0.666667  0.333333  0.120187  1
  Sn  Sn11  1  0.333333  0.666667  0.879775  1
