# generated using pymatgen
data_Th(Mo3S4)2
_symmetry_space_group_name_H-M   'P 1'
_cell_length_a   6.51508096
_cell_length_b   6.51508143
_cell_length_c   6.51508119
_cell_angle_alpha   88.89166514
_cell_angle_beta   88.89165933
_cell_angle_gamma   88.89165628
_symmetry_Int_Tables_number   1
_chemical_formula_structural   Th(Mo3S4)2
_chemical_formula_sum   'Th1 Mo6 S8'
_cell_volume   276.38773706
_cell_formula_units_Z   1
loop_
 _symmetry_equiv_pos_site_id
 _symmetry_equiv_pos_as_xyz
  1  'x, y, z'
loop_
 _atom_site_type_symbol
 _atom_site_label
 _atom_site_symmetry_multiplicity
 _atom_site_fract_x
 _atom_site_fract_y
 _atom_site_fract_z
 _atom_site_occupancy
  Th  Th0  1  0.000000  0.000000  0.000000  1
  Mo  Mo1  1  0.775738  0.578373  0.438136  1
  Mo  Mo2  1  0.438136  0.775738  0.578373  1
  Mo  Mo3  1  0.578373  0.438136  0.775738  1
  Mo  Mo4  1  0.224262  0.421627  0.561864  1
  Mo  Mo5  1  0.561864  0.224262  0.421627  1
  Mo  Mo6  1  0.421627  0.561864  0.224262  1
  S  S7  1  0.758859  0.758859  0.758859  1
  S  S8  1  0.241141  0.241141  0.241141  1
  S  S9  1  0.247464  0.632167  0.872298  1
  S  S10  1  0.872298  0.247464  0.632167  1
  S  S11  1  0.632167  0.872298  0.247464  1
  S  S12  1  0.752536  0.367833  0.127702  1
  S  S13  1  0.127702  0.752536  0.367833  1
  S  S14  1  0.367833  0.127702  0.752536  1
