# generated using pymatgen
data_Li4La3ErSi8
_symmetry_space_group_name_H-M   'P 1'
_cell_length_a   3.89283600
_cell_length_b   7.76272490
_cell_length_c   10.58430496
_cell_angle_alpha   89.92650829
_cell_angle_beta   90.00000000
_cell_angle_gamma   90.00000000
_symmetry_Int_Tables_number   1
_chemical_formula_structural   Li4La3ErSi8
_chemical_formula_sum   'Li4 La3 Er1 Si8'
_cell_volume   319.84700658
_cell_formula_units_Z   1
loop_
 _symmetry_equiv_pos_site_id
 _symmetry_equiv_pos_as_xyz
  1  'x, y, z'
loop_
 _atom_site_type_symbol
 _atom_site_label
 _atom_site_symmetry_multiplicity
 _atom_site_fract_x
 _atom_site_fract_y
 _atom_site_fract_z
 _atom_site_occupancy
  Li  Li0  1  0.250000  0.994686  0.389425  1
  Li  Li1  1  0.750000  0.002734  0.611486  1
  Li  Li2  1  0.250000  0.496123  0.105994  1
  Li  Li3  1  0.750000  0.510060  0.890816  1
  La  La4  1  0.750000  0.862913  0.134090  1
  La  La5  1  0.250000  0.637991  0.636616  1
  La  La6  1  0.750000  0.358043  0.366178  1
  Er  Er7  1  0.250000  0.132294  0.865788  1
  Si  Si8  1  0.750000  0.272382  0.062772  1
  Si  Si9  1  0.250000  0.737791  0.928321  1
  Si  Si10  1  0.750000  0.773368  0.428035  1
  Si  Si11  1  0.250000  0.218557  0.580062  1
  Si  Si12  1  0.750000  0.844212  0.821552  1
  Si  Si13  1  0.250000  0.165806  0.170437  1
  Si  Si14  1  0.750000  0.329196  0.685829  1
  Si  Si15  1  0.250000  0.663846  0.322599  1
