# generated using pymatgen
data_Tb2TmCI5
_symmetry_space_group_name_H-M   'P 1'
_cell_length_a   7.65478541
_cell_length_b   9.51285522
_cell_length_c   9.58093217
_cell_angle_alpha   106.96893582
_cell_angle_beta   96.27238952
_cell_angle_gamma   104.44215993
_symmetry_Int_Tables_number   1
_chemical_formula_structural   Tb2TmCI5
_chemical_formula_sum   'Tb4 Tm2 C2 I10'
_cell_volume   633.60743590
_cell_formula_units_Z   2
loop_
 _symmetry_equiv_pos_site_id
 _symmetry_equiv_pos_as_xyz
  1  'x, y, z'
loop_
 _atom_site_type_symbol
 _atom_site_label
 _atom_site_symmetry_multiplicity
 _atom_site_fract_x
 _atom_site_fract_y
 _atom_site_fract_z
 _atom_site_occupancy
  Tb  Tb0  1  0.103579  0.038813  0.780649  1
  Tb  Tb1  1  0.970770  0.256985  0.074120  1
  Tb  Tb2  1  0.894154  0.962050  0.218968  1
  Tb  Tb3  1  0.374350  0.131860  0.177376  1
  Tm  Tm4  1  0.628763  0.868571  0.824405  1
  Tm  Tm5  1  0.027132  0.748022  0.926494  1
  C  C6  1  0.090586  0.028562  0.040540  1
  C  C7  1  0.906837  0.968355  0.957865  1
  I  I8  1  0.195434  0.735125  0.655053  1
  I  I9  1  0.915363  0.635523  0.172775  1
  I  I10  1  0.088080  0.365307  0.821358  1
  I  I11  1  0.740611  0.913236  0.544192  1
  I  I12  1  0.253348  0.083241  0.458777  1
  I  I13  1  0.658654  0.551951  0.730211  1
  I  I14  1  0.453547  0.807812  0.088123  1
  I  I15  1  0.807904  0.265081  0.353016  1
  I  I16  1  0.345865  0.453724  0.272368  1
  I  I17  1  0.545024  0.185782  0.903713  1
