# generated using pymatgen
data_Li4ZnGa3
_symmetry_space_group_name_H-M   'P 1'
_cell_length_a   7.58789744
_cell_length_b   7.58789767
_cell_length_c   7.58789799
_cell_angle_alpha   33.50959409
_cell_angle_beta   33.50959320
_cell_angle_gamma   33.50959460
_symmetry_Int_Tables_number   1
_chemical_formula_structural   Li4ZnGa3
_chemical_formula_sum   'Li4 Zn1 Ga3'
_cell_volume   118.59652643
_cell_formula_units_Z   1
loop_
 _symmetry_equiv_pos_site_id
 _symmetry_equiv_pos_as_xyz
  1  'x, y, z'
loop_
 _atom_site_type_symbol
 _atom_site_label
 _atom_site_symmetry_multiplicity
 _atom_site_fract_x
 _atom_site_fract_y
 _atom_site_fract_z
 _atom_site_occupancy
  Li  Li0  1  0.125091  0.125091  0.125091  1
  Li  Li1  1  0.624745  0.624745  0.624745  1
  Li  Li2  1  0.002186  0.002186  0.002186  1
  Li  Li3  1  0.497546  0.497546  0.497546  1
  Zn  Zn4  1  0.376167  0.376167  0.376167  1
  Ga  Ga5  1  0.873520  0.873520  0.873520  1
  Ga  Ga6  1  0.747798  0.747798  0.747798  1
  Ga  Ga7  1  0.252947  0.252947  0.252947  1
