# generated using pymatgen
data_Er4Sc4B24Ir3Ru
_symmetry_space_group_name_H-M   'P 1'
_cell_length_a   3.54064200
_cell_length_b   8.98568842
_cell_length_c   11.35089453
_cell_angle_alpha   90.03490322
_cell_angle_beta   90.00000000
_cell_angle_gamma   90.00000000
_symmetry_Int_Tables_number   1
_chemical_formula_structural   Er4Sc4B24Ir3Ru
_chemical_formula_sum   'Er4 Sc4 B24 Ir3 Ru1'
_cell_volume   361.12984336
_cell_formula_units_Z   1
loop_
 _symmetry_equiv_pos_site_id
 _symmetry_equiv_pos_as_xyz
  1  'x, y, z'
loop_
 _atom_site_type_symbol
 _atom_site_label
 _atom_site_symmetry_multiplicity
 _atom_site_fract_x
 _atom_site_fract_y
 _atom_site_fract_z
 _atom_site_occupancy
  Er  Er0  1  0.500000  0.318784  0.413023  1
  Er  Er1  1  0.500000  0.680494  0.586112  1
  Er  Er2  1  0.500000  0.180388  0.914960  1
  Er  Er3  1  0.500000  0.821017  0.086534  1
  Sc  Sc4  1  0.500000  0.442782  0.124152  1
  Sc  Sc5  1  0.500000  0.555211  0.875897  1
  Sc  Sc6  1  0.500000  0.055019  0.623921  1
  Sc  Sc7  1  0.500000  0.946923  0.374963  1
  B  B8  1  0.000000  0.100867  0.473037  1
  B  B9  1  0.000000  0.899018  0.527439  1
  B  B10  1  0.000000  0.399286  0.972523  1
  B  B11  1  0.000000  0.601155  0.027166  1
  B  B12  1  0.000000  0.129776  0.317545  1
  B  B13  1  0.000000  0.869848  0.681300  1
  B  B14  1  0.000000  0.370007  0.818664  1
  B  B15  1  0.000000  0.629946  0.181493  1
  B  B16  1  0.000000  0.055087  0.066312  1
  B  B17  1  0.000000  0.945440  0.934454  1
  B  B18  1  0.000000  0.445106  0.565400  1
  B  B19  1  0.000000  0.554738  0.434488  1
  B  B20  1  0.000000  0.481538  0.285407  1
  B  B21  1  0.000000  0.518600  0.714617  1
  B  B22  1  0.000000  0.018574  0.785200  1
  B  B23  1  0.000000  0.982420  0.214635  1
  B  B24  1  0.000000  0.253664  0.080906  1
  B  B25  1  0.000000  0.745734  0.920072  1
  B  B26  1  0.000000  0.245794  0.579784  1
  B  B27  1  0.000000  0.754184  0.420093  1
  B  B28  1  0.000000  0.294912  0.234868  1
  B  B29  1  0.000000  0.704161  0.764347  1
  B  B30  1  0.000000  0.204357  0.735752  1
  B  B31  1  0.000000  0.795623  0.264787  1
  Ir  Ir32  1  0.500000  0.859230  0.819292  1
  Ir  Ir33  1  0.500000  0.359033  0.680956  1
  Ir  Ir34  1  0.500000  0.640702  0.318724  1
  Ru  Ru35  1  0.500000  0.140582  0.181178  1
