# generated using pymatgen
data_Pr3Sm3(SiPd5)2
_symmetry_space_group_name_H-M   'P 1'
_cell_length_a   8.40298801
_cell_length_b   8.38818990
_cell_length_c   8.38818934
_cell_angle_alpha   127.04000274
_cell_angle_beta   126.20528179
_cell_angle_gamma   78.82812198
_symmetry_Int_Tables_number   1
_chemical_formula_structural   Pr3Sm3(SiPd5)2
_chemical_formula_sum   'Pr3 Sm3 Si2 Pd10'
_cell_volume   368.56308603
_cell_formula_units_Z   1
loop_
 _symmetry_equiv_pos_site_id
 _symmetry_equiv_pos_as_xyz
  1  'x, y, z'
loop_
 _atom_site_type_symbol
 _atom_site_label
 _atom_site_symmetry_multiplicity
 _atom_site_fract_x
 _atom_site_fract_y
 _atom_site_fract_z
 _atom_site_occupancy
  Pr  Pr0  1  0.386024  0.249650  0.136373  1
  Pr  Pr1  1  0.774204  0.549577  0.224625  1
  Pr  Pr2  1  0.612957  0.750233  0.862725  1
  Sm  Sm3  1  0.822027  0.049117  0.772908  1
  Sm  Sm4  1  0.221332  0.450168  0.771164  1
  Sm  Sm5  1  0.177476  0.950544  0.226932  1
  Si  Si6  1  0.212155  0.750124  0.462031  1
  Si  Si7  1  0.788451  0.249763  0.538687  1
  Pd  Pd8  1  0.834365  0.594482  0.642124  1
  Pd  Pd9  1  0.544412  0.304363  0.636283  1
  Pd  Pd10  1  0.453607  0.092465  0.758624  1
  Pd  Pd11  1  0.834365  0.192241  0.239883  1
  Pd  Pd12  1  0.168220  0.405920  0.361538  1
  Pd  Pd13  1  0.453607  0.694984  0.361143  1
  Pd  Pd14  1  0.544412  0.908129  0.240050  1
  Pd  Pd15  1  0.168220  0.806682  0.762300  1
  Pd  Pd16  1  0.002084  0.002286  0.502812  1
  Pd  Pd17  1  0.002084  0.499270  0.999797  1
