# generated using pymatgen
data_Zr8Co7Si14Rh
_symmetry_space_group_name_H-M   'P 1'
_cell_length_a   5.14096347
_cell_length_b   9.53397057
_cell_length_c   9.53047132
_cell_angle_alpha   94.15567228
_cell_angle_beta   105.64712374
_cell_angle_gamma   74.41419073
_symmetry_Int_Tables_number   1
_chemical_formula_structural   Zr8Co7Si14Rh
_chemical_formula_sum   'Zr8 Co7 Si14 Rh1'
_cell_volume   433.27339694
_cell_formula_units_Z   1
loop_
 _symmetry_equiv_pos_site_id
 _symmetry_equiv_pos_as_xyz
  1  'x, y, z'
loop_
 _atom_site_type_symbol
 _atom_site_label
 _atom_site_symmetry_multiplicity
 _atom_site_fract_x
 _atom_site_fract_y
 _atom_site_fract_z
 _atom_site_occupancy
  Zr  Zr0  1  0.863815  0.274183  0.999220  1
  Zr  Zr1  1  0.135404  0.725817  0.999220  1
  Zr  Zr2  1  0.696163  0.805007  0.196221  1
  Zr  Zr3  1  0.500057  0.194994  0.196222  1
  Zr  Zr4  1  0.137362  0.000000  0.274725  1
  Zr  Zr5  1  0.862289  0.000000  0.724577  1
  Zr  Zr6  1  0.303615  0.195581  0.802468  1
  Zr  Zr7  1  0.498853  0.804419  0.802468  1
  Co  Co8  1  0.602387  0.500000  0.204774  1
  Co  Co9  1  0.397013  0.205741  0.499793  1
  Co  Co10  1  0.899577  0.203047  0.502185  1
  Co  Co11  1  0.102780  0.794259  0.499793  1
  Co  Co12  1  0.602608  0.796953  0.502185  1
  Co  Co13  1  0.395496  0.500000  0.790991  1
  Co  Co14  1  0.898350  0.500000  0.796701  1
  Si  Si15  1  0.251072  0.000089  0.999452  1
  Si  Si16  1  0.748383  0.999911  0.999452  1
  Si  Si17  1  0.299937  0.419554  0.995295  1
  Si  Si18  1  0.695356  0.580446  0.995295  1
  Si  Si19  1  0.993987  0.296560  0.303092  1
  Si  Si20  1  0.309104  0.703440  0.303092  1
  Si  Si21  1  0.522084  0.405672  0.413478  1
  Si  Si22  1  0.891393  0.594328  0.413478  1
  Si  Si23  1  0.710724  0.000000  0.421450  1
  Si  Si24  1  0.289262  0.000000  0.578524  1
  Si  Si25  1  0.090449  0.408105  0.591338  1
  Si  Si26  1  0.500889  0.591895  0.591338  1
  Si  Si27  1  0.699014  0.301990  0.698216  1
  Si  Si28  1  0.999203  0.698010  0.698216  1
  Rh  Rh29  1  0.103368  0.500000  0.206737  1
