# generated using pymatgen
data_Ho3Lu(CI)2
_symmetry_space_group_name_H-M   'P 1'
_cell_length_a   3.73267600
_cell_length_b   3.73267666
_cell_length_c   14.61884800
_cell_angle_alpha   90.00000000
_cell_angle_beta   90.00000000
_cell_angle_gamma   119.99999417
_symmetry_Int_Tables_number   1
_chemical_formula_structural   Ho3Lu(CI)2
_chemical_formula_sum   'Ho3 Lu1 C2 I2'
_cell_volume   176.39426987
_cell_formula_units_Z   1
loop_
 _symmetry_equiv_pos_site_id
 _symmetry_equiv_pos_as_xyz
  1  'x, y, z'
loop_
 _atom_site_type_symbol
 _atom_site_label
 _atom_site_symmetry_multiplicity
 _atom_site_fract_x
 _atom_site_fract_y
 _atom_site_fract_z
 _atom_site_occupancy
  Ho  Ho0  1  0.333333  0.666667  0.585852  1
  Ho  Ho1  1  0.666667  0.333333  0.414195  1
  Ho  Ho2  1  0.666667  0.333333  0.084236  1
  Lu  Lu3  1  0.333333  0.666667  0.917357  1
  C  C4  1  0.000000  0.000000  0.996394  1
  C  C5  1  0.000000  0.000000  0.500040  1
  I  I6  1  0.333333  0.666667  0.248662  1
  I  I7  1  0.666667  0.333333  0.753263  1
