# generated using pymatgen
data_Tc2Os4RuRh
_symmetry_space_group_name_H-M   'P 1'
_cell_length_a   5.51440063
_cell_length_b   5.50467393
_cell_length_c   4.34304600
_cell_angle_alpha   90.00000000
_cell_angle_beta   90.00000000
_cell_angle_gamma   119.88033910
_symmetry_Int_Tables_number   1
_chemical_formula_structural   Tc2Os4RuRh
_chemical_formula_sum   'Tc2 Os4 Ru1 Rh1'
_cell_volume   114.30819766
_cell_formula_units_Z   1
loop_
 _symmetry_equiv_pos_site_id
 _symmetry_equiv_pos_as_xyz
  1  'x, y, z'
loop_
 _atom_site_type_symbol
 _atom_site_label
 _atom_site_symmetry_multiplicity
 _atom_site_fract_x
 _atom_site_fract_y
 _atom_site_fract_z
 _atom_site_occupancy
  Tc  Tc0  1  0.334305  0.666964  0.750000  1
  Tc  Tc1  1  0.663187  0.327516  0.250000  1
  Os  Os2  1  0.664968  0.836283  0.250000  1
  Os  Os3  1  0.173236  0.837666  0.250000  1
  Os  Os4  1  0.830911  0.665337  0.750000  1
  Os  Os5  1  0.333881  0.167261  0.750000  1
  Ru  Ru6  1  0.833239  0.166515  0.750000  1
  Rh  Rh7  1  0.166272  0.332456  0.250000  1
