# generated using pymatgen
data_MnCd2Se3
_symmetry_space_group_name_H-M   'P 1'
_cell_length_a   4.32930735
_cell_length_b   6.07940924
_cell_length_c   7.45681060
_cell_angle_alpha   114.08862097
_cell_angle_beta   106.87546410
_cell_angle_gamma   89.99999448
_symmetry_Int_Tables_number   1
_chemical_formula_structural   MnCd2Se3
_chemical_formula_sum   'Mn1 Cd2 Se3'
_cell_volume   169.86962726
_cell_formula_units_Z   1
loop_
 _symmetry_equiv_pos_site_id
 _symmetry_equiv_pos_as_xyz
  1  'x, y, z'
loop_
 _atom_site_type_symbol
 _atom_site_label
 _atom_site_symmetry_multiplicity
 _atom_site_fract_x
 _atom_site_fract_y
 _atom_site_fract_z
 _atom_site_occupancy
  Mn  Mn0  1  0.333472  0.330162  0.666943  1
  Cd  Cd1  1  0.998508  0.999459  0.997016  1
  Cd  Cd2  1  0.667855  0.669135  0.335707  1
  Se  Se3  1  0.493122  0.733979  0.986244  1
  Se  Se4  1  0.173370  0.412952  0.346741  1
  Se  Se5  1  0.833674  0.104313  0.667349  1
