# generated using pymatgen
data_Rb4CeTeBr12
_symmetry_space_group_name_H-M   'P 1'
_cell_length_a   7.73100500
_cell_length_b   7.73100500
_cell_length_c   11.55005600
_cell_angle_alpha   90.00000000
_cell_angle_beta   90.00000000
_cell_angle_gamma   90.00000000
_symmetry_Int_Tables_number   1
_chemical_formula_structural   Rb4CeTeBr12
_chemical_formula_sum   'Rb4 Ce1 Te1 Br12'
_cell_volume   690.32880951
_cell_formula_units_Z   1
loop_
 _symmetry_equiv_pos_site_id
 _symmetry_equiv_pos_as_xyz
  1  'x, y, z'
loop_
 _atom_site_type_symbol
 _atom_site_label
 _atom_site_symmetry_multiplicity
 _atom_site_fract_x
 _atom_site_fract_y
 _atom_site_fract_z
 _atom_site_occupancy
  Rb  Rb0  1  0.000000  0.500000  0.251973  1
  Rb  Rb1  1  0.500000  0.000000  0.251973  1
  Rb  Rb2  1  0.000000  0.500000  0.748027  1
  Rb  Rb3  1  0.500000  0.000000  0.748027  1
  Ce  Ce4  1  0.000000  0.000000  0.000000  1
  Te  Te5  1  0.500000  0.500000  0.500000  1
  Br  Br6  1  0.000000  0.000000  0.243271  1
  Br  Br7  1  0.500000  0.500000  0.262790  1
  Br  Br8  1  0.000000  0.000000  0.756728  1
  Br  Br9  1  0.500000  0.500000  0.737210  1
  Br  Br10  1  0.200601  0.300139  0.000000  1
  Br  Br11  1  0.699861  0.200601  0.000000  1
  Br  Br12  1  0.300139  0.799399  0.000000  1
  Br  Br13  1  0.698278  0.206187  0.500000  1
  Br  Br14  1  0.301722  0.793813  0.500000  1
  Br  Br15  1  0.799399  0.699861  0.000000  1
  Br  Br16  1  0.793813  0.698278  0.500000  1
  Br  Br17  1  0.206187  0.301722  0.500000  1
