# generated using pymatgen
data_Nd3Sm(AgTe)12
_symmetry_space_group_name_H-M   'P 1'
_cell_length_a   7.29141507
_cell_length_b   8.32122622
_cell_length_c   13.89852600
_cell_angle_alpha   89.99797348
_cell_angle_beta   90.00083751
_cell_angle_gamma   90.06217022
_symmetry_Int_Tables_number   1
_chemical_formula_structural   Nd3Sm(AgTe)12
_chemical_formula_sum   'Nd3 Sm1 Ag12 Te12'
_cell_volume   843.27191957
_cell_formula_units_Z   1
loop_
 _symmetry_equiv_pos_site_id
 _symmetry_equiv_pos_as_xyz
  1  'x, y, z'
loop_
 _atom_site_type_symbol
 _atom_site_label
 _atom_site_symmetry_multiplicity
 _atom_site_fract_x
 _atom_site_fract_y
 _atom_site_fract_z
 _atom_site_occupancy
  Nd  Nd0  1  0.243155  0.749343  0.834751  1
  Nd  Nd1  1  0.743148  0.250670  0.334559  1
  Nd  Nd2  1  0.743151  0.250676  0.665308  1
  Sm  Sm3  1  0.243065  0.749319  0.165015  1
  Ag  Ag4  1  0.381753  0.121893  0.831764  1
  Ag  Ag5  1  0.624550  0.608821  0.999989  1
  Ag  Ag6  1  0.881829  0.878101  0.668249  1
  Ag  Ag7  1  0.605799  0.624657  0.671108  1
  Ag  Ag8  1  0.868645  0.887134  0.000001  1
  Ag  Ag9  1  0.124506  0.391276  0.499935  1
  Ag  Ag10  1  0.605721  0.624717  0.328828  1
  Ag  Ag11  1  0.368674  0.112786  0.499932  1
  Ag  Ag12  1  0.881873  0.878056  0.331706  1
  Ag  Ag13  1  0.381435  0.121411  0.168252  1
  Ag  Ag14  1  0.105885  0.375347  0.828893  1
  Ag  Ag15  1  0.106185  0.375761  0.171085  1
  Te  Te16  1  0.009730  0.562031  0.332552  1
  Te  Te17  1  0.507602  0.439982  0.166864  1
  Te  Te18  1  0.978733  0.058240  0.167304  1
  Te  Te19  1  0.008876  0.561367  0.666935  1
  Te  Te20  1  0.019280  0.568795  0.000897  1
  Te  Te21  1  0.508905  0.438692  0.833114  1
  Te  Te22  1  0.476665  0.939751  0.332101  1
  Te  Te23  1  0.477483  0.940428  0.667403  1
  Te  Te24  1  0.972216  0.072381  0.499967  1
  Te  Te25  1  0.471299  0.926677  0.000877  1
  Te  Te26  1  0.977444  0.059537  0.832651  1
  Te  Te27  1  0.518392  0.432149  0.499961  1
