# generated using pymatgen
data_Ti5Si2GeN
_symmetry_space_group_name_H-M   'P 1'
_cell_length_a   7.47722300
_cell_length_b   7.45385173
_cell_length_c   5.20121000
_cell_angle_alpha   90.00000000
_cell_angle_beta   90.00000000
_cell_angle_gamma   120.10376125
_symmetry_Int_Tables_number   1
_chemical_formula_structural   Ti5Si2GeN
_chemical_formula_sum   'Ti10 Si4 Ge2 N2'
_cell_volume   250.78471833
_cell_formula_units_Z   2
loop_
 _symmetry_equiv_pos_site_id
 _symmetry_equiv_pos_as_xyz
  1  'x, y, z'
loop_
 _atom_site_type_symbol
 _atom_site_label
 _atom_site_symmetry_multiplicity
 _atom_site_fract_x
 _atom_site_fract_y
 _atom_site_fract_z
 _atom_site_occupancy
  Ti  Ti0  1  0.224657  0.000000  0.750000  1
  Ti  Ti1  1  0.775343  0.000000  0.250000  1
  Ti  Ti2  1  0.002896  0.231455  0.750000  1
  Ti  Ti3  1  0.997104  0.768545  0.250000  1
  Ti  Ti4  1  0.771441  0.768545  0.750000  1
  Ti  Ti5  1  0.228559  0.231455  0.250000  1
  Ti  Ti6  1  0.330829  0.661657  0.500000  1
  Ti  Ti7  1  0.669171  0.338343  0.500000  1
  Ti  Ti8  1  0.669171  0.338343  0.000000  1
  Ti  Ti9  1  0.330829  0.661657  0.000000  1
  Si  Si10  1  0.001239  0.591781  0.750000  1
  Si  Si11  1  0.998761  0.408219  0.250000  1
  Si  Si12  1  0.409458  0.408219  0.750000  1
  Si  Si13  1  0.590542  0.591781  0.250000  1
  Ge  Ge14  1  0.593018  0.000000  0.750000  1
  Ge  Ge15  1  0.406982  0.000000  0.250000  1
  N  N16  1  0.000000  0.000000  0.500000  1
  N  N17  1  0.000000  0.000000  0.000000  1
