# generated using pymatgen
data_TmHf2(FeCo2)3
_symmetry_space_group_name_H-M   'P 1'
_cell_length_a   4.96355835
_cell_length_b   4.96355860
_cell_length_c   8.25342747
_cell_angle_alpha   72.50055727
_cell_angle_beta   72.50055920
_cell_angle_gamma   60.00000614
_symmetry_Int_Tables_number   1
_chemical_formula_structural   TmHf2(FeCo2)3
_chemical_formula_sum   'Tm1 Hf2 Fe3 Co6'
_cell_volume   165.14100310
_cell_formula_units_Z   1
loop_
 _symmetry_equiv_pos_site_id
 _symmetry_equiv_pos_as_xyz
  1  'x, y, z'
loop_
 _atom_site_type_symbol
 _atom_site_label
 _atom_site_symmetry_multiplicity
 _atom_site_fract_x
 _atom_site_fract_y
 _atom_site_fract_z
 _atom_site_occupancy
  Tm  Tm0  1  0.000000  0.000000  0.000000  1
  Hf  Hf1  1  0.141331  0.141331  0.576005  1
  Hf  Hf2  1  0.858669  0.858669  0.423995  1
  Fe  Fe3  1  0.334002  0.334002  0.997993  1
  Fe  Fe4  1  0.665998  0.665998  0.002007  1
  Fe  Fe5  1  0.500000  0.500000  0.500000  1
  Co  Co6  1  0.079771  0.587683  0.744863  1
  Co  Co7  1  0.587683  0.587683  0.744863  1
  Co  Co8  1  0.587683  0.079771  0.744863  1
  Co  Co9  1  0.920229  0.412317  0.255137  1
  Co  Co10  1  0.412317  0.412317  0.255137  1
  Co  Co11  1  0.412317  0.920229  0.255137  1
