# generated using pymatgen
data_LiTbSm(P3Pd10)2
_symmetry_space_group_name_H-M   'P 1'
_cell_length_a   8.64628932
_cell_length_b   8.64628984
_cell_length_c   8.64628900
_cell_angle_alpha   59.99999938
_cell_angle_beta   59.99999739
_cell_angle_gamma   59.99999804
_symmetry_Int_Tables_number   1
_chemical_formula_structural   LiTbSm(P3Pd10)2
_chemical_formula_sum   'Li1 Tb1 Sm1 P6 Pd20'
_cell_volume   457.06112689
_cell_formula_units_Z   1
loop_
 _symmetry_equiv_pos_site_id
 _symmetry_equiv_pos_as_xyz
  1  'x, y, z'
loop_
 _atom_site_type_symbol
 _atom_site_label
 _atom_site_symmetry_multiplicity
 _atom_site_fract_x
 _atom_site_fract_y
 _atom_site_fract_z
 _atom_site_occupancy
  Li  Li0  1  0.000000  0.000000  0.000000  1
  Tb  Tb1  1  0.250000  0.250000  0.250000  1
  Sm  Sm2  1  0.750000  0.750000  0.750000  1
  P  P3  1  0.740320  0.259680  0.259680  1
  P  P4  1  0.259680  0.740320  0.740320  1
  P  P5  1  0.259680  0.740320  0.259680  1
  P  P6  1  0.740320  0.259680  0.740320  1
  P  P7  1  0.259680  0.259680  0.740320  1
  P  P8  1  0.740320  0.740320  0.259680  1
  Pd  Pd9  1  0.385027  0.385027  0.385027  1
  Pd  Pd10  1  0.614061  0.614061  0.614061  1
  Pd  Pd11  1  0.385027  0.385027  0.844918  1
  Pd  Pd12  1  0.385027  0.844918  0.385027  1
  Pd  Pd13  1  0.614061  0.614061  0.157818  1
  Pd  Pd14  1  0.614061  0.157818  0.614061  1
  Pd  Pd15  1  0.844918  0.385027  0.385027  1
  Pd  Pd16  1  0.157818  0.614061  0.614061  1
  Pd  Pd17  1  0.345471  0.000364  0.000364  1
  Pd  Pd18  1  0.653800  0.000364  0.000364  1
  Pd  Pd19  1  0.000364  0.345471  0.653800  1
  Pd  Pd20  1  0.000364  0.653800  0.345471  1
  Pd  Pd21  1  0.000364  0.345471  0.000364  1
  Pd  Pd22  1  0.653800  0.000364  0.345471  1
  Pd  Pd23  1  0.000364  0.653800  0.000364  1
  Pd  Pd24  1  0.345471  0.000364  0.653800  1
  Pd  Pd25  1  0.000364  0.000364  0.345471  1
  Pd  Pd26  1  0.000364  0.000364  0.653800  1
  Pd  Pd27  1  0.653800  0.345471  0.000364  1
  Pd  Pd28  1  0.345471  0.653800  0.000364  1
