# generated using pymatgen
data_Zr8TiSn6MoN2
_symmetry_space_group_name_H-M   'P 1'
_cell_length_a   8.38637100
_cell_length_b   8.38637133
_cell_length_c   5.68250400
_cell_angle_alpha   90.00000000
_cell_angle_beta   90.00000000
_cell_angle_gamma   119.99999476
_symmetry_Int_Tables_number   1
_chemical_formula_structural   Zr8TiSn6MoN2
_chemical_formula_sum   'Zr8 Ti1 Sn6 Mo1 N2'
_cell_volume   346.11351968
_cell_formula_units_Z   1
loop_
 _symmetry_equiv_pos_site_id
 _symmetry_equiv_pos_as_xyz
  1  'x, y, z'
loop_
 _atom_site_type_symbol
 _atom_site_label
 _atom_site_symmetry_multiplicity
 _atom_site_fract_x
 _atom_site_fract_y
 _atom_site_fract_z
 _atom_site_occupancy
  Zr  Zr0  1  0.333333  0.666667  0.500000  1
  Zr  Zr1  1  0.666667  0.333333  0.500000  1
  Zr  Zr2  1  0.778308  0.777976  0.748834  1
  Zr  Zr3  1  0.222024  0.000332  0.748834  1
  Zr  Zr4  1  0.999668  0.221692  0.748834  1
  Zr  Zr5  1  0.222024  0.221692  0.251166  1
  Zr  Zr6  1  0.778308  0.000332  0.251166  1
  Zr  Zr7  1  0.999668  0.777976  0.251166  1
  Ti  Ti8  1  0.333333  0.666667  0.000000  1
  Sn  Sn9  1  0.408468  0.408180  0.761282  1
  Sn  Sn10  1  0.591820  0.000289  0.761282  1
  Sn  Sn11  1  0.999711  0.591532  0.761282  1
  Sn  Sn12  1  0.591820  0.591532  0.238718  1
  Sn  Sn13  1  0.408468  0.000289  0.238718  1
  Sn  Sn14  1  0.999711  0.408180  0.238718  1
  Mo  Mo15  1  0.666667  0.333333  0.000000  1
  N  N16  1  0.000000  0.000000  0.000000  1
  N  N17  1  0.000000  0.000000  0.500000  1
