# generated using pymatgen
data_Dy17Mg3Ir7Pt5
_symmetry_space_group_name_H-M   'P 1'
_cell_length_a   10.83946207
_cell_length_b   10.85650551
_cell_length_c   6.28704244
_cell_angle_alpha   90.04402717
_cell_angle_beta   89.90958835
_cell_angle_gamma   89.83896235
_symmetry_Int_Tables_number   1
_chemical_formula_structural   Dy17Mg3Ir7Pt5
_chemical_formula_sum   'Dy17 Mg3 Ir7 Pt5'
_cell_volume   739.84678913
_cell_formula_units_Z   1
loop_
 _symmetry_equiv_pos_site_id
 _symmetry_equiv_pos_as_xyz
  1  'x, y, z'
loop_
 _atom_site_type_symbol
 _atom_site_label
 _atom_site_symmetry_multiplicity
 _atom_site_fract_x
 _atom_site_fract_y
 _atom_site_fract_z
 _atom_site_occupancy
  Dy  Dy0  1  0.288407  0.088432  0.378721  1
  Dy  Dy1  1  0.289365  0.913256  0.876734  1
  Dy  Dy2  1  0.711165  0.082085  0.877003  1
  Dy  Dy3  1  0.711190  0.910950  0.378985  1
  Dy  Dy4  1  0.583281  0.783619  0.880417  1
  Dy  Dy5  1  0.585477  0.205773  0.376365  1
  Dy  Dy6  1  0.412361  0.793181  0.380733  1
  Dy  Dy7  1  0.413247  0.213667  0.881208  1
  Dy  Dy8  1  0.208414  0.412690  0.619238  1
  Dy  Dy9  1  0.215537  0.583504  0.119916  1
  Dy  Dy10  1  0.787187  0.418474  0.124187  1
  Dy  Dy11  1  0.793421  0.590285  0.618929  1
  Dy  Dy12  1  0.914118  0.711097  0.122969  1
  Dy  Dy13  1  0.914540  0.288557  0.621400  1
  Dy  Dy14  1  0.089007  0.711134  0.621381  1
  Dy  Dy15  1  0.086603  0.289495  0.122705  1
  Dy  Dy16  1  0.498648  0.502177  0.497544  1
  Mg  Mg17  1  0.999765  0.999830  0.499609  1
  Mg  Mg18  1  0.000320  0.000044  0.000537  1
  Mg  Mg19  1  0.499049  0.500693  0.999590  1
  Ir  Ir20  1  0.654928  0.655855  0.253237  1
  Ir  Ir21  1  0.346485  0.343396  0.253630  1
  Ir  Ir22  1  0.343379  0.654783  0.745676  1
  Ir  Ir23  1  0.500427  0.000411  0.119267  1
  Ir  Ir24  1  0.500146  0.000836  0.624268  1
  Ir  Ir25  1  0.999429  0.499790  0.879131  1
  Ir  Ir26  1  0.999609  0.499561  0.377369  1
  Pt  Pt27  1  0.848842  0.151663  0.248047  1
  Pt  Pt28  1  0.849663  0.850118  0.752219  1
  Pt  Pt29  1  0.150412  0.149799  0.752381  1
  Pt  Pt30  1  0.150057  0.849140  0.247663  1
  Pt  Pt31  1  0.655520  0.345706  0.748942  1
