# generated using pymatgen
data_EuDy4Co14P12Ru5
_symmetry_space_group_name_H-M   'P 1'
_cell_length_a   12.09697094
_cell_length_b   12.09830836
_cell_length_c   3.72962400
_cell_angle_alpha   90.00000000
_cell_angle_beta   90.00000000
_cell_angle_gamma   119.93800522
_symmetry_Int_Tables_number   1
_chemical_formula_structural   EuDy4Co14P12Ru5
_chemical_formula_sum   'Eu1 Dy4 Co14 P12 Ru5'
_cell_volume   473.00739918
_cell_formula_units_Z   1
loop_
 _symmetry_equiv_pos_site_id
 _symmetry_equiv_pos_as_xyz
  1  'x, y, z'
loop_
 _atom_site_type_symbol
 _atom_site_label
 _atom_site_symmetry_multiplicity
 _atom_site_fract_x
 _atom_site_fract_y
 _atom_site_fract_z
 _atom_site_occupancy
  Eu  Eu0  1  0.663129  0.334372  0.000000  1
  Dy  Dy1  1  0.333397  0.666110  0.000000  1
  Dy  Dy2  1  0.185173  0.184288  0.500000  1
  Dy  Dy3  1  0.817049  0.999937  0.500000  1
  Dy  Dy4  1  0.000186  0.818264  0.500000  1
  Co  Co5  1  0.828867  0.198903  0.000000  1
  Co  Co6  1  0.801554  0.629773  0.000000  1
  Co  Co7  1  0.372859  0.177725  0.000000  1
  Co  Co8  1  0.194562  0.819235  0.000000  1
  Co  Co9  1  0.623203  0.803340  0.000000  1
  Co  Co10  1  0.181609  0.375154  0.000000  1
  Co  Co11  1  0.476185  0.357621  0.500000  1
  Co  Co12  1  0.132320  0.643999  0.500000  1
  Co  Co13  1  0.512066  0.867874  0.500000  1
  Co  Co14  1  0.356975  0.484417  0.500000  1
  Co  Co15  1  0.716230  0.718609  0.500000  1
  Co  Co16  1  0.280456  0.997460  0.500000  1
  Co  Co17  1  0.003650  0.283301  0.500000  1
  Co  Co18  1  0.999738  0.999752  0.000000  1
  P  P19  1  0.363640  0.363365  0.000000  1
  P  P20  1  0.633290  0.994747  0.000000  1
  P  P21  1  0.004411  0.639223  0.000000  1
  P  P22  1  0.839356  0.313809  0.500000  1
  P  P23  1  0.681964  0.523312  0.500000  1
  P  P24  1  0.473023  0.165259  0.500000  1
  P  P25  1  0.312353  0.833820  0.500000  1
  P  P26  1  0.520738  0.686509  0.500000  1
  P  P27  1  0.167904  0.478244  0.500000  1
  P  P28  1  0.819250  0.821635  0.000000  1
  P  P29  1  0.179387  0.999603  0.000000  1
  P  P30  1  0.002759  0.179743  0.000000  1
  Ru  Ru31  1  0.551683  0.554331  0.000000  1
  Ru  Ru32  1  0.440034  0.991191  0.000000  1
  Ru  Ru33  1  0.009164  0.449809  0.000000  1
  Ru  Ru34  1  0.643114  0.121337  0.500000  1
  Ru  Ru35  1  0.878724  0.523927  0.500000  1
