# generated using pymatgen
data_KIn8GaRh2
_symmetry_space_group_name_H-M   'P 1'
_cell_length_a   8.81908929
_cell_length_b   8.81908999
_cell_length_c   4.33482800
_cell_angle_alpha   90.00000000
_cell_angle_beta   90.00000000
_cell_angle_gamma   118.82161929
_symmetry_Int_Tables_number   1
_chemical_formula_structural   KIn8GaRh2
_chemical_formula_sum   'K1 In8 Ga1 Rh2'
_cell_volume   295.38291826
_cell_formula_units_Z   1
loop_
 _symmetry_equiv_pos_site_id
 _symmetry_equiv_pos_as_xyz
  1  'x, y, z'
loop_
 _atom_site_type_symbol
 _atom_site_label
 _atom_site_symmetry_multiplicity
 _atom_site_fract_x
 _atom_site_fract_y
 _atom_site_fract_z
 _atom_site_occupancy
  K  K0  1  0.000000  0.000000  0.000000  1
  In  In1  1  0.500000  0.000000  0.000000  1
  In  In2  1  0.000000  0.499999  0.000000  1
  In  In3  1  0.411227  0.210983  0.499999  1
  In  In4  1  0.794498  0.205502  0.499999  1
  In  In5  1  0.210983  0.411227  0.499999  1
  In  In6  1  0.789017  0.588773  0.499999  1
  In  In7  1  0.205502  0.794498  0.499999  1
  In  In8  1  0.588773  0.789017  0.499999  1
  Ga  Ga9  1  0.500000  0.499999  0.000000  1
  Rh  Rh10  1  0.660299  0.339700  0.000000  1
  Rh  Rh11  1  0.339700  0.660300  0.000000  1
