# generated using pymatgen
data_SrTa6Cl18
_symmetry_space_group_name_H-M   'P 1'
_cell_length_a   10.41817837
_cell_length_b   10.41839847
_cell_length_c   10.42116922
_cell_angle_alpha   55.74389679
_cell_angle_beta   55.76168779
_cell_angle_gamma   55.76195353
_symmetry_Int_Tables_number   1
_chemical_formula_structural   SrTa6Cl18
_chemical_formula_sum   'Sr1 Ta6 Cl18'
_cell_volume   721.09543369
_cell_formula_units_Z   1
loop_
 _symmetry_equiv_pos_site_id
 _symmetry_equiv_pos_as_xyz
  1  'x, y, z'
loop_
 _atom_site_type_symbol
 _atom_site_label
 _atom_site_symmetry_multiplicity
 _atom_site_fract_x
 _atom_site_fract_y
 _atom_site_fract_z
 _atom_site_occupancy
  Sr  Sr0  1  0.000000  0.000000  0.000000  1
  Ta  Ta1  1  0.413681  0.299949  0.647029  1
  Ta  Ta2  1  0.353032  0.586306  0.699957  1
  Ta  Ta3  1  0.700020  0.352982  0.586330  1
  Ta  Ta4  1  0.299980  0.647018  0.413670  1
  Ta  Ta5  1  0.646968  0.413694  0.300043  1
  Ta  Ta6  1  0.586319  0.700051  0.352971  1
  Cl  Cl7  1  0.570247  0.171180  0.439138  1
  Cl  Cl8  1  0.231725  0.369545  0.898324  1
  Cl  Cl9  1  0.898342  0.231688  0.369586  1
  Cl  Cl10  1  0.369573  0.898331  0.231716  1
  Cl  Cl11  1  0.768275  0.630455  0.101676  1
  Cl  Cl12  1  0.101658  0.768312  0.630414  1
  Cl  Cl13  1  0.684701  0.946201  0.175396  1
  Cl  Cl14  1  0.946163  0.175395  0.684726  1
  Cl  Cl15  1  0.175407  0.684734  0.946145  1
  Cl  Cl16  1  0.315299  0.053799  0.824604  1
  Cl  Cl17  1  0.053837  0.824605  0.315274  1
  Cl  Cl18  1  0.824593  0.315266  0.053855  1
  Cl  Cl19  1  0.560905  0.429733  0.828801  1
  Cl  Cl20  1  0.171240  0.439101  0.570253  1
  Cl  Cl21  1  0.439095  0.570267  0.171199  1
  Cl  Cl22  1  0.429753  0.828820  0.560862  1
  Cl  Cl23  1  0.828760  0.560899  0.429747  1
  Cl  Cl24  1  0.630427  0.101669  0.768284  1
