# generated using pymatgen
data_Mn3Zn3(B2Rh5)2
_symmetry_space_group_name_H-M   'P 1'
_cell_length_a   9.35428218
_cell_length_b   9.35428209
_cell_length_c   2.92716800
_cell_angle_alpha   90.00000000
_cell_angle_beta   90.00000000
_cell_angle_gamma   90.21588637
_symmetry_Int_Tables_number   1
_chemical_formula_structural   Mn3Zn3(B2Rh5)2
_chemical_formula_sum   'Mn3 Zn3 B4 Rh10'
_cell_volume   256.13297573
_cell_formula_units_Z   1
loop_
 _symmetry_equiv_pos_site_id
 _symmetry_equiv_pos_as_xyz
  1  'x, y, z'
loop_
 _atom_site_type_symbol
 _atom_site_label
 _atom_site_symmetry_multiplicity
 _atom_site_fract_x
 _atom_site_fract_y
 _atom_site_fract_z
 _atom_site_occupancy
  Mn  Mn0  1  0.324379  0.824379  0.000000  1
  Mn  Mn1  1  0.176487  0.322115  0.000000  1
  Mn  Mn2  1  0.822115  0.676487  0.000000  1
  Zn  Zn3  1  0.678421  0.178421  0.000000  1
  Zn  Zn4  1  0.000388  0.999453  0.000000  1
  Zn  Zn5  1  0.499453  0.500388  0.000000  1
  B  B6  1  0.128566  0.628566  0.000000  1
  B  B7  1  0.873560  0.373560  0.000000  1
  B  B8  1  0.626869  0.870734  0.000000  1
  B  B9  1  0.370734  0.126869  0.000000  1
  Rh  Rh10  1  0.502626  0.002626  0.500000  1
  Rh  Rh11  1  0.999740  0.499740  0.500000  1
  Rh  Rh12  1  0.216547  0.068345  0.500000  1
  Rh  Rh13  1  0.784796  0.927415  0.500000  1
  Rh  Rh14  1  0.070957  0.783875  0.500000  1
  Rh  Rh15  1  0.715539  0.429186  0.500000  1
  Rh  Rh16  1  0.929186  0.215539  0.500000  1
  Rh  Rh17  1  0.283875  0.570957  0.500000  1
  Rh  Rh18  1  0.568345  0.716547  0.500000  1
  Rh  Rh19  1  0.427415  0.284796  0.500000  1
