# generated using pymatgen
data_Y3HoLu4In3Ni
_symmetry_space_group_name_H-M   'P 1'
_cell_length_a   10.26455500
_cell_length_b   10.26455441
_cell_length_c   7.02977500
_cell_angle_alpha   90.00000000
_cell_angle_beta   90.00000000
_cell_angle_gamma   119.99999867
_symmetry_Int_Tables_number   1
_chemical_formula_structural   Y3HoLu4In3Ni
_chemical_formula_sum   'Y6 Ho2 Lu8 In6 Ni2'
_cell_volume   641.43446277
_cell_formula_units_Z   2
loop_
 _symmetry_equiv_pos_site_id
 _symmetry_equiv_pos_as_xyz
  1  'x, y, z'
loop_
 _atom_site_type_symbol
 _atom_site_label
 _atom_site_symmetry_multiplicity
 _atom_site_fract_x
 _atom_site_fract_y
 _atom_site_fract_z
 _atom_site_occupancy
  Y  Y0  1  0.533896  0.067792  0.507022  1
  Y  Y1  1  0.932208  0.466104  0.507022  1
  Y  Y2  1  0.533896  0.466104  0.507022  1
  Y  Y3  1  0.466104  0.932208  0.007022  1
  Y  Y4  1  0.067792  0.533896  0.007022  1
  Y  Y5  1  0.466104  0.533896  0.007022  1
  Ho  Ho6  1  0.000000  0.000000  0.491076  1
  Ho  Ho7  1  0.000000  0.000000  0.991076  1
  Lu  Lu8  1  0.178356  0.356712  0.708446  1
  Lu  Lu9  1  0.643288  0.821644  0.708446  1
  Lu  Lu10  1  0.178356  0.821644  0.708446  1
  Lu  Lu11  1  0.821644  0.643288  0.208446  1
  Lu  Lu12  1  0.356712  0.178356  0.208446  1
  Lu  Lu13  1  0.821644  0.178356  0.208446  1
  Lu  Lu14  1  0.666667  0.333333  0.898363  1
  Lu  Lu15  1  0.333333  0.666667  0.398363  1
  In  In16  1  0.837101  0.674204  0.756934  1
  In  In17  1  0.325796  0.162899  0.756934  1
  In  In18  1  0.837101  0.162899  0.756934  1
  In  In19  1  0.162899  0.325796  0.256934  1
  In  In20  1  0.674204  0.837101  0.256934  1
  In  In21  1  0.162899  0.837101  0.256934  1
  Ni  Ni22  1  0.666667  0.333333  0.272379  1
  Ni  Ni23  1  0.333333  0.666667  0.772379  1
