# generated using pymatgen
data_Li2Ac4As3Ir
_symmetry_space_group_name_H-M   'P 1'
_cell_length_a   4.46704800
_cell_length_b   4.46704882
_cell_length_c   15.51325900
_cell_angle_alpha   90.00000000
_cell_angle_beta   90.00000000
_cell_angle_gamma   119.99999389
_symmetry_Int_Tables_number   1
_chemical_formula_structural   Li2Ac4As3Ir
_chemical_formula_sum   'Li2 Ac4 As3 Ir1'
_cell_volume   268.08654649
_cell_formula_units_Z   1
loop_
 _symmetry_equiv_pos_site_id
 _symmetry_equiv_pos_as_xyz
  1  'x, y, z'
loop_
 _atom_site_type_symbol
 _atom_site_label
 _atom_site_symmetry_multiplicity
 _atom_site_fract_x
 _atom_site_fract_y
 _atom_site_fract_z
 _atom_site_occupancy
  Li  Li0  1  0.000000  0.000000  0.232469  1
  Li  Li1  1  0.000000  0.000000  0.767531  1
  Ac  Ac2  1  0.333333  0.666667  0.100112  1
  Ac  Ac3  1  0.333333  0.666667  0.384105  1
  Ac  Ac4  1  0.666667  0.333332  0.615895  1
  Ac  Ac5  1  0.666667  0.333332  0.899888  1
  As  As6  1  0.666667  0.333332  0.256299  1
  As  As7  1  0.000000  0.000000  0.500000  1
  As  As8  1  0.333333  0.666667  0.743701  1
  Ir  Ir9  1  0.000000  0.000000  0.000000  1
