# generated using pymatgen
data_Pr5Ga2BiO12
_symmetry_space_group_name_H-M   'P 1'
_cell_length_a   7.42538342
_cell_length_b   7.57878000
_cell_length_c   5.67376395
_cell_angle_alpha   90.51948107
_cell_angle_beta   90.06058154
_cell_angle_gamma   102.68583837
_symmetry_Int_Tables_number   1
_chemical_formula_structural   Pr5Ga2BiO12
_chemical_formula_sum   'Pr5 Ga2 Bi1 O12'
_cell_volume   311.48440369
_cell_formula_units_Z   1
loop_
 _symmetry_equiv_pos_site_id
 _symmetry_equiv_pos_as_xyz
  1  'x, y, z'
loop_
 _atom_site_type_symbol
 _atom_site_label
 _atom_site_symmetry_multiplicity
 _atom_site_fract_x
 _atom_site_fract_y
 _atom_site_fract_z
 _atom_site_occupancy
  Pr  Pr0  1  0.293161  0.087017  0.972055  1
  Pr  Pr1  1  0.608498  0.397579  0.432626  1
  Pr  Pr2  1  0.398723  0.608481  0.931655  1
  Pr  Pr3  1  0.709506  0.918446  0.475386  1
  Pr  Pr4  1  0.911795  0.700381  0.971263  1
  Ga  Ga5  1  0.807999  0.189984  0.010688  1
  Ga  Ga6  1  0.194837  0.807126  0.502636  1
  Bi  Bi7  1  0.095212  0.316531  0.472448  1
  O  O8  1  0.322979  0.360358  0.208263  1
  O  O9  1  0.353399  0.328605  0.707392  1
  O  O10  1  0.583970  0.110279  0.179688  1
  O  O11  1  0.110077  0.580982  0.658115  1
  O  O12  1  0.952471  0.031295  0.123751  1
  O  O13  1  0.775173  0.215728  0.688878  1
  O  O14  1  0.035283  0.935714  0.646531  1
  O  O15  1  0.217001  0.787257  0.177427  1
  O  O16  1  0.897564  0.413381  0.173421  1
  O  O17  1  0.413750  0.890866  0.677745  1
  O  O18  1  0.648005  0.672310  0.205560  1
  O  O19  1  0.670598  0.647678  0.702071  1
