# generated using pymatgen
data_Ho3ErMgSn4
_symmetry_space_group_name_H-M   'P 1'
_cell_length_a   7.64413603
_cell_length_b   8.21135202
_cell_length_c   15.22869803
_cell_angle_alpha   90.00028231
_cell_angle_beta   90.00670269
_cell_angle_gamma   90.00737889
_symmetry_Int_Tables_number   1
_chemical_formula_structural   Ho3ErMgSn4
_chemical_formula_sum   'Ho12 Er4 Mg4 Sn16'
_cell_volume   955.88543843
_cell_formula_units_Z   4
loop_
 _symmetry_equiv_pos_site_id
 _symmetry_equiv_pos_as_xyz
  1  'x, y, z'
loop_
 _atom_site_type_symbol
 _atom_site_label
 _atom_site_symmetry_multiplicity
 _atom_site_fract_x
 _atom_site_fract_y
 _atom_site_fract_z
 _atom_site_occupancy
  Ho  Ho0  1  0.998976  0.184813  0.090657  1
  Ho  Ho1  1  0.001073  0.815186  0.909306  1
  Ho  Ho2  1  0.501058  0.684811  0.909275  1
  Ho  Ho3  1  0.001013  0.815198  0.590716  1
  Ho  Ho4  1  0.498943  0.315185  0.090677  1
  Ho  Ho5  1  0.998975  0.184803  0.409329  1
  Ho  Ho6  1  0.498998  0.315184  0.409302  1
  Ho  Ho7  1  0.501053  0.684799  0.590733  1
  Ho  Ho8  1  0.335142  0.169061  0.628797  1
  Ho  Ho9  1  0.664880  0.830984  0.371262  1
  Ho  Ho10  1  0.164821  0.669061  0.371188  1
  Ho  Ho11  1  0.664844  0.830962  0.128737  1
  Er  Er12  1  0.835118  0.330986  0.628794  1
  Er  Er13  1  0.335074  0.169002  0.871281  1
  Er  Er14  1  0.835143  0.330970  0.871202  1
  Er  Er15  1  0.164904  0.669009  0.128757  1
  Mg  Mg16  1  0.159216  0.505357  0.750016  1
  Mg  Mg17  1  0.840761  0.494581  0.249979  1
  Mg  Mg18  1  0.340698  0.005394  0.249984  1
  Mg  Mg19  1  0.659274  0.994674  0.750021  1
  Sn  Sn20  1  0.021431  0.091832  0.750080  1
  Sn  Sn21  1  0.978615  0.908405  0.249941  1
  Sn  Sn22  1  0.478361  0.591501  0.249914  1
  Sn  Sn23  1  0.521706  0.408263  0.750061  1
  Sn  Sn24  1  0.182347  0.462961  0.538522  1
  Sn  Sn25  1  0.817495  0.536870  0.461619  1
  Sn  Sn26  1  0.317483  0.963021  0.461523  1
  Sn  Sn27  1  0.817654  0.536916  0.038407  1
  Sn  Sn28  1  0.682631  0.037140  0.538546  1
  Sn  Sn29  1  0.182448  0.462927  0.961521  1
  Sn  Sn30  1  0.682474  0.037174  0.961431  1
  Sn  Sn31  1  0.317385  0.962982  0.038424  1
  Sn  Sn32  1  0.302577  0.846850  0.750036  1
  Sn  Sn33  1  0.697430  0.153221  0.249995  1
  Sn  Sn34  1  0.197421  0.346887  0.249965  1
  Sn  Sn35  1  0.802577  0.653031  0.750000  1
