# generated using pymatgen
data_La2Cr2Co10P7
_symmetry_space_group_name_H-M   'P 1'
_cell_length_a   9.13051920
_cell_length_b   9.10540919
_cell_length_c   3.68362300
_cell_angle_alpha   90.00000000
_cell_angle_beta   90.00000000
_cell_angle_gamma   119.99518263
_symmetry_Int_Tables_number   1
_chemical_formula_structural   La2Cr2Co10P7
_chemical_formula_sum   'La2 Cr2 Co10 P7'
_cell_volume   265.22950147
_cell_formula_units_Z   1
loop_
 _symmetry_equiv_pos_site_id
 _symmetry_equiv_pos_as_xyz
  1  'x, y, z'
loop_
 _atom_site_type_symbol
 _atom_site_label
 _atom_site_symmetry_multiplicity
 _atom_site_fract_x
 _atom_site_fract_y
 _atom_site_fract_z
 _atom_site_occupancy
  La  La0  1  0.666562  0.332703  0.000000  1
  La  La1  1  0.331731  0.667953  0.500000  1
  Cr  Cr2  1  0.901571  0.113767  0.000000  1
  Cr  Cr3  1  0.882762  0.786349  0.000000  1
  Co  Co4  1  0.431619  0.059830  0.500000  1
  Co  Co5  1  0.941030  0.370479  0.500000  1
  Co  Co6  1  0.630002  0.571211  0.500000  1
  Co  Co7  1  0.152869  0.273647  0.500000  1
  Co  Co8  1  0.725199  0.877491  0.500000  1
  Co  Co9  1  0.120164  0.850505  0.500000  1
  Co  Co10  1  0.382160  0.429790  0.000000  1
  Co  Co11  1  0.569738  0.948975  0.000000  1
  Co  Co12  1  0.049185  0.619717  0.000000  1
  Co  Co13  1  0.219395  0.098111  0.000000  1
  P  P14  1  0.102210  0.392903  0.000000  1
  P  P15  1  0.599384  0.705449  0.000000  1
  P  P16  1  0.292286  0.897585  0.000000  1
  P  P17  1  0.999617  0.002799  0.500000  1
  P  P18  1  0.402515  0.297977  0.500000  1
  P  P19  1  0.703888  0.104780  0.500000  1
  P  P20  1  0.896112  0.597980  0.500000  1
