# generated using pymatgen
data_Tb4Ni13P12Ru7
_symmetry_space_group_name_H-M   'P 1'
_cell_length_a   3.75428100
_cell_length_b   10.64064930
_cell_length_c   11.90859918
_cell_angle_alpha   90.16369231
_cell_angle_beta   90.00000000
_cell_angle_gamma   90.00000000
_symmetry_Int_Tables_number   1
_chemical_formula_structural   Tb4Ni13P12Ru7
_chemical_formula_sum   'Tb4 Ni13 P12 Ru7'
_cell_volume   475.72262953
_cell_formula_units_Z   1
loop_
 _symmetry_equiv_pos_site_id
 _symmetry_equiv_pos_as_xyz
  1  'x, y, z'
loop_
 _atom_site_type_symbol
 _atom_site_label
 _atom_site_symmetry_multiplicity
 _atom_site_fract_x
 _atom_site_fract_y
 _atom_site_fract_z
 _atom_site_occupancy
  Tb  Tb0  1  0.250000  0.588919  0.708731  1
  Tb  Tb1  1  0.250000  0.910411  0.205033  1
  Tb  Tb2  1  0.750000  0.410794  0.291795  1
  Tb  Tb3  1  0.750000  0.088084  0.791592  1
  Ni  Ni4  1  0.750000  0.906293  0.010635  1
  Ni  Ni5  1  0.250000  0.223890  0.182020  1
  Ni  Ni6  1  0.250000  0.274617  0.683735  1
  Ni  Ni7  1  0.750000  0.779747  0.819474  1
  Ni  Ni8  1  0.750000  0.724846  0.316874  1
  Ni  Ni9  1  0.250000  0.886791  0.701201  1
  Ni  Ni10  1  0.250000  0.613964  0.201856  1
  Ni  Ni11  1  0.750000  0.111054  0.297182  1
  Ni  Ni12  1  0.750000  0.387376  0.799342  1
  Ni  Ni13  1  0.250000  0.466200  0.931189  1
  Ni  Ni14  1  0.250000  0.034637  0.429255  1
  Ni  Ni15  1  0.750000  0.535887  0.069121  1
  Ni  Ni16  1  0.750000  0.963241  0.568389  1
  P  P17  1  0.250000  0.418581  0.112191  1
  P  P18  1  0.250000  0.081219  0.610796  1
  P  P19  1  0.750000  0.584800  0.889082  1
  P  P20  1  0.750000  0.918221  0.387212  1
  P  P21  1  0.250000  0.270922  0.873888  1
  P  P22  1  0.250000  0.227660  0.371817  1
  P  P23  1  0.750000  0.730364  0.126471  1
  P  P24  1  0.750000  0.771404  0.628171  1
  P  P25  1  0.250000  0.597905  0.389618  1
  P  P26  1  0.250000  0.901847  0.887596  1
  P  P27  1  0.750000  0.401038  0.611334  1
  P  P28  1  0.750000  0.098197  0.111602  1
  Ru  Ru29  1  0.250000  0.714649  0.986088  1
  Ru  Ru30  1  0.250000  0.792162  0.484418  1
  Ru  Ru31  1  0.750000  0.289705  0.014340  1
  Ru  Ru32  1  0.750000  0.206323  0.515927  1
  Ru  Ru33  1  0.250000  0.403274  0.489364  1
  Ru  Ru34  1  0.250000  0.089398  0.990852  1
  Ru  Ru35  1  0.750000  0.595574  0.511810  1
