# generated using pymatgen
data_Tb4Hg3IrPb2
_symmetry_space_group_name_H-M   'P 1'
_cell_length_a   8.22875462
_cell_length_b   8.22875418
_cell_length_c   3.85037300
_cell_angle_alpha   90.00000000
_cell_angle_beta   90.00000000
_cell_angle_gamma   90.79419188
_symmetry_Int_Tables_number   1
_chemical_formula_structural   Tb4Hg3IrPb2
_chemical_formula_sum   'Tb4 Hg3 Ir1 Pb2'
_cell_volume   260.69294675
_cell_formula_units_Z   1
loop_
 _symmetry_equiv_pos_site_id
 _symmetry_equiv_pos_as_xyz
  1  'x, y, z'
loop_
 _atom_site_type_symbol
 _atom_site_label
 _atom_site_symmetry_multiplicity
 _atom_site_fract_x
 _atom_site_fract_y
 _atom_site_fract_z
 _atom_site_occupancy
  Tb  Tb0  1  0.635029  0.179977  0.500000  1
  Tb  Tb1  1  0.195756  0.304244  0.500000  1
  Tb  Tb2  1  0.831276  0.668724  0.500000  1
  Tb  Tb3  1  0.320023  0.864971  0.500000  1
  Hg  Hg4  1  0.133754  0.621390  0.000000  1
  Hg  Hg5  1  0.625916  0.874084  0.000000  1
  Hg  Hg6  1  0.878610  0.366246  0.000000  1
  Ir  Ir7  1  0.376956  0.123044  0.000000  1
  Pb  Pb8  1  0.003775  0.001094  0.000000  1
  Pb  Pb9  1  0.498906  0.496225  0.000000  1
