# generated using pymatgen
data_Sc10In8RhAu3
_symmetry_space_group_name_H-M   'P 1'
_cell_length_a   17.73385003
_cell_length_b   7.81987447
_cell_length_c   3.41748700
_cell_angle_alpha   90.00000000
_cell_angle_beta   90.00000000
_cell_angle_gamma   89.89151200
_symmetry_Int_Tables_number   1
_chemical_formula_structural   Sc10In8RhAu3
_chemical_formula_sum   'Sc10 In8 Rh1 Au3'
_cell_volume   473.92422171
_cell_formula_units_Z   1
loop_
 _symmetry_equiv_pos_site_id
 _symmetry_equiv_pos_as_xyz
  1  'x, y, z'
loop_
 _atom_site_type_symbol
 _atom_site_label
 _atom_site_symmetry_multiplicity
 _atom_site_fract_x
 _atom_site_fract_y
 _atom_site_fract_z
 _atom_site_occupancy
  Sc  Sc0  1  0.000531  0.000885  0.000000  1
  Sc  Sc1  1  0.499235  0.500545  0.000000  1
  Sc  Sc2  1  0.420198  0.127703  0.000000  1
  Sc  Sc3  1  0.576980  0.870858  0.000000  1
  Sc  Sc4  1  0.922617  0.368414  0.000000  1
  Sc  Sc5  1  0.084384  0.621620  0.000000  1
  Sc  Sc6  1  0.218704  0.268732  0.000000  1
  Sc  Sc7  1  0.784480  0.754327  0.000000  1
  Sc  Sc8  1  0.715651  0.255219  0.000000  1
  Sc  Sc9  1  0.277474  0.736784  0.000000  1
  In  In10  1  0.563657  0.205590  0.499999  1
  In  In11  1  0.432773  0.793270  0.499999  1
  In  In12  1  0.068905  0.294158  0.499999  1
  In  In13  1  0.937869  0.701604  0.499999  1
  In  In14  1  0.853574  0.073874  0.499999  1
  In  In15  1  0.147346  0.922412  0.499999  1
  In  In16  1  0.351190  0.429900  0.499999  1
  In  In17  1  0.646805  0.576129  0.499999  1
  Rh  Rh18  1  0.194979  0.537365  0.499999  1
  Au  Au19  1  0.302946  0.036525  0.499999  1
  Au  Au20  1  0.695491  0.962003  0.499999  1
  Au  Au21  1  0.804212  0.462088  0.499999  1
