# generated using pymatgen
data_Rb4Ti5Rh3Se16
_symmetry_space_group_name_H-M   'P 1'
_cell_length_a   6.18893571
_cell_length_b   7.38566375
_cell_length_c   16.84286702
_cell_angle_alpha   89.95795477
_cell_angle_beta   89.91755819
_cell_angle_gamma   89.07127596
_symmetry_Int_Tables_number   1
_chemical_formula_structural   Rb4Ti5Rh3Se16
_chemical_formula_sum   'Rb4 Ti5 Rh3 Se16'
_cell_volume   769.77518561
_cell_formula_units_Z   1
loop_
 _symmetry_equiv_pos_site_id
 _symmetry_equiv_pos_as_xyz
  1  'x, y, z'
loop_
 _atom_site_type_symbol
 _atom_site_label
 _atom_site_symmetry_multiplicity
 _atom_site_fract_x
 _atom_site_fract_y
 _atom_site_fract_z
 _atom_site_occupancy
  Rb  Rb0  1  0.372433  0.997691  0.997423  1
  Rb  Rb1  1  0.627567  0.502309  0.502577  1
  Rb  Rb2  1  0.020904  0.996659  0.500371  1
  Rb  Rb3  1  0.979096  0.503341  0.999629  1
  Ti  Ti4  1  0.046768  0.995480  0.246727  1
  Ti  Ti5  1  0.070428  0.000222  0.754472  1
  Ti  Ti6  1  0.953232  0.504520  0.253273  1
  Ti  Ti7  1  0.929572  0.499778  0.745528  1
  Ti  Ti8  1  0.500000  0.250000  0.250000  1
  Rh  Rh9  1  0.500000  0.750000  0.750000  1
  Rh  Rh10  1  0.500000  0.750000  0.250000  1
  Rh  Rh11  1  0.500000  0.250000  0.750000  1
  Se  Se12  1  0.838725  0.247040  0.340210  1
  Se  Se13  1  0.833879  0.761212  0.662281  1
  Se  Se14  1  0.169578  0.739024  0.161346  1
  Se  Se15  1  0.165992  0.260549  0.837765  1
  Se  Se16  1  0.161275  0.252960  0.159790  1
  Se  Se17  1  0.166121  0.738788  0.837719  1
  Se  Se18  1  0.830422  0.760976  0.338654  1
  Se  Se19  1  0.834008  0.239451  0.662235  1
  Se  Se20  1  0.679260  0.995231  0.166445  1
  Se  Se21  1  0.687182  0.997998  0.827324  1
  Se  Se22  1  0.320740  0.504769  0.333555  1
  Se  Se23  1  0.312818  0.502002  0.672676  1
  Se  Se24  1  0.353315  0.995292  0.343093  1
  Se  Se25  1  0.371871  0.001734  0.657989  1
  Se  Se26  1  0.646685  0.504708  0.156907  1
  Se  Se27  1  0.628129  0.498266  0.842011  1
