# generated using pymatgen
data_TbSm3Ni4(SnH)4
_symmetry_space_group_name_H-M   'P 1'
_cell_length_a   4.31293000
_cell_length_b   7.16365910
_cell_length_c   8.40404611
_cell_angle_alpha   89.98104544
_cell_angle_beta   90.00000000
_cell_angle_gamma   90.00000000
_symmetry_Int_Tables_number   1
_chemical_formula_structural   TbSm3Ni4(SnH)4
_chemical_formula_sum   'Tb1 Sm3 Ni4 Sn4 H4'
_cell_volume   259.65442198
_cell_formula_units_Z   1
loop_
 _symmetry_equiv_pos_site_id
 _symmetry_equiv_pos_as_xyz
  1  'x, y, z'
loop_
 _atom_site_type_symbol
 _atom_site_label
 _atom_site_symmetry_multiplicity
 _atom_site_fract_x
 _atom_site_fract_y
 _atom_site_fract_z
 _atom_site_occupancy
  Tb  Tb0  1  0.750000  0.014445  0.685707  1
  Sm  Sm1  1  0.250000  0.985528  0.312553  1
  Sm  Sm2  1  0.250000  0.485391  0.187183  1
  Sm  Sm3  1  0.750000  0.514442  0.812239  1
  Ni  Ni4  1  0.750000  0.776861  0.104498  1
  Ni  Ni5  1  0.250000  0.220955  0.893035  1
  Ni  Ni6  1  0.250000  0.726167  0.605387  1
  Ni  Ni7  1  0.750000  0.276789  0.397987  1
  Sn  Sn8  1  0.750000  0.657357  0.430537  1
  Sn  Sn9  1  0.250000  0.342617  0.570978  1
  Sn  Sn10  1  0.250000  0.843430  0.927758  1
  Sn  Sn11  1  0.750000  0.155778  0.068433  1
  H  H12  1  0.250000  0.442533  0.919427  1
  H  H13  1  0.750000  0.554880  0.080009  1
  H  H14  1  0.750000  0.054933  0.422570  1
  H  H15  1  0.250000  0.947895  0.581700  1
