# generated using pymatgen
data_HoBiRh2O7
_symmetry_space_group_name_H-M   'P 1'
_cell_length_a   7.23771297
_cell_length_b   7.27266414
_cell_length_c   7.27266417
_cell_angle_alpha   60.32695721
_cell_angle_beta   60.15884275
_cell_angle_gamma   60.15884703
_symmetry_Int_Tables_number   1
_chemical_formula_structural   HoBiRh2O7
_chemical_formula_sum   'Ho2 Bi2 Rh4 O14'
_cell_volume   272.00618803
_cell_formula_units_Z   2
loop_
 _symmetry_equiv_pos_site_id
 _symmetry_equiv_pos_as_xyz
  1  'x, y, z'
loop_
 _atom_site_type_symbol
 _atom_site_label
 _atom_site_symmetry_multiplicity
 _atom_site_fract_x
 _atom_site_fract_y
 _atom_site_fract_z
 _atom_site_occupancy
  Ho  Ho0  1  0.125000  0.125000  0.125000  1
  Ho  Ho1  1  0.625000  0.125000  0.125000  1
  Bi  Bi2  1  0.125000  0.625000  0.125000  1
  Bi  Bi3  1  0.125000  0.125000  0.625000  1
  Rh  Rh4  1  0.625000  0.625000  0.625000  1
  Rh  Rh5  1  0.625000  0.625000  0.125000  1
  Rh  Rh6  1  0.125000  0.625000  0.625000  1
  Rh  Rh7  1  0.625000  0.125000  0.625000  1
  O  O8  1  0.255219  0.244781  0.244781  1
  O  O9  1  0.288255  0.716193  0.288780  1
  O  O10  1  0.961745  0.961220  0.533807  1
  O  O11  1  0.543228  0.961220  0.533807  1
  O  O12  1  0.706772  0.716193  0.288780  1
  O  O13  1  0.957230  0.542770  0.542770  1
  O  O14  1  0.706772  0.288780  0.716193  1
  O  O15  1  0.288255  0.288780  0.716193  1
  O  O16  1  0.712853  0.287147  0.287147  1
  O  O17  1  0.292770  0.707230  0.707230  1
  O  O18  1  0.961745  0.533807  0.961220  1
  O  O19  1  0.543228  0.533807  0.961220  1
  O  O20  1  0.994781  0.005219  0.005219  1
  O  O21  1  0.537147  0.962853  0.962853  1
