# generated using pymatgen
data_Pr8Y12Sn5Bi11
_symmetry_space_group_name_H-M   'P 1'
_cell_length_a   8.33507900
_cell_length_b   8.31512203
_cell_length_c   15.59660700
_cell_angle_alpha   90.00000000
_cell_angle_beta   90.00000000
_cell_angle_gamma   90.51967877
_symmetry_Int_Tables_number   1
_chemical_formula_structural   Pr8Y12Sn5Bi11
_chemical_formula_sum   'Pr8 Y12 Sn5 Bi11'
_cell_volume   1080.91268176
_cell_formula_units_Z   1
loop_
 _symmetry_equiv_pos_site_id
 _symmetry_equiv_pos_as_xyz
  1  'x, y, z'
loop_
 _atom_site_type_symbol
 _atom_site_label
 _atom_site_symmetry_multiplicity
 _atom_site_fract_x
 _atom_site_fract_y
 _atom_site_fract_z
 _atom_site_occupancy
  Pr  Pr0  1  0.524475  0.317574  0.901815  1
  Pr  Pr1  1  0.024040  0.180410  0.597632  1
  Pr  Pr2  1  0.474896  0.682191  0.400061  1
  Pr  Pr3  1  0.977258  0.823639  0.098157  1
  Pr  Pr4  1  0.474896  0.682191  0.099939  1
  Pr  Pr5  1  0.977258  0.823639  0.401843  1
  Pr  Pr6  1  0.524475  0.317574  0.598185  1
  Pr  Pr7  1  0.024040  0.180410  0.902368  1
  Y  Y8  1  0.354773  0.850781  0.875788  1
  Y  Y9  1  0.859782  0.648566  0.624556  1
  Y  Y10  1  0.648225  0.150359  0.374808  1
  Y  Y11  1  0.134616  0.345113  0.126702  1
  Y  Y12  1  0.648225  0.150359  0.125192  1
  Y  Y13  1  0.134616  0.345113  0.373298  1
  Y  Y14  1  0.354773  0.850781  0.624212  1
  Y  Y15  1  0.859782  0.648566  0.875444  1
  Y  Y16  1  0.188094  0.492874  0.750000  1
  Y  Y17  1  0.687471  0.005666  0.750000  1
  Y  Y18  1  0.811209  0.504723  0.250000  1
  Y  Y19  1  0.308607  0.995311  0.250000  1
  Sn  Sn20  1  0.944579  0.123934  0.250000  1
  Sn  Sn21  1  0.336571  0.152587  0.750000  1
  Sn  Sn22  1  0.837180  0.346899  0.750000  1
  Sn  Sn23  1  0.669957  0.851916  0.250000  1
  Sn  Sn24  1  0.161584  0.652608  0.250000  1
  Bi  Bi25  1  0.297014  0.045324  0.045386  1
  Bi  Bi26  1  0.791196  0.459617  0.454773  1
  Bi  Bi27  1  0.706862  0.955486  0.545966  1
  Bi  Bi28  1  0.208136  0.541493  0.955810  1
  Bi  Bi29  1  0.706862  0.955486  0.954034  1
  Bi  Bi30  1  0.208136  0.541493  0.544190  1
  Bi  Bi31  1  0.297014  0.045324  0.454614  1
  Bi  Bi32  1  0.791196  0.459617  0.045227  1
  Bi  Bi33  1  0.553247  0.628648  0.750000  1
  Bi  Bi34  1  0.053269  0.872711  0.750000  1
  Bi  Bi35  1  0.445682  0.371019  0.250000  1
