# generated using pymatgen
data_Nd16Cd4IrRuPt2
_symmetry_space_group_name_H-M   'P 1'
_cell_length_a   9.99379768
_cell_length_b   9.99379711
_cell_length_c   10.02657704
_cell_angle_alpha   59.97553230
_cell_angle_beta   59.97553272
_cell_angle_gamma   59.93010779
_symmetry_Int_Tables_number   1
_chemical_formula_structural   Nd16Cd4IrRuPt2
_chemical_formula_sum   'Nd16 Cd4 Ir1 Ru1 Pt2'
_cell_volume   707.47046125
_cell_formula_units_Z   1
loop_
 _symmetry_equiv_pos_site_id
 _symmetry_equiv_pos_as_xyz
  1  'x, y, z'
loop_
 _atom_site_type_symbol
 _atom_site_label
 _atom_site_symmetry_multiplicity
 _atom_site_fract_x
 _atom_site_fract_y
 _atom_site_fract_z
 _atom_site_occupancy
  Nd  Nd0  1  0.347618  0.347618  0.354106  1
  Nd  Nd1  1  0.349201  0.349201  0.948704  1
  Nd  Nd2  1  0.345049  0.955406  0.350868  1
  Nd  Nd3  1  0.955406  0.345049  0.350868  1
  Nd  Nd4  1  0.813279  0.189796  0.190860  1
  Nd  Nd5  1  0.188705  0.815472  0.804892  1
  Nd  Nd6  1  0.189796  0.813279  0.190860  1
  Nd  Nd7  1  0.815472  0.188705  0.804892  1
  Nd  Nd8  1  0.189285  0.189285  0.809286  1
  Nd  Nd9  1  0.807657  0.807657  0.191657  1
  Nd  Nd10  1  0.937211  0.559353  0.565658  1
  Nd  Nd11  1  0.560013  0.936864  0.938209  1
  Nd  Nd12  1  0.559353  0.937211  0.565658  1
  Nd  Nd13  1  0.936864  0.560013  0.938209  1
  Nd  Nd14  1  0.562559  0.562559  0.937576  1
  Nd  Nd15  1  0.937226  0.937226  0.563506  1
  Cd  Cd16  1  0.579954  0.579954  0.579994  1
  Cd  Cd17  1  0.579802  0.579802  0.260534  1
  Cd  Cd18  1  0.580900  0.258619  0.580247  1
  Cd  Cd19  1  0.258619  0.580900  0.580247  1
  Ir  Ir20  1  0.144190  0.144190  0.138004  1
  Ru  Ru21  1  0.143297  0.143297  0.574815  1
  Pt  Pt22  1  0.145389  0.573154  0.140176  1
  Pt  Pt23  1  0.573154  0.145389  0.140176  1
