# generated using pymatgen
data_Ho6ScP12Rh17
_symmetry_space_group_name_H-M   'P 1'
_cell_length_a   3.93099200
_cell_length_b   11.19763200
_cell_length_c   12.81235300
_cell_angle_alpha   90.00000000
_cell_angle_beta   90.00000000
_cell_angle_gamma   90.00000000
_symmetry_Int_Tables_number   1
_chemical_formula_structural   Ho6ScP12Rh17
_chemical_formula_sum   'Ho6 Sc1 P12 Rh17'
_cell_volume   563.97161509
_cell_formula_units_Z   1
loop_
 _symmetry_equiv_pos_site_id
 _symmetry_equiv_pos_as_xyz
  1  'x, y, z'
loop_
 _atom_site_type_symbol
 _atom_site_label
 _atom_site_symmetry_multiplicity
 _atom_site_fract_x
 _atom_site_fract_y
 _atom_site_fract_z
 _atom_site_occupancy
  Ho  Ho0  1  0.000000  0.500000  0.521871  1
  Ho  Ho1  1  0.500000  0.000000  0.477780  1
  Ho  Ho2  1  0.500000  0.817214  0.206198  1
  Ho  Ho3  1  0.500000  0.182786  0.206198  1
  Ho  Ho4  1  0.000000  0.682035  0.796677  1
  Ho  Ho5  1  0.000000  0.317965  0.796677  1
  Sc  Sc6  1  0.500000  0.500000  0.156193  1
  P  P7  1  0.500000  0.315334  0.619577  1
  P  P8  1  0.500000  0.684666  0.619577  1
  P  P9  1  0.000000  0.185777  0.383510  1
  P  P10  1  0.000000  0.814223  0.383510  1
  P  P11  1  0.500000  0.500000  0.878363  1
  P  P12  1  0.000000  0.000000  0.121010  1
  P  P13  1  0.500000  0.849057  0.888706  1
  P  P14  1  0.500000  0.150943  0.888706  1
  P  P15  1  0.000000  0.660836  0.107299  1
  P  P16  1  0.000000  0.339164  0.107299  1
  P  P17  1  0.500000  0.500000  0.359643  1
  P  P18  1  0.000000  0.000000  0.647160  1
  Rh  Rh19  1  0.000000  0.500000  0.984280  1
  Rh  Rh20  1  0.500000  0.000000  0.020103  1
  Rh  Rh21  1  0.500000  0.290993  0.434673  1
  Rh  Rh22  1  0.500000  0.709007  0.434673  1
  Rh  Rh23  1  0.000000  0.202804  0.570782  1
  Rh  Rh24  1  0.000000  0.797196  0.570782  1
  Rh  Rh25  1  0.500000  0.874221  0.709493  1
  Rh  Rh26  1  0.500000  0.125779  0.709493  1
  Rh  Rh27  1  0.000000  0.627605  0.291423  1
  Rh  Rh28  1  0.000000  0.372395  0.291423  1
  Rh  Rh29  1  0.500000  0.329468  0.988885  1
  Rh  Rh30  1  0.500000  0.670532  0.988885  1
  Rh  Rh31  1  0.000000  0.164203  0.004986  1
  Rh  Rh32  1  0.000000  0.835797  0.004986  1
  Rh  Rh33  1  0.000000  0.000000  0.828929  1
  Rh  Rh34  1  0.500000  0.500000  0.701809  1
  Rh  Rh35  1  0.000000  0.000000  0.298436  1
