# generated using pymatgen
data_Pr3Y(ZnPb)4
_symmetry_space_group_name_H-M   'P 1'
_cell_length_a   4.67537200
_cell_length_b   4.67537207
_cell_length_c   16.62911500
_cell_angle_alpha   90.00000000
_cell_angle_beta   90.00000000
_cell_angle_gamma   119.99999954
_symmetry_Int_Tables_number   1
_chemical_formula_structural   Pr3Y(ZnPb)4
_chemical_formula_sum   'Pr3 Y1 Zn4 Pb4'
_cell_volume   314.79811253
_cell_formula_units_Z   1
loop_
 _symmetry_equiv_pos_site_id
 _symmetry_equiv_pos_as_xyz
  1  'x, y, z'
loop_
 _atom_site_type_symbol
 _atom_site_label
 _atom_site_symmetry_multiplicity
 _atom_site_fract_x
 _atom_site_fract_y
 _atom_site_fract_z
 _atom_site_occupancy
  Pr  Pr0  1  0.000000  0.000000  0.996451  1
  Pr  Pr1  1  0.000000  0.000000  0.250000  1
  Pr  Pr2  1  0.000000  0.000000  0.503549  1
  Y  Y3  1  0.000000  0.000000  0.750000  1
  Zn  Zn4  1  0.666668  0.333335  0.161853  1
  Zn  Zn5  1  0.666668  0.333335  0.338147  1
  Zn  Zn6  1  0.333333  0.666667  0.668065  1
  Zn  Zn7  1  0.333333  0.666667  0.831935  1
  Pb  Pb8  1  0.333333  0.666667  0.112229  1
  Pb  Pb9  1  0.333333  0.666667  0.387771  1
  Pb  Pb10  1  0.666668  0.333335  0.616630  1
  Pb  Pb11  1  0.666668  0.333335  0.883370  1
