# generated using pymatgen
data_Al6PdPt8Rh
_symmetry_space_group_name_H-M   'P 1'
_cell_length_a   4.03562300
_cell_length_b   5.44368766
_cell_length_c   10.73507478
_cell_angle_alpha   90.60313127
_cell_angle_beta   90.00000000
_cell_angle_gamma   90.00000000
_symmetry_Int_Tables_number   1
_chemical_formula_structural   Al6PdPt8Rh
_chemical_formula_sum   'Al6 Pd1 Pt8 Rh1'
_cell_volume   235.82226116
_cell_formula_units_Z   1
loop_
 _symmetry_equiv_pos_site_id
 _symmetry_equiv_pos_as_xyz
  1  'x, y, z'
loop_
 _atom_site_type_symbol
 _atom_site_label
 _atom_site_symmetry_multiplicity
 _atom_site_fract_x
 _atom_site_fract_y
 _atom_site_fract_z
 _atom_site_occupancy
  Al  Al0  1  0.500000  0.177930  0.636417  1
  Al  Al1  1  0.500000  0.821054  0.361465  1
  Al  Al2  1  0.500000  0.680652  0.858987  1
  Al  Al3  1  0.500000  0.320720  0.145107  1
  Al  Al4  1  0.000000  0.496697  0.497211  1
  Al  Al5  1  0.000000  0.003550  0.000353  1
  Pd  Pd6  1  0.000000  0.426588  0.733852  1
  Pt  Pt7  1  0.500000  0.694501  0.605991  1
  Pt  Pt8  1  0.500000  0.798593  0.106897  1
  Pt  Pt9  1  0.500000  0.203247  0.891512  1
  Pt  Pt10  1  0.000000  0.572379  0.265877  1
  Pt  Pt11  1  0.000000  0.925928  0.765711  1
  Pt  Pt12  1  0.000000  0.072276  0.236123  1
  Pt  Pt13  1  0.000000  0.501587  0.999238  1
  Pt  Pt14  1  0.000000  0.004444  0.501574  1
  Rh  Rh15  1  0.500000  0.299855  0.393685  1
