# generated using pymatgen
data_Y3ErMoOs7
_symmetry_space_group_name_H-M   'P 1'
_cell_length_a   5.30079600
_cell_length_b   5.30079579
_cell_length_c   8.89355700
_cell_angle_alpha   90.00127796
_cell_angle_beta   89.99872327
_cell_angle_gamma   118.10648997
_symmetry_Int_Tables_number   1
_chemical_formula_structural   Y3ErMoOs7
_chemical_formula_sum   'Y3 Er1 Mo1 Os7'
_cell_volume   220.42580505
_cell_formula_units_Z   1
loop_
 _symmetry_equiv_pos_site_id
 _symmetry_equiv_pos_as_xyz
  1  'x, y, z'
loop_
 _atom_site_type_symbol
 _atom_site_label
 _atom_site_symmetry_multiplicity
 _atom_site_fract_x
 _atom_site_fract_y
 _atom_site_fract_z
 _atom_site_occupancy
  Y  Y0  1  0.329943  0.670057  0.437350  1
  Y  Y1  1  0.666235  0.333765  0.566025  1
  Y  Y2  1  0.666173  0.333827  0.934302  1
  Er  Er3  1  0.329634  0.670366  0.062258  1
  Mo  Mo4  1  0.833071  0.166929  0.249523  1
  Os  Os5  1  0.993740  0.006260  0.502036  1
  Os  Os6  1  0.993984  0.006016  0.998341  1
  Os  Os7  1  0.826300  0.652952  0.249100  1
  Os  Os8  1  0.347048  0.173700  0.249100  1
  Os  Os9  1  0.178869  0.821131  0.750862  1
  Os  Os10  1  0.172055  0.337049  0.750552  1
  Os  Os11  1  0.662951  0.827945  0.750552  1
