# generated using pymatgen
data_NaErSnI6
_symmetry_space_group_name_H-M   'P 1'
_cell_length_a   8.62327407
_cell_length_b   8.62327343
_cell_length_c   8.62311947
_cell_angle_alpha   54.44355258
_cell_angle_beta   54.44327315
_cell_angle_gamma   54.44367976
_symmetry_Int_Tables_number   1
_chemical_formula_structural   NaErSnI6
_chemical_formula_sum   'Na1 Er1 Sn1 I6'
_cell_volume   394.66435661
_cell_formula_units_Z   1
loop_
 _symmetry_equiv_pos_site_id
 _symmetry_equiv_pos_as_xyz
  1  'x, y, z'
loop_
 _atom_site_type_symbol
 _atom_site_label
 _atom_site_symmetry_multiplicity
 _atom_site_fract_x
 _atom_site_fract_y
 _atom_site_fract_z
 _atom_site_occupancy
  Na  Na0  1  0.669949  0.669947  0.669952  1
  Er  Er1  1  0.999846  0.999906  0.999876  1
  Sn  Sn2  1  0.330933  0.330934  0.330933  1
  I  I3  1  0.233128  0.608593  0.917673  1
  I  I4  1  0.608604  0.917683  0.233117  1
  I  I5  1  0.917683  0.233121  0.608594  1
  I  I6  1  0.761329  0.386956  0.091558  1
  I  I7  1  0.386977  0.091541  0.761328  1
  I  I8  1  0.091553  0.761319  0.386969  1
