# generated using pymatgen
data_ZrSc(Ga3Co)3
_symmetry_space_group_name_H-M   'P 1'
_cell_length_a   7.28626900
_cell_length_b   7.28895413
_cell_length_c   9.14087400
_cell_angle_alpha   90.00000000
_cell_angle_beta   90.00000000
_cell_angle_gamma   119.95493487
_symmetry_Int_Tables_number   1
_chemical_formula_structural   ZrSc(Ga3Co)3
_chemical_formula_sum   'Zr2 Sc2 Ga18 Co6'
_cell_volume   420.61601943
_cell_formula_units_Z   2
loop_
 _symmetry_equiv_pos_site_id
 _symmetry_equiv_pos_as_xyz
  1  'x, y, z'
loop_
 _atom_site_type_symbol
 _atom_site_label
 _atom_site_symmetry_multiplicity
 _atom_site_fract_x
 _atom_site_fract_y
 _atom_site_fract_z
 _atom_site_occupancy
  Zr  Zr0  1  0.669985  0.997025  0.250000  1
  Zr  Zr1  1  0.330036  0.002985  0.750000  1
  Sc  Sc2  1  0.995791  0.668710  0.250000  1
  Sc  Sc3  1  0.004182  0.331304  0.750000  1
  Ga  Ga4  1  0.329682  0.330913  0.565233  1
  Ga  Ga5  1  0.670330  0.669067  0.434770  1
  Ga  Ga6  1  0.670330  0.669067  0.065230  1
  Ga  Ga7  1  0.329682  0.330913  0.934767  1
  Ga  Ga8  1  0.336059  0.557419  0.250000  1
  Ga  Ga9  1  0.663926  0.442576  0.750000  1
  Ga  Ga10  1  0.555404  0.335391  0.250000  1
  Ga  Ga11  1  0.444597  0.664626  0.750000  1
  Ga  Ga12  1  0.996592  0.335488  0.075155  1
  Ga  Ga13  1  0.003415  0.664515  0.924838  1
  Ga  Ga14  1  0.003415  0.664515  0.575162  1
  Ga  Ga15  1  0.332835  0.994582  0.424494  1
  Ga  Ga16  1  0.996592  0.335488  0.424845  1
  Ga  Ga17  1  0.667157  0.005425  0.575530  1
  Ga  Ga18  1  0.667157  0.005425  0.924470  1
  Ga  Ga19  1  0.332835  0.994582  0.075506  1
  Ga  Ga20  1  0.117316  0.117222  0.250000  1
  Ga  Ga21  1  0.882679  0.882768  0.750000  1
  Co  Co22  1  0.000003  0.999996  0.000000  1
  Co  Co23  1  0.000003  0.999996  0.500000  1
  Co  Co24  1  0.669945  0.327658  0.000323  1
  Co  Co25  1  0.330052  0.672342  0.999680  1
  Co  Co26  1  0.330052  0.672342  0.500320  1
  Co  Co27  1  0.669945  0.327658  0.499677  1
