# generated using pymatgen
data_YLu2In3RhAu2
_symmetry_space_group_name_H-M   'P 1'
_cell_length_a   7.70977200
_cell_length_b   7.74242628
_cell_length_c   3.83574000
_cell_angle_alpha   90.00000000
_cell_angle_beta   90.00000000
_cell_angle_gamma   119.86056442
_symmetry_Int_Tables_number   1
_chemical_formula_structural   YLu2In3RhAu2
_chemical_formula_sum   'Y1 Lu2 In3 Rh1 Au2'
_cell_volume   198.56691891
_cell_formula_units_Z   1
loop_
 _symmetry_equiv_pos_site_id
 _symmetry_equiv_pos_as_xyz
  1  'x, y, z'
loop_
 _atom_site_type_symbol
 _atom_site_label
 _atom_site_symmetry_multiplicity
 _atom_site_fract_x
 _atom_site_fract_y
 _atom_site_fract_z
 _atom_site_occupancy
  Y  Y0  1  0.400881  0.000000  0.500000  1
  Lu  Lu1  1  0.999849  0.398080  0.500000  1
  Lu  Lu2  1  0.601769  0.601920  0.500000  1
  In  In3  1  0.743460  0.000000  0.000000  1
  In  In4  1  0.999668  0.743979  0.000000  1
  In  In5  1  0.255689  0.256021  0.000000  1
  Rh  Rh6  1  0.996227  0.000000  0.500000  1
  Au  Au7  1  0.331722  0.660986  0.000000  1
  Au  Au8  1  0.670737  0.339014  0.000000  1
