# generated using pymatgen
data_Li2(Ho4Tc)3
_symmetry_space_group_name_H-M   'P 1'
_cell_length_a   8.40907520
_cell_length_b   8.40907526
_cell_length_c   8.40907510
_cell_angle_alpha   109.68916784
_cell_angle_beta   109.68917024
_cell_angle_gamma   109.03619686
_symmetry_Int_Tables_number   1
_chemical_formula_structural   Li2(Ho4Tc)3
_chemical_formula_sum   'Li2 Ho12 Tc3'
_cell_volume   457.72439526
_cell_formula_units_Z   1
loop_
 _symmetry_equiv_pos_site_id
 _symmetry_equiv_pos_as_xyz
  1  'x, y, z'
loop_
 _atom_site_type_symbol
 _atom_site_label
 _atom_site_symmetry_multiplicity
 _atom_site_fract_x
 _atom_site_fract_y
 _atom_site_fract_z
 _atom_site_occupancy
  Li  Li0  1  0.000000  0.500000  0.500000  1
  Li  Li1  1  0.500000  0.000000  0.500000  1
  Ho  Ho2  1  0.185267  0.429348  0.244082  1
  Ho  Ho3  1  0.814733  0.570652  0.755918  1
  Ho  Ho4  1  0.185267  0.941186  0.755918  1
  Ho  Ho5  1  0.941186  0.185267  0.755918  1
  Ho  Ho6  1  0.814733  0.058814  0.244082  1
  Ho  Ho7  1  0.058814  0.814733  0.244082  1
  Ho  Ho8  1  0.429348  0.185267  0.244082  1
  Ho  Ho9  1  0.570652  0.814733  0.755918  1
  Ho  Ho10  1  0.322249  0.322249  0.644498  1
  Ho  Ho11  1  0.677751  0.677751  0.355502  1
  Ho  Ho12  1  0.677751  0.322249  0.000000  1
  Ho  Ho13  1  0.322249  0.677751  0.000000  1
  Tc  Tc14  1  0.336658  0.336658  0.000000  1
  Tc  Tc15  1  0.663342  0.663342  0.000000  1
  Tc  Tc16  1  0.000000  0.000000  0.000000  1
