# generated using pymatgen
data_Yb4Co3OsRu4
_symmetry_space_group_name_H-M   'P 1'
_cell_length_a   5.11693535
_cell_length_b   5.21311090
_cell_length_c   8.64919600
_cell_angle_alpha   90.00000000
_cell_angle_beta   90.00000000
_cell_angle_gamma   121.08201097
_symmetry_Int_Tables_number   1
_chemical_formula_structural   Yb4Co3OsRu4
_chemical_formula_sum   'Yb4 Co3 Os1 Ru4'
_cell_volume   197.59416107
_cell_formula_units_Z   1
loop_
 _symmetry_equiv_pos_site_id
 _symmetry_equiv_pos_as_xyz
  1  'x, y, z'
loop_
 _atom_site_type_symbol
 _atom_site_label
 _atom_site_symmetry_multiplicity
 _atom_site_fract_x
 _atom_site_fract_y
 _atom_site_fract_z
 _atom_site_occupancy
  Yb  Yb0  1  0.326882  0.662471  0.435991  1
  Yb  Yb1  1  0.664404  0.331155  0.566309  1
  Yb  Yb2  1  0.664404  0.331155  0.933691  1
  Yb  Yb3  1  0.326882  0.662471  0.064009  1
  Co  Co4  1  0.831912  0.165962  0.250000  1
  Co  Co5  1  0.184867  0.835008  0.750000  1
  Co  Co6  1  0.185932  0.350444  0.750000  1
  Os  Os7  1  0.665954  0.833769  0.750000  1
  Ru  Ru8  1  0.984155  0.990431  0.506527  1
  Ru  Ru9  1  0.984155  0.990431  0.993473  1
  Ru  Ru10  1  0.831178  0.667756  0.250000  1
  Ru  Ru11  1  0.349273  0.178947  0.250000  1
