# generated using pymatgen
data_CaFe2(Sb6Os)2
_symmetry_space_group_name_H-M   'P 1'
_cell_length_a   8.05546879
_cell_length_b   8.09400834
_cell_length_c   8.09400882
_cell_angle_alpha   109.51524362
_cell_angle_beta   109.56950434
_cell_angle_gamma   109.52258056
_symmetry_Int_Tables_number   1
_chemical_formula_structural   CaFe2(Sb6Os)2
_chemical_formula_sum   'Ca1 Fe2 Sb12 Os2'
_cell_volume   405.27871520
_cell_formula_units_Z   1
loop_
 _symmetry_equiv_pos_site_id
 _symmetry_equiv_pos_as_xyz
  1  'x, y, z'
loop_
 _atom_site_type_symbol
 _atom_site_label
 _atom_site_symmetry_multiplicity
 _atom_site_fract_x
 _atom_site_fract_y
 _atom_site_fract_z
 _atom_site_occupancy
  Ca  Ca0  1  0.000000  0.000000  0.000000  1
  Fe  Fe1  1  0.000000  0.500000  0.000000  1
  Fe  Fe2  1  0.000000  0.000000  0.500000  1
  Sb  Sb3  1  0.846469  0.668335  0.504072  1
  Sb  Sb4  1  0.153531  0.331665  0.495928  1
  Sb  Sb5  1  0.153531  0.657603  0.821866  1
  Sb  Sb6  1  0.846469  0.342397  0.178134  1
  Sb  Sb7  1  0.668338  0.504752  0.846154  1
  Sb  Sb8  1  0.331662  0.495248  0.153846  1
  Sb  Sb9  1  0.668338  0.822184  0.163585  1
  Sb  Sb10  1  0.331662  0.177816  0.836415  1
  Sb  Sb11  1  0.503843  0.843608  0.660234  1
  Sb  Sb12  1  0.496157  0.156392  0.339766  1
  Sb  Sb13  1  0.174303  0.839341  0.334963  1
  Sb  Sb14  1  0.825697  0.160659  0.665037  1
  Os  Os15  1  0.500000  0.500000  0.500000  1
  Os  Os16  1  0.500000  0.000000  0.000000  1
