# generated using pymatgen
data_Ba2AlSbSe5
_symmetry_space_group_name_H-M   'P 1'
_cell_length_a   9.27580700
_cell_length_b   9.47704100
_cell_length_c   12.82107100
_cell_angle_alpha   90.00000000
_cell_angle_beta   90.00000000
_cell_angle_gamma   90.00000000
_symmetry_Int_Tables_number   1
_chemical_formula_structural   Ba2AlSbSe5
_chemical_formula_sum   'Ba8 Al4 Sb4 Se20'
_cell_volume   1127.06449424
_cell_formula_units_Z   4
loop_
 _symmetry_equiv_pos_site_id
 _symmetry_equiv_pos_as_xyz
  1  'x, y, z'
loop_
 _atom_site_type_symbol
 _atom_site_label
 _atom_site_symmetry_multiplicity
 _atom_site_fract_x
 _atom_site_fract_y
 _atom_site_fract_z
 _atom_site_occupancy
  Ba  Ba0  1  0.006472  0.123254  0.824488  1
  Ba  Ba1  1  0.493528  0.376746  0.324488  1
  Ba  Ba2  1  0.506472  0.876746  0.175512  1
  Ba  Ba3  1  0.993528  0.623254  0.675512  1
  Ba  Ba4  1  0.993528  0.876746  0.175512  1
  Ba  Ba5  1  0.506472  0.623254  0.675512  1
  Ba  Ba6  1  0.493528  0.123254  0.824488  1
  Ba  Ba7  1  0.006472  0.376746  0.324488  1
  Al  Al8  1  0.250000  0.328846  0.594836  1
  Al  Al9  1  0.250000  0.171154  0.094836  1
  Al  Al10  1  0.750000  0.671154  0.405164  1
  Al  Al11  1  0.750000  0.828846  0.905164  1
  Sb  Sb12  1  0.250000  0.983511  0.523311  1
  Sb  Sb13  1  0.250000  0.516489  0.023311  1
  Sb  Sb14  1  0.750000  0.016489  0.476689  1
  Sb  Sb15  1  0.750000  0.483511  0.976689  1
  Se  Se16  1  0.044476  0.177908  0.556438  1
  Se  Se17  1  0.455524  0.322092  0.056438  1
  Se  Se18  1  0.544476  0.822092  0.443562  1
  Se  Se19  1  0.955524  0.677908  0.943562  1
  Se  Se20  1  0.955524  0.822092  0.443562  1
  Se  Se21  1  0.544476  0.677908  0.943562  1
  Se  Se22  1  0.455524  0.177908  0.556438  1
  Se  Se23  1  0.044476  0.322092  0.056438  1
  Se  Se24  1  0.250000  0.885485  0.713924  1
  Se  Se25  1  0.250000  0.614515  0.213924  1
  Se  Se26  1  0.750000  0.114515  0.286076  1
  Se  Se27  1  0.750000  0.385485  0.786076  1
  Se  Se28  1  0.250000  0.390941  0.774970  1
  Se  Se29  1  0.250000  0.109059  0.274970  1
  Se  Se30  1  0.750000  0.609059  0.225030  1
  Se  Se31  1  0.750000  0.890941  0.725030  1
  Se  Se32  1  0.250000  0.967171  0.990230  1
  Se  Se33  1  0.250000  0.532829  0.490230  1
  Se  Se34  1  0.750000  0.032829  0.009770  1
  Se  Se35  1  0.750000  0.467171  0.509770  1
