# generated using pymatgen
data_Y3Mg3Ag2Ir
_symmetry_space_group_name_H-M   'P 1'
_cell_length_a   7.81034400
_cell_length_b   7.81034423
_cell_length_c   3.91811000
_cell_angle_alpha   90.00000000
_cell_angle_beta   90.00000000
_cell_angle_gamma   120.00000751
_symmetry_Int_Tables_number   1
_chemical_formula_structural   Y3Mg3Ag2Ir
_chemical_formula_sum   'Y3 Mg3 Ag2 Ir1'
_cell_volume   206.98914031
_cell_formula_units_Z   1
loop_
 _symmetry_equiv_pos_site_id
 _symmetry_equiv_pos_as_xyz
  1  'x, y, z'
loop_
 _atom_site_type_symbol
 _atom_site_label
 _atom_site_symmetry_multiplicity
 _atom_site_fract_x
 _atom_site_fract_y
 _atom_site_fract_z
 _atom_site_occupancy
  Y  Y0  1  0.430883  0.399322  0.500000  1
  Y  Y1  1  0.968439  0.569117  0.500000  1
  Y  Y2  1  0.600678  0.031561  0.500000  1
  Mg  Mg3  1  0.745762  0.744455  0.000000  1
  Mg  Mg4  1  0.255545  0.001306  0.000000  1
  Mg  Mg5  1  0.998694  0.254238  0.000000  1
  Ag  Ag6  1  0.333333  0.666667  0.000000  1
  Ag  Ag7  1  0.000000  0.000000  0.500000  1
  Ir  Ir8  1  0.666667  0.333333  0.000000  1
