# generated using pymatgen
data_CsNd(FeP)4
_symmetry_space_group_name_H-M   'P 1'
_cell_length_a   3.84610900
_cell_length_b   3.84610900
_cell_length_c   12.22262300
_cell_angle_alpha   90.00000000
_cell_angle_beta   90.00000000
_cell_angle_gamma   90.00000000
_symmetry_Int_Tables_number   1
_chemical_formula_structural   CsNd(FeP)4
_chemical_formula_sum   'Cs1 Nd1 Fe4 P4'
_cell_volume   180.80381613
_cell_formula_units_Z   1
loop_
 _symmetry_equiv_pos_site_id
 _symmetry_equiv_pos_as_xyz
  1  'x, y, z'
loop_
 _atom_site_type_symbol
 _atom_site_label
 _atom_site_symmetry_multiplicity
 _atom_site_fract_x
 _atom_site_fract_y
 _atom_site_fract_z
 _atom_site_occupancy
  Cs  Cs0  1  0.500000  0.500000  0.500000  1
  Nd  Nd1  1  0.000000  0.000000  0.000000  1
  Fe  Fe2  1  0.500000  0.000000  0.794340  1
  Fe  Fe3  1  0.000000  0.500000  0.794340  1
  Fe  Fe4  1  0.500000  0.000000  0.205660  1
  Fe  Fe5  1  0.000000  0.500000  0.205660  1
  P  P6  1  0.000000  0.000000  0.705038  1
  P  P7  1  0.000000  0.000000  0.294962  1
  P  P8  1  0.500000  0.500000  0.879604  1
  P  P9  1  0.500000  0.500000  0.120396  1
