# generated using pymatgen
data_Pr3Nd3RuI10
_symmetry_space_group_name_H-M   'P 1'
_cell_length_a   8.02455273
_cell_length_b   10.03308526
_cell_length_c   10.06822651
_cell_angle_alpha   107.31444880
_cell_angle_beta   96.53045438
_cell_angle_gamma   104.87899078
_symmetry_Int_Tables_number   1
_chemical_formula_structural   Pr3Nd3RuI10
_chemical_formula_sum   'Pr3 Nd3 Ru1 I10'
_cell_volume   731.86830141
_cell_formula_units_Z   1
loop_
 _symmetry_equiv_pos_site_id
 _symmetry_equiv_pos_as_xyz
  1  'x, y, z'
loop_
 _atom_site_type_symbol
 _atom_site_label
 _atom_site_symmetry_multiplicity
 _atom_site_fract_x
 _atom_site_fract_y
 _atom_site_fract_z
 _atom_site_occupancy
  Pr  Pr0  1  0.116610  0.043349  0.757149  1
  Pr  Pr1  1  0.881034  0.957741  0.242291  1
  Pr  Pr2  1  0.969359  0.285063  0.084943  1
  Nd  Nd3  1  0.648138  0.873042  0.832489  1
  Nd  Nd4  1  0.351091  0.125354  0.167080  1
  Nd  Nd5  1  0.032786  0.719619  0.916697  1
  Ru  Ru6  1  0.999635  0.000935  0.000116  1
  I  I7  1  0.353814  0.449867  0.271979  1
  I  I8  1  0.653661  0.550084  0.729910  1
  I  I9  1  0.738902  0.912497  0.542592  1
  I  I10  1  0.087247  0.371420  0.818960  1
  I  I11  1  0.914853  0.631000  0.179147  1
  I  I12  1  0.451130  0.814794  0.089825  1
  I  I13  1  0.546619  0.182112  0.908735  1
  I  I14  1  0.777310  0.256794  0.346399  1
  I  I15  1  0.219877  0.741634  0.655282  1
  I  I16  1  0.257935  0.084696  0.456408  1
