# generated using pymatgen
data_Yb9Lu(AlSb3)4
_symmetry_space_group_name_H-M   'P 1'
_cell_length_a   4.40601600
_cell_length_b   7.47303202
_cell_length_c   22.90356616
_cell_angle_alpha   90.88834543
_cell_angle_beta   90.00000000
_cell_angle_gamma   90.00000000
_symmetry_Int_Tables_number   1
_chemical_formula_structural   Yb9Lu(AlSb3)4
_chemical_formula_sum   'Yb9 Lu1 Al4 Sb12'
_cell_volume   754.03901776
_cell_formula_units_Z   1
loop_
 _symmetry_equiv_pos_site_id
 _symmetry_equiv_pos_as_xyz
  1  'x, y, z'
loop_
 _atom_site_type_symbol
 _atom_site_label
 _atom_site_symmetry_multiplicity
 _atom_site_fract_x
 _atom_site_fract_y
 _atom_site_fract_z
 _atom_site_occupancy
  Yb  Yb0  1  0.000000  0.459309  0.915117  1
  Yb  Yb1  1  0.000000  0.271856  0.749101  1
  Yb  Yb2  1  0.000000  0.769654  0.754992  1
  Yb  Yb3  1  0.000000  0.540691  0.084883  1
  Yb  Yb4  1  0.000000  0.948157  0.590568  1
  Yb  Yb5  1  0.000000  0.728144  0.250899  1
  Yb  Yb6  1  0.000000  0.051843  0.409432  1
  Yb  Yb7  1  0.000000  0.500000  0.500000  1
  Yb  Yb8  1  0.000000  0.230346  0.245008  1
  Lu  Lu9  1  0.000000  0.000000  0.000000  1
  Al  Al10  1  0.500000  0.824103  0.881729  1
  Al  Al11  1  0.500000  0.175897  0.118271  1
  Al  Al12  1  0.500000  0.687602  0.377462  1
  Al  Al13  1  0.500000  0.312398  0.622538  1
  Sb  Sb14  1  0.500000  0.804587  0.494488  1
  Sb  Sb15  1  0.000000  0.474475  0.363254  1
  Sb  Sb16  1  0.000000  0.964776  0.133971  1
  Sb  Sb17  1  0.500000  0.519530  0.814702  1
  Sb  Sb18  1  0.500000  0.480470  0.185298  1
  Sb  Sb19  1  0.000000  0.035224  0.866029  1
  Sb  Sb20  1  0.000000  0.525525  0.636746  1
  Sb  Sb21  1  0.500000  0.984184  0.310711  1
  Sb  Sb22  1  0.500000  0.195413  0.505512  1
  Sb  Sb23  1  0.500000  0.015816  0.689289  1
  Sb  Sb24  1  0.500000  0.277936  0.003753  1
  Sb  Sb25  1  0.500000  0.722064  0.996247  1
