# generated using pymatgen
data_Sc4Sb4Ir3Au
_symmetry_space_group_name_H-M   'P 1'
_cell_length_a   4.52943476
_cell_length_b   4.52943507
_cell_length_c   14.97380419
_cell_angle_alpha   89.97491167
_cell_angle_beta   81.33285841
_cell_angle_gamma   120.02483139
_symmetry_Int_Tables_number   1
_chemical_formula_structural   Sc4Sb4Ir3Au
_chemical_formula_sum   'Sc4 Sb4 Ir3 Au1'
_cell_volume   261.90422505
_cell_formula_units_Z   1
loop_
 _symmetry_equiv_pos_site_id
 _symmetry_equiv_pos_as_xyz
  1  'x, y, z'
loop_
 _atom_site_type_symbol
 _atom_site_label
 _atom_site_symmetry_multiplicity
 _atom_site_fract_x
 _atom_site_fract_y
 _atom_site_fract_z
 _atom_site_occupancy
  Sc  Sc0  1  0.255507  0.627927  0.116566  1
  Sc  Sc1  1  0.743550  0.871770  0.384680  1
  Sc  Sc2  1  0.247999  0.123952  0.628049  1
  Sc  Sc3  1  0.751225  0.375618  0.873157  1
  Sb  Sb4  1  0.998046  0.498969  0.502985  1
  Sb  Sb5  1  0.499991  0.750102  0.749907  1
  Sb  Sb6  1  0.007607  0.003916  0.988477  1
  Sb  Sb7  1  0.495431  0.247796  0.256773  1
  Ir  Ir8  1  0.373906  0.186819  0.439274  1
  Ir  Ir9  1  0.875470  0.437555  0.686975  1
  Ir  Ir10  1  0.374312  0.687120  0.938568  1
  Au  Au11  1  0.876956  0.938454  0.184590  1
