# generated using pymatgen
data_Ca2(Al3Rh)3
_symmetry_space_group_name_H-M   'P 1'
_cell_length_a   7.53549571
_cell_length_b   7.53549404
_cell_length_c   9.62244900
_cell_angle_alpha   90.00000000
_cell_angle_beta   90.00000000
_cell_angle_gamma   119.07471673
_symmetry_Int_Tables_number   1
_chemical_formula_structural   Ca2(Al3Rh)3
_chemical_formula_sum   'Ca4 Al18 Rh6'
_cell_volume   477.54469197
_cell_formula_units_Z   2
loop_
 _symmetry_equiv_pos_site_id
 _symmetry_equiv_pos_as_xyz
  1  'x, y, z'
loop_
 _atom_site_type_symbol
 _atom_site_label
 _atom_site_symmetry_multiplicity
 _atom_site_fract_x
 _atom_site_fract_y
 _atom_site_fract_z
 _atom_site_occupancy
  Ca  Ca0  1  0.995183  0.672194  0.750000  1
  Ca  Ca1  1  0.004817  0.327806  0.250000  1
  Ca  Ca2  1  0.672191  0.995175  0.750000  1
  Ca  Ca3  1  0.327809  0.004825  0.250000  1
  Al  Al4  1  0.130886  0.130886  0.750000  1
  Al  Al5  1  0.869114  0.869114  0.250000  1
  Al  Al6  1  0.003210  0.335941  0.571347  1
  Al  Al7  1  0.996790  0.664059  0.428653  1
  Al  Al8  1  0.996790  0.664059  0.071347  1
  Al  Al9  1  0.335941  0.003210  0.928653  1
  Al  Al10  1  0.003210  0.335941  0.928653  1
  Al  Al11  1  0.664059  0.996790  0.071347  1
  Al  Al12  1  0.664059  0.996790  0.428653  1
  Al  Al13  1  0.335941  0.003210  0.571347  1
  Al  Al14  1  0.334929  0.334929  0.046637  1
  Al  Al15  1  0.665071  0.665071  0.953363  1
  Al  Al16  1  0.665071  0.665071  0.546637  1
  Al  Al17  1  0.334929  0.334929  0.453363  1
  Al  Al18  1  0.336840  0.546848  0.750000  1
  Al  Al19  1  0.663160  0.453152  0.250000  1
  Al  Al20  1  0.546848  0.336840  0.750000  1
  Al  Al21  1  0.453152  0.663160  0.250000  1
  Rh  Rh22  1  0.671771  0.328231  0.500000  1
  Rh  Rh23  1  0.328229  0.671769  0.500000  1
  Rh  Rh24  1  0.328229  0.671769  0.000000  1
  Rh  Rh25  1  0.671771  0.328231  0.000000  1
  Rh  Rh26  1  0.000000  0.000000  0.500000  1
  Rh  Rh27  1  0.000000  0.000000  0.000000  1
