# generated using pymatgen
data_Nd8Cd2CuOs
_symmetry_space_group_name_H-M   'P 1'
_cell_length_a   9.99160137
_cell_length_b   9.99160078
_cell_length_c   10.10372500
_cell_angle_alpha   59.62808143
_cell_angle_beta   59.62808343
_cell_angle_gamma   59.28750703
_symmetry_Int_Tables_number   1
_chemical_formula_structural   Nd8Cd2CuOs
_chemical_formula_sum   'Nd16 Cd4 Cu2 Os2'
_cell_volume   705.35113545
_cell_formula_units_Z   2
loop_
 _symmetry_equiv_pos_site_id
 _symmetry_equiv_pos_as_xyz
  1  'x, y, z'
loop_
 _atom_site_type_symbol
 _atom_site_label
 _atom_site_symmetry_multiplicity
 _atom_site_fract_x
 _atom_site_fract_y
 _atom_site_fract_z
 _atom_site_occupancy
  Nd  Nd0  1  0.348314  0.348314  0.354919  1
  Nd  Nd1  1  0.348314  0.348314  0.948452  1
  Nd  Nd2  1  0.345135  0.956836  0.349015  1
  Nd  Nd3  1  0.956836  0.345135  0.349015  1
  Nd  Nd4  1  0.815703  0.188419  0.191762  1
  Nd  Nd5  1  0.188419  0.815703  0.804116  1
  Nd  Nd6  1  0.188419  0.815703  0.191762  1
  Nd  Nd7  1  0.815703  0.188419  0.804116  1
  Nd  Nd8  1  0.189268  0.189268  0.810732  1
  Nd  Nd9  1  0.806791  0.806791  0.193209  1
  Nd  Nd10  1  0.937609  0.556373  0.566987  1
  Nd  Nd11  1  0.556373  0.937609  0.939031  1
  Nd  Nd12  1  0.556373  0.937609  0.566987  1
  Nd  Nd13  1  0.937609  0.556373  0.939031  1
  Nd  Nd14  1  0.563353  0.563353  0.936647  1
  Nd  Nd15  1  0.939416  0.939416  0.560584  1
  Cd  Cd16  1  0.579543  0.579543  0.580499  1
  Cd  Cd17  1  0.579543  0.579543  0.260417  1
  Cd  Cd18  1  0.580150  0.258790  0.580531  1
  Cd  Cd19  1  0.258790  0.580150  0.580531  1
  Cu  Cu20  1  0.146869  0.573021  0.140055  1
  Cu  Cu21  1  0.573021  0.146869  0.140055  1
  Os  Os22  1  0.144224  0.144224  0.137367  1
  Os  Os23  1  0.144224  0.144224  0.574183  1
