# generated using pymatgen
data_Ca2Th2(Ga8Pd3)3
_symmetry_space_group_name_H-M   'P 1'
_cell_length_a   7.64014402
_cell_length_b   7.64746083
_cell_length_c   13.42458400
_cell_angle_alpha   84.68964233
_cell_angle_beta   100.72236503
_cell_angle_gamma   119.89399939
_symmetry_Int_Tables_number   1
_chemical_formula_structural   Ca2Th2(Ga8Pd3)3
_chemical_formula_sum   'Ca2 Th2 Ga24 Pd9'
_cell_volume   668.13390154
_cell_formula_units_Z   1
loop_
 _symmetry_equiv_pos_site_id
 _symmetry_equiv_pos_as_xyz
  1  'x, y, z'
loop_
 _atom_site_type_symbol
 _atom_site_label
 _atom_site_symmetry_multiplicity
 _atom_site_fract_x
 _atom_site_fract_y
 _atom_site_fract_z
 _atom_site_occupancy
  Ca  Ca0  1  0.770536  0.502491  0.809521  1
  Ca  Ca1  1  0.229464  0.497509  0.190479  1
  Th  Th2  1  0.438198  0.832458  0.810036  1
  Th  Th3  1  0.561802  0.167542  0.189964  1
  Ga  Ga4  1  0.480740  0.169972  0.940637  1
  Ga  Ga5  1  0.519260  0.830028  0.059363  1
  Ga  Ga6  1  0.022024  0.166126  0.558561  1
  Ga  Ga7  1  0.977976  0.833874  0.441439  1
  Ga  Ga8  1  0.353807  0.833055  0.555929  1
  Ga  Ga9  1  0.646193  0.166945  0.444071  1
  Ga  Ga10  1  0.615496  0.830541  0.329442  1
  Ga  Ga11  1  0.384504  0.169459  0.670558  1
  Ga  Ga12  1  0.055853  0.491608  0.671371  1
  Ga  Ga13  1  0.944147  0.508392  0.328629  1
  Ga  Ga14  1  0.733747  0.837207  0.669891  1
  Ga  Ga15  1  0.266253  0.162793  0.330109  1
  Ga  Ga16  1  0.144349  0.497916  0.943924  1
  Ga  Ga17  1  0.855651  0.502084  0.056076  1
  Ga  Ga18  1  0.817623  0.831791  0.948660  1
  Ga  Ga19  1  0.182377  0.168209  0.051340  1
  Ga  Ga20  1  0.311985  0.498289  0.443026  1
  Ga  Ga21  1  0.688015  0.501711  0.556974  1
  Ga  Ga22  1  0.100330  0.838456  0.181783  1
  Ga  Ga23  1  0.899670  0.161544  0.818217  1
  Ga  Ga24  1  0.304564  0.369868  0.817251  1
  Ga  Ga25  1  0.695436  0.630132  0.182749  1
  Ga  Ga26  1  0.105028  0.963976  0.817150  1
  Ga  Ga27  1  0.894972  0.036024  0.182850  1
  Pd  Pd28  1  0.384936  0.503400  0.637415  1
  Pd  Pd29  1  0.615064  0.496600  0.362585  1
  Pd  Pd30  1  0.172508  0.831238  0.999034  1
  Pd  Pd31  1  0.827492  0.168762  0.000966  1
  Pd  Pd32  1  0.291356  0.833190  0.361868  1
  Pd  Pd33  1  0.708644  0.166810  0.638132  1
  Pd  Pd34  1  0.050518  0.829087  0.637831  1
  Pd  Pd35  1  0.949482  0.170913  0.362169  1
  Pd  Pd36  1  0.500000  0.500000  0.000000  1
