# generated using pymatgen
data_K2Zr2AgTe6Au
_symmetry_space_group_name_H-M   'P 1'
_cell_length_a   8.92882738
_cell_length_b   4.22141000
_cell_length_c   10.90332870
_cell_angle_alpha   90.00000000
_cell_angle_beta   111.29949166
_cell_angle_gamma   90.00000000
_symmetry_Int_Tables_number   1
_chemical_formula_structural   K2Zr2AgTe6Au
_chemical_formula_sum   'K2 Zr2 Ag1 Te6 Au1'
_cell_volume   382.89930233
_cell_formula_units_Z   1
loop_
 _symmetry_equiv_pos_site_id
 _symmetry_equiv_pos_as_xyz
  1  'x, y, z'
loop_
 _atom_site_type_symbol
 _atom_site_label
 _atom_site_symmetry_multiplicity
 _atom_site_fract_x
 _atom_site_fract_y
 _atom_site_fract_z
 _atom_site_occupancy
  K  K0  1  0.256609  0.250000  0.282737  1
  K  K1  1  0.743160  0.749999  0.716300  1
  Zr  Zr2  1  0.697584  0.250000  0.171299  1
  Zr  Zr3  1  0.298361  0.749999  0.824901  1
  Ag  Ag4  1  0.921817  0.749999  0.399843  1
  Te  Te5  1  0.447608  0.749999  0.123760  1
  Te  Te6  1  0.909051  0.749999  0.139267  1
  Te  Te7  1  0.733408  0.250000  0.443322  1
  Te  Te8  1  0.267291  0.749999  0.554714  1
  Te  Te9  1  0.088080  0.250000  0.860748  1
  Te  Te10  1  0.549714  0.250000  0.874251  1
  Au  Au11  1  0.087316  0.250000  0.608858  1
