# generated using pymatgen
data_Er5Th(Si3Rh)2
_symmetry_space_group_name_H-M   'P 1'
_cell_length_a   5.69908776
_cell_length_b   5.69908747
_cell_length_c   13.57889000
_cell_angle_alpha   109.16916653
_cell_angle_beta   109.16916681
_cell_angle_gamma   43.58423423
_symmetry_Int_Tables_number   1
_chemical_formula_structural   Er5Th(Si3Rh)2
_chemical_formula_sum   'Er5 Th1 Si6 Rh2'
_cell_volume   284.41308760
_cell_formula_units_Z   1
loop_
 _symmetry_equiv_pos_site_id
 _symmetry_equiv_pos_as_xyz
  1  'x, y, z'
loop_
 _atom_site_type_symbol
 _atom_site_label
 _atom_site_symmetry_multiplicity
 _atom_site_fract_x
 _atom_site_fract_y
 _atom_site_fract_z
 _atom_site_occupancy
  Er  Er0  1  0.745149  0.745149  0.229978  1
  Er  Er1  1  0.523913  0.523913  0.379088  1
  Er  Er2  1  0.476974  0.476974  0.623639  1
  Er  Er3  1  0.254980  0.254980  0.768967  1
  Er  Er4  1  0.600838  0.600838  0.919099  1
  Th  Th5  1  0.397166  0.397166  0.078821  1
  Si  Si6  1  0.112973  0.112973  0.075260  1
  Si  Si7  1  0.050729  0.050729  0.242120  1
  Si  Si8  1  0.871246  0.871246  0.457258  1
  Si  Si9  1  0.128501  0.128501  0.543604  1
  Si  Si10  1  0.952949  0.952949  0.761244  1
  Si  Si11  1  0.883612  0.883612  0.919460  1
  Rh  Rh12  1  0.248327  0.248327  0.414935  1
  Rh  Rh13  1  0.752642  0.752642  0.586526  1
