# generated using pymatgen
data_CsTeOF5
_symmetry_space_group_name_H-M   'P 1'
_cell_length_a   5.84776937
_cell_length_b   6.57720565
_cell_length_c   9.94060941
_cell_angle_alpha   70.99401609
_cell_angle_beta   86.89195391
_cell_angle_gamma   92.74862470
_symmetry_Int_Tables_number   1
_chemical_formula_structural   CsTeOF5
_chemical_formula_sum   'Cs2 Te2 O2 F10'
_cell_volume   360.08787985
_cell_formula_units_Z   2
loop_
 _symmetry_equiv_pos_site_id
 _symmetry_equiv_pos_as_xyz
  1  'x, y, z'
loop_
 _atom_site_type_symbol
 _atom_site_label
 _atom_site_symmetry_multiplicity
 _atom_site_fract_x
 _atom_site_fract_y
 _atom_site_fract_z
 _atom_site_occupancy
  Cs  Cs0  1  0.274874  0.618244  0.683335  1
  Cs  Cs1  1  0.725126  0.381756  0.316665  1
  Te  Te2  1  0.830137  0.089031  0.746614  1
  Te  Te3  1  0.169863  0.910969  0.253386  1
  O  O4  1  0.011562  0.260113  0.595659  1
  O  O5  1  0.988438  0.739887  0.404341  1
  F  F6  1  0.548564  0.208453  0.673837  1
  F  F7  1  0.451436  0.791547  0.326163  1
  F  F8  1  0.767749  0.862748  0.666358  1
  F  F9  1  0.232251  0.137252  0.333642  1
  F  F10  1  0.069122  0.927394  0.845351  1
  F  F11  1  0.930878  0.072606  0.154649  1
  F  F12  1  0.845775  0.281788  0.855334  1
  F  F13  1  0.154225  0.718212  0.144666  1
  F  F14  1  0.634683  0.909125  0.902131  1
  F  F15  1  0.365317  0.090875  0.097869  1
