# generated using pymatgen
data_Eu20Cd6GaRu
_symmetry_space_group_name_H-M   'P 1'
_cell_length_a   10.27277700
_cell_length_b   10.27487203
_cell_length_c   10.81037500
_cell_angle_alpha   90.00357999
_cell_angle_beta   89.99914665
_cell_angle_gamma   120.01276925
_symmetry_Int_Tables_number   1
_chemical_formula_structural   Eu20Cd6GaRu
_chemical_formula_sum   'Eu20 Cd6 Ga1 Ru1'
_cell_volume   988.05194322
_cell_formula_units_Z   1
loop_
 _symmetry_equiv_pos_site_id
 _symmetry_equiv_pos_as_xyz
  1  'x, y, z'
loop_
 _atom_site_type_symbol
 _atom_site_label
 _atom_site_symmetry_multiplicity
 _atom_site_fract_x
 _atom_site_fract_y
 _atom_site_fract_z
 _atom_site_occupancy
  Eu  Eu0  1  0.999855  0.000121  0.500445  1
  Eu  Eu1  1  0.999482  0.999739  0.000506  1
  Eu  Eu2  1  0.205585  0.794811  0.444934  1
  Eu  Eu3  1  0.205524  0.410905  0.445584  1
  Eu  Eu4  1  0.589410  0.794833  0.444698  1
  Eu  Eu5  1  0.790221  0.210020  0.567868  1
  Eu  Eu6  1  0.790453  0.580441  0.567568  1
  Eu  Eu7  1  0.419349  0.209698  0.567428  1
  Eu  Eu8  1  0.790387  0.209522  0.931579  1
  Eu  Eu9  1  0.790750  0.581274  0.931659  1
  Eu  Eu10  1  0.417686  0.208765  0.931597  1
  Eu  Eu11  1  0.205068  0.794900  0.054736  1
  Eu  Eu12  1  0.204631  0.409525  0.054932  1
  Eu  Eu13  1  0.590081  0.795172  0.055010  1
  Eu  Eu14  1  0.539623  0.460407  0.250723  1
  Eu  Eu15  1  0.539925  0.079512  0.250555  1
  Eu  Eu16  1  0.921223  0.460341  0.250802  1
  Eu  Eu17  1  0.461774  0.538803  0.749194  1
  Eu  Eu18  1  0.461535  0.922747  0.748929  1
  Eu  Eu19  1  0.078241  0.539088  0.749310  1
  Cd  Cd20  1  0.887462  0.112549  0.251315  1
  Cd  Cd21  1  0.887485  0.774671  0.251184  1
  Cd  Cd22  1  0.225093  0.112576  0.251189  1
  Cd  Cd23  1  0.112566  0.887420  0.749349  1
  Cd  Cd24  1  0.112571  0.225083  0.749427  1
  Cd  Cd25  1  0.775142  0.887739  0.749275  1
  Ga  Ga26  1  0.332998  0.666184  0.249600  1
  Ru  Ru27  1  0.665881  0.333152  0.750605  1
