# generated using pymatgen
data_LaNdRe17C3
_symmetry_space_group_name_H-M   'P 1'
_cell_length_a   7.06685043
_cell_length_b   7.06685004
_cell_length_c   7.06684864
_cell_angle_alpha   82.95377161
_cell_angle_beta   82.95378006
_cell_angle_gamma   82.95376771
_symmetry_Int_Tables_number   1
_chemical_formula_structural   LaNdRe17C3
_chemical_formula_sum   'La1 Nd1 Re17 C3'
_cell_volume   345.52899693
_cell_formula_units_Z   1
loop_
 _symmetry_equiv_pos_site_id
 _symmetry_equiv_pos_as_xyz
  1  'x, y, z'
loop_
 _atom_site_type_symbol
 _atom_site_label
 _atom_site_symmetry_multiplicity
 _atom_site_fract_x
 _atom_site_fract_y
 _atom_site_fract_z
 _atom_site_occupancy
  La  La0  1  0.649876  0.649876  0.649876  1
  Nd  Nd1  1  0.349304  0.349304  0.349304  1
  Re  Re2  1  0.000265  0.000265  0.499900  1
  Re  Re3  1  0.499900  0.000265  0.000265  1
  Re  Re4  1  0.000265  0.499900  0.000265  1
  Re  Re5  1  0.721273  0.278635  0.000401  1
  Re  Re6  1  0.000401  0.721273  0.278635  1
  Re  Re7  1  0.278635  0.000401  0.721273  1
  Re  Re8  1  0.000401  0.278635  0.721273  1
  Re  Re9  1  0.721273  0.000401  0.278635  1
  Re  Re10  1  0.278635  0.721273  0.000401  1
  Re  Re11  1  0.348015  0.863758  0.348015  1
  Re  Re12  1  0.348015  0.348015  0.863758  1
  Re  Re13  1  0.863758  0.348015  0.348015  1
  Re  Re14  1  0.651574  0.136710  0.651574  1
  Re  Re15  1  0.651574  0.651574  0.136710  1
  Re  Re16  1  0.136710  0.651574  0.651574  1
  Re  Re17  1  0.902837  0.902837  0.902837  1
  Re  Re18  1  0.097268  0.097268  0.097268  1
  C  C19  1  0.499147  0.499147  0.001726  1
  C  C20  1  0.001726  0.499147  0.499147  1
  C  C21  1  0.499147  0.001726  0.499147  1
