# generated using pymatgen
data_Li8Er8Sn7Sb
_symmetry_space_group_name_H-M   'P 1'
_cell_length_a   9.35264600
_cell_length_b   9.35264598
_cell_length_c   7.18100900
_cell_angle_alpha   90.00000000
_cell_angle_beta   90.00000000
_cell_angle_gamma   120.00000009
_symmetry_Int_Tables_number   1
_chemical_formula_structural   Li8Er8Sn7Sb
_chemical_formula_sum   'Li8 Er8 Sn7 Sb1'
_cell_volume   543.98270742
_cell_formula_units_Z   1
loop_
 _symmetry_equiv_pos_site_id
 _symmetry_equiv_pos_as_xyz
  1  'x, y, z'
loop_
 _atom_site_type_symbol
 _atom_site_label
 _atom_site_symmetry_multiplicity
 _atom_site_fract_x
 _atom_site_fract_y
 _atom_site_fract_z
 _atom_site_occupancy
  Li  Li0  1  0.166318  0.332637  0.212097  1
  Li  Li1  1  0.166318  0.833682  0.212097  1
  Li  Li2  1  0.667363  0.833682  0.212097  1
  Li  Li3  1  0.666667  0.333333  0.327368  1
  Li  Li4  1  0.833180  0.666360  0.712032  1
  Li  Li5  1  0.333640  0.166820  0.712032  1
  Li  Li6  1  0.833180  0.166820  0.712032  1
  Li  Li7  1  0.333333  0.666667  0.828127  1
  Er  Er8  1  0.000000  0.000000  0.999619  1
  Er  Er9  1  0.512683  0.025366  0.004912  1
  Er  Er10  1  0.512683  0.487317  0.004912  1
  Er  Er11  1  0.974634  0.487317  0.004912  1
  Er  Er12  1  0.000000  0.000000  0.500082  1
  Er  Er13  1  0.489622  0.979243  0.508520  1
  Er  Er14  1  0.020757  0.510378  0.508520  1
  Er  Er15  1  0.489622  0.510378  0.508520  1
  Sn  Sn16  1  0.832993  0.665987  0.268752  1
  Sn  Sn17  1  0.334013  0.167007  0.268752  1
  Sn  Sn18  1  0.832993  0.167007  0.268752  1
  Sn  Sn19  1  0.666667  0.333333  0.737855  1
  Sn  Sn20  1  0.166990  0.333979  0.768731  1
  Sn  Sn21  1  0.166990  0.833010  0.768731  1
  Sn  Sn22  1  0.666021  0.833010  0.768731  1
  Sb  Sb23  1  0.333333  0.666667  0.239798  1
