# generated using pymatgen
data_Na3Ca2RuO6
_symmetry_space_group_name_H-M   'P 1'
_cell_length_a   10.88825756
_cell_length_b   10.34602384
_cell_length_c   5.78633089
_cell_angle_alpha   79.42775623
_cell_angle_beta   69.07839329
_cell_angle_gamma   31.49385669
_symmetry_Int_Tables_number   1
_chemical_formula_structural   Na3Ca2RuO6
_chemical_formula_sum   'Na6 Ca4 Ru2 O12'
_cell_volume   308.13428649
_cell_formula_units_Z   2
loop_
 _symmetry_equiv_pos_site_id
 _symmetry_equiv_pos_as_xyz
  1  'x, y, z'
loop_
 _atom_site_type_symbol
 _atom_site_label
 _atom_site_symmetry_multiplicity
 _atom_site_fract_x
 _atom_site_fract_y
 _atom_site_fract_z
 _atom_site_occupancy
  Na  Na0  1  0.000000  0.000000  0.000000  1
  Na  Na1  1  0.086057  0.086057  0.413943  1
  Na  Na2  1  0.836057  0.836057  0.163943  1
  Na  Na3  1  0.163943  0.163943  0.836057  1
  Na  Na4  1  0.250000  0.250000  0.250000  1
  Na  Na5  1  0.413943  0.413943  0.086057  1
  Ca  Ca6  1  0.580514  0.580514  0.919486  1
  Ca  Ca7  1  0.919486  0.919486  0.580514  1
  Ca  Ca8  1  0.669486  0.669486  0.330514  1
  Ca  Ca9  1  0.330514  0.330514  0.669486  1
  Ru  Ru10  1  0.750000  0.750000  0.750000  1
  Ru  Ru11  1  0.500000  0.500000  0.500000  1
  O  O12  1  0.287529  0.712471  0.287529  1
  O  O13  1  0.712471  0.287529  0.712471  1
  O  O14  1  0.962471  0.537529  0.962471  1
  O  O15  1  0.537529  0.962471  0.537529  1
  O  O16  1  0.207418  0.645414  0.787281  1
  O  O17  1  0.359888  0.787281  0.645414  1
  O  O18  1  0.787281  0.359888  0.207418  1
  O  O19  1  0.645414  0.207418  0.359888  1
  O  O20  1  0.604586  0.042582  0.890112  1
  O  O21  1  0.890112  0.462719  0.604586  1
  O  O22  1  0.462719  0.890112  0.042582  1
  O  O23  1  0.042582  0.604586  0.462719  1
