# generated using pymatgen
data_GaIrSe2S
_symmetry_space_group_name_H-M   'P 1'
_cell_length_a   3.79124500
_cell_length_b   9.94668000
_cell_length_c   12.34266100
_cell_angle_alpha   90.00000000
_cell_angle_beta   90.00000000
_cell_angle_gamma   90.00000000
_symmetry_Int_Tables_number   1
_chemical_formula_structural   GaIrSe2S
_chemical_formula_sum   'Ga4 Ir4 Se8 S4'
_cell_volume   465.44545919
_cell_formula_units_Z   4
loop_
 _symmetry_equiv_pos_site_id
 _symmetry_equiv_pos_as_xyz
  1  'x, y, z'
loop_
 _atom_site_type_symbol
 _atom_site_label
 _atom_site_symmetry_multiplicity
 _atom_site_fract_x
 _atom_site_fract_y
 _atom_site_fract_z
 _atom_site_occupancy
  Ga  Ga0  1  0.750000  0.253580  0.803647  1
  Ga  Ga1  1  0.250000  0.746420  0.196353  1
  Ga  Ga2  1  0.750000  0.753580  0.696353  1
  Ga  Ga3  1  0.250000  0.246420  0.303647  1
  Ir  Ir4  1  0.250000  0.411293  0.606203  1
  Ir  Ir5  1  0.750000  0.588707  0.393797  1
  Ir  Ir6  1  0.250000  0.911293  0.893797  1
  Ir  Ir7  1  0.750000  0.088707  0.106203  1
  Se  Se8  1  0.750000  0.091008  0.312207  1
  Se  Se9  1  0.250000  0.908992  0.687793  1
  Se  Se10  1  0.750000  0.591008  0.187793  1
  Se  Se11  1  0.250000  0.408992  0.812207  1
  Se  Se12  1  0.250000  0.257497  0.105502  1
  Se  Se13  1  0.750000  0.742503  0.894498  1
  Se  Se14  1  0.250000  0.757497  0.394498  1
  Se  Se15  1  0.750000  0.242503  0.605502  1
  S  S16  1  0.250000  0.940117  0.086602  1
  S  S17  1  0.750000  0.059883  0.913398  1
  S  S18  1  0.250000  0.440117  0.413398  1
  S  S19  1  0.750000  0.559883  0.586602  1
