# generated using pymatgen
data_Zn2SiRh3
_symmetry_space_group_name_H-M   'P 1'
_cell_length_a   3.00512100
_cell_length_b   4.30246554
_cell_length_c   6.68735298
_cell_angle_alpha   71.37081047
_cell_angle_beta   90.00000000
_cell_angle_gamma   90.00000000
_symmetry_Int_Tables_number   1
_chemical_formula_structural   Zn2SiRh3
_chemical_formula_sum   'Zn2 Si1 Rh3'
_cell_volume   81.93346429
_cell_formula_units_Z   1
loop_
 _symmetry_equiv_pos_site_id
 _symmetry_equiv_pos_as_xyz
  1  'x, y, z'
loop_
 _atom_site_type_symbol
 _atom_site_label
 _atom_site_symmetry_multiplicity
 _atom_site_fract_x
 _atom_site_fract_y
 _atom_site_fract_z
 _atom_site_occupancy
  Zn  Zn0  1  0.000000  0.339484  0.318636  1
  Zn  Zn1  1  0.000000  0.993868  0.014680  1
  Si  Si2  1  0.000000  0.666690  0.666667  1
  Rh  Rh3  1  0.500000  0.515396  0.972346  1
  Rh  Rh4  1  0.500000  0.817951  0.360996  1
  Rh  Rh5  1  0.500000  0.166610  0.666675  1
