# generated using pymatgen
data_Ta2Ni7(B3Ru7)2
_symmetry_space_group_name_H-M   'P 1'
_cell_length_a   7.82519953
_cell_length_b   7.82519959
_cell_length_c   7.82520002
_cell_angle_alpha   60.57954823
_cell_angle_beta   60.57954675
_cell_angle_gamma   60.57954640
_symmetry_Int_Tables_number   1
_chemical_formula_structural   Ta2Ni7(B3Ru7)2
_chemical_formula_sum   'Ta2 Ni7 B6 Ru14'
_cell_volume   343.25723368
_cell_formula_units_Z   1
loop_
 _symmetry_equiv_pos_site_id
 _symmetry_equiv_pos_as_xyz
  1  'x, y, z'
loop_
 _atom_site_type_symbol
 _atom_site_label
 _atom_site_symmetry_multiplicity
 _atom_site_fract_x
 _atom_site_fract_y
 _atom_site_fract_z
 _atom_site_occupancy
  Ta  Ta0  1  0.252547  0.252547  0.252547  1
  Ta  Ta1  1  0.747453  0.747453  0.747453  1
  Ni  Ni2  1  0.380619  0.380619  0.849836  1
  Ni  Ni3  1  0.380619  0.849836  0.380619  1
  Ni  Ni4  1  0.619381  0.619381  0.150164  1
  Ni  Ni5  1  0.619381  0.150164  0.619381  1
  Ni  Ni6  1  0.849836  0.380619  0.380619  1
  Ni  Ni7  1  0.150164  0.619381  0.619381  1
  Ni  Ni8  1  0.000000  0.000000  0.000000  1
  B  B9  1  0.723998  0.279769  0.279769  1
  B  B10  1  0.276002  0.720231  0.720231  1
  B  B11  1  0.279769  0.723998  0.279769  1
  B  B12  1  0.720231  0.276002  0.720231  1
  B  B13  1  0.279769  0.279769  0.723998  1
  B  B14  1  0.720231  0.720231  0.276002  1
  Ru  Ru15  1  0.337457  0.002077  0.002077  1
  Ru  Ru16  1  0.662543  0.997923  0.997923  1
  Ru  Ru17  1  0.000000  0.339472  0.660528  1
  Ru  Ru18  1  0.000000  0.660528  0.339472  1
  Ru  Ru19  1  0.002077  0.337457  0.002077  1
  Ru  Ru20  1  0.660528  0.000000  0.339472  1
  Ru  Ru21  1  0.997923  0.662543  0.997923  1
  Ru  Ru22  1  0.339472  0.000000  0.660528  1
  Ru  Ru23  1  0.002077  0.002077  0.337457  1
  Ru  Ru24  1  0.997923  0.997923  0.662543  1
  Ru  Ru25  1  0.660528  0.339472  0.000000  1
  Ru  Ru26  1  0.339472  0.660528  0.000000  1
  Ru  Ru27  1  0.386743  0.386743  0.386743  1
  Ru  Ru28  1  0.613257  0.613257  0.613257  1
