# generated using pymatgen
data_PaCr3(NiH6)2
_symmetry_space_group_name_H-M   'P 1'
_cell_length_a   5.61872800
_cell_length_b   5.61789906
_cell_length_c   4.35870900
_cell_angle_alpha   90.00000000
_cell_angle_beta   90.00000000
_cell_angle_gamma   119.99845613
_symmetry_Int_Tables_number   1
_chemical_formula_structural   PaCr3(NiH6)2
_chemical_formula_sum   'Pa1 Cr3 Ni2 H12'
_cell_volume   119.15360966
_cell_formula_units_Z   1
loop_
 _symmetry_equiv_pos_site_id
 _symmetry_equiv_pos_as_xyz
  1  'x, y, z'
loop_
 _atom_site_type_symbol
 _atom_site_label
 _atom_site_symmetry_multiplicity
 _atom_site_fract_x
 _atom_site_fract_y
 _atom_site_fract_z
 _atom_site_occupancy
  Pa  Pa0  1  0.000000  0.000000  0.000000  1
  Cr  Cr1  1  0.500000  0.000000  0.500000  1
  Cr  Cr2  1  0.000000  0.500000  0.500000  1
  Cr  Cr3  1  0.500000  0.500000  0.500000  1
  Ni  Ni4  1  0.666675  0.333240  0.000000  1
  Ni  Ni5  1  0.333325  0.666760  0.000000  1
  H  H6  1  0.795974  0.591887  0.735969  1
  H  H7  1  0.204026  0.408113  0.264031  1
  H  H8  1  0.204067  0.795885  0.264076  1
  H  H9  1  0.795933  0.204115  0.264076  1
  H  H10  1  0.591772  0.795893  0.264077  1
  H  H11  1  0.408228  0.204107  0.264077  1
  H  H12  1  0.408228  0.204107  0.735923  1
  H  H13  1  0.204026  0.408113  0.735969  1
  H  H14  1  0.795933  0.204115  0.735924  1
  H  H15  1  0.591772  0.795893  0.735923  1
  H  H16  1  0.795974  0.591887  0.264031  1
  H  H17  1  0.204067  0.795885  0.735924  1
