# generated using pymatgen
data_TiAl(CrC)2
_symmetry_space_group_name_H-M   'P 1'
_cell_length_a   2.92883000
_cell_length_b   2.92883121
_cell_length_c   17.85222700
_cell_angle_alpha   90.00000000
_cell_angle_beta   90.00000000
_cell_angle_gamma   120.00000895
_symmetry_Int_Tables_number   1
_chemical_formula_structural   TiAl(CrC)2
_chemical_formula_sum   'Ti2 Al2 Cr4 C4'
_cell_volume   132.62075645
_cell_formula_units_Z   2
loop_
 _symmetry_equiv_pos_site_id
 _symmetry_equiv_pos_as_xyz
  1  'x, y, z'
loop_
 _atom_site_type_symbol
 _atom_site_label
 _atom_site_symmetry_multiplicity
 _atom_site_fract_x
 _atom_site_fract_y
 _atom_site_fract_z
 _atom_site_occupancy
  Ti  Ti0  1  0.000000  0.000000  0.500000  1
  Ti  Ti1  1  0.000000  0.000000  0.000000  1
  Al  Al2  1  0.000000  0.000000  0.750000  1
  Al  Al3  1  0.000000  0.000000  0.250000  1
  Cr  Cr4  1  0.666667  0.333333  0.368573  1
  Cr  Cr5  1  0.333333  0.666667  0.868573  1
  Cr  Cr6  1  0.333333  0.666667  0.631427  1
  Cr  Cr7  1  0.666667  0.333333  0.131427  1
  C  C8  1  0.333333  0.666667  0.425016  1
  C  C9  1  0.666667  0.333333  0.925016  1
  C  C10  1  0.333333  0.666667  0.074984  1
  C  C11  1  0.666667  0.333333  0.574984  1
