# generated using pymatgen
data_Tm4BeB14
_symmetry_space_group_name_H-M   'P 1'
_cell_length_a   7.15044900
_cell_length_b   7.15044900
_cell_length_c   7.30722100
_cell_angle_alpha   90.00000000
_cell_angle_beta   90.00000000
_cell_angle_gamma   90.00000000
_symmetry_Int_Tables_number   1
_chemical_formula_structural   Tm4BeB14
_chemical_formula_sum   'Tm8 Be2 B28'
_cell_volume   373.61032452
_cell_formula_units_Z   2
loop_
 _symmetry_equiv_pos_site_id
 _symmetry_equiv_pos_as_xyz
  1  'x, y, z'
loop_
 _atom_site_type_symbol
 _atom_site_label
 _atom_site_symmetry_multiplicity
 _atom_site_fract_x
 _atom_site_fract_y
 _atom_site_fract_z
 _atom_site_occupancy
  Tm  Tm0  1  0.195009  0.329403  0.000000  1
  Tm  Tm1  1  0.670597  0.195009  0.000000  1
  Tm  Tm2  1  0.329403  0.804991  0.000000  1
  Tm  Tm3  1  0.695009  0.170597  0.500000  1
  Tm  Tm4  1  0.304991  0.829403  0.500000  1
  Tm  Tm5  1  0.804991  0.670597  0.000000  1
  Tm  Tm6  1  0.829403  0.695009  0.500000  1
  Tm  Tm7  1  0.170597  0.304991  0.500000  1
  Be  Be8  1  0.000000  0.000000  0.000000  1
  Be  Be9  1  0.500000  0.500000  0.500000  1
  B  B10  1  0.174480  0.038866  0.227175  1
  B  B11  1  0.961134  0.174480  0.227175  1
  B  B12  1  0.038866  0.825520  0.227175  1
  B  B13  1  0.674480  0.461134  0.272825  1
  B  B14  1  0.325520  0.538866  0.272825  1
  B  B15  1  0.825520  0.961134  0.227175  1
  B  B16  1  0.538866  0.674480  0.272825  1
  B  B17  1  0.461134  0.325520  0.272825  1
  B  B18  1  0.825520  0.961134  0.772825  1
  B  B19  1  0.038866  0.825520  0.772825  1
  B  B20  1  0.961134  0.174480  0.772825  1
  B  B21  1  0.325520  0.538866  0.727175  1
  B  B22  1  0.674480  0.461134  0.727175  1
  B  B23  1  0.174480  0.038866  0.772825  1
  B  B24  1  0.461134  0.325520  0.727175  1
  B  B25  1  0.538866  0.674480  0.727175  1
  B  B26  1  0.087996  0.587996  0.250000  1
  B  B27  1  0.412004  0.087996  0.250000  1
  B  B28  1  0.587996  0.912004  0.250000  1
  B  B29  1  0.912004  0.412004  0.250000  1
  B  B30  1  0.912004  0.412004  0.750000  1
  B  B31  1  0.587996  0.912004  0.750000  1
  B  B32  1  0.412004  0.087996  0.750000  1
  B  B33  1  0.087996  0.587996  0.750000  1
  B  B34  1  0.000000  0.000000  0.387782  1
  B  B35  1  0.500000  0.500000  0.112218  1
  B  B36  1  0.000000  0.000000  0.612218  1
  B  B37  1  0.500000  0.500000  0.887782  1
