# generated using pymatgen
data_LaTh2AlGa2Pt3
_symmetry_space_group_name_H-M   'P 1'
_cell_length_a   7.39819828
_cell_length_b   7.39819751
_cell_length_c   4.14002000
_cell_angle_alpha   90.00000000
_cell_angle_beta   90.00000000
_cell_angle_gamma   120.29115963
_symmetry_Int_Tables_number   1
_chemical_formula_structural   LaTh2AlGa2Pt3
_chemical_formula_sum   'La1 Th2 Al1 Ga2 Pt3'
_cell_volume   195.66055587
_cell_formula_units_Z   1
loop_
 _symmetry_equiv_pos_site_id
 _symmetry_equiv_pos_as_xyz
  1  'x, y, z'
loop_
 _atom_site_type_symbol
 _atom_site_label
 _atom_site_symmetry_multiplicity
 _atom_site_fract_x
 _atom_site_fract_y
 _atom_site_fract_z
 _atom_site_occupancy
  La  La0  1  0.411447  0.411447  0.500000  1
  Th  Th1  1  0.582861  0.003710  0.500000  1
  Th  Th2  1  0.003710  0.582861  0.500000  1
  Al  Al3  1  0.762290  0.762290  0.000000  1
  Ga  Ga4  1  0.236597  0.000139  0.000000  1
  Ga  Ga5  1  0.000139  0.236597  0.000000  1
  Pt  Pt6  1  0.682008  0.343112  0.000000  1
  Pt  Pt7  1  0.343112  0.682008  0.000000  1
  Pt  Pt8  1  0.977833  0.977833  0.500000  1
