# generated using pymatgen
data_RbFe3Sb12Pd
_symmetry_space_group_name_H-M   'P 1'
_cell_length_a   8.07864774
_cell_length_b   8.07864657
_cell_length_c   8.04663900
_cell_angle_alpha   109.39098185
_cell_angle_beta   109.39097891
_cell_angle_gamma   109.55133889
_symmetry_Int_Tables_number   1
_chemical_formula_structural   RbFe3Sb12Pd
_chemical_formula_sum   'Rb1 Fe3 Sb12 Pd1'
_cell_volume   404.66815908
_cell_formula_units_Z   1
loop_
 _symmetry_equiv_pos_site_id
 _symmetry_equiv_pos_as_xyz
  1  'x, y, z'
loop_
 _atom_site_type_symbol
 _atom_site_label
 _atom_site_symmetry_multiplicity
 _atom_site_fract_x
 _atom_site_fract_y
 _atom_site_fract_z
 _atom_site_occupancy
  Rb  Rb0  1  0.000000  0.000000  0.000000  1
  Fe  Fe1  1  0.500000  0.000000  0.000000  1
  Fe  Fe2  1  0.000000  0.500000  0.000000  1
  Fe  Fe3  1  0.500000  0.500000  0.500000  1
  Sb  Sb4  1  0.354063  0.185317  0.852321  1
  Sb  Sb5  1  0.645937  0.814683  0.147679  1
  Sb  Sb6  1  0.663470  0.500421  0.835923  1
  Sb  Sb7  1  0.336530  0.499579  0.164077  1
  Sb  Sb8  1  0.185317  0.831253  0.332995  1
  Sb  Sb9  1  0.814683  0.168747  0.667005  1
  Sb  Sb10  1  0.500421  0.836951  0.664499  1
  Sb  Sb11  1  0.499579  0.163049  0.335501  1
  Sb  Sb12  1  0.836951  0.336530  0.172454  1
  Sb  Sb13  1  0.163049  0.663470  0.827546  1
  Sb  Sb14  1  0.831253  0.645937  0.498258  1
  Sb  Sb15  1  0.168747  0.354063  0.501742  1
  Pd  Pd16  1  0.000000  0.000000  0.500000  1
