# generated using pymatgen
data_Er2Tm10Fe4CuBi
_symmetry_space_group_name_H-M   'P 1'
_cell_length_a   8.22207907
_cell_length_b   8.22207870
_cell_length_c   8.21828560
_cell_angle_alpha   110.97893448
_cell_angle_beta   111.04902637
_cell_angle_gamma   106.44767676
_symmetry_Int_Tables_number   1
_chemical_formula_structural   Er2Tm10Fe4CuBi
_chemical_formula_sum   'Er2 Tm10 Fe4 Cu1 Bi1'
_cell_volume   426.68607618
_cell_formula_units_Z   1
loop_
 _symmetry_equiv_pos_site_id
 _symmetry_equiv_pos_as_xyz
  1  'x, y, z'
loop_
 _atom_site_type_symbol
 _atom_site_label
 _atom_site_symmetry_multiplicity
 _atom_site_fract_x
 _atom_site_fract_y
 _atom_site_fract_z
 _atom_site_occupancy
  Er  Er0  1  0.287907  0.185588  0.473496  1
  Er  Er1  1  0.712093  0.814412  0.526504  1
  Tm  Tm2  1  0.287777  0.814102  0.101879  1
  Tm  Tm3  1  0.712223  0.185898  0.898121  1
  Tm  Tm4  1  0.616579  0.310780  0.305133  1
  Tm  Tm5  1  0.383421  0.689220  0.694867  1
  Tm  Tm6  1  0.005647  0.311446  0.694867  1
  Tm  Tm7  1  0.994353  0.688554  0.305133  1
  Tm  Tm8  1  0.213676  0.419551  0.205069  1
  Tm  Tm9  1  0.786324  0.580449  0.794931  1
  Tm  Tm10  1  0.214485  0.008608  0.794931  1
  Tm  Tm11  1  0.785515  0.991392  0.205069  1
  Fe  Fe12  1  0.999288  0.383563  0.382851  1
  Fe  Fe13  1  0.000712  0.616437  0.617149  1
  Fe  Fe14  1  0.391784  0.891784  0.500000  1
  Fe  Fe15  1  0.608216  0.108216  0.500000  1
  Cu  Cu16  1  0.000000  0.000000  0.000000  1
  Bi  Bi17  1  0.500000  0.500000  0.000000  1
