# generated using pymatgen
data_Sr4NdSi12Ir19
_symmetry_space_group_name_H-M   'P 1'
_cell_length_a   12.94193700
_cell_length_b   12.94193843
_cell_length_c   4.05783300
_cell_angle_alpha   90.00000000
_cell_angle_beta   90.00000000
_cell_angle_gamma   120.00000402
_symmetry_Int_Tables_number   1
_chemical_formula_structural   Sr4NdSi12Ir19
_chemical_formula_sum   'Sr4 Nd1 Si12 Ir19'
_cell_volume   588.60425129
_cell_formula_units_Z   1
loop_
 _symmetry_equiv_pos_site_id
 _symmetry_equiv_pos_as_xyz
  1  'x, y, z'
loop_
 _atom_site_type_symbol
 _atom_site_label
 _atom_site_symmetry_multiplicity
 _atom_site_fract_x
 _atom_site_fract_y
 _atom_site_fract_z
 _atom_site_occupancy
  Sr  Sr0  1  0.999871  0.816812  0.500000  1
  Sr  Sr1  1  0.183188  0.183059  0.500000  1
  Sr  Sr2  1  0.816941  0.000129  0.500000  1
  Sr  Sr3  1  0.333333  0.666667  0.000000  1
  Nd  Nd4  1  0.666667  0.333333  0.000000  1
  Si  Si5  1  0.000181  0.185891  0.000000  1
  Si  Si6  1  0.814109  0.814290  0.000000  1
  Si  Si7  1  0.185710  0.999819  0.000000  1
  Si  Si8  1  0.521312  0.688712  0.500000  1
  Si  Si9  1  0.311288  0.832600  0.500000  1
  Si  Si10  1  0.167400  0.478688  0.500000  1
  Si  Si11  1  0.478421  0.167743  0.500000  1
  Si  Si12  1  0.689322  0.521579  0.500000  1
  Si  Si13  1  0.832257  0.310678  0.500000  1
  Si  Si14  1  0.000723  0.628978  0.000000  1
  Si  Si15  1  0.371022  0.371744  0.000000  1
  Si  Si16  1  0.628256  0.999277  0.000000  1
  Ir  Ir17  1  0.999704  0.285817  0.500000  1
  Ir  Ir18  1  0.714183  0.713888  0.500000  1
  Ir  Ir19  1  0.286112  0.000296  0.500000  1
  Ir  Ir20  1  0.620110  0.803471  0.000000  1
  Ir  Ir21  1  0.196529  0.816639  0.000000  1
  Ir  Ir22  1  0.183361  0.379890  0.000000  1
  Ir  Ir23  1  0.381017  0.184627  0.000000  1
  Ir  Ir24  1  0.803610  0.618983  0.000000  1
  Ir  Ir25  1  0.815373  0.196390  0.000000  1
  Ir  Ir26  1  0.514496  0.876932  0.500000  1
  Ir  Ir27  1  0.123068  0.637564  0.500000  1
  Ir  Ir28  1  0.362436  0.485504  0.500000  1
  Ir  Ir29  1  0.489316  0.362563  0.500000  1
  Ir  Ir30  1  0.873248  0.510684  0.500000  1
  Ir  Ir31  1  0.637437  0.126752  0.500000  1
  Ir  Ir32  1  0.000000  0.000000  0.000000  1
  Ir  Ir33  1  0.998823  0.446632  0.000000  1
  Ir  Ir34  1  0.553368  0.552191  0.000000  1
  Ir  Ir35  1  0.447809  0.001177  0.000000  1
