# generated using pymatgen
data_La3Tb3OsI10
_symmetry_space_group_name_H-M   'P 1'
_cell_length_a   7.99552638
_cell_length_b   9.99671086
_cell_length_c   9.94458814
_cell_angle_alpha   106.88445362
_cell_angle_beta   96.51098176
_cell_angle_gamma   105.98210802
_symmetry_Int_Tables_number   1
_chemical_formula_structural   La3Tb3OsI10
_chemical_formula_sum   'La3 Tb3 Os1 I10'
_cell_volume   714.86141909
_cell_formula_units_Z   1
loop_
 _symmetry_equiv_pos_site_id
 _symmetry_equiv_pos_as_xyz
  1  'x, y, z'
loop_
 _atom_site_type_symbol
 _atom_site_label
 _atom_site_symmetry_multiplicity
 _atom_site_fract_x
 _atom_site_fract_y
 _atom_site_fract_z
 _atom_site_occupancy
  La  La0  1  0.135898  0.864293  0.322035  1
  La  La1  1  0.387575  0.957660  0.729657  1
  La  La2  1  0.618524  0.045679  0.272895  1
  Tb  Tb3  1  0.473660  0.290854  0.589354  1
  Tb  Tb4  1  0.531385  0.710634  0.414391  1
  Tb  Tb5  1  0.851672  0.130611  0.670970  1
  Os  Os6  1  0.501285  0.000553  0.499991  1
  I  I7  1  0.418421  0.622698  0.673552  1
  I  I8  1  0.582271  0.377366  0.327594  1
  I  I9  1  0.285231  0.264683  0.843048  1
  I  I10  1  0.698226  0.730582  0.149844  1
  I  I11  1  0.852081  0.450574  0.769693  1
  I  I12  1  0.156245  0.539431  0.230840  1
  I  I13  1  0.052845  0.188416  0.420596  1
  I  I14  1  0.239114  0.914083  0.034949  1
  I  I15  1  0.771220  0.090453  0.956765  1
  I  I16  1  0.944348  0.821431  0.593827  1
