# generated using pymatgen
data_Tm2PaNi9
_symmetry_space_group_name_H-M   'P 1'
_cell_length_a   8.58152709
_cell_length_b   8.58152722
_cell_length_c   8.58152617
_cell_angle_alpha   33.12416999
_cell_angle_beta   33.12416820
_cell_angle_gamma   33.12417229
_symmetry_Int_Tables_number   1
_chemical_formula_structural   Tm2PaNi9
_chemical_formula_sum   'Tm2 Pa1 Ni9'
_cell_volume   167.97258148
_cell_formula_units_Z   1
loop_
 _symmetry_equiv_pos_site_id
 _symmetry_equiv_pos_as_xyz
  1  'x, y, z'
loop_
 _atom_site_type_symbol
 _atom_site_label
 _atom_site_symmetry_multiplicity
 _atom_site_fract_x
 _atom_site_fract_y
 _atom_site_fract_z
 _atom_site_occupancy
  Tm  Tm0  1  0.139926  0.139926  0.139926  1
  Tm  Tm1  1  0.860074  0.860074  0.860074  1
  Pa  Pa2  1  0.000000  0.000000  0.000000  1
  Ni  Ni3  1  0.583940  0.583940  0.081313  1
  Ni  Ni4  1  0.333574  0.333574  0.333574  1
  Ni  Ni5  1  0.918688  0.416059  0.416060  1
  Ni  Ni6  1  0.416059  0.918688  0.416060  1
  Ni  Ni7  1  0.500000  0.500000  0.500000  1
  Ni  Ni8  1  0.583941  0.081312  0.583940  1
  Ni  Ni9  1  0.081312  0.583941  0.583940  1
  Ni  Ni10  1  0.666426  0.666426  0.666426  1
  Ni  Ni11  1  0.416060  0.416060  0.918687  1
