# generated using pymatgen
data_SmYHoTaO7
_symmetry_space_group_name_H-M   'P 1'
_cell_length_a   6.50789604
_cell_length_b   6.52101398
_cell_length_c   7.55016000
_cell_angle_alpha   90.00023941
_cell_angle_beta   89.99981667
_cell_angle_gamma   108.88407507
_symmetry_Int_Tables_number   1
_chemical_formula_structural   SmYHoTaO7
_chemical_formula_sum   'Sm2 Y2 Ho2 Ta2 O14'
_cell_volume   303.16811542
_cell_formula_units_Z   2
loop_
 _symmetry_equiv_pos_site_id
 _symmetry_equiv_pos_as_xyz
  1  'x, y, z'
loop_
 _atom_site_type_symbol
 _atom_site_label
 _atom_site_symmetry_multiplicity
 _atom_site_fract_x
 _atom_site_fract_y
 _atom_site_fract_z
 _atom_site_occupancy
  Sm  Sm0  1  0.527633  0.529610  0.499454  1
  Sm  Sm1  1  0.472374  0.470395  0.999453  1
  Y  Y2  1  0.999999  0.533995  0.242284  1
  Y  Y3  1  0.000002  0.466003  0.742282  1
  Ho  Ho4  1  0.534368  0.000537  0.757655  1
  Ho  Ho5  1  0.465626  0.999463  0.257654  1
  Ta  Ta6  1  0.002407  0.002264  0.499858  1
  Ta  Ta7  1  0.997590  0.997730  0.999863  1
  O  O8  1  0.932002  0.064190  0.749989  1
  O  O9  1  0.067998  0.935811  0.249991  1
  O  O10  1  0.359357  0.643796  0.249288  1
  O  O11  1  0.640640  0.356203  0.749288  1
  O  O12  1  0.368614  0.635121  0.750521  1
  O  O13  1  0.631387  0.364878  0.250522  1
  O  O14  1  0.326476  0.076820  0.974257  1
  O  O15  1  0.673525  0.923183  0.474256  1
  O  O16  1  0.309272  0.050290  0.543756  1
  O  O17  1  0.690725  0.949707  0.043754  1
  O  O18  1  0.057271  0.310565  0.458896  1
  O  O19  1  0.942735  0.689439  0.958895  1
  O  O20  1  0.920059  0.673968  0.524041  1
  O  O21  1  0.079942  0.326032  0.024043  1
