# generated using pymatgen
data_Pr2Be2Fe(GeO5)2
_symmetry_space_group_name_H-M   'P 1'
_cell_length_a   10.44882257
_cell_length_b   7.86341200
_cell_length_c   4.95221091
_cell_angle_alpha   90.00000000
_cell_angle_beta   90.18369817
_cell_angle_gamma   90.00000000
_symmetry_Int_Tables_number   1
_chemical_formula_structural   Pr2Be2Fe(GeO5)2
_chemical_formula_sum   'Pr4 Be4 Fe2 Ge4 O20'
_cell_volume   406.88837925
_cell_formula_units_Z   2
loop_
 _symmetry_equiv_pos_site_id
 _symmetry_equiv_pos_as_xyz
  1  'x, y, z'
loop_
 _atom_site_type_symbol
 _atom_site_label
 _atom_site_symmetry_multiplicity
 _atom_site_fract_x
 _atom_site_fract_y
 _atom_site_fract_z
 _atom_site_occupancy
  Pr  Pr0  1  0.324382  0.111833  0.996270  1
  Pr  Pr1  1  0.824382  0.388168  0.996270  1
  Pr  Pr2  1  0.175618  0.611832  0.003730  1
  Pr  Pr3  1  0.675618  0.888167  0.003730  1
  Be  Be4  1  0.160524  0.915418  0.461630  1
  Be  Be5  1  0.660524  0.584583  0.461630  1
  Be  Be6  1  0.839476  0.084582  0.538370  1
  Be  Be7  1  0.339475  0.415417  0.538372  1
  Fe  Fe8  1  0.000000  0.000000  0.000000  1
  Fe  Fe9  1  0.500000  0.499999  0.000000  1
  Ge  Ge10  1  0.077886  0.279929  0.484801  1
  Ge  Ge11  1  0.577885  0.220070  0.484801  1
  Ge  Ge12  1  0.422114  0.779930  0.515198  1
  Ge  Ge13  1  0.922114  0.720071  0.515199  1
  O  O14  1  0.839283  0.084317  0.215628  1
  O  O15  1  0.339283  0.415682  0.215630  1
  O  O16  1  0.026529  0.422670  0.236922  1
  O  O17  1  0.526529  0.077331  0.236923  1
  O  O18  1  0.293887  0.846539  0.305262  1
  O  O19  1  0.793887  0.653462  0.305262  1
  O  O20  1  0.139773  0.100900  0.304491  1
  O  O21  1  0.639773  0.399101  0.304491  1
  O  O22  1  0.049242  0.795642  0.310448  1
  O  O23  1  0.549242  0.704359  0.310449  1
  O  O24  1  0.450758  0.295641  0.689551  1
  O  O25  1  0.950758  0.204358  0.689551  1
  O  O26  1  0.360227  0.600899  0.695508  1
  O  O27  1  0.860227  0.899100  0.695508  1
  O  O28  1  0.206113  0.346538  0.694737  1
  O  O29  1  0.706113  0.153462  0.694737  1
  O  O30  1  0.473472  0.922669  0.763077  1
  O  O31  1  0.973472  0.577330  0.763077  1
  O  O32  1  0.160716  0.915683  0.784371  1
  O  O33  1  0.660716  0.584318  0.784372  1
