# generated using pymatgen
data_Lu8Sc9Si16Ag3
_symmetry_space_group_name_H-M   'P 1'
_cell_length_a   6.81929041
_cell_length_b   7.34539359
_cell_length_c   13.90401500
_cell_angle_alpha   90.00000000
_cell_angle_beta   90.00000000
_cell_angle_gamma   89.78049747
_symmetry_Int_Tables_number   1
_chemical_formula_structural   Lu8Sc9Si16Ag3
_chemical_formula_sum   'Lu8 Sc9 Si16 Ag3'
_cell_volume   696.45217329
_cell_formula_units_Z   1
loop_
 _symmetry_equiv_pos_site_id
 _symmetry_equiv_pos_as_xyz
  1  'x, y, z'
loop_
 _atom_site_type_symbol
 _atom_site_label
 _atom_site_symmetry_multiplicity
 _atom_site_fract_x
 _atom_site_fract_y
 _atom_site_fract_z
 _atom_site_occupancy
  Lu  Lu0  1  0.010230  0.180974  0.096933  1
  Lu  Lu1  1  0.991617  0.814072  0.903649  1
  Lu  Lu2  1  0.488149  0.673639  0.904641  1
  Lu  Lu3  1  0.991617  0.814072  0.596351  1
  Lu  Lu4  1  0.508905  0.317893  0.095633  1
  Lu  Lu5  1  0.010230  0.180974  0.403067  1
  Lu  Lu6  1  0.508905  0.317893  0.404367  1
  Lu  Lu7  1  0.488149  0.673639  0.595359  1
  Sc  Sc8  1  0.657491  0.995649  0.750000  1
  Sc  Sc9  1  0.323872  0.183777  0.627012  1
  Sc  Sc10  1  0.670391  0.823525  0.372610  1
  Sc  Sc11  1  0.170954  0.680095  0.372051  1
  Sc  Sc12  1  0.670391  0.823525  0.127390  1
  Sc  Sc13  1  0.836683  0.326515  0.627275  1
  Sc  Sc14  1  0.323872  0.183777  0.872988  1
  Sc  Sc15  1  0.836683  0.326515  0.872725  1
  Sc  Sc16  1  0.170954  0.680095  0.127949  1
  Si  Si17  1  0.026800  0.090666  0.750000  1
  Si  Si18  1  0.972314  0.907159  0.250000  1
  Si  Si19  1  0.474254  0.595781  0.250000  1
  Si  Si20  1  0.532963  0.390897  0.750000  1
  Si  Si21  1  0.289611  0.874613  0.750000  1
  Si  Si22  1  0.716393  0.125946  0.250000  1
  Si  Si23  1  0.218656  0.376880  0.250000  1
  Si  Si24  1  0.779778  0.631508  0.750000  1
  Si  Si25  1  0.162105  0.461154  0.529891  1
  Si  Si26  1  0.835938  0.537320  0.466084  1
  Si  Si27  1  0.336621  0.962939  0.467893  1
  Si  Si28  1  0.835938  0.537320  0.033916  1
  Si  Si29  1  0.659183  0.032103  0.539081  1
  Si  Si30  1  0.162105  0.461154  0.970109  1
  Si  Si31  1  0.659183  0.032103  0.960919  1
  Si  Si32  1  0.336621  0.962939  0.032107  1
  Ag  Ag33  1  0.160916  0.521777  0.750000  1
  Ag  Ag34  1  0.841479  0.478954  0.250000  1
  Ag  Ag35  1  0.340050  0.022159  0.250000  1
