# generated using pymatgen
data_Er2Hf2Sc(Co2Si5)2
_symmetry_space_group_name_H-M   'P 1'
_cell_length_a   12.10188300
_cell_length_b   12.10188300
_cell_length_c   3.96814400
_cell_angle_alpha   90.00000000
_cell_angle_beta   90.00000000
_cell_angle_gamma   90.00000000
_symmetry_Int_Tables_number   1
_chemical_formula_structural   Er2Hf2Sc(Co2Si5)2
_chemical_formula_sum   'Er4 Hf4 Sc2 Co8 Si20'
_cell_volume   581.15679988
_cell_formula_units_Z   2
loop_
 _symmetry_equiv_pos_site_id
 _symmetry_equiv_pos_as_xyz
  1  'x, y, z'
loop_
 _atom_site_type_symbol
 _atom_site_label
 _atom_site_symmetry_multiplicity
 _atom_site_fract_x
 _atom_site_fract_y
 _atom_site_fract_z
 _atom_site_occupancy
  Er  Er0  1  0.887065  0.387065  0.500000  1
  Er  Er1  1  0.387065  0.112935  0.500000  1
  Er  Er2  1  0.612935  0.887065  0.500000  1
  Er  Er3  1  0.112935  0.612935  0.500000  1
  Hf  Hf4  1  0.676982  0.176982  0.500000  1
  Hf  Hf5  1  0.176982  0.323018  0.500000  1
  Hf  Hf6  1  0.823018  0.676982  0.500000  1
  Hf  Hf7  1  0.323018  0.823018  0.500000  1
  Sc  Sc8  1  0.000000  0.000000  0.000000  1
  Sc  Sc9  1  0.500000  0.500000  0.000000  1
  Co  Co10  1  0.526210  0.256727  0.000000  1
  Co  Co11  1  0.256727  0.473790  0.000000  1
  Co  Co12  1  0.743273  0.526210  0.000000  1
  Co  Co13  1  0.473790  0.743273  0.000000  1
  Co  Co14  1  0.973790  0.756727  0.000000  1
  Co  Co15  1  0.026210  0.243273  0.000000  1
  Co  Co16  1  0.756727  0.026210  0.000000  1
  Co  Co17  1  0.243273  0.973790  0.000000  1
  Si  Si18  1  0.569608  0.069608  0.000000  1
  Si  Si19  1  0.069608  0.430392  0.000000  1
  Si  Si20  1  0.930392  0.569608  0.000000  1
  Si  Si21  1  0.430392  0.930392  0.000000  1
  Si  Si22  1  0.197176  0.155737  0.000000  1
  Si  Si23  1  0.155737  0.802824  0.000000  1
  Si  Si24  1  0.844263  0.197176  0.000000  1
  Si  Si25  1  0.802824  0.844263  0.000000  1
  Si  Si26  1  0.302824  0.655737  0.000000  1
  Si  Si27  1  0.697176  0.344263  0.000000  1
  Si  Si28  1  0.655737  0.697176  0.000000  1
  Si  Si29  1  0.344263  0.302824  0.000000  1
  Si  Si30  1  0.005783  0.161733  0.500000  1
  Si  Si31  1  0.161733  0.994217  0.500000  1
  Si  Si32  1  0.838267  0.005783  0.500000  1
  Si  Si33  1  0.994217  0.838267  0.500000  1
  Si  Si34  1  0.494217  0.661733  0.500000  1
  Si  Si35  1  0.505783  0.338267  0.500000  1
  Si  Si36  1  0.661733  0.505783  0.500000  1
  Si  Si37  1  0.338267  0.494217  0.500000  1
