# generated using pymatgen
data_Ho3Er3Th2(MgIr)2
_symmetry_space_group_name_H-M   'P 1'
_cell_length_a   9.75766408
_cell_length_b   9.75766377
_cell_length_c   9.75766400
_cell_angle_alpha   59.99999922
_cell_angle_beta   60.00000028
_cell_angle_gamma   59.99999913
_symmetry_Int_Tables_number   1
_chemical_formula_structural   Ho3Er3Th2(MgIr)2
_chemical_formula_sum   'Ho6 Er6 Th4 Mg4 Ir4'
_cell_volume   656.93525457
_cell_formula_units_Z   2
loop_
 _symmetry_equiv_pos_site_id
 _symmetry_equiv_pos_as_xyz
  1  'x, y, z'
loop_
 _atom_site_type_symbol
 _atom_site_label
 _atom_site_symmetry_multiplicity
 _atom_site_fract_x
 _atom_site_fract_y
 _atom_site_fract_z
 _atom_site_occupancy
  Ho  Ho0  1  0.934554  0.565446  0.565446  1
  Ho  Ho1  1  0.565446  0.934554  0.934554  1
  Ho  Ho2  1  0.565446  0.934554  0.565446  1
  Ho  Ho3  1  0.934554  0.565446  0.934554  1
  Ho  Ho4  1  0.565446  0.565446  0.934554  1
  Ho  Ho5  1  0.934554  0.934554  0.565446  1
  Er  Er6  1  0.813086  0.186914  0.186914  1
  Er  Er7  1  0.186914  0.813086  0.813086  1
  Er  Er8  1  0.186914  0.813086  0.186914  1
  Er  Er9  1  0.813086  0.186914  0.813086  1
  Er  Er10  1  0.186914  0.186914  0.813086  1
  Er  Er11  1  0.813086  0.813086  0.186914  1
  Th  Th12  1  0.348450  0.348450  0.348450  1
  Th  Th13  1  0.348450  0.348450  0.954650  1
  Th  Th14  1  0.348450  0.954650  0.348450  1
  Th  Th15  1  0.954650  0.348450  0.348450  1
  Mg  Mg16  1  0.580761  0.580761  0.580761  1
  Mg  Mg17  1  0.580761  0.580761  0.257716  1
  Mg  Mg18  1  0.580761  0.257716  0.580761  1
  Mg  Mg19  1  0.257716  0.580761  0.580761  1
  Ir  Ir20  1  0.142706  0.142706  0.142706  1
  Ir  Ir21  1  0.142706  0.142706  0.571884  1
  Ir  Ir22  1  0.142706  0.571884  0.142706  1
  Ir  Ir23  1  0.571884  0.142706  0.142706  1
