# generated using pymatgen
data_Y16Er4Ir11Rh
_symmetry_space_group_name_H-M   'P 1'
_cell_length_a   10.92765500
_cell_length_b   10.92765500
_cell_length_c   6.36321600
_cell_angle_alpha   90.00000000
_cell_angle_beta   90.00000000
_cell_angle_gamma   90.00000000
_symmetry_Int_Tables_number   1
_chemical_formula_structural   Y16Er4Ir11Rh
_chemical_formula_sum   'Y16 Er4 Ir11 Rh1'
_cell_volume   759.85480884
_cell_formula_units_Z   1
loop_
 _symmetry_equiv_pos_site_id
 _symmetry_equiv_pos_as_xyz
  1  'x, y, z'
loop_
 _atom_site_type_symbol
 _atom_site_label
 _atom_site_symmetry_multiplicity
 _atom_site_fract_x
 _atom_site_fract_y
 _atom_site_fract_z
 _atom_site_occupancy
  Y  Y0  1  0.290596  0.088058  0.380537  1
  Y  Y1  1  0.290381  0.911698  0.877964  1
  Y  Y2  1  0.709619  0.088302  0.877964  1
  Y  Y3  1  0.709404  0.911942  0.380537  1
  Y  Y4  1  0.588302  0.790381  0.877964  1
  Y  Y5  1  0.588058  0.209404  0.380537  1
  Y  Y6  1  0.411942  0.790596  0.380537  1
  Y  Y7  1  0.411698  0.209619  0.877964  1
  Y  Y8  1  0.208984  0.411966  0.620374  1
  Y  Y9  1  0.209063  0.588574  0.120716  1
  Y  Y10  1  0.790937  0.411426  0.120716  1
  Y  Y11  1  0.791016  0.588034  0.620374  1
  Y  Y12  1  0.911426  0.709063  0.120716  1
  Y  Y13  1  0.911966  0.291016  0.620374  1
  Y  Y14  1  0.088034  0.708984  0.620374  1
  Y  Y15  1  0.088574  0.290937  0.120716  1
  Er  Er16  1  0.000000  0.000000  0.500346  1
  Er  Er17  1  0.000000  0.000000  0.000593  1
  Er  Er18  1  0.500000  0.500000  0.000593  1
  Er  Er19  1  0.500000  0.500000  0.500346  1
  Ir  Ir20  1  0.847519  0.151146  0.249758  1
  Ir  Ir21  1  0.848057  0.848520  0.749855  1
  Ir  Ir22  1  0.151943  0.151480  0.749855  1
  Ir  Ir23  1  0.152481  0.848854  0.249758  1
  Ir  Ir24  1  0.651480  0.348057  0.749855  1
  Ir  Ir25  1  0.651146  0.652481  0.249758  1
  Ir  Ir26  1  0.348854  0.347519  0.249758  1
  Ir  Ir27  1  0.348520  0.651943  0.749855  1
  Ir  Ir28  1  0.500000  0.000000  0.625634  1
  Ir  Ir29  1  0.000000  0.500000  0.875113  1
  Ir  Ir30  1  0.000000  0.500000  0.374682  1
  Rh  Rh31  1  0.500000  0.000000  0.125877  1
