# generated using pymatgen
data_DyCo2SiC
_symmetry_space_group_name_H-M   'P 1'
_cell_length_a   5.57061251
_cell_length_b   5.57061259
_cell_length_c   6.72438800
_cell_angle_alpha   90.00000000
_cell_angle_beta   90.00000000
_cell_angle_gamma   140.99927345
_symmetry_Int_Tables_number   1
_chemical_formula_structural   DyCo2SiC
_chemical_formula_sum   'Dy2 Co4 Si2 C2'
_cell_volume   131.32193562
_cell_formula_units_Z   2
loop_
 _symmetry_equiv_pos_site_id
 _symmetry_equiv_pos_as_xyz
  1  'x, y, z'
loop_
 _atom_site_type_symbol
 _atom_site_label
 _atom_site_symmetry_multiplicity
 _atom_site_fract_x
 _atom_site_fract_y
 _atom_site_fract_z
 _atom_site_occupancy
  Dy  Dy0  1  0.551109  0.448891  0.250000  1
  Dy  Dy1  1  0.448891  0.551109  0.750000  1
  Co  Co2  1  0.836427  0.163573  0.056213  1
  Co  Co3  1  0.163573  0.836427  0.943787  1
  Co  Co4  1  0.163573  0.836427  0.556213  1
  Co  Co5  1  0.836427  0.163573  0.443787  1
  Si  Si6  1  0.271766  0.728234  0.250000  1
  Si  Si7  1  0.728234  0.271766  0.750000  1
  C  C8  1  0.000000  0.000000  0.000000  1
  C  C9  1  0.000000  0.000000  0.500000  1
