# generated using pymatgen
data_Zr6Zn21CoAsPd
_symmetry_space_group_name_H-M   'P 1'
_cell_length_a   8.70294834
_cell_length_b   8.75891625
_cell_length_c   8.75891800
_cell_angle_alpha   60.35379250
_cell_angle_beta   60.21115722
_cell_angle_gamma   60.21115289
_symmetry_Int_Tables_number   1
_chemical_formula_structural   Zr6Zn21CoAsPd
_chemical_formula_sum   'Zr6 Zn21 Co1 As1 Pd1'
_cell_volume   474.88249866
_cell_formula_units_Z   1
loop_
 _symmetry_equiv_pos_site_id
 _symmetry_equiv_pos_as_xyz
  1  'x, y, z'
loop_
 _atom_site_type_symbol
 _atom_site_label
 _atom_site_symmetry_multiplicity
 _atom_site_fract_x
 _atom_site_fract_y
 _atom_site_fract_z
 _atom_site_occupancy
  Zr  Zr0  1  0.715243  0.284757  0.284757  1
  Zr  Zr1  1  0.284757  0.715243  0.715243  1
  Zr  Zr2  1  0.291321  0.715464  0.284536  1
  Zr  Zr3  1  0.708679  0.284536  0.715464  1
  Zr  Zr4  1  0.291321  0.284536  0.715464  1
  Zr  Zr5  1  0.708679  0.715464  0.284536  1
  Zn  Zn6  1  0.133246  0.118596  0.118596  1
  Zn  Zn7  1  0.866754  0.881404  0.881404  1
  Zn  Zn8  1  0.122244  0.121740  0.633770  1
  Zn  Zn9  1  0.122244  0.633770  0.121740  1
  Zn  Zn10  1  0.877756  0.878260  0.366230  1
  Zn  Zn11  1  0.877756  0.366230  0.878260  1
  Zn  Zn12  1  0.629560  0.118596  0.118596  1
  Zn  Zn13  1  0.370440  0.881404  0.881404  1
  Zn  Zn14  1  0.000000  0.500000  0.500000  1
  Zn  Zn15  1  0.000000  0.500000  0.000000  1
  Zn  Zn16  1  0.500000  0.000000  0.500000  1
  Zn  Zn17  1  0.000000  0.000000  0.500000  1
  Zn  Zn18  1  0.500000  0.500000  0.000000  1
  Zn  Zn19  1  0.336689  0.336507  0.336507  1
  Zn  Zn20  1  0.663311  0.663493  0.663493  1
  Zn  Zn21  1  0.339690  0.327106  0.993514  1
  Zn  Zn22  1  0.339690  0.993514  0.327106  1
  Zn  Zn23  1  0.660310  0.672894  0.006486  1
  Zn  Zn24  1  0.660310  0.006486  0.672894  1
  Zn  Zn25  1  0.990298  0.336507  0.336507  1
  Zn  Zn26  1  0.009702  0.663493  0.663493  1
  Co  Co27  1  0.500000  0.000000  0.000000  1
  As  As28  1  0.500000  0.500000  0.500000  1
  Pd  Pd29  1  0.000000  0.000000  0.000000  1
