# generated using pymatgen
data_GaSb14
_symmetry_space_group_name_H-M   'P 1'
_cell_length_a   4.25539222
_cell_length_b   4.25539253
_cell_length_c   27.98868300
_cell_angle_alpha   91.88886840
_cell_angle_beta   91.88886854
_cell_angle_gamma   60.69231373
_symmetry_Int_Tables_number   1
_chemical_formula_structural   GaSb14
_chemical_formula_sum   'Ga1 Sb14'
_cell_volume   441.63447528
_cell_formula_units_Z   1
loop_
 _symmetry_equiv_pos_site_id
 _symmetry_equiv_pos_as_xyz
  1  'x, y, z'
loop_
 _atom_site_type_symbol
 _atom_site_label
 _atom_site_symmetry_multiplicity
 _atom_site_fract_x
 _atom_site_fract_y
 _atom_site_fract_z
 _atom_site_occupancy
  Ga  Ga0  1  0.000000  0.000000  0.800000  1
  Sb  Sb1  1  0.653801  0.653801  0.062603  1
  Sb  Sb2  1  0.682184  0.682184  0.264075  1
  Sb  Sb3  1  0.650439  0.650439  0.471832  1
  Sb  Sb4  1  0.680162  0.680162  0.673906  1
  Sb  Sb5  1  0.687006  0.687006  0.856798  1
  Sb  Sb6  1  0.349561  0.349561  0.128168  1
  Sb  Sb7  1  0.317816  0.317816  0.335925  1
  Sb  Sb8  1  0.346199  0.346199  0.537397  1
  Sb  Sb9  1  0.312994  0.312994  0.743202  1
  Sb  Sb10  1  0.319838  0.319838  0.926094  1
  Sb  Sb11  1  0.014294  0.014294  0.992827  1
  Sb  Sb12  1  0.986427  0.986427  0.199512  1
  Sb  Sb13  1  0.013573  0.013573  0.400488  1
  Sb  Sb14  1  0.985706  0.985706  0.607173  1
