# generated using pymatgen
data_Zr2Fe3Si4
_symmetry_space_group_name_H-M   'P 1'
_cell_length_a   9.68873899
_cell_length_b   9.68873872
_cell_length_c   12.97391150
_cell_angle_alpha   53.08331568
_cell_angle_beta   53.08331591
_cell_angle_gamma   31.12484633
_symmetry_Int_Tables_number   1
_chemical_formula_structural   Zr2Fe3Si4
_chemical_formula_sum   'Zr8 Fe12 Si16'
_cell_volume   492.17464774
_cell_formula_units_Z   4
loop_
 _symmetry_equiv_pos_site_id
 _symmetry_equiv_pos_as_xyz
  1  'x, y, z'
loop_
 _atom_site_type_symbol
 _atom_site_label
 _atom_site_symmetry_multiplicity
 _atom_site_fract_x
 _atom_site_fract_y
 _atom_site_fract_z
 _atom_site_occupancy
  Zr  Zr0  1  0.038282  0.292857  0.641631  1
  Zr  Zr1  1  0.707143  0.961718  0.858369  1
  Zr  Zr2  1  0.961718  0.707143  0.358369  1
  Zr  Zr3  1  0.292857  0.038282  0.141631  1
  Zr  Zr4  1  0.296828  0.560189  0.645649  1
  Zr  Zr5  1  0.439811  0.703172  0.854351  1
  Zr  Zr6  1  0.703172  0.439811  0.354351  1
  Zr  Zr7  1  0.560189  0.296828  0.145649  1
  Fe  Fe8  1  0.910142  0.130982  0.585020  1
  Fe  Fe9  1  0.869018  0.089858  0.914980  1
  Fe  Fe10  1  0.089858  0.869018  0.414980  1
  Fe  Fe11  1  0.130982  0.910142  0.085020  1
  Fe  Fe12  1  0.830013  0.647035  0.776910  1
  Fe  Fe13  1  0.352965  0.169987  0.723090  1
  Fe  Fe14  1  0.169987  0.352965  0.223090  1
  Fe  Fe15  1  0.647035  0.830013  0.276910  1
  Fe  Fe16  1  0.232463  0.519448  0.935749  1
  Fe  Fe17  1  0.480552  0.767537  0.564251  1
  Fe  Fe18  1  0.767537  0.480552  0.064251  1
  Fe  Fe19  1  0.519448  0.232463  0.435749  1
  Si  Si20  1  0.968844  0.256206  0.897911  1
  Si  Si21  1  0.743794  0.031156  0.602089  1
  Si  Si22  1  0.031156  0.743794  0.102089  1
  Si  Si23  1  0.256206  0.968844  0.397911  1
  Si  Si24  1  0.135210  0.390580  0.895214  1
  Si  Si25  1  0.609420  0.864790  0.604786  1
  Si  Si26  1  0.864790  0.609420  0.104786  1
  Si  Si27  1  0.390580  0.135210  0.395214  1
  Si  Si28  1  0.097383  0.567009  0.563418  1
  Si  Si29  1  0.432991  0.902617  0.936582  1
  Si  Si30  1  0.902617  0.432991  0.436582  1
  Si  Si31  1  0.567009  0.097383  0.063418  1
  Si  Si32  1  0.621011  0.378989  0.750000  1
  Si  Si33  1  0.378989  0.621011  0.250000  1
  Si  Si34  1  0.124795  0.875205  0.750000  1
  Si  Si35  1  0.875205  0.124795  0.250000  1
