# generated using pymatgen
data_Yb4Cu3Ni10Pt
_symmetry_space_group_name_H-M   'P 1'
_cell_length_a   4.90771291
_cell_length_b   4.90771181
_cell_length_c   12.53566634
_cell_angle_alpha   78.71226190
_cell_angle_beta   78.71226366
_cell_angle_gamma   60.00685708
_symmetry_Int_Tables_number   1
_chemical_formula_structural   Yb4Cu3Ni10Pt
_chemical_formula_sum   'Yb4 Cu3 Ni10 Pt1'
_cell_volume   254.72961246
_cell_formula_units_Z   1
loop_
 _symmetry_equiv_pos_site_id
 _symmetry_equiv_pos_as_xyz
  1  'x, y, z'
loop_
 _atom_site_type_symbol
 _atom_site_label
 _atom_site_symmetry_multiplicity
 _atom_site_fract_x
 _atom_site_fract_y
 _atom_site_fract_z
 _atom_site_occupancy
  Yb  Yb0  1  0.949471  0.949471  0.151579  1
  Yb  Yb1  1  0.051015  0.051015  0.846963  1
  Yb  Yb2  1  0.853381  0.853381  0.439929  1
  Yb  Yb3  1  0.146550  0.146550  0.560365  1
  Cu  Cu4  1  0.721098  0.721098  0.836696  1
  Cu  Cu5  1  0.279049  0.279049  0.162835  1
  Cu  Cu6  1  0.612274  0.612274  0.163111  1
  Ni  Ni7  1  0.387359  0.387359  0.837755  1
  Ni  Ni8  1  0.001225  0.499918  0.998858  1
  Ni  Ni9  1  0.499918  0.001225  0.998858  1
  Ni  Ni10  1  0.499948  0.499948  0.998855  1
  Ni  Ni11  1  0.389122  0.389122  0.326525  1
  Ni  Ni12  1  0.895218  0.389085  0.326513  1
  Ni  Ni13  1  0.389085  0.895218  0.326513  1
  Ni  Ni14  1  0.609093  0.609093  0.674905  1
  Ni  Ni15  1  0.107036  0.609102  0.674930  1
  Ni  Ni16  1  0.609102  0.107036  0.674930  1
  Pt  Pt17  1  0.500057  0.500057  0.499881  1
