# generated using pymatgen
data_LaPr8HoC4I15
_symmetry_space_group_name_H-M   'P 1'
_cell_length_a   9.82936185
_cell_length_b   10.71548584
_cell_length_c   11.81400717
_cell_angle_alpha   93.88315094
_cell_angle_beta   114.10886027
_cell_angle_gamma   109.46060085
_symmetry_Int_Tables_number   1
_chemical_formula_structural   LaPr8HoC4I15
_chemical_formula_sum   'La1 Pr8 Ho1 C4 I15'
_cell_volume   1040.43725346
_cell_formula_units_Z   1
loop_
 _symmetry_equiv_pos_site_id
 _symmetry_equiv_pos_as_xyz
  1  'x, y, z'
loop_
 _atom_site_type_symbol
 _atom_site_label
 _atom_site_symmetry_multiplicity
 _atom_site_fract_x
 _atom_site_fract_y
 _atom_site_fract_z
 _atom_site_occupancy
  La  La0  1  0.657693  0.254505  0.831729  1
  Pr  Pr1  1  0.345127  0.746252  0.164400  1
  Pr  Pr2  1  0.777178  0.883300  0.257537  1
  Pr  Pr3  1  0.528084  0.185595  0.103098  1
  Pr  Pr4  1  0.222894  0.115492  0.743592  1
  Pr  Pr5  1  0.402050  0.458820  0.657315  1
  Pr  Pr6  1  0.472684  0.814198  0.898114  1
  Pr  Pr7  1  0.704200  0.568005  0.044792  1
  Pr  Pr8  1  0.295447  0.432632  0.955872  1
  Ho  Ho9  1  0.593195  0.545742  0.333997  1
  C  C10  1  0.483164  0.300790  0.937838  1
  C  C11  1  0.518315  0.698006  0.062282  1
  C  C12  1  0.453271  0.362501  0.834461  1
  C  C13  1  0.546575  0.635885  0.165742  1
  I  I14  1  0.206250  0.906408  0.937904  1
  I  I15  1  0.102870  0.186102  0.467971  1
  I  I16  1  0.150841  0.554865  0.703572  1
  I  I17  1  0.401668  0.965760  0.644955  1
  I  I18  1  0.715638  0.734170  0.821835  1
  I  I19  1  0.297117  0.274996  0.187480  1
  I  I20  1  0.839253  0.448600  0.302966  1
  I  I21  1  0.883055  0.799167  0.526687  1
  I  I22  1  0.369195  0.627842  0.412201  1
  I  I23  1  0.054877  0.832127  0.222001  1
  I  I24  1  0.794819  0.095556  0.063842  1
  I  I25  1  0.641602  0.375932  0.581491  1
  I  I26  1  0.945695  0.165801  0.779705  1
  I  I27  1  0.594708  0.030335  0.353568  1
  I  I28  1  0.002531  0.500616  0.003053  1
