# generated using pymatgen
data_Tm2Lu6Tc3B24Ru
_symmetry_space_group_name_H-M   'P 1'
_cell_length_a   3.61408700
_cell_length_b   9.05245212
_cell_length_c   11.41557300
_cell_angle_alpha   89.92345414
_cell_angle_beta   90.00000000
_cell_angle_gamma   90.00000000
_symmetry_Int_Tables_number   1
_chemical_formula_structural   Tm2Lu6Tc3B24Ru
_chemical_formula_sum   'Tm2 Lu6 Tc3 B24 Ru1'
_cell_volume   373.47554296
_cell_formula_units_Z   1
loop_
 _symmetry_equiv_pos_site_id
 _symmetry_equiv_pos_as_xyz
  1  'x, y, z'
loop_
 _atom_site_type_symbol
 _atom_site_label
 _atom_site_symmetry_multiplicity
 _atom_site_fract_x
 _atom_site_fract_y
 _atom_site_fract_z
 _atom_site_occupancy
  Tm  Tm0  1  0.000000  0.323153  0.413783  1
  Tm  Tm1  1  0.000000  0.675721  0.584158  1
  Lu  Lu2  1  0.000000  0.822407  0.087532  1
  Lu  Lu3  1  0.000000  0.178620  0.914387  1
  Lu  Lu4  1  0.000000  0.942883  0.370502  1
  Lu  Lu5  1  0.000000  0.057492  0.630168  1
  Lu  Lu6  1  0.000000  0.443437  0.129596  1
  Lu  Lu7  1  0.000000  0.557431  0.869842  1
  Tc  Tc8  1  0.000000  0.638764  0.320206  1
  Tc  Tc9  1  0.000000  0.361269  0.680450  1
  Tc  Tc10  1  0.000000  0.138059  0.178296  1
  B  B11  1  0.500000  0.552987  0.433396  1
  B  B12  1  0.500000  0.446752  0.566431  1
  B  B13  1  0.500000  0.052751  0.065891  1
  B  B14  1  0.500000  0.946129  0.933445  1
  B  B15  1  0.500000  0.750024  0.419506  1
  B  B16  1  0.500000  0.249556  0.580704  1
  B  B17  1  0.500000  0.250568  0.080150  1
  B  B18  1  0.500000  0.750245  0.919400  1
  B  B19  1  0.500000  0.792934  0.264995  1
  B  B20  1  0.500000  0.207077  0.735877  1
  B  B21  1  0.500000  0.292810  0.234922  1
  B  B22  1  0.500000  0.708140  0.764851  1
  B  B23  1  0.500000  0.630832  0.184471  1
  B  B24  1  0.500000  0.369303  0.816209  1
  B  B25  1  0.500000  0.130057  0.315002  1
  B  B26  1  0.500000  0.869230  0.684717  1
  B  B27  1  0.500000  0.980504  0.211845  1
  B  B28  1  0.500000  0.017863  0.788171  1
  B  B29  1  0.500000  0.481038  0.287684  1
  B  B30  1  0.500000  0.518925  0.712106  1
  B  B31  1  0.500000  0.601349  0.027798  1
  B  B32  1  0.500000  0.400485  0.972046  1
  B  B33  1  0.500000  0.100366  0.472343  1
  B  B34  1  0.500000  0.899412  0.528343  1
  Ru  Ru35  1  0.000000  0.861427  0.820780  1
