# generated using pymatgen
data_SrCo2(Sb6Os)2
_symmetry_space_group_name_H-M   'P 1'
_cell_length_a   8.10293165
_cell_length_b   8.04322494
_cell_length_c   8.04322510
_cell_angle_alpha   109.11069310
_cell_angle_beta   109.45472453
_cell_angle_gamma   109.54746455
_symmetry_Int_Tables_number   1
_chemical_formula_structural   SrCo2(Sb6Os)2
_chemical_formula_sum   'Sr1 Co2 Sb12 Os2'
_cell_volume   405.02065160
_cell_formula_units_Z   1
loop_
 _symmetry_equiv_pos_site_id
 _symmetry_equiv_pos_as_xyz
  1  'x, y, z'
loop_
 _atom_site_type_symbol
 _atom_site_label
 _atom_site_symmetry_multiplicity
 _atom_site_fract_x
 _atom_site_fract_y
 _atom_site_fract_z
 _atom_site_occupancy
  Sr  Sr0  1  0.000000  0.000000  0.000000  1
  Co  Co1  1  0.500000  0.500000  0.500000  1
  Co  Co2  1  0.500000  0.000000  0.000000  1
  Sb  Sb3  1  0.164656  0.498657  0.344676  1
  Sb  Sb4  1  0.501978  0.662858  0.839120  1
  Sb  Sb5  1  0.343712  0.845218  0.179600  1
  Sb  Sb6  1  0.816000  0.658494  0.157506  1
  Sb  Sb7  1  0.656288  0.835887  0.501507  1
  Sb  Sb8  1  0.184000  0.341506  0.842494  1
  Sb  Sb9  1  0.656288  0.154782  0.820400  1
  Sb  Sb10  1  0.343712  0.164113  0.498493  1
  Sb  Sb11  1  0.498022  0.337142  0.160880  1
  Sb  Sb12  1  0.835344  0.501343  0.655324  1
  Sb  Sb13  1  0.835344  0.180022  0.334001  1
  Sb  Sb14  1  0.164656  0.819978  0.665999  1
  Os  Os15  1  0.000000  0.500000  0.000000  1
  Os  Os16  1  0.000000  0.000000  0.500000  1
