# generated using pymatgen
data_LiLa2(ErSi2)2
_symmetry_space_group_name_H-M   'P 1'
_cell_length_a   7.23307300
_cell_length_b   7.75897600
_cell_length_c   14.83327100
_cell_angle_alpha   90.00000000
_cell_angle_beta   90.00000000
_cell_angle_gamma   90.00000000
_symmetry_Int_Tables_number   1
_chemical_formula_structural   LiLa2(ErSi2)2
_chemical_formula_sum   'Li4 La8 Er8 Si16'
_cell_volume   832.46155901
_cell_formula_units_Z   4
loop_
 _symmetry_equiv_pos_site_id
 _symmetry_equiv_pos_as_xyz
  1  'x, y, z'
loop_
 _atom_site_type_symbol
 _atom_site_label
 _atom_site_symmetry_multiplicity
 _atom_site_fract_x
 _atom_site_fract_y
 _atom_site_fract_z
 _atom_site_occupancy
  Li  Li0  1  0.655414  0.990426  0.750000  1
  Li  Li1  1  0.844586  0.490426  0.250000  1
  Li  Li2  1  0.344586  0.009574  0.250000  1
  Li  Li3  1  0.155414  0.509574  0.750000  1
  La  La4  1  0.021411  0.184217  0.397462  1
  La  La5  1  0.521411  0.315783  0.397462  1
  La  La6  1  0.478589  0.684217  0.897462  1
  La  La7  1  0.478589  0.684217  0.602538  1
  La  La8  1  0.978589  0.815783  0.602538  1
  La  La9  1  0.978589  0.815783  0.897462  1
  La  La10  1  0.521411  0.315783  0.102538  1
  La  La11  1  0.021411  0.184217  0.102538  1
  Er  Er12  1  0.328170  0.181946  0.626374  1
  Er  Er13  1  0.671830  0.818054  0.373626  1
  Er  Er14  1  0.171830  0.681946  0.373626  1
  Er  Er15  1  0.828170  0.318054  0.873626  1
  Er  Er16  1  0.828170  0.318054  0.626374  1
  Er  Er17  1  0.328170  0.181946  0.873626  1
  Er  Er18  1  0.171830  0.681946  0.126374  1
  Er  Er19  1  0.671830  0.818054  0.126374  1
  Si  Si20  1  0.274154  0.889987  0.750000  1
  Si  Si21  1  0.470833  0.600409  0.250000  1
  Si  Si22  1  0.029167  0.100409  0.750000  1
  Si  Si23  1  0.529167  0.399591  0.750000  1
  Si  Si24  1  0.150224  0.464915  0.534078  1
  Si  Si25  1  0.970833  0.899591  0.250000  1
  Si  Si26  1  0.725846  0.110013  0.250000  1
  Si  Si27  1  0.849776  0.535085  0.034078  1
  Si  Si28  1  0.349776  0.964915  0.034078  1
  Si  Si29  1  0.150224  0.464915  0.965922  1
  Si  Si30  1  0.650224  0.035085  0.534078  1
  Si  Si31  1  0.349776  0.964915  0.465922  1
  Si  Si32  1  0.849776  0.535085  0.465922  1
  Si  Si33  1  0.774154  0.610013  0.750000  1
  Si  Si34  1  0.225846  0.389987  0.250000  1
  Si  Si35  1  0.650224  0.035085  0.965922  1
