# generated using pymatgen
data_Ac3Yb12Ce(Bi3Sb)3
_symmetry_space_group_name_H-M   'P 1'
_cell_length_a   9.79641065
_cell_length_b   9.79640129
_cell_length_c   9.79368887
_cell_angle_alpha   89.84534470
_cell_angle_beta   89.78633549
_cell_angle_gamma   90.23762882
_symmetry_Int_Tables_number   1
_chemical_formula_structural   Ac3Yb12Ce(Bi3Sb)3
_chemical_formula_sum   'Ac3 Yb12 Ce1 Bi9 Sb3'
_cell_volume   939.87802680
_cell_formula_units_Z   1
loop_
 _symmetry_equiv_pos_site_id
 _symmetry_equiv_pos_as_xyz
  1  'x, y, z'
loop_
 _atom_site_type_symbol
 _atom_site_label
 _atom_site_symmetry_multiplicity
 _atom_site_fract_x
 _atom_site_fract_y
 _atom_site_fract_z
 _atom_site_occupancy
  Ac  Ac0  1  0.927621  0.069239  0.572282  1
  Ac  Ac1  1  0.430036  0.433105  0.429833  1
  Ac  Ac2  1  0.570133  0.926968  0.068872  1
  Yb  Yb3  1  0.820860  0.323789  0.177035  1
  Yb  Yb4  1  0.927665  0.926344  0.928646  1
  Yb  Yb5  1  0.820681  0.676504  0.321317  1
  Yb  Yb6  1  0.182160  0.819391  0.321399  1
  Yb  Yb7  1  0.174752  0.175413  0.174665  1
  Yb  Yb8  1  0.328096  0.825344  0.673643  1
  Yb  Yb9  1  0.071133  0.429950  0.572036  1
  Yb  Yb10  1  0.322691  0.177723  0.820463  1
  Yb  Yb11  1  0.675705  0.324781  0.825116  1
  Yb  Yb12  1  0.679249  0.682550  0.682745  1
  Yb  Yb13  1  0.569952  0.066361  0.432214  1
  Yb  Yb14  1  0.431984  0.571384  0.069617  1
  Ce  Ce15  1  0.066645  0.569919  0.930912  1
  Bi  Bi16  1  0.755668  0.376956  0.500855  1
  Bi  Bi17  1  0.875999  0.999640  0.244445  1
  Bi  Bi18  1  0.002356  0.742320  0.629248  1
  Bi  Bi19  1  0.255490  0.124258  0.498972  1
  Bi  Bi20  1  0.122565  0.500499  0.249353  1
  Bi  Bi21  1  0.000264  0.250215  0.877591  1
  Bi  Bi22  1  0.242151  0.870620  0.997482  1
  Bi  Bi23  1  0.371009  0.502095  0.758082  1
  Bi  Bi24  1  0.499370  0.254691  0.123445  1
  Sb  Sb25  1  0.750715  0.623535  0.999427  1
  Sb  Sb26  1  0.624240  0.000819  0.745396  1
  Sb  Sb27  1  0.500812  0.755592  0.374907  1
