# generated using pymatgen
data_HfSc3Nb2(SiRu)6
_symmetry_space_group_name_H-M   'P 1'
_cell_length_a   7.54532442
_cell_length_b   7.54986660
_cell_length_c   7.54532469
_cell_angle_alpha   127.04670935
_cell_angle_beta   123.00472655
_cell_angle_gamma   81.52093621
_symmetry_Int_Tables_number   1
_chemical_formula_structural   HfSc3Nb2(SiRu)6
_chemical_formula_sum   'Hf1 Sc3 Nb2 Si6 Ru6'
_cell_volume   277.01845165
_cell_formula_units_Z   1
loop_
 _symmetry_equiv_pos_site_id
 _symmetry_equiv_pos_as_xyz
  1  'x, y, z'
loop_
 _atom_site_type_symbol
 _atom_site_label
 _atom_site_symmetry_multiplicity
 _atom_site_fract_x
 _atom_site_fract_y
 _atom_site_fract_z
 _atom_site_occupancy
  Hf  Hf0  1  0.037110  0.062064  0.524956  1
  Sc  Sc1  1  0.556034  0.099437  0.043403  1
  Sc  Sc2  1  0.443717  0.488090  0.544373  1
  Sc  Sc3  1  0.963358  0.488454  0.025096  1
  Nb  Nb4  1  0.754944  0.921754  0.666810  1
  Nb  Nb5  1  0.245057  0.910922  0.165864  1
  Si  Si6  1  0.769434  0.529136  0.259702  1
  Si  Si7  1  0.230669  0.492739  0.762070  1
  Si  Si8  1  0.341005  0.823278  0.496710  1
  Si  Si9  1  0.658878  0.158026  0.484503  1
  Si  Si10  1  0.826568  0.823278  0.982272  1
  Si  Si11  1  0.173525  0.158026  0.999150  1
  Ru  Ru12  1  0.498668  0.247223  0.747432  1
  Ru  Ru13  1  0.999791  0.247223  0.248555  1
  Ru  Ru14  1  0.144102  0.748142  0.643205  1
  Ru  Ru15  1  0.854706  0.498133  0.600635  1
  Ru  Ru16  1  0.604937  0.748142  0.104040  1
  Ru  Ru17  1  0.397497  0.498133  0.143427  1
