# generated using pymatgen
data_Sr5Pb19
_symmetry_space_group_name_H-M   'P 1'
_cell_length_a   7.16200000
_cell_length_b   7.16200055
_cell_length_c   17.58168000
_cell_angle_alpha   90.00000000
_cell_angle_beta   90.00000000
_cell_angle_gamma   120.00000670
_symmetry_Int_Tables_number   1
_chemical_formula_structural   Sr5Pb19
_chemical_formula_sum   'Sr5 Pb19'
_cell_volume   781.01547745
_cell_formula_units_Z   1
loop_
 _symmetry_equiv_pos_site_id
 _symmetry_equiv_pos_as_xyz
  1  'x, y, z'
loop_
 _atom_site_type_symbol
 _atom_site_label
 _atom_site_symmetry_multiplicity
 _atom_site_fract_x
 _atom_site_fract_y
 _atom_site_fract_z
 _atom_site_occupancy
  Sr  Sr0  1  0.666667  0.333333  0.585883  1
  Sr  Sr1  1  0.666667  0.333333  0.915440  1
  Sr  Sr2  1  0.000000  0.000000  0.083482  1
  Sr  Sr3  1  0.333333  0.666667  0.246217  1
  Sr  Sr4  1  0.333333  0.666667  0.750140  1
  Pb  Pb5  1  0.000000  0.000000  0.418318  1
  Pb  Pb6  1  0.005383  0.502691  0.416024  1
  Pb  Pb7  1  0.497309  0.502691  0.416024  1
  Pb  Pb8  1  0.497309  0.994617  0.416024  1
  Pb  Pb9  1  0.680289  0.840144  0.578843  1
  Pb  Pb10  1  0.159856  0.840144  0.578843  1
  Pb  Pb11  1  0.159856  0.319711  0.578843  1
  Pb  Pb12  1  0.662713  0.831357  0.918602  1
  Pb  Pb13  1  0.168643  0.831357  0.918602  1
  Pb  Pb14  1  0.168643  0.337287  0.918602  1
  Pb  Pb15  1  0.001278  0.500639  0.081746  1
  Pb  Pb16  1  0.499361  0.500639  0.081746  1
  Pb  Pb17  1  0.499361  0.998722  0.081746  1
  Pb  Pb18  1  0.344348  0.172174  0.252511  1
  Pb  Pb19  1  0.827826  0.172174  0.252511  1
  Pb  Pb20  1  0.827826  0.655652  0.252511  1
  Pb  Pb21  1  0.309699  0.154849  0.752268  1
  Pb  Pb22  1  0.845151  0.154849  0.752268  1
  Pb  Pb23  1  0.845151  0.690301  0.752268  1
