# generated using pymatgen
data_CeEr5BiO12
_symmetry_space_group_name_H-M   'P 1'
_cell_length_a   6.54526427
_cell_length_b   6.54300208
_cell_length_c   6.50441952
_cell_angle_alpha   98.92128385
_cell_angle_beta   99.09687830
_cell_angle_gamma   99.23306710
_symmetry_Int_Tables_number   1
_chemical_formula_structural   CeEr5BiO12
_chemical_formula_sum   'Ce1 Er5 Bi1 O12'
_cell_volume   266.79539337
_cell_formula_units_Z   1
loop_
 _symmetry_equiv_pos_site_id
 _symmetry_equiv_pos_as_xyz
  1  'x, y, z'
loop_
 _atom_site_type_symbol
 _atom_site_label
 _atom_site_symmetry_multiplicity
 _atom_site_fract_x
 _atom_site_fract_y
 _atom_site_fract_z
 _atom_site_occupancy
  Ce  Ce0  1  0.604515  0.314506  0.142509  1
  Er  Er1  1  0.144186  0.611309  0.316114  1
  Er  Er2  1  0.686926  0.857973  0.394455  1
  Er  Er3  1  0.306844  0.139791  0.606965  1
  Er  Er4  1  0.864906  0.392200  0.690382  1
  Er  Er5  1  0.388692  0.688259  0.854017  1
  Bi  Bi6  1  0.996590  0.996276  0.999798  1
  O  O7  1  0.681263  0.922831  0.053256  1
  O  O8  1  0.953755  0.316834  0.073431  1
  O  O9  1  0.430227  0.585794  0.177650  1
  O  O10  1  0.074961  0.948763  0.316919  1
  O  O11  1  0.822027  0.570239  0.413754  1
  O  O12  1  0.586518  0.181659  0.428136  1
  O  O13  1  0.414971  0.824078  0.568677  1
  O  O14  1  0.179510  0.430310  0.586365  1
  O  O15  1  0.926144  0.051575  0.682827  1
  O  O16  1  0.571809  0.413057  0.825037  1
  O  O17  1  0.052016  0.683025  0.924813  1
  O  O18  1  0.314142  0.071523  0.944895  1
