# generated using pymatgen
data_CsCO3
_symmetry_space_group_name_H-M   'P 1'
_cell_length_a   5.22185400
_cell_length_b   5.86269500
_cell_length_c   6.36413800
_cell_angle_alpha   90.00000000
_cell_angle_beta   90.00000000
_cell_angle_gamma   90.00000000
_symmetry_Int_Tables_number   1
_chemical_formula_structural   CsCO3
_chemical_formula_sum   'Cs2 C2 O6'
_cell_volume   194.83259476
_cell_formula_units_Z   2
loop_
 _symmetry_equiv_pos_site_id
 _symmetry_equiv_pos_as_xyz
  1  'x, y, z'
loop_
 _atom_site_type_symbol
 _atom_site_label
 _atom_site_symmetry_multiplicity
 _atom_site_fract_x
 _atom_site_fract_y
 _atom_site_fract_z
 _atom_site_occupancy
  Cs  Cs0  1  0.591505  0.500000  0.000000  1
  Cs  Cs1  1  0.408495  0.000000  0.500000  1
  C  C2  1  0.004485  0.000000  0.000000  1
  C  C3  1  0.995515  0.500000  0.500000  1
  O  O4  1  0.120157  0.500000  0.673804  1
  O  O5  1  0.879843  0.000000  0.826196  1
  O  O6  1  0.750112  0.500000  0.500000  1
  O  O7  1  0.249888  0.000000  0.000000  1
  O  O8  1  0.120157  0.500000  0.326196  1
  O  O9  1  0.879843  0.000000  0.173804  1
