# generated using pymatgen
data_Y2LuHf(Ga3Rh)6
_symmetry_space_group_name_H-M   'P 1'
_cell_length_a   7.55080305
_cell_length_b   7.53299742
_cell_length_c   9.45528600
_cell_angle_alpha   90.00000000
_cell_angle_beta   90.00000000
_cell_angle_gamma   119.80021729
_symmetry_Int_Tables_number   1
_chemical_formula_structural   Y2LuHf(Ga3Rh)6
_chemical_formula_sum   'Y2 Lu1 Hf1 Ga18 Rh6'
_cell_volume   466.69918733
_cell_formula_units_Z   1
loop_
 _symmetry_equiv_pos_site_id
 _symmetry_equiv_pos_as_xyz
  1  'x, y, z'
loop_
 _atom_site_type_symbol
 _atom_site_label
 _atom_site_symmetry_multiplicity
 _atom_site_fract_x
 _atom_site_fract_y
 _atom_site_fract_z
 _atom_site_occupancy
  Y  Y0  1  0.004052  0.329121  0.750000  1
  Y  Y1  1  0.329991  0.003409  0.750000  1
  Lu  Lu2  1  0.670835  0.998703  0.250000  1
  Hf  Hf3  1  0.996669  0.669727  0.250000  1
  Ga  Ga4  1  0.337267  0.550039  0.250000  1
  Ga  Ga5  1  0.662189  0.452541  0.750000  1
  Ga  Ga6  1  0.552405  0.340159  0.250000  1
  Ga  Ga7  1  0.451126  0.660424  0.750000  1
  Ga  Ga8  1  0.998604  0.338058  0.084358  1
  Ga  Ga9  1  0.000403  0.664711  0.922771  1
  Ga  Ga10  1  0.000403  0.664711  0.577229  1
  Ga  Ga11  1  0.331733  0.996347  0.415241  1
  Ga  Ga12  1  0.998604  0.338058  0.415642  1
  Ga  Ga13  1  0.665112  0.999479  0.579280  1
  Ga  Ga14  1  0.665112  0.999479  0.920720  1
  Ga  Ga15  1  0.331733  0.996347  0.084759  1
  Ga  Ga16  1  0.333314  0.333006  0.564950  1
  Ga  Ga17  1  0.670911  0.668956  0.428045  1
  Ga  Ga18  1  0.670911  0.668956  0.071955  1
  Ga  Ga19  1  0.333314  0.333006  0.935050  1
  Ga  Ga20  1  0.124230  0.123954  0.250000  1
  Ga  Ga21  1  0.871525  0.870928  0.750000  1
  Rh  Rh22  1  0.672026  0.328539  0.001494  1
  Rh  Rh23  1  0.328318  0.672374  0.002210  1
  Rh  Rh24  1  0.328318  0.672374  0.497790  1
  Rh  Rh25  1  0.672026  0.328539  0.498506  1
  Rh  Rh26  1  0.999435  0.999027  0.001632  1
  Rh  Rh27  1  0.999435  0.999027  0.498368  1
