# generated using pymatgen
data_Ca3Y(Rh2O7)2
_symmetry_space_group_name_H-M   'P 1'
_cell_length_a   7.26133438
_cell_length_b   7.26133630
_cell_length_c   7.26133553
_cell_angle_alpha   59.85331818
_cell_angle_beta   59.85331135
_cell_angle_gamma   59.85332487
_symmetry_Int_Tables_number   1
_chemical_formula_structural   Ca3Y(Rh2O7)2
_chemical_formula_sum   'Ca3 Y1 Rh4 O14'
_cell_volume   269.82764732
_cell_formula_units_Z   1
loop_
 _symmetry_equiv_pos_site_id
 _symmetry_equiv_pos_as_xyz
  1  'x, y, z'
loop_
 _atom_site_type_symbol
 _atom_site_label
 _atom_site_symmetry_multiplicity
 _atom_site_fract_x
 _atom_site_fract_y
 _atom_site_fract_z
 _atom_site_occupancy
  Ca  Ca0  1  0.500000  0.000000  0.500000  1
  Ca  Ca1  1  0.000000  0.500000  0.500000  1
  Ca  Ca2  1  0.500000  0.500000  0.000000  1
  Y  Y3  1  0.500000  0.500000  0.500000  1
  Rh  Rh4  1  0.000000  0.000000  0.000000  1
  Rh  Rh5  1  0.000000  0.500000  0.000000  1
  Rh  Rh6  1  0.500000  0.000000  0.000000  1
  Rh  Rh7  1  0.000000  0.000000  0.500000  1
  O  O8  1  0.621985  0.621985  0.621985  1
  O  O9  1  0.378015  0.378015  0.378015  1
  O  O10  1  0.924805  0.924805  0.326372  1
  O  O11  1  0.326372  0.924805  0.924805  1
  O  O12  1  0.924805  0.326372  0.924805  1
  O  O13  1  0.328323  0.328323  0.915238  1
  O  O14  1  0.915238  0.328323  0.328323  1
  O  O15  1  0.328323  0.915238  0.328323  1
  O  O16  1  0.075195  0.075195  0.673628  1
  O  O17  1  0.673628  0.075195  0.075195  1
  O  O18  1  0.075195  0.673628  0.075195  1
  O  O19  1  0.671677  0.671677  0.084762  1
  O  O20  1  0.084762  0.671677  0.671677  1
  O  O21  1  0.671677  0.084762  0.671677  1
