# generated using pymatgen
data_TiMn3B3W2
_symmetry_space_group_name_H-M   'P 1'
_cell_length_a   5.98310100
_cell_length_b   6.05708645
_cell_length_c   2.99807200
_cell_angle_alpha   90.00000000
_cell_angle_beta   90.00000000
_cell_angle_gamma   119.59676257
_symmetry_Int_Tables_number   1
_chemical_formula_structural   TiMn3B3W2
_chemical_formula_sum   'Ti1 Mn3 B3 W2'
_cell_volume   94.47418585
_cell_formula_units_Z   1
loop_
 _symmetry_equiv_pos_site_id
 _symmetry_equiv_pos_as_xyz
  1  'x, y, z'
loop_
 _atom_site_type_symbol
 _atom_site_label
 _atom_site_symmetry_multiplicity
 _atom_site_fract_x
 _atom_site_fract_y
 _atom_site_fract_z
 _atom_site_occupancy
  Ti  Ti0  1  0.408768  0.000000  0.500000  1
  Mn  Mn1  1  0.750913  0.000000  0.000000  1
  Mn  Mn2  1  0.000596  0.754057  0.000000  1
  Mn  Mn3  1  0.246538  0.245943  0.000000  1
  B  B4  1  0.334007  0.666776  0.000000  1
  B  B5  1  0.667232  0.333224  0.000000  1
  B  B6  1  0.996114  0.000000  0.500000  1
  W  W7  1  0.003318  0.410806  0.500000  1
  W  W8  1  0.592512  0.589194  0.500000  1
