# generated using pymatgen
data_Ba3NaO12
_symmetry_space_group_name_H-M   'P 1'
_cell_length_a   5.68041171
_cell_length_b   6.09433542
_cell_length_c   8.32553100
_cell_angle_alpha   57.87301847
_cell_angle_beta   91.96010898
_cell_angle_gamma   91.21164928
_symmetry_Int_Tables_number   1
_chemical_formula_structural   Ba3NaO12
_chemical_formula_sum   'Ba3 Na1 O12'
_cell_volume   243.93764828
_cell_formula_units_Z   1
loop_
 _symmetry_equiv_pos_site_id
 _symmetry_equiv_pos_as_xyz
  1  'x, y, z'
loop_
 _atom_site_type_symbol
 _atom_site_label
 _atom_site_symmetry_multiplicity
 _atom_site_fract_x
 _atom_site_fract_y
 _atom_site_fract_z
 _atom_site_occupancy
  Ba  Ba0  1  0.747334  0.232172  0.416274  1
  Ba  Ba1  1  0.246242  0.801834  0.067059  1
  Ba  Ba2  1  0.262207  0.744492  0.589690  1
  Na  Na3  1  0.772020  0.224104  0.937546  1
  O  O4  1  0.460989  0.111032  0.185934  1
  O  O5  1  0.940491  0.913699  0.295980  1
  O  O6  1  0.556763  0.903396  0.785374  1
  O  O7  1  0.065756  0.069220  0.705850  1
  O  O8  1  0.222880  0.285959  0.599013  1
  O  O9  1  0.713635  0.696655  0.906328  1
  O  O10  1  0.777293  0.703114  0.402950  1
  O  O11  1  0.277734  0.302844  0.101031  1
  O  O12  1  0.259198  0.316289  0.414541  1
  O  O13  1  0.759978  0.705492  0.073407  1
  O  O14  1  0.749317  0.668730  0.588167  1
  O  O15  1  0.188162  0.320969  0.930855  1
