# generated using pymatgen
data_SrY6CoSn23Ir5
_symmetry_space_group_name_H-M   'P 1'
_cell_length_a   9.89671300
_cell_length_b   9.87666465
_cell_length_c   10.08848556
_cell_angle_alpha   90.13835122
_cell_angle_beta   90.00000000
_cell_angle_gamma   120.06718037
_symmetry_Int_Tables_number   1
_chemical_formula_structural   SrY6CoSn23Ir5
_chemical_formula_sum   'Sr1 Y6 Co1 Sn23 Ir5'
_cell_volume   853.41801586
_cell_formula_units_Z   1
loop_
 _symmetry_equiv_pos_site_id
 _symmetry_equiv_pos_as_xyz
  1  'x, y, z'
loop_
 _atom_site_type_symbol
 _atom_site_label
 _atom_site_symmetry_multiplicity
 _atom_site_fract_x
 _atom_site_fract_y
 _atom_site_fract_z
 _atom_site_occupancy
  Sr  Sr0  1  0.002398  0.004796  0.997217  1
  Y  Y1  1  0.038071  0.518684  0.307834  1
  Y  Y2  1  0.480364  0.960727  0.307353  1
  Y  Y3  1  0.480613  0.518684  0.307834  1
  Y  Y4  1  0.961892  0.481104  0.692792  1
  Y  Y5  1  0.518812  0.037625  0.693414  1
  Y  Y6  1  0.519212  0.481104  0.692792  1
  Co  Co7  1  0.829278  0.658557  0.201115  1
  Sn  Sn8  1  0.999774  0.999547  0.499318  1
  Sn  Sn9  1  0.111043  0.877165  0.278154  1
  Sn  Sn10  1  0.766120  0.877165  0.278154  1
  Sn  Sn11  1  0.116935  0.233871  0.285560  1
  Sn  Sn12  1  0.881190  0.116572  0.715545  1
  Sn  Sn13  1  0.235384  0.116572  0.715545  1
  Sn  Sn14  1  0.881761  0.763521  0.715345  1
  Sn  Sn15  1  0.352511  0.999623  0.000383  1
  Sn  Sn16  1  0.654708  0.648144  0.004343  1
  Sn  Sn17  1  0.000883  0.356149  0.001015  1
  Sn  Sn18  1  0.355267  0.356149  0.001015  1
  Sn  Sn19  1  0.993435  0.648144  0.004343  1
  Sn  Sn20  1  0.647111  0.999623  0.000383  1
  Sn  Sn21  1  0.781579  0.563157  0.452961  1
  Sn  Sn22  1  0.778004  0.220496  0.459775  1
  Sn  Sn23  1  0.442492  0.220496  0.459775  1
  Sn  Sn24  1  0.221328  0.442657  0.540138  1
  Sn  Sn25  1  0.221166  0.779807  0.540169  1
  Sn  Sn26  1  0.558641  0.779807  0.540169  1
  Sn  Sn27  1  0.669424  0.338847  0.176157  1
  Sn  Sn28  1  0.333178  0.666356  0.827748  1
  Sn  Sn29  1  0.667446  0.334891  0.883005  1
  Sn  Sn30  1  0.332288  0.664579  0.118965  1
  Ir  Ir31  1  0.169193  0.826664  0.799251  1
  Ir  Ir32  1  0.657471  0.826664  0.799251  1
  Ir  Ir33  1  0.170650  0.341300  0.798201  1
  Ir  Ir34  1  0.828904  0.170377  0.202490  1
  Ir  Ir35  1  0.341473  0.170377  0.202490  1
