# generated using pymatgen
data_Lu(ThRh2)5
_symmetry_space_group_name_H-M   'P 1'
_cell_length_a   5.96457060
_cell_length_b   5.96457073
_cell_length_c   9.20657400
_cell_angle_alpha   90.00000000
_cell_angle_beta   90.00000000
_cell_angle_gamma   104.12149435
_symmetry_Int_Tables_number   1
_chemical_formula_structural   Lu(ThRh2)5
_chemical_formula_sum   'Lu1 Th5 Rh10'
_cell_volume   317.63613096
_cell_formula_units_Z   1
loop_
 _symmetry_equiv_pos_site_id
 _symmetry_equiv_pos_as_xyz
  1  'x, y, z'
loop_
 _atom_site_type_symbol
 _atom_site_label
 _atom_site_symmetry_multiplicity
 _atom_site_fract_x
 _atom_site_fract_y
 _atom_site_fract_z
 _atom_site_occupancy
  Lu  Lu0  1  0.397434  0.397434  0.250000  1
  Th  Th1  1  0.610342  0.610342  0.750000  1
  Th  Th2  1  0.792687  0.201562  0.495397  1
  Th  Th3  1  0.201562  0.792687  0.004603  1
  Th  Th4  1  0.201562  0.792687  0.495397  1
  Th  Th5  1  0.792687  0.201562  0.004603  1
  Rh  Rh6  1  0.693467  0.693467  0.048015  1
  Rh  Rh7  1  0.693467  0.693467  0.451985  1
  Rh  Rh8  1  0.299802  0.299802  0.959532  1
  Rh  Rh9  1  0.299802  0.299802  0.540468  1
  Rh  Rh10  1  0.503645  0.052662  0.750000  1
  Rh  Rh11  1  0.496048  0.957914  0.250000  1
  Rh  Rh12  1  0.995423  0.995423  0.250000  1
  Rh  Rh13  1  0.011493  0.011493  0.750000  1
  Rh  Rh14  1  0.052662  0.503645  0.750000  1
  Rh  Rh15  1  0.957914  0.496048  0.250000  1
