# generated using pymatgen
data_Zr6Zn20Cu2AsRh
_symmetry_space_group_name_H-M   'P 1'
_cell_length_a   8.73957525
_cell_length_b   8.73957519
_cell_length_c   8.77886600
_cell_angle_alpha   59.85117053
_cell_angle_beta   59.85117074
_cell_angle_gamma   60.29766355
_symmetry_Int_Tables_number   1
_chemical_formula_structural   Zr6Zn20Cu2AsRh
_chemical_formula_sum   'Zr6 Zn20 Cu2 As1 Rh1'
_cell_volume   474.11800826
_cell_formula_units_Z   1
loop_
 _symmetry_equiv_pos_site_id
 _symmetry_equiv_pos_as_xyz
  1  'x, y, z'
loop_
 _atom_site_type_symbol
 _atom_site_label
 _atom_site_symmetry_multiplicity
 _atom_site_fract_x
 _atom_site_fract_y
 _atom_site_fract_z
 _atom_site_occupancy
  Zr  Zr0  1  0.712494  0.287506  0.287506  1
  Zr  Zr1  1  0.287506  0.712494  0.712494  1
  Zr  Zr2  1  0.287506  0.712494  0.287506  1
  Zr  Zr3  1  0.712494  0.287506  0.712494  1
  Zr  Zr4  1  0.285031  0.285031  0.714969  1
  Zr  Zr5  1  0.714969  0.714969  0.285031  1
  Zn  Zn6  1  0.118559  0.118559  0.126950  1
  Zn  Zn7  1  0.881441  0.881441  0.873050  1
  Zn  Zn8  1  0.118559  0.118559  0.635930  1
  Zn  Zn9  1  0.126950  0.635930  0.118559  1
  Zn  Zn10  1  0.881441  0.881441  0.364070  1
  Zn  Zn11  1  0.873050  0.364070  0.881441  1
  Zn  Zn12  1  0.635930  0.126950  0.118559  1
  Zn  Zn13  1  0.364070  0.873050  0.881441  1
  Zn  Zn14  1  0.500000  0.000000  0.000000  1
  Zn  Zn15  1  0.000000  0.500000  0.500000  1
  Zn  Zn16  1  0.000000  0.500000  0.000000  1
  Zn  Zn17  1  0.500000  0.000000  0.500000  1
  Zn  Zn18  1  0.337720  0.337720  0.331003  1
  Zn  Zn19  1  0.662280  0.662280  0.668997  1
  Zn  Zn20  1  0.337720  0.337720  0.993557  1
  Zn  Zn21  1  0.331003  0.993557  0.337720  1
  Zn  Zn22  1  0.662280  0.662280  0.006443  1
  Zn  Zn23  1  0.668997  0.006443  0.662280  1
  Zn  Zn24  1  0.993557  0.331003  0.337720  1
  Zn  Zn25  1  0.006443  0.668997  0.662280  1
  Cu  Cu26  1  0.000000  0.000000  0.500000  1
  Cu  Cu27  1  0.500000  0.500000  0.000000  1
  As  As28  1  0.500000  0.500000  0.500000  1
  Rh  Rh29  1  0.000000  0.000000  0.000000  1
