# generated using pymatgen
data_TbNd5(RuBr3)2
_symmetry_space_group_name_H-M   'P 1'
_cell_length_a   4.19729200
_cell_length_b   9.00310591
_cell_length_c   12.14234862
_cell_angle_alpha   87.20189517
_cell_angle_beta   90.00000000
_cell_angle_gamma   90.00000000
_symmetry_Int_Tables_number   1
_chemical_formula_structural   TbNd5(RuBr3)2
_chemical_formula_sum   'Tb1 Nd5 Ru2 Br6'
_cell_volume   458.29608279
_cell_formula_units_Z   1
loop_
 _symmetry_equiv_pos_site_id
 _symmetry_equiv_pos_as_xyz
  1  'x, y, z'
loop_
 _atom_site_type_symbol
 _atom_site_label
 _atom_site_symmetry_multiplicity
 _atom_site_fract_x
 _atom_site_fract_y
 _atom_site_fract_z
 _atom_site_occupancy
  Tb  Tb0  1  0.750000  0.120964  0.164031  1
  Nd  Nd1  1  0.250000  0.316798  0.377489  1
  Nd  Nd2  1  0.750000  0.682098  0.619678  1
  Nd  Nd3  1  0.250000  0.897111  0.381813  1
  Nd  Nd4  1  0.750000  0.104573  0.617034  1
  Nd  Nd5  1  0.250000  0.880298  0.839770  1
  Ru  Ru6  1  0.250000  0.892008  0.620195  1
  Ru  Ru7  1  0.750000  0.108013  0.379820  1
  Br  Br8  1  0.250000  0.397855  0.627231  1
  Br  Br9  1  0.750000  0.601219  0.371044  1
  Br  Br10  1  0.250000  0.895450  0.114993  1
  Br  Br11  1  0.750000  0.115959  0.889912  1
  Br  Br12  1  0.250000  0.342666  0.123007  1
  Br  Br13  1  0.750000  0.644987  0.873988  1
