# generated using pymatgen
data_Tm2Ni9Mo3As7
_symmetry_space_group_name_H-M   'P 1'
_cell_length_a   9.47914700
_cell_length_b   9.47914716
_cell_length_c   3.84695800
_cell_angle_alpha   90.00000000
_cell_angle_beta   90.00000000
_cell_angle_gamma   120.00000899
_symmetry_Int_Tables_number   1
_chemical_formula_structural   Tm2Ni9Mo3As7
_chemical_formula_sum   'Tm2 Ni9 Mo3 As7'
_cell_volume   299.35503064
_cell_formula_units_Z   1
loop_
 _symmetry_equiv_pos_site_id
 _symmetry_equiv_pos_as_xyz
  1  'x, y, z'
loop_
 _atom_site_type_symbol
 _atom_site_label
 _atom_site_symmetry_multiplicity
 _atom_site_fract_x
 _atom_site_fract_y
 _atom_site_fract_z
 _atom_site_occupancy
  Tm  Tm0  1  0.333333  0.666667  0.000000  1
  Tm  Tm1  1  0.000000  0.000000  0.500000  1
  Ni  Ni2  1  0.283953  0.390499  0.500000  1
  Ni  Ni3  1  0.609501  0.893453  0.500000  1
  Ni  Ni4  1  0.106547  0.716047  0.500000  1
  Ni  Ni5  1  0.510164  0.461944  0.000000  1
  Ni  Ni6  1  0.538056  0.048221  0.000000  1
  Ni  Ni7  1  0.951779  0.489836  0.000000  1
  Ni  Ni8  1  0.728395  0.764567  0.000000  1
  Ni  Ni9  1  0.235433  0.963827  0.000000  1
  Ni  Ni10  1  0.036173  0.271605  0.000000  1
  Mo  Mo11  1  0.768734  0.548949  0.500000  1
  Mo  Mo12  1  0.451051  0.219785  0.500000  1
  Mo  Mo13  1  0.780215  0.231266  0.500000  1
  As  As14  1  0.965589  0.746951  0.000000  1
  As  As15  1  0.253049  0.218637  0.000000  1
  As  As16  1  0.781363  0.034411  0.000000  1
  As  As17  1  0.666667  0.333333  0.000000  1
  As  As18  1  0.548269  0.624657  0.500000  1
  As  As19  1  0.375343  0.923614  0.500000  1
  As  As20  1  0.076386  0.451731  0.500000  1
