# generated using pymatgen
data_Cr2Si8Pt5Rh
_symmetry_space_group_name_H-M   'P 1'
_cell_length_a   3.45093400
_cell_length_b   5.47138300
_cell_length_c   24.24846400
_cell_angle_alpha   90.00000000
_cell_angle_beta   90.00000000
_cell_angle_gamma   90.00000000
_symmetry_Int_Tables_number   1
_chemical_formula_structural   Cr2Si8Pt5Rh
_chemical_formula_sum   'Cr4 Si16 Pt10 Rh2'
_cell_volume   457.84450252
_cell_formula_units_Z   2
loop_
 _symmetry_equiv_pos_site_id
 _symmetry_equiv_pos_as_xyz
  1  'x, y, z'
loop_
 _atom_site_type_symbol
 _atom_site_label
 _atom_site_symmetry_multiplicity
 _atom_site_fract_x
 _atom_site_fract_y
 _atom_site_fract_z
 _atom_site_occupancy
  Cr  Cr0  1  0.250000  0.507666  0.709445  1
  Cr  Cr1  1  0.750000  0.992334  0.209445  1
  Cr  Cr2  1  0.250000  0.005399  0.790157  1
  Cr  Cr3  1  0.750000  0.494601  0.290157  1
  Si  Si4  1  0.250000  0.175831  0.521251  1
  Si  Si5  1  0.750000  0.324169  0.021251  1
  Si  Si6  1  0.250000  0.674224  0.982862  1
  Si  Si7  1  0.750000  0.825776  0.482862  1
  Si  Si8  1  0.750000  0.326961  0.647938  1
  Si  Si9  1  0.250000  0.173039  0.147938  1
  Si  Si10  1  0.750000  0.826714  0.850230  1
  Si  Si11  1  0.250000  0.673286  0.350230  1
  Si  Si12  1  0.250000  0.668277  0.613085  1
  Si  Si13  1  0.750000  0.831723  0.113085  1
  Si  Si14  1  0.250000  0.159969  0.886193  1
  Si  Si15  1  0.750000  0.340031  0.386193  1
  Si  Si16  1  0.750000  0.817476  0.731494  1
  Si  Si17  1  0.250000  0.682524  0.231494  1
  Si  Si18  1  0.750000  0.316912  0.767225  1
  Si  Si19  1  0.250000  0.183088  0.267225  1
  Pt  Pt20  1  0.750000  0.504288  0.923382  1
  Pt  Pt21  1  0.250000  0.995712  0.423382  1
  Pt  Pt22  1  0.250000  0.007937  0.675059  1
  Pt  Pt23  1  0.750000  0.492063  0.175059  1
  Pt  Pt24  1  0.250000  0.503428  0.824955  1
  Pt  Pt25  1  0.750000  0.996572  0.324955  1
  Pt  Pt26  1  0.750000  0.500079  0.550477  1
  Pt  Pt27  1  0.250000  0.999921  0.050477  1
  Pt  Pt28  1  0.750000  0.005013  0.950221  1
  Pt  Pt29  1  0.250000  0.494987  0.450221  1
  Rh  Rh30  1  0.750000  0.000371  0.576027  1
  Rh  Rh31  1  0.250000  0.499629  0.076027  1
