# generated using pymatgen
data_Y3Er4Tm(CdIr)2
_symmetry_space_group_name_H-M   'P 1'
_cell_length_a   9.59503084
_cell_length_b   9.59503139
_cell_length_c   9.59468400
_cell_angle_alpha   60.00119077
_cell_angle_beta   60.00118887
_cell_angle_gamma   59.99760682
_symmetry_Int_Tables_number   1
_chemical_formula_structural   Y3Er4Tm(CdIr)2
_chemical_formula_sum   'Y6 Er8 Tm2 Cd4 Ir4'
_cell_volume   624.60924424
_cell_formula_units_Z   2
loop_
 _symmetry_equiv_pos_site_id
 _symmetry_equiv_pos_as_xyz
  1  'x, y, z'
loop_
 _atom_site_type_symbol
 _atom_site_label
 _atom_site_symmetry_multiplicity
 _atom_site_fract_x
 _atom_site_fract_y
 _atom_site_fract_z
 _atom_site_occupancy
  Y  Y0  1  0.938960  0.561040  0.561040  1
  Y  Y1  1  0.561040  0.938960  0.938960  1
  Y  Y2  1  0.561040  0.938960  0.561040  1
  Y  Y3  1  0.938960  0.561040  0.938960  1
  Y  Y4  1  0.561053  0.561053  0.938947  1
  Y  Y5  1  0.938947  0.938947  0.561053  1
  Er  Er6  1  0.348544  0.348544  0.348691  1
  Er  Er7  1  0.348544  0.348544  0.954221  1
  Er  Er8  1  0.348691  0.954221  0.348544  1
  Er  Er9  1  0.954221  0.348691  0.348544  1
  Er  Er10  1  0.811157  0.188843  0.188843  1
  Er  Er11  1  0.188843  0.811157  0.811157  1
  Er  Er12  1  0.188843  0.811157  0.188843  1
  Er  Er13  1  0.811157  0.188843  0.811157  1
  Tm  Tm14  1  0.188884  0.188884  0.811116  1
  Tm  Tm15  1  0.811116  0.811116  0.188884  1
  Cd  Cd16  1  0.580668  0.580668  0.580616  1
  Cd  Cd17  1  0.580668  0.580668  0.258050  1
  Cd  Cd18  1  0.580616  0.258050  0.580668  1
  Cd  Cd19  1  0.258050  0.580616  0.580668  1
  Ir  Ir20  1  0.141727  0.141727  0.141479  1
  Ir  Ir21  1  0.141727  0.141727  0.575068  1
  Ir  Ir22  1  0.141479  0.575068  0.141727  1
  Ir  Ir23  1  0.575068  0.141479  0.141727  1
