# generated using pymatgen
data_Al8CoRu4Pt3
_symmetry_space_group_name_H-M   'P 1'
_cell_length_a   5.95037300
_cell_length_b   5.95033600
_cell_length_c   6.15277700
_cell_angle_alpha   89.99988635
_cell_angle_beta   90.00003852
_cell_angle_gamma   89.99998074
_symmetry_Int_Tables_number   1
_chemical_formula_structural   Al8CoRu4Pt3
_chemical_formula_sum   'Al8 Co1 Ru4 Pt3'
_cell_volume   217.84964431
_cell_formula_units_Z   1
loop_
 _symmetry_equiv_pos_site_id
 _symmetry_equiv_pos_as_xyz
  1  'x, y, z'
loop_
 _atom_site_type_symbol
 _atom_site_label
 _atom_site_symmetry_multiplicity
 _atom_site_fract_x
 _atom_site_fract_y
 _atom_site_fract_z
 _atom_site_occupancy
  Al  Al0  1  0.005503  0.005502  0.243335  1
  Al  Al1  1  0.005502  0.494508  0.243334  1
  Al  Al2  1  0.494556  0.005445  0.243813  1
  Al  Al3  1  0.494555  0.494545  0.243811  1
  Al  Al4  1  0.494525  0.005453  0.756196  1
  Al  Al5  1  0.494526  0.494556  0.756195  1
  Al  Al6  1  0.005466  0.005487  0.756657  1
  Al  Al7  1  0.005468  0.494501  0.756661  1
  Co  Co8  1  0.250140  0.250000  0.000020  1
  Ru  Ru9  1  0.749802  0.249999  0.999999  1
  Ru  Ru10  1  0.250128  0.750001  0.999999  1
  Ru  Ru11  1  0.249867  0.750000  0.500000  1
  Ru  Ru12  1  0.750120  0.250001  0.500003  1
  Pt  Pt13  1  0.750187  0.750000  0.499976  1
  Pt  Pt14  1  0.249826  0.250000  0.500015  1
  Pt  Pt15  1  0.749829  0.750000  0.999984  1
