# generated using pymatgen
data_Ca2LaY(Ru2O7)2
_symmetry_space_group_name_H-M   'P 1'
_cell_length_a   7.34125074
_cell_length_b   7.32443868
_cell_length_c   7.32443989
_cell_angle_alpha   59.75420678
_cell_angle_beta   59.77383219
_cell_angle_gamma   59.77383198
_symmetry_Int_Tables_number   1
_chemical_formula_structural   Ca2LaY(Ru2O7)2
_chemical_formula_sum   'Ca2 La1 Y1 Ru4 O14'
_cell_volume   277.01481222
_cell_formula_units_Z   1
loop_
 _symmetry_equiv_pos_site_id
 _symmetry_equiv_pos_as_xyz
  1  'x, y, z'
loop_
 _atom_site_type_symbol
 _atom_site_label
 _atom_site_symmetry_multiplicity
 _atom_site_fract_x
 _atom_site_fract_y
 _atom_site_fract_z
 _atom_site_occupancy
  Ca  Ca0  1  0.625000  0.125000  0.625000  1
  Ca  Ca1  1  0.625000  0.625000  0.125000  1
  La  La2  1  0.125000  0.625000  0.625000  1
  Y  Y3  1  0.625000  0.625000  0.625000  1
  Ru  Ru4  1  0.625000  0.125000  0.125000  1
  Ru  Ru5  1  0.125000  0.625000  0.125000  1
  Ru  Ru6  1  0.125000  0.125000  0.625000  1
  Ru  Ru7  1  0.125000  0.125000  0.125000  1
  O  O8  1  0.201856  0.194916  0.800674  1
  O  O9  1  0.201856  0.800674  0.194916  1
  O  O10  1  0.441231  0.058638  0.058638  1
  O  O11  1  0.211018  0.795170  0.795170  1
  O  O12  1  0.038982  0.454830  0.454830  1
  O  O13  1  0.801621  0.800852  0.201006  1
  O  O14  1  0.448379  0.449148  0.048994  1
  O  O15  1  0.509022  0.500777  0.500777  1
  O  O16  1  0.048144  0.055084  0.449326  1
  O  O17  1  0.448379  0.048994  0.449148  1
  O  O18  1  0.048144  0.449326  0.055084  1
  O  O19  1  0.740978  0.749223  0.749223  1
  O  O20  1  0.801621  0.201006  0.800852  1
  O  O21  1  0.808769  0.191362  0.191362  1
