# generated using pymatgen
data_Tb11Ce5(CdRu)4
_symmetry_space_group_name_H-M   'P 1'
_cell_length_a   9.56729380
_cell_length_b   9.66587543
_cell_length_c   9.66587600
_cell_angle_alpha   59.98797110
_cell_angle_beta   60.33680738
_cell_angle_gamma   60.33681001
_symmetry_Int_Tables_number   1
_chemical_formula_structural   Tb11Ce5(CdRu)4
_chemical_formula_sum   'Tb11 Ce5 Cd4 Ru4'
_cell_volume   635.19768750
_cell_formula_units_Z   1
loop_
 _symmetry_equiv_pos_site_id
 _symmetry_equiv_pos_as_xyz
  1  'x, y, z'
loop_
 _atom_site_type_symbol
 _atom_site_label
 _atom_site_symmetry_multiplicity
 _atom_site_fract_x
 _atom_site_fract_y
 _atom_site_fract_z
 _atom_site_occupancy
  Tb  Tb0  1  0.561615  0.560760  0.938119  1
  Tb  Tb1  1  0.939506  0.560760  0.938119  1
  Tb  Tb2  1  0.563952  0.936048  0.936048  1
  Tb  Tb3  1  0.939506  0.938119  0.560760  1
  Tb  Tb4  1  0.561615  0.938119  0.560760  1
  Tb  Tb5  1  0.935253  0.564747  0.564747  1
  Tb  Tb6  1  0.192209  0.188022  0.808227  1
  Tb  Tb7  1  0.811542  0.188022  0.808227  1
  Tb  Tb8  1  0.188297  0.811703  0.811702  1
  Tb  Tb9  1  0.811542  0.808228  0.188022  1
  Tb  Tb10  1  0.192208  0.808227  0.188021  1
  Ce  Ce11  1  0.813785  0.186215  0.186215  1
  Ce  Ce12  1  0.346131  0.346584  0.961154  1
  Ce  Ce13  1  0.346131  0.961154  0.346584  1
  Ce  Ce14  1  0.960258  0.348487  0.348487  1
  Ce  Ce15  1  0.342770  0.348487  0.348487  1
  Cd  Cd16  1  0.580432  0.583216  0.255918  1
  Cd  Cd17  1  0.580432  0.255918  0.583216  1
  Cd  Cd18  1  0.257731  0.580597  0.580597  1
  Cd  Cd19  1  0.581074  0.580597  0.580597  1
  Ru  Ru20  1  0.148419  0.141628  0.561535  1
  Ru  Ru21  1  0.148419  0.561535  0.141628  1
  Ru  Ru22  1  0.581745  0.151415  0.151415  1
  Ru  Ru23  1  0.115427  0.151415  0.151415  1
