# generated using pymatgen
data_Eu4HfTa2CrO14
_symmetry_space_group_name_H-M   'P 1'
_cell_length_a   7.48351162
_cell_length_b   7.44508104
_cell_length_c   7.52914700
_cell_angle_alpha   59.62577714
_cell_angle_beta   59.79807427
_cell_angle_gamma   59.30491363
_symmetry_Int_Tables_number   1
_chemical_formula_structural   Eu4HfTa2CrO14
_chemical_formula_sum   'Eu4 Hf1 Ta2 Cr1 O14'
_cell_volume   293.75495744
_cell_formula_units_Z   1
loop_
 _symmetry_equiv_pos_site_id
 _symmetry_equiv_pos_as_xyz
  1  'x, y, z'
loop_
 _atom_site_type_symbol
 _atom_site_label
 _atom_site_symmetry_multiplicity
 _atom_site_fract_x
 _atom_site_fract_y
 _atom_site_fract_z
 _atom_site_occupancy
  Eu  Eu0  1  0.125000  0.125000  0.125000  1
  Eu  Eu1  1  0.625000  0.125000  0.125000  1
  Eu  Eu2  1  0.125000  0.625000  0.125000  1
  Eu  Eu3  1  0.125000  0.125000  0.625000  1
  Hf  Hf4  1  0.125000  0.625000  0.625000  1
  Ta  Ta5  1  0.625000  0.625000  0.625000  1
  Ta  Ta6  1  0.625000  0.625000  0.125000  1
  Cr  Cr7  1  0.625000  0.125000  0.625000  1
  O  O8  1  0.948379  0.548886  0.959687  1
  O  O9  1  0.693269  0.305422  0.298672  1
  O  O10  1  0.301621  0.701114  0.706954  1
  O  O11  1  0.693269  0.305422  0.702637  1
  O  O12  1  0.293539  0.286673  0.709895  1
  O  O13  1  0.689342  0.698210  0.306225  1
  O  O14  1  0.956461  0.963327  0.540105  1
  O  O15  1  0.556731  0.944578  0.951328  1
  O  O16  1  0.948379  0.548886  0.543046  1
  O  O17  1  0.560658  0.551790  0.943775  1
  O  O18  1  0.301621  0.701114  0.290313  1
  O  O19  1  0.556731  0.944578  0.547363  1
  O  O20  1  0.997883  0.999336  0.001391  1
  O  O21  1  0.252117  0.250664  0.248609  1
