# generated using pymatgen
data_Ac4MgPb4
_symmetry_space_group_name_H-M   'P 1'
_cell_length_a   8.38252842
_cell_length_b   9.08874658
_cell_length_c   17.06613400
_cell_angle_alpha   90.00000000
_cell_angle_beta   90.00000000
_cell_angle_gamma   89.87138573
_symmetry_Int_Tables_number   1
_chemical_formula_structural   Ac4MgPb4
_chemical_formula_sum   'Ac16 Mg4 Pb16'
_cell_volume   1300.20875374
_cell_formula_units_Z   4
loop_
 _symmetry_equiv_pos_site_id
 _symmetry_equiv_pos_as_xyz
  1  'x, y, z'
loop_
 _atom_site_type_symbol
 _atom_site_label
 _atom_site_symmetry_multiplicity
 _atom_site_fract_x
 _atom_site_fract_y
 _atom_site_fract_z
 _atom_site_occupancy
  Ac  Ac0  1  0.842783  0.668305  0.130455  1
  Ac  Ac1  1  0.342500  0.831707  0.369477  1
  Ac  Ac2  1  0.657500  0.168293  0.869477  1
  Ac  Ac3  1  0.157217  0.331695  0.630455  1
  Ac  Ac4  1  0.157217  0.331695  0.869545  1
  Ac  Ac5  1  0.657500  0.168293  0.630523  1
  Ac  Ac6  1  0.342500  0.831707  0.130523  1
  Ac  Ac7  1  0.842783  0.668305  0.369545  1
  Ac  Ac8  1  0.006267  0.189359  0.093971  1
  Ac  Ac9  1  0.506427  0.310705  0.406075  1
  Ac  Ac10  1  0.493573  0.689295  0.906075  1
  Ac  Ac11  1  0.993733  0.810641  0.593971  1
  Ac  Ac12  1  0.993733  0.810641  0.906029  1
  Ac  Ac13  1  0.493573  0.689295  0.593925  1
  Ac  Ac14  1  0.506427  0.310705  0.093925  1
  Ac  Ac15  1  0.006267  0.189359  0.406029  1
  Mg  Mg16  1  0.677356  0.012914  0.250000  1
  Mg  Mg17  1  0.177987  0.487005  0.250000  1
  Mg  Mg18  1  0.822013  0.512995  0.750000  1
  Mg  Mg19  1  0.322644  0.987086  0.750000  1
  Pb  Pb20  1  0.023788  0.918244  0.250000  1
  Pb  Pb21  1  0.524063  0.582203  0.250000  1
  Pb  Pb22  1  0.475937  0.417797  0.750000  1
  Pb  Pb23  1  0.976212  0.081756  0.750000  1
  Pb  Pb24  1  0.810564  0.342629  0.250000  1
  Pb  Pb25  1  0.310404  0.157558  0.250000  1
  Pb  Pb26  1  0.689596  0.842442  0.750000  1
  Pb  Pb27  1  0.189436  0.657371  0.750000  1
  Pb  Pb28  1  0.813197  0.465467  0.960647  1
  Pb  Pb29  1  0.313344  0.034663  0.539452  1
  Pb  Pb30  1  0.686656  0.965337  0.039452  1
  Pb  Pb31  1  0.186803  0.534533  0.460647  1
  Pb  Pb32  1  0.186803  0.534533  0.039353  1
  Pb  Pb33  1  0.686656  0.965337  0.460548  1
  Pb  Pb34  1  0.313344  0.034663  0.960548  1
  Pb  Pb35  1  0.813197  0.465467  0.539353  1
