# generated using pymatgen
data_Dy3Np(TcB4)4
_symmetry_space_group_name_H-M   'P 1'
_cell_length_a   3.59636500
_cell_length_b   5.96285425
_cell_length_c   11.52716845
_cell_angle_alpha   89.92558031
_cell_angle_beta   90.00000000
_cell_angle_gamma   90.00000000
_symmetry_Int_Tables_number   1
_chemical_formula_structural   Dy3Np(TcB4)4
_chemical_formula_sum   'Dy3 Np1 Tc4 B16'
_cell_volume   247.19531167
_cell_formula_units_Z   1
loop_
 _symmetry_equiv_pos_site_id
 _symmetry_equiv_pos_as_xyz
  1  'x, y, z'
loop_
 _atom_site_type_symbol
 _atom_site_label
 _atom_site_symmetry_multiplicity
 _atom_site_fract_x
 _atom_site_fract_y
 _atom_site_fract_z
 _atom_site_occupancy
  Dy  Dy0  1  0.000000  0.627809  0.349800  1
  Dy  Dy1  1  0.000000  0.372751  0.649326  1
  Dy  Dy2  1  0.000000  0.129320  0.150020  1
  Np  Np3  1  0.000000  0.871934  0.849395  1
  Tc  Tc4  1  0.000000  0.639127  0.085753  1
  Tc  Tc5  1  0.000000  0.361058  0.907771  1
  Tc  Tc6  1  0.000000  0.134873  0.412949  1
  Tc  Tc7  1  0.000000  0.865908  0.592059  1
  B  B8  1  0.500000  0.786682  0.185372  1
  B  B9  1  0.500000  0.207359  0.814803  1
  B  B10  1  0.500000  0.287730  0.315071  1
  B  B11  1  0.500000  0.713026  0.688375  1
  B  B12  1  0.500000  0.865024  0.029589  1
  B  B13  1  0.500000  0.132643  0.966996  1
  B  B14  1  0.500000  0.364682  0.469340  1
  B  B15  1  0.500000  0.636769  0.532224  1
  B  B16  1  0.500000  0.887386  0.453557  1
  B  B17  1  0.500000  0.113292  0.547497  1
  B  B18  1  0.500000  0.387429  0.046500  1
  B  B19  1  0.500000  0.615035  0.951700  1
  B  B20  1  0.500000  0.976533  0.308137  1
  B  B21  1  0.500000  0.020353  0.694590  1
  B  B22  1  0.500000  0.476131  0.191301  1
  B  B23  1  0.500000  0.527145  0.807874  1
