# generated using pymatgen
data_Dy3Ho6Tm7(Ga3Co)2
_symmetry_space_group_name_H-M   'P 1'
_cell_length_a   9.90881400
_cell_length_b   9.90958884
_cell_length_c   6.91948200
_cell_angle_alpha   90.00070763
_cell_angle_beta   90.00021751
_cell_angle_gamma   119.99722084
_symmetry_Int_Tables_number   1
_chemical_formula_structural   Dy3Ho6Tm7(Ga3Co)2
_chemical_formula_sum   'Dy3 Ho6 Tm7 Ga6 Co2'
_cell_volume   588.42848597
_cell_formula_units_Z   1
loop_
 _symmetry_equiv_pos_site_id
 _symmetry_equiv_pos_as_xyz
  1  'x, y, z'
loop_
 _atom_site_type_symbol
 _atom_site_label
 _atom_site_symmetry_multiplicity
 _atom_site_fract_x
 _atom_site_fract_y
 _atom_site_fract_z
 _atom_site_occupancy
  Dy  Dy0  1  0.536243  0.072482  0.708262  1
  Dy  Dy1  1  0.000016  0.000024  0.232076  1
  Dy  Dy2  1  0.999995  0.999991  0.731126  1
  Ho  Ho3  1  0.666722  0.333442  0.327541  1
  Ho  Ho4  1  0.463272  0.536729  0.207526  1
  Ho  Ho5  1  0.073460  0.536732  0.207531  1
  Ho  Ho6  1  0.463233  0.926472  0.207553  1
  Ho  Ho7  1  0.536326  0.463759  0.708189  1
  Ho  Ho8  1  0.927428  0.463756  0.708187  1
  Tm  Tm9  1  0.173516  0.826291  0.512173  1
  Tm  Tm10  1  0.652776  0.826297  0.512169  1
  Tm  Tm11  1  0.173630  0.347261  0.512249  1
  Tm  Tm12  1  0.826994  0.173117  0.011332  1
  Tm  Tm13  1  0.346121  0.173112  0.011333  1
  Tm  Tm14  1  0.826884  0.653768  0.011244  1
  Tm  Tm15  1  0.333287  0.666569  0.825785  1
  Ga  Ga16  1  0.163682  0.836297  0.957705  1
  Ga  Ga17  1  0.672615  0.836296  0.957704  1
  Ga  Ga18  1  0.163700  0.327400  0.957637  1
  Ga  Ga19  1  0.837136  0.162953  0.458549  1
  Ga  Ga20  1  0.325815  0.162952  0.458550  1
  Ga  Ga21  1  0.837063  0.674128  0.458635  1
  Co  Co22  1  0.333327  0.666657  0.445372  1
  Co  Co23  1  0.666757  0.333516  0.946410  1
