# generated using pymatgen
data_Ba3InBi2As
_symmetry_space_group_name_H-M   'P 1'
_cell_length_a   14.91755300
_cell_length_b   5.05632200
_cell_length_c   14.85627500
_cell_angle_alpha   90.00000000
_cell_angle_beta   90.00000000
_cell_angle_gamma   90.00000000
_symmetry_Int_Tables_number   1
_chemical_formula_structural   Ba3InBi2As
_chemical_formula_sum   'Ba12 In4 Bi8 As4'
_cell_volume   1120.57838898
_cell_formula_units_Z   4
loop_
 _symmetry_equiv_pos_site_id
 _symmetry_equiv_pos_as_xyz
  1  'x, y, z'
loop_
 _atom_site_type_symbol
 _atom_site_label
 _atom_site_symmetry_multiplicity
 _atom_site_fract_x
 _atom_site_fract_y
 _atom_site_fract_z
 _atom_site_occupancy
  Ba  Ba0  1  0.364574  0.250001  0.002882  1
  Ba  Ba1  1  0.135425  0.749999  0.502883  1
  Ba  Ba2  1  0.864575  0.250001  0.497117  1
  Ba  Ba3  1  0.635425  0.749999  0.997117  1
  Ba  Ba4  1  0.570512  0.250001  0.395689  1
  Ba  Ba5  1  0.929488  0.749999  0.895689  1
  Ba  Ba6  1  0.070512  0.250001  0.104310  1
  Ba  Ba7  1  0.429489  0.749999  0.604310  1
  Ba  Ba8  1  0.293234  0.250001  0.307923  1
  Ba  Ba9  1  0.206766  0.749999  0.807922  1
  Ba  Ba10  1  0.793234  0.250001  0.192078  1
  Ba  Ba11  1  0.706766  0.749999  0.692077  1
  In  In12  1  0.557596  0.250001  0.794881  1
  In  In13  1  0.942404  0.749999  0.294881  1
  In  In14  1  0.057596  0.250001  0.705119  1
  In  In15  1  0.442404  0.749999  0.205119  1
  Bi  Bi16  1  0.451559  0.749999  0.847449  1
  Bi  Bi17  1  0.048442  0.250001  0.347449  1
  Bi  Bi18  1  0.548441  0.250001  0.152551  1
  Bi  Bi19  1  0.951558  0.749999  0.652552  1
  Bi  Bi20  1  0.747003  0.250001  0.872535  1
  Bi  Bi21  1  0.752997  0.749999  0.372535  1
  Bi  Bi22  1  0.247004  0.250001  0.627465  1
  Bi  Bi23  1  0.252997  0.749999  0.127465  1
  As  As24  1  0.584193  0.250001  0.614299  1
  As  As25  1  0.915806  0.749999  0.114299  1
  As  As26  1  0.084194  0.250001  0.885702  1
  As  As27  1  0.415807  0.749999  0.385702  1
