# generated using pymatgen
data_Eu6Co17MoP12
_symmetry_space_group_name_H-M   'P 1'
_cell_length_a   3.74907000
_cell_length_b   10.65606300
_cell_length_c   12.34548200
_cell_angle_alpha   90.00000000
_cell_angle_beta   90.00000000
_cell_angle_gamma   90.00000000
_symmetry_Int_Tables_number   1
_chemical_formula_structural   Eu6Co17MoP12
_chemical_formula_sum   'Eu6 Co17 Mo1 P12'
_cell_volume   493.20603190
_cell_formula_units_Z   1
loop_
 _symmetry_equiv_pos_site_id
 _symmetry_equiv_pos_as_xyz
  1  'x, y, z'
loop_
 _atom_site_type_symbol
 _atom_site_label
 _atom_site_symmetry_multiplicity
 _atom_site_fract_x
 _atom_site_fract_y
 _atom_site_fract_z
 _atom_site_occupancy
  Eu  Eu0  1  0.000000  0.500000  0.526596  1
  Eu  Eu1  1  0.500000  0.000000  0.475816  1
  Eu  Eu2  1  0.500000  0.821265  0.206799  1
  Eu  Eu3  1  0.500000  0.178735  0.206799  1
  Eu  Eu4  1  0.000000  0.679988  0.794701  1
  Eu  Eu5  1  0.000000  0.320012  0.794701  1
  Co  Co6  1  0.000000  0.000000  0.843051  1
  Co  Co7  1  0.500000  0.500000  0.701334  1
  Co  Co8  1  0.000000  0.000000  0.297533  1
  Co  Co9  1  0.000000  0.500000  0.987935  1
  Co  Co10  1  0.500000  0.000000  0.009676  1
  Co  Co11  1  0.500000  0.330673  0.992403  1
  Co  Co12  1  0.500000  0.669327  0.992403  1
  Co  Co13  1  0.000000  0.165950  0.003786  1
  Co  Co14  1  0.000000  0.834050  0.003786  1
  Co  Co15  1  0.500000  0.296712  0.432044  1
  Co  Co16  1  0.500000  0.703288  0.432044  1
  Co  Co17  1  0.000000  0.202120  0.569835  1
  Co  Co18  1  0.000000  0.797880  0.569835  1
  Co  Co19  1  0.500000  0.881762  0.709403  1
  Co  Co20  1  0.500000  0.118238  0.709403  1
  Co  Co21  1  0.000000  0.619750  0.292249  1
  Co  Co22  1  0.000000  0.380250  0.292249  1
  Mo  Mo23  1  0.500000  0.500000  0.154175  1
  P  P24  1  0.500000  0.500000  0.885417  1
  P  P25  1  0.000000  0.000000  0.112748  1
  P  P26  1  0.500000  0.500000  0.345755  1
  P  P27  1  0.000000  0.000000  0.660608  1
  P  P28  1  0.500000  0.304332  0.615873  1
  P  P29  1  0.500000  0.695668  0.615873  1
  P  P30  1  0.000000  0.194723  0.386166  1
  P  P31  1  0.000000  0.805277  0.386166  1
  P  P32  1  0.500000  0.848472  0.892268  1
  P  P33  1  0.500000  0.151528  0.892268  1
  P  P34  1  0.000000  0.656281  0.104152  1
  P  P35  1  0.000000  0.343719  0.104152  1
