# generated using pymatgen
data_Yb6Sm5In9Pd4
_symmetry_space_group_name_H-M   'P 1'
_cell_length_a   13.40501698
_cell_length_b   13.40515571
_cell_length_c   3.73141300
_cell_angle_alpha   90.00000000
_cell_angle_beta   90.00000000
_cell_angle_gamma   112.11199473
_symmetry_Int_Tables_number   1
_chemical_formula_structural   Yb6Sm5In9Pd4
_chemical_formula_sum   'Yb6 Sm5 In9 Pd4'
_cell_volume   621.20431916
_cell_formula_units_Z   1
loop_
 _symmetry_equiv_pos_site_id
 _symmetry_equiv_pos_as_xyz
  1  'x, y, z'
loop_
 _atom_site_type_symbol
 _atom_site_label
 _atom_site_symmetry_multiplicity
 _atom_site_fract_x
 _atom_site_fract_y
 _atom_site_fract_z
 _atom_site_occupancy
  Yb  Yb0  1  0.413977  0.069154  0.000000  1
  Yb  Yb1  1  0.586023  0.930846  0.000000  1
  Yb  Yb2  1  0.069155  0.413977  0.000000  1
  Yb  Yb3  1  0.930845  0.586023  0.000000  1
  Yb  Yb4  1  0.160999  0.839002  0.000000  1
  Yb  Yb5  1  0.839001  0.160998  0.000000  1
  Sm  Sm6  1  0.376342  0.623658  0.000000  1
  Sm  Sm7  1  0.623658  0.376342  0.000000  1
  Sm  Sm8  1  0.308723  0.308724  0.000000  1
  Sm  Sm9  1  0.691277  0.691276  0.000000  1
  Sm  Sm10  1  0.000000  0.000000  0.000000  1
  In  In11  1  0.369482  0.835637  0.500000  1
  In  In12  1  0.630518  0.164363  0.500000  1
  In  In13  1  0.835636  0.369482  0.500000  1
  In  In14  1  0.164364  0.630518  0.500000  1
  In  In15  1  0.218576  0.077522  0.500000  1
  In  In16  1  0.781424  0.922478  0.500000  1
  In  In17  1  0.077522  0.218576  0.500000  1
  In  In18  1  0.922478  0.781424  0.500000  1
  In  In19  1  0.500000  0.500000  0.500000  1
  Pd  Pd20  1  0.446241  0.241286  0.500000  1
  Pd  Pd21  1  0.553759  0.758714  0.500000  1
  Pd  Pd22  1  0.241287  0.446240  0.500000  1
  Pd  Pd23  1  0.758713  0.553760  0.500000  1
