# generated using pymatgen
data_Na3MoF8
_symmetry_space_group_name_H-M   'P 1'
_cell_length_a   6.45816336
_cell_length_b   6.45815966
_cell_length_c   11.36755045
_cell_angle_alpha   62.24744230
_cell_angle_beta   62.24745786
_cell_angle_gamma   49.73645195
_symmetry_Int_Tables_number   1
_chemical_formula_structural   Na3MoF8
_chemical_formula_sum   'Na6 Mo2 F16'
_cell_volume   310.50240317
_cell_formula_units_Z   2
loop_
 _symmetry_equiv_pos_site_id
 _symmetry_equiv_pos_as_xyz
  1  'x, y, z'
loop_
 _atom_site_type_symbol
 _atom_site_label
 _atom_site_symmetry_multiplicity
 _atom_site_fract_x
 _atom_site_fract_y
 _atom_site_fract_z
 _atom_site_occupancy
  Na  Na0  1  0.286751  0.277109  0.602210  1
  Na  Na1  1  0.722891  0.713249  0.897790  1
  Na  Na2  1  0.713249  0.722891  0.397790  1
  Na  Na3  1  0.277109  0.286751  0.102210  1
  Na  Na4  1  0.000000  0.000000  0.500000  1
  Na  Na5  1  0.000000  0.000000  0.000000  1
  Mo  Mo6  1  0.564241  0.435758  0.750000  1
  Mo  Mo7  1  0.435759  0.564242  0.250000  1
  F  F8  1  0.627006  0.111314  0.714646  1
  F  F9  1  0.888686  0.372993  0.785354  1
  F  F10  1  0.372994  0.888686  0.285354  1
  F  F11  1  0.111314  0.627007  0.214646  1
  F  F12  1  0.206891  0.449040  0.860340  1
  F  F13  1  0.550960  0.793109  0.639660  1
  F  F14  1  0.793109  0.550960  0.139660  1
  F  F15  1  0.449040  0.206891  0.360340  1
  F  F16  1  0.658684  0.375927  0.389108  1
  F  F17  1  0.624073  0.341316  0.110892  1
  F  F18  1  0.341316  0.624073  0.610892  1
  F  F19  1  0.375927  0.658684  0.889108  1
  F  F20  1  0.109842  0.671436  0.418423  1
  F  F21  1  0.328565  0.890158  0.081577  1
  F  F22  1  0.890158  0.328564  0.581577  1
  F  F23  1  0.671435  0.109842  0.918423  1
