# generated using pymatgen
data_Th4Zn4Co3Pd
_symmetry_space_group_name_H-M   'P 1'
_cell_length_a   4.07290600
_cell_length_b   6.89631085
_cell_length_c   8.24989851
_cell_angle_alpha   90.80674752
_cell_angle_beta   90.00000000
_cell_angle_gamma   90.00000000
_symmetry_Int_Tables_number   1
_chemical_formula_structural   Th4Zn4Co3Pd
_chemical_formula_sum   'Th4 Zn4 Co3 Pd1'
_cell_volume   231.70039226
_cell_formula_units_Z   1
loop_
 _symmetry_equiv_pos_site_id
 _symmetry_equiv_pos_as_xyz
  1  'x, y, z'
loop_
 _atom_site_type_symbol
 _atom_site_label
 _atom_site_symmetry_multiplicity
 _atom_site_fract_x
 _atom_site_fract_y
 _atom_site_fract_z
 _atom_site_occupancy
  Th  Th0  1  0.250000  0.540629  0.192437  1
  Th  Th1  1  0.750000  0.434456  0.815608  1
  Th  Th2  1  0.250000  0.049420  0.313390  1
  Th  Th3  1  0.750000  0.957404  0.665772  1
  Zn  Zn4  1  0.250000  0.132637  0.944803  1
  Zn  Zn5  1  0.750000  0.883801  0.060249  1
  Zn  Zn6  1  0.250000  0.618820  0.554776  1
  Zn  Zn7  1  0.750000  0.375558  0.445916  1
  Co  Co8  1  0.750000  0.758293  0.372072  1
  Co  Co9  1  0.250000  0.241028  0.630920  1
  Co  Co10  1  0.750000  0.261170  0.130488  1
  Pd  Pd11  1  0.250000  0.746785  0.873570  1
