# generated using pymatgen
data_KPtRhS4
_symmetry_space_group_name_H-M   'P 1'
_cell_length_a   6.24062500
_cell_length_b   7.22513900
_cell_length_c   15.22087500
_cell_angle_alpha   90.00000000
_cell_angle_beta   90.00000000
_cell_angle_gamma   90.00000000
_symmetry_Int_Tables_number   1
_chemical_formula_structural   KPtRhS4
_chemical_formula_sum   'K4 Pt4 Rh4 S16'
_cell_volume   686.29986356
_cell_formula_units_Z   4
loop_
 _symmetry_equiv_pos_site_id
 _symmetry_equiv_pos_as_xyz
  1  'x, y, z'
loop_
 _atom_site_type_symbol
 _atom_site_label
 _atom_site_symmetry_multiplicity
 _atom_site_fract_x
 _atom_site_fract_y
 _atom_site_fract_z
 _atom_site_occupancy
  K  K0  1  0.350767  0.000000  0.000000  1
  K  K1  1  0.649233  0.500000  0.500000  1
  K  K2  1  0.019567  0.000000  0.500000  1
  K  K3  1  0.980433  0.500000  0.000000  1
  Pt  Pt4  1  0.500000  0.250000  0.250000  1
  Pt  Pt5  1  0.500000  0.750000  0.750000  1
  Pt  Pt6  1  0.500000  0.750000  0.250000  1
  Pt  Pt7  1  0.500000  0.250000  0.750000  1
  Rh  Rh8  1  0.001524  0.000000  0.250843  1
  Rh  Rh9  1  0.001524  0.000000  0.749157  1
  Rh  Rh10  1  0.998476  0.500000  0.249157  1
  Rh  Rh11  1  0.998476  0.500000  0.750843  1
  S  S12  1  0.835386  0.251767  0.329934  1
  S  S13  1  0.835386  0.748233  0.670066  1
  S  S14  1  0.164614  0.751767  0.170066  1
  S  S15  1  0.164614  0.248233  0.829934  1
  S  S16  1  0.164614  0.248233  0.170066  1
  S  S17  1  0.164614  0.751767  0.829934  1
  S  S18  1  0.835386  0.748233  0.329934  1
  S  S19  1  0.835386  0.251767  0.670066  1
  S  S20  1  0.671240  0.000000  0.171591  1
  S  S21  1  0.671240  0.000000  0.828409  1
  S  S22  1  0.328760  0.500000  0.328409  1
  S  S23  1  0.328760  0.500000  0.671591  1
  S  S24  1  0.335092  0.000000  0.329329  1
  S  S25  1  0.335092  0.000000  0.670671  1
  S  S26  1  0.664908  0.500000  0.170671  1
  S  S27  1  0.664908  0.500000  0.829329  1
