# generated using pymatgen
data_Tb3Dy8ThCo4
_symmetry_space_group_name_H-M   'P 1'
_cell_length_a   6.24509105
_cell_length_b   6.90360079
_cell_length_c   9.50228900
_cell_angle_alpha   90.00000000
_cell_angle_beta   90.00000000
_cell_angle_gamma   91.28947843
_symmetry_Int_Tables_number   1
_chemical_formula_structural   Tb3Dy8ThCo4
_chemical_formula_sum   'Tb3 Dy8 Th1 Co4'
_cell_volume   409.57428723
_cell_formula_units_Z   1
loop_
 _symmetry_equiv_pos_site_id
 _symmetry_equiv_pos_as_xyz
  1  'x, y, z'
loop_
 _atom_site_type_symbol
 _atom_site_label
 _atom_site_symmetry_multiplicity
 _atom_site_fract_x
 _atom_site_fract_y
 _atom_site_fract_z
 _atom_site_occupancy
  Tb  Tb0  1  0.360035  0.956171  0.750000  1
  Tb  Tb1  1  0.855703  0.545048  0.250000  1
  Tb  Tb2  1  0.641757  0.044090  0.250000  1
  Dy  Dy3  1  0.672935  0.325035  0.933060  1
  Dy  Dy4  1  0.175395  0.173070  0.430267  1
  Dy  Dy5  1  0.827320  0.823896  0.569363  1
  Dy  Dy6  1  0.175395  0.173070  0.069733  1
  Dy  Dy7  1  0.827320  0.823896  0.930637  1
  Dy  Dy8  1  0.672935  0.325035  0.566940  1
  Dy  Dy9  1  0.323539  0.675105  0.068584  1
  Dy  Dy10  1  0.323539  0.675105  0.431416  1
  Th  Th11  1  0.152247  0.446244  0.750000  1
  Co  Co12  1  0.533642  0.609039  0.750000  1
  Co  Co13  1  0.955789  0.130190  0.750000  1
  Co  Co14  1  0.049806  0.886697  0.250000  1
  Co  Co15  1  0.452647  0.388309  0.250000  1
