# generated using pymatgen
data_Nd8As(Pd11Pt)2
_symmetry_space_group_name_H-M   'P 1'
_cell_length_a   8.49063000
_cell_length_b   8.49791900
_cell_length_c   8.50115200
_cell_angle_alpha   90.00000000
_cell_angle_beta   90.00000000
_cell_angle_gamma   90.00000000
_symmetry_Int_Tables_number   1
_chemical_formula_structural   Nd8As(Pd11Pt)2
_chemical_formula_sum   'Nd8 As1 Pd22 Pt2'
_cell_volume   613.38095089
_cell_formula_units_Z   1
loop_
 _symmetry_equiv_pos_site_id
 _symmetry_equiv_pos_as_xyz
  1  'x, y, z'
loop_
 _atom_site_type_symbol
 _atom_site_label
 _atom_site_symmetry_multiplicity
 _atom_site_fract_x
 _atom_site_fract_y
 _atom_site_fract_z
 _atom_site_occupancy
  Nd  Nd0  1  0.252751  0.252994  0.251847  1
  Nd  Nd1  1  0.746260  0.746314  0.746080  1
  Nd  Nd2  1  0.746260  0.746314  0.253920  1
  Nd  Nd3  1  0.746260  0.253686  0.746080  1
  Nd  Nd4  1  0.252751  0.252994  0.748153  1
  Nd  Nd5  1  0.252751  0.747006  0.251847  1
  Nd  Nd6  1  0.252751  0.747006  0.748153  1
  Nd  Nd7  1  0.746260  0.253686  0.253920  1
  As  As8  1  0.007428  0.000000  0.000000  1
  Pd  Pd9  1  0.738320  0.500000  0.000000  1
  Pd  Pd10  1  0.999831  0.260096  0.500000  1
  Pd  Pd11  1  0.500656  0.258379  0.000000  1
  Pd  Pd12  1  0.999831  0.739904  0.500000  1
  Pd  Pd13  1  0.500656  0.741621  0.000000  1
  Pd  Pd14  1  0.500745  0.000000  0.258676  1
  Pd  Pd15  1  0.260514  0.000000  0.500000  1
  Pd  Pd16  1  0.500745  0.000000  0.741324  1
  Pd  Pd17  1  0.738119  0.000000  0.500000  1
  Pd  Pd18  1  0.999827  0.500000  0.260437  1
  Pd  Pd19  1  0.999827  0.500000  0.739563  1
  Pd  Pd20  1  0.253017  0.500000  0.500000  1
  Pd  Pd21  1  0.746818  0.500000  0.500000  1
  Pd  Pd22  1  0.499621  0.252341  0.500000  1
  Pd  Pd23  1  0.499621  0.747659  0.500000  1
  Pd  Pd24  1  0.499620  0.500000  0.252464  1
  Pd  Pd25  1  0.499620  0.500000  0.747536  1
  Pd  Pd26  1  0.715511  0.000000  0.000000  1
  Pd  Pd27  1  0.997456  0.291402  0.000000  1
  Pd  Pd28  1  0.997456  0.708598  0.000000  1
  Pd  Pd29  1  0.998203  0.000000  0.291891  1
  Pd  Pd30  1  0.998203  0.000000  0.708109  1
  Pt  Pt31  1  0.259732  0.500000  0.000000  1
  Pt  Pt32  1  0.292577  0.000000  0.000000  1
