# generated using pymatgen
data_MgZr5P7Pd8
_symmetry_space_group_name_H-M   'P 1'
_cell_length_a   3.82249300
_cell_length_b   6.61489742
_cell_length_c   13.76153290
_cell_angle_alpha   75.80675367
_cell_angle_beta   90.00000000
_cell_angle_gamma   90.00000000
_symmetry_Int_Tables_number   1
_chemical_formula_structural   MgZr5P7Pd8
_chemical_formula_sum   'Mg1 Zr5 P7 Pd8'
_cell_volume   337.34393555
_cell_formula_units_Z   1
loop_
 _symmetry_equiv_pos_site_id
 _symmetry_equiv_pos_as_xyz
  1  'x, y, z'
loop_
 _atom_site_type_symbol
 _atom_site_label
 _atom_site_symmetry_multiplicity
 _atom_site_fract_x
 _atom_site_fract_y
 _atom_site_fract_z
 _atom_site_occupancy
  Mg  Mg0  1  0.000000  0.274855  0.255642  1
  Zr  Zr1  1  0.000000  0.523962  0.998983  1
  Zr  Zr2  1  0.000000  0.817946  0.174778  1
  Zr  Zr3  1  0.500000  0.081033  0.461563  1
  Zr  Zr4  1  0.500000  0.545756  0.544527  1
  Zr  Zr5  1  0.000000  0.995258  0.823602  1
  P  P6  1  0.000000  0.123006  0.998918  1
  P  P7  1  0.500000  0.553529  0.138085  1
  P  P8  1  0.500000  0.966367  0.288525  1
  P  P9  1  0.000000  0.386827  0.433854  1
  P  P10  1  0.000000  0.820088  0.569129  1
  P  P11  1  0.500000  0.261721  0.714010  1
  P  P12  1  0.500000  0.689083  0.862981  1
  Pd  Pd13  1  0.500000  0.874149  0.000943  1
  Pd  Pd14  1  0.500000  0.194331  0.119364  1
  Pd  Pd15  1  0.500000  0.532581  0.320902  1
  Pd  Pd16  1  0.000000  0.793150  0.389552  1
  Pd  Pd17  1  0.000000  0.181346  0.609980  1
  Pd  Pd18  1  0.500000  0.860002  0.684948  1
  Pd  Pd19  1  0.000000  0.506648  0.724090  1
  Pd  Pd20  1  0.500000  0.313159  0.885627  1
