# generated using pymatgen
data_CeSm2DySi3Rh4
_symmetry_space_group_name_H-M   'P 1'
_cell_length_a   10.73814431
_cell_length_b   10.73814556
_cell_length_c   7.85240369
_cell_angle_alpha   71.24027660
_cell_angle_beta   71.24028036
_cell_angle_gamma   29.97248931
_symmetry_Int_Tables_number   1
_chemical_formula_structural   CeSm2DySi3Rh4
_chemical_formula_sum   'Ce2 Sm4 Dy2 Si6 Rh8'
_cell_volume   426.54041895
_cell_formula_units_Z   2
loop_
 _symmetry_equiv_pos_site_id
 _symmetry_equiv_pos_as_xyz
  1  'x, y, z'
loop_
 _atom_site_type_symbol
 _atom_site_label
 _atom_site_symmetry_multiplicity
 _atom_site_fract_x
 _atom_site_fract_y
 _atom_site_fract_z
 _atom_site_occupancy
  Ce  Ce0  1  0.206132  0.922164  0.832227  1
  Ce  Ce1  1  0.077836  0.793868  0.667773  1
  Sm  Sm2  1  0.791806  0.546035  0.600075  1
  Sm  Sm3  1  0.453965  0.208194  0.899925  1
  Sm  Sm4  1  0.208657  0.452927  0.399843  1
  Sm  Sm5  1  0.547073  0.791343  0.100157  1
  Dy  Dy6  1  0.788359  0.075229  0.172194  1
  Dy  Dy7  1  0.924771  0.211641  0.327806  1
  Si  Si8  1  0.949947  0.706851  0.058853  1
  Si  Si9  1  0.293149  0.050053  0.441147  1
  Si  Si10  1  0.047654  0.299126  0.941700  1
  Si  Si11  1  0.700874  0.952346  0.558300  1
  Si  Si12  1  0.647003  0.352997  0.750000  1
  Si  Si13  1  0.365632  0.634368  0.250000  1
  Rh  Rh14  1  0.576971  0.296575  0.517967  1
  Rh  Rh15  1  0.703425  0.423029  0.982033  1
  Rh  Rh16  1  0.419838  0.700980  0.484526  1
  Rh  Rh17  1  0.299020  0.580162  0.015474  1
  Rh  Rh18  1  0.631513  0.925990  0.313829  1
  Rh  Rh19  1  0.074010  0.368487  0.186171  1
  Rh  Rh20  1  0.364815  0.072452  0.688710  1
  Rh  Rh21  1  0.927548  0.635185  0.811290  1
