# generated using pymatgen
data_PrNd(Si2Rh3)2
_symmetry_space_group_name_H-M   'P 1'
_cell_length_a   6.70206439
_cell_length_b   6.70206401
_cell_length_c   6.70206439
_cell_angle_alpha   130.33644689
_cell_angle_beta   114.81569575
_cell_angle_gamma   86.15970673
_symmetry_Int_Tables_number   1
_chemical_formula_structural   PrNd(Si2Rh3)2
_chemical_formula_sum   'Pr1 Nd1 Si4 Rh6'
_cell_volume   198.95838900
_cell_formula_units_Z   1
loop_
 _symmetry_equiv_pos_site_id
 _symmetry_equiv_pos_as_xyz
  1  'x, y, z'
loop_
 _atom_site_type_symbol
 _atom_site_label
 _atom_site_symmetry_multiplicity
 _atom_site_fract_x
 _atom_site_fract_y
 _atom_site_fract_z
 _atom_site_occupancy
  Pr  Pr0  1  0.750000  0.036511  0.286511  1
  Nd  Nd1  1  0.250000  0.962340  0.712340  1
  Si  Si2  1  0.578056  0.380421  0.802364  1
  Si  Si3  1  0.421493  0.618848  0.197356  1
  Si  Si4  1  0.078507  0.275863  0.197356  1
  Si  Si5  1  0.921944  0.724308  0.802364  1
  Rh  Rh6  1  0.216308  0.500638  0.716358  1
  Rh  Rh7  1  0.715721  0.000050  0.716358  1
  Rh  Rh8  1  0.784279  0.500638  0.284329  1
  Rh  Rh9  1  0.283692  0.000050  0.284329  1
  Rh  Rh10  1  0.499633  0.500166  0.499799  1
  Rh  Rh11  1  0.000367  0.500166  0.000533  1
