# generated using pymatgen
data_Nd2YCo3Si7
_symmetry_space_group_name_H-M   'P 1'
_cell_length_a   12.98566449
_cell_length_b   12.98566412
_cell_length_c   4.09718700
_cell_angle_alpha   90.00000000
_cell_angle_beta   90.00000000
_cell_angle_gamma   161.72149793
_symmetry_Int_Tables_number   1
_chemical_formula_structural   Nd2YCo3Si7
_chemical_formula_sum   'Nd2 Y1 Co3 Si7'
_cell_volume   216.69072016
_cell_formula_units_Z   1
loop_
 _symmetry_equiv_pos_site_id
 _symmetry_equiv_pos_as_xyz
  1  'x, y, z'
loop_
 _atom_site_type_symbol
 _atom_site_label
 _atom_site_symmetry_multiplicity
 _atom_site_fract_x
 _atom_site_fract_y
 _atom_site_fract_z
 _atom_site_occupancy
  Nd  Nd0  1  0.003405  0.996595  0.000000  1
  Nd  Nd1  1  0.316443  0.683557  0.500000  1
  Y  Y2  1  0.686687  0.313313  0.500000  1
  Co  Co3  1  0.865141  0.134859  0.000000  1
  Co  Co4  1  0.134635  0.865365  0.000000  1
  Co  Co5  1  0.450674  0.549326  0.500000  1
  Si  Si6  1  0.595563  0.404437  0.000000  1
  Si  Si7  1  0.408028  0.591972  0.000000  1
  Si  Si8  1  0.775537  0.224463  0.000000  1
  Si  Si9  1  0.224472  0.775528  0.000000  1
  Si  Si10  1  0.908275  0.091725  0.500000  1
  Si  Si11  1  0.094424  0.905576  0.500000  1
  Si  Si12  1  0.536717  0.463283  0.500000  1
