# generated using pymatgen
data_Ho3Lu(TcB2)4
_symmetry_space_group_name_H-M   'P 1'
_cell_length_a   5.26626100
_cell_length_b   5.92741060
_cell_length_c   6.42384095
_cell_angle_alpha   89.89438441
_cell_angle_beta   90.00000000
_cell_angle_gamma   90.00000000
_symmetry_Int_Tables_number   1
_chemical_formula_structural   Ho3Lu(TcB2)4
_chemical_formula_sum   'Ho3 Lu1 Tc4 B8'
_cell_volume   200.52172566
_cell_formula_units_Z   1
loop_
 _symmetry_equiv_pos_site_id
 _symmetry_equiv_pos_as_xyz
  1  'x, y, z'
loop_
 _atom_site_type_symbol
 _atom_site_label
 _atom_site_symmetry_multiplicity
 _atom_site_fract_x
 _atom_site_fract_y
 _atom_site_fract_z
 _atom_site_occupancy
  Ho  Ho0  1  0.250000  0.014148  0.338718  1
  Ho  Ho1  1  0.250000  0.514428  0.161055  1
  Ho  Ho2  1  0.750000  0.985258  0.660765  1
  Lu  Lu3  1  0.750000  0.484897  0.837934  1
  Tc  Tc4  1  0.250000  0.182785  0.814844  1
  Tc  Tc5  1  0.250000  0.680700  0.686508  1
  Tc  Tc6  1  0.750000  0.817322  0.183848  1
  Tc  Tc7  1  0.750000  0.318341  0.314171  1
  B  B8  1  0.077285  0.369491  0.536720  1
  B  B9  1  0.422359  0.869922  0.963926  1
  B  B10  1  0.578674  0.629880  0.466017  1
  B  B11  1  0.921667  0.131766  0.034416  1
  B  B12  1  0.921326  0.629880  0.466017  1
  B  B13  1  0.578333  0.131766  0.034416  1
  B  B14  1  0.422715  0.369491  0.536720  1
  B  B15  1  0.077641  0.869922  0.963926  1
