# generated using pymatgen
data_Pr19NdPdRh15
_symmetry_space_group_name_H-M   'P 1'
_cell_length_a   7.68740300
_cell_length_b   7.74961842
_cell_length_c   15.19789100
_cell_angle_alpha   90.00000000
_cell_angle_beta   90.00000000
_cell_angle_gamma   90.33996383
_symmetry_Int_Tables_number   1
_chemical_formula_structural   Pr19NdPdRh15
_chemical_formula_sum   'Pr19 Nd1 Pd1 Rh15'
_cell_volume   905.38990558
_cell_formula_units_Z   1
loop_
 _symmetry_equiv_pos_site_id
 _symmetry_equiv_pos_as_xyz
  1  'x, y, z'
loop_
 _atom_site_type_symbol
 _atom_site_label
 _atom_site_symmetry_multiplicity
 _atom_site_fract_x
 _atom_site_fract_y
 _atom_site_fract_z
 _atom_site_occupancy
  Pr  Pr0  1  0.668929  0.164007  0.620672  1
  Pr  Pr1  1  0.160315  0.332041  0.880465  1
  Pr  Pr2  1  0.335862  0.832446  0.122178  1
  Pr  Pr3  1  0.835067  0.667057  0.376999  1
  Pr  Pr4  1  0.335862  0.832446  0.377822  1
  Pr  Pr5  1  0.835067  0.667057  0.123001  1
  Pr  Pr6  1  0.668929  0.164007  0.879328  1
  Pr  Pr7  1  0.160315  0.332041  0.619535  1
  Pr  Pr8  1  0.518565  0.686974  0.591243  1
  Pr  Pr9  1  0.019044  0.816738  0.909227  1
  Pr  Pr10  1  0.484579  0.317825  0.092478  1
  Pr  Pr11  1  0.984229  0.180411  0.403608  1
  Pr  Pr12  1  0.484579  0.317825  0.407522  1
  Pr  Pr13  1  0.984229  0.180411  0.096392  1
  Pr  Pr14  1  0.518565  0.686974  0.908757  1
  Pr  Pr15  1  0.019044  0.816738  0.590773  1
  Pr  Pr16  1  0.831491  0.514041  0.750000  1
  Pr  Pr17  1  0.323737  0.988500  0.750000  1
  Pr  Pr18  1  0.174854  0.489457  0.250000  1
  Nd  Nd19  1  0.672907  0.009061  0.250000  1
  Pd  Pd20  1  0.455828  0.404893  0.750000  1
  Rh  Rh21  1  0.675907  0.968881  0.457339  1
  Rh  Rh22  1  0.171219  0.529410  0.042841  1
  Rh  Rh23  1  0.327410  0.032248  0.958190  1
  Rh  Rh24  1  0.822953  0.468393  0.541177  1
  Rh  Rh25  1  0.327410  0.032248  0.541810  1
  Rh  Rh26  1  0.822953  0.468393  0.958823  1
  Rh  Rh27  1  0.675907  0.968881  0.042661  1
  Rh  Rh28  1  0.171219  0.529410  0.457159  1
  Rh  Rh29  1  0.957531  0.100646  0.750000  1
  Rh  Rh30  1  0.540063  0.598817  0.250000  1
  Rh  Rh31  1  0.042319  0.902145  0.250000  1
  Rh  Rh32  1  0.695487  0.856440  0.750000  1
  Rh  Rh33  1  0.195015  0.644532  0.750000  1
  Rh  Rh34  1  0.306284  0.144682  0.250000  1
  Rh  Rh35  1  0.796331  0.353930  0.250000  1
