# generated using pymatgen
data_Er3SnRh2Pb2Au
_symmetry_space_group_name_H-M   'P 1'
_cell_length_a   7.76756103
_cell_length_b   7.78716581
_cell_length_c   3.82858400
_cell_angle_alpha   90.00000000
_cell_angle_beta   90.00000000
_cell_angle_gamma   119.90743518
_symmetry_Int_Tables_number   1
_chemical_formula_structural   Er3SnRh2Pb2Au
_chemical_formula_sum   'Er3 Sn1 Rh2 Pb2 Au1'
_cell_volume   200.74153397
_cell_formula_units_Z   1
loop_
 _symmetry_equiv_pos_site_id
 _symmetry_equiv_pos_as_xyz
  1  'x, y, z'
loop_
 _atom_site_type_symbol
 _atom_site_label
 _atom_site_symmetry_multiplicity
 _atom_site_fract_x
 _atom_site_fract_y
 _atom_site_fract_z
 _atom_site_occupancy
  Er  Er0  1  0.390390  0.407321  0.000000  1
  Er  Er1  1  0.022402  0.613112  0.000000  1
  Er  Er2  1  0.586710  0.979684  0.000000  1
  Sn  Sn3  1  0.260438  0.998218  0.500000  1
  Rh  Rh4  1  0.011217  0.999479  0.000000  1
  Rh  Rh5  1  0.332267  0.673761  0.500000  1
  Pb  Pb6  1  0.738292  0.738558  0.500000  1
  Pb  Pb7  1  0.000332  0.262928  0.500000  1
  Au  Au8  1  0.657951  0.326939  0.500000  1
