# generated using pymatgen
data_Zr6B4Ru9Rh
_symmetry_space_group_name_H-M   'P 1'
_cell_length_a   9.56713548
_cell_length_b   9.59832045
_cell_length_c   3.15359200
_cell_angle_alpha   90.00000000
_cell_angle_beta   90.00000000
_cell_angle_gamma   90.11062516
_symmetry_Int_Tables_number   1
_chemical_formula_structural   Zr6B4Ru9Rh
_chemical_formula_sum   'Zr6 B4 Ru9 Rh1'
_cell_volume   289.58886917
_cell_formula_units_Z   1
loop_
 _symmetry_equiv_pos_site_id
 _symmetry_equiv_pos_as_xyz
  1  'x, y, z'
loop_
 _atom_site_type_symbol
 _atom_site_label
 _atom_site_symmetry_multiplicity
 _atom_site_fract_x
 _atom_site_fract_y
 _atom_site_fract_z
 _atom_site_occupancy
  Zr  Zr0  1  0.676514  0.175528  0.000000  1
  Zr  Zr1  1  0.326685  0.819744  0.000000  1
  Zr  Zr2  1  0.174737  0.329619  0.000000  1
  Zr  Zr3  1  0.824285  0.676067  0.000000  1
  Zr  Zr4  1  0.998298  0.999612  0.000000  1
  Zr  Zr5  1  0.501104  0.499397  0.000000  1
  B  B6  1  0.121256  0.621988  0.000000  1
  B  B7  1  0.878199  0.378152  0.000000  1
  B  B8  1  0.621321  0.877095  0.000000  1
  B  B9  1  0.385171  0.123905  0.000000  1
  Ru  Ru10  1  0.776445  0.928920  0.500000  1
  Ru  Ru11  1  0.072290  0.778292  0.500000  1
  Ru  Ru12  1  0.722236  0.427360  0.500000  1
  Ru  Ru13  1  0.928862  0.222038  0.500000  1
  Ru  Ru14  1  0.277998  0.571417  0.500000  1
  Ru  Ru15  1  0.571175  0.722027  0.500000  1
  Ru  Ru16  1  0.424849  0.277207  0.500000  1
  Ru  Ru17  1  0.497670  0.999489  0.500000  1
  Ru  Ru18  1  0.999440  0.500609  0.500000  1
  Rh  Rh19  1  0.221465  0.071538  0.500000  1
