# generated using pymatgen
data_Sm2Fe4Co5Ni3P7
_symmetry_space_group_name_H-M   'P 1'
_cell_length_a   9.03645811
_cell_length_b   9.04613397
_cell_length_c   3.67430600
_cell_angle_alpha   90.00000000
_cell_angle_beta   90.00000000
_cell_angle_gamma   119.94638110
_symmetry_Int_Tables_number   1
_chemical_formula_structural   Sm2Fe4Co5Ni3P7
_chemical_formula_sum   'Sm2 Fe4 Co5 Ni3 P7'
_cell_volume   260.25651179
_cell_formula_units_Z   1
loop_
 _symmetry_equiv_pos_site_id
 _symmetry_equiv_pos_as_xyz
  1  'x, y, z'
loop_
 _atom_site_type_symbol
 _atom_site_label
 _atom_site_symmetry_multiplicity
 _atom_site_fract_x
 _atom_site_fract_y
 _atom_site_fract_z
 _atom_site_occupancy
  Sm  Sm0  1  0.334144  0.667245  0.000000  1
  Sm  Sm1  1  0.666508  0.333623  0.500000  1
  Fe  Fe2  1  0.726889  0.846178  0.000000  1
  Fe  Fe3  1  0.214671  0.121421  0.500000  1
  Fe  Fe4  1  0.878762  0.094634  0.500000  1
  Fe  Fe5  1  0.906223  0.784358  0.500000  1
  Co  Co6  1  0.153389  0.880448  0.000000  1
  Co  Co7  1  0.120243  0.273616  0.000000  1
  Co  Co8  1  0.384524  0.951801  0.500000  1
  Co  Co9  1  0.047545  0.432468  0.500000  1
  Co  Co10  1  0.566659  0.614161  0.500000  1
  Ni  Ni11  1  0.430596  0.369742  0.000000  1
  Ni  Ni12  1  0.630440  0.061949  0.000000  1
  Ni  Ni13  1  0.939575  0.569345  0.000000  1
  P  P14  1  0.404554  0.105832  0.000000  1
  P  P15  1  0.894007  0.298264  0.000000  1
  P  P16  1  0.701270  0.596071  0.000000  1
  P  P17  1  0.113390  0.713184  0.500000  1
  P  P18  1  0.286779  0.400183  0.500000  1
  P  P19  1  0.601632  0.885929  0.500000  1
  P  P20  1  0.998202  0.999549  0.000000  1
