# generated using pymatgen
data_HoCoP3Ru4
_symmetry_space_group_name_H-M   'P 1'
_cell_length_a   3.86084600
_cell_length_b   10.64332000
_cell_length_c   12.33313900
_cell_angle_alpha   90.00000000
_cell_angle_beta   90.00000000
_cell_angle_gamma   90.00000000
_symmetry_Int_Tables_number   1
_chemical_formula_structural   HoCoP3Ru4
_chemical_formula_sum   'Ho4 Co4 P12 Ru16'
_cell_volume   506.79605428
_cell_formula_units_Z   4
loop_
 _symmetry_equiv_pos_site_id
 _symmetry_equiv_pos_as_xyz
  1  'x, y, z'
loop_
 _atom_site_type_symbol
 _atom_site_label
 _atom_site_symmetry_multiplicity
 _atom_site_fract_x
 _atom_site_fract_y
 _atom_site_fract_z
 _atom_site_occupancy
  Ho  Ho0  1  0.250000  0.584449  0.707317  1
  Ho  Ho1  1  0.250000  0.915551  0.207317  1
  Ho  Ho2  1  0.750000  0.415551  0.292683  1
  Ho  Ho3  1  0.750000  0.084449  0.792683  1
  Co  Co4  1  0.250000  0.463252  0.937510  1
  Co  Co5  1  0.250000  0.036748  0.437510  1
  Co  Co6  1  0.750000  0.536748  0.062490  1
  Co  Co7  1  0.750000  0.963252  0.562490  1
  P  P8  1  0.250000  0.423243  0.109314  1
  P  P9  1  0.250000  0.076757  0.609314  1
  P  P10  1  0.750000  0.576757  0.890686  1
  P  P11  1  0.750000  0.923243  0.390686  1
  P  P12  1  0.250000  0.271611  0.868983  1
  P  P13  1  0.250000  0.228389  0.368983  1
  P  P14  1  0.750000  0.728389  0.131017  1
  P  P15  1  0.750000  0.771611  0.631017  1
  P  P16  1  0.250000  0.601532  0.391917  1
  P  P17  1  0.250000  0.898468  0.891917  1
  P  P18  1  0.750000  0.398468  0.608083  1
  P  P19  1  0.750000  0.101532  0.108083  1
  Ru  Ru20  1  0.250000  0.705962  0.985222  1
  Ru  Ru21  1  0.250000  0.794038  0.485222  1
  Ru  Ru22  1  0.750000  0.294038  0.014778  1
  Ru  Ru23  1  0.750000  0.205962  0.514778  1
  Ru  Ru24  1  0.250000  0.404769  0.484695  1
  Ru  Ru25  1  0.250000  0.095231  0.984695  1
  Ru  Ru26  1  0.750000  0.595231  0.515305  1
  Ru  Ru27  1  0.750000  0.904769  0.015305  1
  Ru  Ru28  1  0.250000  0.226253  0.176498  1
  Ru  Ru29  1  0.250000  0.273747  0.676498  1
  Ru  Ru30  1  0.750000  0.773747  0.823502  1
  Ru  Ru31  1  0.750000  0.726253  0.323502  1
  Ru  Ru32  1  0.250000  0.887216  0.698164  1
  Ru  Ru33  1  0.250000  0.612784  0.198164  1
  Ru  Ru34  1  0.750000  0.112784  0.301836  1
  Ru  Ru35  1  0.750000  0.387216  0.801836  1
