# generated using pymatgen
data_Sc4Al18PtRh5
_symmetry_space_group_name_H-M   'P 1'
_cell_length_a   7.48018583
_cell_length_b   7.48018545
_cell_length_c   9.30785700
_cell_angle_alpha   89.99554089
_cell_angle_beta   89.99554522
_cell_angle_gamma   119.73009463
_symmetry_Int_Tables_number   1
_chemical_formula_structural   Sc4Al18PtRh5
_chemical_formula_sum   'Sc4 Al18 Pt1 Rh5'
_cell_volume   452.25131511
_cell_formula_units_Z   1
loop_
 _symmetry_equiv_pos_site_id
 _symmetry_equiv_pos_as_xyz
  1  'x, y, z'
loop_
 _atom_site_type_symbol
 _atom_site_label
 _atom_site_symmetry_multiplicity
 _atom_site_fract_x
 _atom_site_fract_y
 _atom_site_fract_z
 _atom_site_occupancy
  Sc  Sc0  1  0.994960  0.669316  0.250398  1
  Sc  Sc1  1  0.003137  0.328786  0.749865  1
  Sc  Sc2  1  0.671214  0.996863  0.250135  1
  Sc  Sc3  1  0.330684  0.005040  0.749602  1
  Al  Al4  1  0.330203  0.330060  0.556113  1
  Al  Al5  1  0.669940  0.669797  0.443887  1
  Al  Al6  1  0.669105  0.672408  0.059435  1
  Al  Al7  1  0.327592  0.330895  0.940565  1
  Al  Al8  1  0.340463  0.555702  0.250446  1
  Al  Al9  1  0.660106  0.449981  0.746929  1
  Al  Al10  1  0.550019  0.339894  0.253071  1
  Al  Al11  1  0.444298  0.659537  0.749554  1
  Al  Al12  1  0.001603  0.334820  0.078492  1
  Al  Al13  1  0.005945  0.668795  0.921039  1
  Al  Al14  1  0.003513  0.665359  0.577114  1
  Al  Al15  1  0.334641  0.996487  0.422886  1
  Al  Al16  1  0.998012  0.334445  0.422514  1
  Al  Al17  1  0.665555  0.001988  0.577486  1
  Al  Al18  1  0.665180  0.998397  0.921508  1
  Al  Al19  1  0.331205  0.994055  0.078961  1
  Al  Al20  1  0.121812  0.120932  0.250360  1
  Al  Al21  1  0.879068  0.878188  0.749640  1
  Pt  Pt22  1  0.672640  0.327360  0.000000  1
  Rh  Rh23  1  0.000170  0.999830  0.000000  1
  Rh  Rh24  1  0.000297  0.999703  0.500000  1
  Rh  Rh25  1  0.327827  0.672173  0.000000  1
  Rh  Rh26  1  0.327961  0.672039  0.500000  1
  Rh  Rh27  1  0.672848  0.327152  0.500000  1
