# generated using pymatgen
data_Hf7Sc2TaRe3P
_symmetry_space_group_name_H-M   'P 1'
_cell_length_a   8.67560311
_cell_length_b   8.67560380
_cell_length_c   8.55867100
_cell_angle_alpha   90.00000000
_cell_angle_beta   90.00000000
_cell_angle_gamma   119.98148418
_symmetry_Int_Tables_number   1
_chemical_formula_structural   Hf7Sc2TaRe3P
_chemical_formula_sum   'Hf14 Sc4 Ta2 Re6 P2'
_cell_volume   557.97835170
_cell_formula_units_Z   2
loop_
 _symmetry_equiv_pos_site_id
 _symmetry_equiv_pos_as_xyz
  1  'x, y, z'
loop_
 _atom_site_type_symbol
 _atom_site_label
 _atom_site_symmetry_multiplicity
 _atom_site_fract_x
 _atom_site_fract_y
 _atom_site_fract_z
 _atom_site_occupancy
  Hf  Hf0  1  0.197422  0.802578  0.452018  1
  Hf  Hf1  1  0.197451  0.394601  0.451849  1
  Hf  Hf2  1  0.605399  0.802549  0.451849  1
  Hf  Hf3  1  0.802651  0.197349  0.548024  1
  Hf  Hf4  1  0.802475  0.605116  0.547845  1
  Hf  Hf5  1  0.394884  0.197525  0.547845  1
  Hf  Hf6  1  0.802651  0.197349  0.951976  1
  Hf  Hf7  1  0.802475  0.605116  0.952155  1
  Hf  Hf8  1  0.394884  0.197525  0.952155  1
  Hf  Hf9  1  0.197422  0.802578  0.047982  1
  Hf  Hf10  1  0.197451  0.394601  0.048151  1
  Hf  Hf11  1  0.605399  0.802549  0.048151  1
  Hf  Hf12  1  0.459935  0.919685  0.750000  1
  Hf  Hf13  1  0.080315  0.540065  0.750000  1
  Sc  Sc14  1  0.541031  0.458969  0.250000  1
  Sc  Sc15  1  0.541112  0.081930  0.250000  1
  Sc  Sc16  1  0.918070  0.458888  0.250000  1
  Sc  Sc17  1  0.458769  0.541231  0.750000  1
  Ta  Ta18  1  0.999917  0.000083  0.498070  1
  Ta  Ta19  1  0.999917  0.000083  0.001930  1
  Re  Re20  1  0.887812  0.112188  0.250000  1
  Re  Re21  1  0.887820  0.775417  0.250000  1
  Re  Re22  1  0.224583  0.112180  0.250000  1
  Re  Re23  1  0.112166  0.887834  0.750000  1
  Re  Re24  1  0.111234  0.224108  0.750000  1
  Re  Re25  1  0.775892  0.888766  0.750000  1
  P  P26  1  0.333162  0.666838  0.250000  1
  P  P27  1  0.667704  0.332296  0.750000  1
