# generated using pymatgen
data_Sm4Ga24PdPt8
_symmetry_space_group_name_H-M   'P 1'
_cell_length_a   7.54998931
_cell_length_b   7.62399802
_cell_length_c   13.44209076
_cell_angle_alpha   84.71657614
_cell_angle_beta   79.49339795
_cell_angle_gamma   60.15581520
_symmetry_Int_Tables_number   1
_chemical_formula_structural   Sm4Ga24PdPt8
_chemical_formula_sum   'Sm4 Ga24 Pd1 Pt8'
_cell_volume   659.87644036
_cell_formula_units_Z   1
loop_
 _symmetry_equiv_pos_site_id
 _symmetry_equiv_pos_as_xyz
  1  'x, y, z'
loop_
 _atom_site_type_symbol
 _atom_site_label
 _atom_site_symmetry_multiplicity
 _atom_site_fract_x
 _atom_site_fract_y
 _atom_site_fract_z
 _atom_site_occupancy
  Sm  Sm0  1  0.393134  0.168523  0.811076  1
  Sm  Sm1  1  0.606866  0.831477  0.188924  1
  Sm  Sm2  1  0.732235  0.497474  0.811445  1
  Sm  Sm3  1  0.267765  0.502526  0.188555  1
  Ga  Ga4  1  0.687618  0.832756  0.940142  1
  Ga  Ga5  1  0.312382  0.167244  0.059858  1
  Ga  Ga6  1  0.146595  0.832398  0.558708  1
  Ga  Ga7  1  0.853405  0.167602  0.441292  1
  Ga  Ga8  1  0.478672  0.167010  0.556002  1
  Ga  Ga9  1  0.521328  0.832990  0.443998  1
  Ga  Ga10  1  0.219109  0.165040  0.326355  1
  Ga  Ga11  1  0.780891  0.834960  0.673645  1
  Ga  Ga12  1  0.437540  0.504646  0.672622  1
  Ga  Ga13  1  0.562460  0.495354  0.327378  1
  Ga  Ga14  1  0.107482  0.163476  0.672130  1
  Ga  Ga15  1  0.892518  0.836524  0.327870  1
  Ga  Ga16  1  0.353946  0.499688  0.940409  1
  Ga  Ga17  1  0.646054  0.500312  0.059591  1
  Ga  Ga18  1  0.018529  0.169026  0.946160  1
  Ga  Ga19  1  0.981471  0.830974  0.053840  1
  Ga  Ga20  1  0.186606  0.498824  0.443036  1
  Ga  Ga21  1  0.813394  0.501176  0.556964  1
  Ga  Ga22  1  0.735853  0.163950  0.182475  1
  Ga  Ga23  1  0.264147  0.836050  0.817525  1
  Ga  Ga24  1  0.061003  0.630810  0.817165  1
  Ga  Ga25  1  0.938997  0.369190  0.182835  1
  Ga  Ga26  1  0.857669  0.038667  0.816834  1
  Ga  Ga27  1  0.142331  0.961333  0.183167  1
  Pd  Pd28  1  0.000000  0.500000  0.000000  1
  Pt  Pt29  1  0.118289  0.497246  0.637411  1
  Pt  Pt30  1  0.881711  0.502754  0.362589  1
  Pt  Pt31  1  0.659367  0.170114  0.999546  1
  Pt  Pt32  1  0.340633  0.829886  0.000454  1
  Pt  Pt33  1  0.540997  0.166277  0.361351  1
  Pt  Pt34  1  0.459003  0.833723  0.638649  1
  Pt  Pt35  1  0.780903  0.171485  0.636138  1
  Pt  Pt36  1  0.219097  0.828515  0.363862  1
