# generated using pymatgen
data_YbMn(PO3)4
_symmetry_space_group_name_H-M   'P 1'
_cell_length_a   7.58362309
_cell_length_b   7.58362347
_cell_length_c   10.43057632
_cell_angle_alpha   66.70599423
_cell_angle_beta   66.70599396
_cell_angle_gamma   70.48117490
_symmetry_Int_Tables_number   1
_chemical_formula_structural   YbMn(PO3)4
_chemical_formula_sum   'Yb2 Mn2 P8 O24'
_cell_volume   494.70864984
_cell_formula_units_Z   2
loop_
 _symmetry_equiv_pos_site_id
 _symmetry_equiv_pos_as_xyz
  1  'x, y, z'
loop_
 _atom_site_type_symbol
 _atom_site_label
 _atom_site_symmetry_multiplicity
 _atom_site_fract_x
 _atom_site_fract_y
 _atom_site_fract_z
 _atom_site_occupancy
  Yb  Yb0  1  0.954271  0.045729  0.750000  1
  Yb  Yb1  1  0.045729  0.954271  0.250000  1
  Mn  Mn2  1  0.500000  0.000000  0.000000  1
  Mn  Mn3  1  0.000000  0.500000  0.500000  1
  P  P4  1  0.318494  0.302029  0.692689  1
  P  P5  1  0.697971  0.681506  0.807311  1
  P  P6  1  0.681506  0.697971  0.307311  1
  P  P7  1  0.302029  0.318494  0.192689  1
  P  P8  1  0.720623  0.266883  0.478125  1
  P  P9  1  0.733117  0.279377  0.021875  1
  P  P10  1  0.279377  0.733117  0.521875  1
  P  P11  1  0.266883  0.720623  0.978125  1
  O  O12  1  0.319892  0.530716  0.649638  1
  O  O13  1  0.469284  0.680108  0.850362  1
  O  O14  1  0.680108  0.469284  0.350362  1
  O  O15  1  0.530716  0.319892  0.149638  1
  O  O16  1  0.502861  0.226771  0.566874  1
  O  O17  1  0.773229  0.497139  0.933126  1
  O  O18  1  0.497139  0.773229  0.433126  1
  O  O19  1  0.226771  0.502861  0.066874  1
  O  O20  1  0.349259  0.199493  0.838874  1
  O  O21  1  0.800507  0.650741  0.661126  1
  O  O22  1  0.650741  0.800507  0.161126  1
  O  O23  1  0.199493  0.349259  0.338874  1
  O  O24  1  0.138335  0.286334  0.670775  1
  O  O25  1  0.713666  0.861665  0.829225  1
  O  O26  1  0.861665  0.713666  0.329225  1
  O  O27  1  0.286334  0.138335  0.170775  1
  O  O28  1  0.802336  0.300682  0.576296  1
  O  O29  1  0.699318  0.197664  0.923704  1
  O  O30  1  0.197664  0.699318  0.423704  1
  O  O31  1  0.300682  0.802336  0.076296  1
  O  O32  1  0.833833  0.108055  0.410149  1
  O  O33  1  0.891945  0.166167  0.089851  1
  O  O34  1  0.166167  0.891945  0.589851  1
  O  O35  1  0.108055  0.833833  0.910149  1
