# generated using pymatgen
data_ThCoCuGeP
_symmetry_space_group_name_H-M   'P 1'
_cell_length_a   4.18673400
_cell_length_b   4.18673400
_cell_length_c   9.31344500
_cell_angle_alpha   90.00000000
_cell_angle_beta   90.00000000
_cell_angle_gamma   90.00000000
_symmetry_Int_Tables_number   1
_chemical_formula_structural   ThCoCuGeP
_chemical_formula_sum   'Th2 Co2 Cu2 Ge2 P2'
_cell_volume   163.25297069
_cell_formula_units_Z   2
loop_
 _symmetry_equiv_pos_site_id
 _symmetry_equiv_pos_as_xyz
  1  'x, y, z'
loop_
 _atom_site_type_symbol
 _atom_site_label
 _atom_site_symmetry_multiplicity
 _atom_site_fract_x
 _atom_site_fract_y
 _atom_site_fract_z
 _atom_site_occupancy
  Th  Th0  1  0.000000  0.500000  0.264725  1
  Th  Th1  1  0.500000  0.000000  0.735275  1
  Co  Co2  1  0.000000  0.500000  0.594437  1
  Co  Co3  1  0.500000  0.000000  0.405563  1
  Cu  Cu4  1  0.000000  0.000000  0.000000  1
  Cu  Cu5  1  0.500000  0.500000  0.000000  1
  Ge  Ge6  1  0.000000  0.500000  0.854527  1
  Ge  Ge7  1  0.500000  0.000000  0.145473  1
  P  P8  1  0.000000  0.000000  0.500000  1
  P  P9  1  0.500000  0.500000  0.500000  1
