# generated using pymatgen
data_Lu4MnAl6Ir
_symmetry_space_group_name_H-M   'P 1'
_cell_length_a   5.44868900
_cell_length_b   5.44868780
_cell_length_c   8.68121600
_cell_angle_alpha   90.00000000
_cell_angle_beta   90.00000000
_cell_angle_gamma   120.00000118
_symmetry_Int_Tables_number   1
_chemical_formula_structural   Lu4MnAl6Ir
_chemical_formula_sum   'Lu4 Mn1 Al6 Ir1'
_cell_volume   223.20048470
_cell_formula_units_Z   1
loop_
 _symmetry_equiv_pos_site_id
 _symmetry_equiv_pos_as_xyz
  1  'x, y, z'
loop_
 _atom_site_type_symbol
 _atom_site_label
 _atom_site_symmetry_multiplicity
 _atom_site_fract_x
 _atom_site_fract_y
 _atom_site_fract_z
 _atom_site_occupancy
  Lu  Lu0  1  0.666668  0.333334  0.055671  1
  Lu  Lu1  1  0.666668  0.333334  0.444013  1
  Lu  Lu2  1  0.333333  0.666666  0.555987  1
  Lu  Lu3  1  0.333333  0.666666  0.944329  1
  Mn  Mn4  1  0.000000  0.000000  0.000000  1
  Al  Al5  1  0.164656  0.329312  0.249949  1
  Al  Al6  1  0.164657  0.835345  0.249949  1
  Al  Al7  1  0.670688  0.835345  0.249949  1
  Al  Al8  1  0.329311  0.164656  0.750050  1
  Al  Al9  1  0.835344  0.164656  0.750050  1
  Al  Al10  1  0.835345  0.670689  0.750050  1
  Ir  Ir11  1  0.000000  0.000000  0.500000  1
