# generated using pymatgen
data_Nd2ThAs3
_symmetry_space_group_name_H-M   'P 1'
_cell_length_a   7.38367277
_cell_length_b   7.38367228
_cell_length_c   7.38367269
_cell_angle_alpha   146.36958701
_cell_angle_beta   131.83091789
_cell_angle_gamma   60.02897341
_symmetry_Int_Tables_number   1
_chemical_formula_structural   Nd2ThAs3
_chemical_formula_sum   'Nd2 Th1 As3'
_cell_volume   164.59681968
_cell_formula_units_Z   1
loop_
 _symmetry_equiv_pos_site_id
 _symmetry_equiv_pos_as_xyz
  1  'x, y, z'
loop_
 _atom_site_type_symbol
 _atom_site_label
 _atom_site_symmetry_multiplicity
 _atom_site_fract_x
 _atom_site_fract_y
 _atom_site_fract_z
 _atom_site_occupancy
  Nd  Nd0  1  0.667386  0.667386  0.000000  1
  Nd  Nd1  1  0.332614  0.332614  0.000000  1
  Th  Th2  1  0.000000  0.000000  0.000000  1
  As  As3  1  0.500000  0.000000  0.500000  1
  As  As4  1  0.164064  0.664064  0.500000  1
  As  As5  1  0.835936  0.335936  0.500000  1
