# generated using pymatgen
data_Rb3(InAu)4
_symmetry_space_group_name_H-M   'P 1'
_cell_length_a   7.59347497
_cell_length_b   7.59347390
_cell_length_c   13.19445400
_cell_angle_alpha   90.00000000
_cell_angle_beta   90.00000000
_cell_angle_gamma   104.67293200
_symmetry_Int_Tables_number   1
_chemical_formula_structural   Rb3(InAu)4
_chemical_formula_sum   'Rb6 In8 Au8'
_cell_volume   735.99180211
_cell_formula_units_Z   2
loop_
 _symmetry_equiv_pos_site_id
 _symmetry_equiv_pos_as_xyz
  1  'x, y, z'
loop_
 _atom_site_type_symbol
 _atom_site_label
 _atom_site_symmetry_multiplicity
 _atom_site_fract_x
 _atom_site_fract_y
 _atom_site_fract_z
 _atom_site_occupancy
  Rb  Rb0  1  0.215527  0.784473  0.500000  1
  Rb  Rb1  1  0.215527  0.784473  0.000000  1
  Rb  Rb2  1  0.784473  0.215527  0.500000  1
  Rb  Rb3  1  0.784473  0.215527  0.000000  1
  Rb  Rb4  1  0.007105  0.007105  0.250000  1
  Rb  Rb5  1  0.992895  0.992895  0.750000  1
  In  In6  1  0.513864  0.782829  0.250000  1
  In  In7  1  0.217171  0.486136  0.750000  1
  In  In8  1  0.486136  0.217171  0.750000  1
  In  In9  1  0.782829  0.513864  0.250000  1
  In  In10  1  0.366988  0.366988  0.370837  1
  In  In11  1  0.633012  0.633012  0.629163  1
  In  In12  1  0.366988  0.366988  0.129163  1
  In  In13  1  0.633012  0.633012  0.870837  1
  Au  Au14  1  0.538534  0.150858  0.250000  1
  Au  Au15  1  0.849142  0.461466  0.750000  1
  Au  Au16  1  0.461466  0.849142  0.750000  1
  Au  Au17  1  0.150858  0.538534  0.250000  1
  Au  Au18  1  0.319598  0.319598  0.924195  1
  Au  Au19  1  0.680402  0.680402  0.075805  1
  Au  Au20  1  0.319598  0.319598  0.575805  1
  Au  Au21  1  0.680402  0.680402  0.424195  1
