# generated using pymatgen
data_Dy4Ir3RuF28
_symmetry_space_group_name_H-M   'P 1'
_cell_length_a   5.56783583
_cell_length_b   8.91890635
_cell_length_c   11.96498007
_cell_angle_alpha   62.65258667
_cell_angle_beta   89.91800123
_cell_angle_gamma   90.03761610
_symmetry_Int_Tables_number   1
_chemical_formula_structural   Dy4Ir3RuF28
_chemical_formula_sum   'Dy4 Ir3 Ru1 F28'
_cell_volume   527.76202119
_cell_formula_units_Z   1
loop_
 _symmetry_equiv_pos_site_id
 _symmetry_equiv_pos_as_xyz
  1  'x, y, z'
loop_
 _atom_site_type_symbol
 _atom_site_label
 _atom_site_symmetry_multiplicity
 _atom_site_fract_x
 _atom_site_fract_y
 _atom_site_fract_z
 _atom_site_occupancy
  Dy  Dy0  1  0.760671  0.811191  0.767273  1
  Dy  Dy1  1  0.260623  0.186170  0.735854  1
  Dy  Dy2  1  0.240735  0.187469  0.233183  1
  Dy  Dy3  1  0.739863  0.815048  0.264821  1
  Ir  Ir4  1  0.756939  0.273017  0.956256  1
  Ir  Ir5  1  0.257248  0.727045  0.543551  1
  Ir  Ir6  1  0.243479  0.726545  0.044270  1
  Ru  Ru7  1  0.742950  0.273654  0.455785  1
  F  F8  1  0.444252  0.704599  0.917271  1
  F  F9  1  0.942967  0.293698  0.580992  1
  F  F10  1  0.556893  0.294504  0.084002  1
  F  F11  1  0.056846  0.705385  0.416763  1
  F  F12  1  0.449377  0.279313  0.544510  1
  F  F13  1  0.946641  0.719542  0.955343  1
  F  F14  1  0.554085  0.719889  0.453919  1
  F  F15  1  0.053826  0.279858  0.045075  1
  F  F16  1  0.768496  0.518272  0.859151  1
  F  F17  1  0.269223  0.480796  0.640901  1
  F  F18  1  0.231346  0.480068  0.142321  1
  F  F19  1  0.730118  0.515249  0.360578  1
  F  F20  1  0.756598  0.027692  0.050667  1
  F  F21  1  0.255505  0.973114  0.448566  1
  F  F22  1  0.244341  0.972793  0.949434  1
  F  F23  1  0.744512  0.032719  0.548799  1
  F  F24  1  0.968100  0.730164  0.638582  1
  F  F25  1  0.468055  0.270588  0.861752  1
  F  F26  1  0.028356  0.270650  0.362443  1
  F  F27  1  0.532440  0.728467  0.139321  1
  F  F28  1  0.046643  0.746352  0.173910  1
  F  F29  1  0.546943  0.253362  0.328157  1
  F  F30  1  0.952143  0.252647  0.826096  1
  F  F31  1  0.453837  0.748044  0.672418  1
  F  F32  1  0.417794  0.972009  0.231381  1
  F  F33  1  0.917796  0.029480  0.268129  1
  F  F34  1  0.580768  0.027910  0.766836  1
  F  F35  1  0.079590  0.972697  0.731691  1
