# generated using pymatgen
data_YU2(Co3B2)3
_symmetry_space_group_name_H-M   'P 1'
_cell_length_a   5.80129327
_cell_length_b   5.80129311
_cell_length_c   5.80129308
_cell_angle_alpha   95.02675096
_cell_angle_beta   95.02674282
_cell_angle_gamma   95.02674828
_symmetry_Int_Tables_number   1
_chemical_formula_structural   YU2(Co3B2)3
_chemical_formula_sum   'Y1 U2 Co9 B6'
_cell_volume   192.84807857
_cell_formula_units_Z   1
loop_
 _symmetry_equiv_pos_site_id
 _symmetry_equiv_pos_as_xyz
  1  'x, y, z'
loop_
 _atom_site_type_symbol
 _atom_site_label
 _atom_site_symmetry_multiplicity
 _atom_site_fract_x
 _atom_site_fract_y
 _atom_site_fract_z
 _atom_site_occupancy
  Y  Y0  1  0.667579  0.667579  0.667579  1
  U  U1  1  0.313809  0.313809  0.313809  1
  U  U2  1  0.012325  0.012325  0.012325  1
  Co  Co3  1  0.496124  0.005752  0.005752  1
  Co  Co4  1  0.005752  0.496124  0.005752  1
  Co  Co5  1  0.005752  0.005752  0.496124  1
  Co  Co6  1  0.693974  0.186349  0.693974  1
  Co  Co7  1  0.693974  0.693974  0.186349  1
  Co  Co8  1  0.186349  0.693974  0.693974  1
  Co  Co9  1  0.310742  0.801045  0.310742  1
  Co  Co10  1  0.310742  0.310742  0.801045  1
  Co  Co11  1  0.801045  0.310742  0.310742  1
  B  B12  1  0.369326  0.997710  0.633880  1
  B  B13  1  0.633880  0.369326  0.997710  1
  B  B14  1  0.997710  0.633880  0.369326  1
  B  B15  1  0.633880  0.997710  0.369326  1
  B  B16  1  0.369326  0.633880  0.997710  1
  B  B17  1  0.997710  0.369326  0.633880  1
