# generated using pymatgen
data_B2P2Pd11Pt
_symmetry_space_group_name_H-M   'P 1'
_cell_length_a   5.14004154
_cell_length_b   5.71794170
_cell_length_c   7.63835450
_cell_angle_alpha   90.07076065
_cell_angle_beta   89.79650283
_cell_angle_gamma   89.91431150
_symmetry_Int_Tables_number   1
_chemical_formula_structural   B2P2Pd11Pt
_chemical_formula_sum   'B2 P2 Pd11 Pt1'
_cell_volume   224.49289659
_cell_formula_units_Z   1
loop_
 _symmetry_equiv_pos_site_id
 _symmetry_equiv_pos_as_xyz
  1  'x, y, z'
loop_
 _atom_site_type_symbol
 _atom_site_label
 _atom_site_symmetry_multiplicity
 _atom_site_fract_x
 _atom_site_fract_y
 _atom_site_fract_z
 _atom_site_occupancy
  B  B0  1  0.941610  0.616834  0.752281  1
  B  B1  1  0.445906  0.884920  0.250494  1
  P  P2  1  0.545544  0.113198  0.750555  1
  P  P3  1  0.045716  0.384708  0.252026  1
  Pd  Pd4  1  0.182261  0.690380  0.067425  1
  Pd  Pd5  1  0.840783  0.334978  0.567633  1
  Pd  Pd6  1  0.340675  0.164889  0.432631  1
  Pd  Pd7  1  0.838878  0.018089  0.248756  1
  Pd  Pd8  1  0.338352  0.481729  0.749979  1
  Pd  Pd9  1  0.627194  0.538336  0.248690  1
  Pd  Pd10  1  0.127423  0.963263  0.749241  1
  Pd  Pd11  1  0.680701  0.809946  0.564251  1
  Pd  Pd12  1  0.181220  0.690173  0.433097  1
  Pd  Pd13  1  0.840478  0.334510  0.933077  1
  Pd  Pd14  1  0.339650  0.165284  0.068072  1
  Pt  Pt15  1  0.683613  0.808763  0.931793  1
