# generated using pymatgen
data_Tm5ReTcC7
_symmetry_space_group_name_H-M   'P 1'
_cell_length_a   8.20480127
_cell_length_b   8.20480030
_cell_length_c   3.38345100
_cell_angle_alpha   90.00000000
_cell_angle_beta   90.00000000
_cell_angle_gamma   121.95882921
_symmetry_Int_Tables_number   1
_chemical_formula_structural   Tm5ReTcC7
_chemical_formula_sum   'Tm5 Re1 Tc1 C7'
_cell_volume   193.24635121
_cell_formula_units_Z   1
loop_
 _symmetry_equiv_pos_site_id
 _symmetry_equiv_pos_as_xyz
  1  'x, y, z'
loop_
 _atom_site_type_symbol
 _atom_site_label
 _atom_site_symmetry_multiplicity
 _atom_site_fract_x
 _atom_site_fract_y
 _atom_site_fract_z
 _atom_site_occupancy
  Tm  Tm0  1  0.500239  0.499761  0.000000  1
  Tm  Tm1  1  0.077311  0.336059  0.500000  1
  Tm  Tm2  1  0.921991  0.662589  0.500000  1
  Tm  Tm3  1  0.663941  0.922689  0.500000  1
  Tm  Tm4  1  0.337411  0.078009  0.500000  1
  Re  Re5  1  0.285210  0.714790  0.000000  1
  Tc  Tc6  1  0.714394  0.285606  0.000000  1
  C  C7  1  0.624154  0.375846  0.500000  1
  C  C8  1  0.375604  0.624396  0.500000  1
  C  C9  1  0.999821  0.000179  0.000000  1
  C  C10  1  0.170719  0.170759  0.000000  1
  C  C11  1  0.829241  0.829281  0.000000  1
  C  C12  1  0.001192  0.501229  0.000000  1
  C  C13  1  0.498771  0.998808  0.000000  1
