# generated using pymatgen
data_Tl2CoBr4
_symmetry_space_group_name_H-M   'P 1'
_cell_length_a   10.19290000
_cell_length_b   7.22683564
_cell_length_c   13.50597300
_cell_angle_alpha   72.99218407
_cell_angle_beta   90.00000000
_cell_angle_gamma   90.00000000
_symmetry_Int_Tables_number   1
_chemical_formula_structural   Tl2CoBr4
_chemical_formula_sum   'Tl8 Co4 Br16'
_cell_volume   951.37123685
_cell_formula_units_Z   4
loop_
 _symmetry_equiv_pos_site_id
 _symmetry_equiv_pos_as_xyz
  1  'x, y, z'
loop_
 _atom_site_type_symbol
 _atom_site_label
 _atom_site_symmetry_multiplicity
 _atom_site_fract_x
 _atom_site_fract_y
 _atom_site_fract_z
 _atom_site_occupancy
  Tl  Tl0  1  0.354633  0.776391  0.993099  1
  Tl  Tl1  1  0.645367  0.223609  0.006901  1
  Tl  Tl2  1  0.405316  0.404152  0.334824  1
  Tl  Tl3  1  0.905316  0.595848  0.165176  1
  Tl  Tl4  1  0.854633  0.223609  0.506901  1
  Tl  Tl5  1  0.094684  0.404152  0.834824  1
  Tl  Tl6  1  0.594684  0.595848  0.665176  1
  Tl  Tl7  1  0.145367  0.776391  0.493099  1
  Co  Co8  1  0.147022  0.118454  0.180088  1
  Co  Co9  1  0.852978  0.881546  0.819912  1
  Co  Co10  1  0.352978  0.118454  0.680088  1
  Co  Co11  1  0.647022  0.881546  0.319912  1
  Br  Br12  1  0.038095  0.792961  0.932259  1
  Br  Br13  1  0.961905  0.207039  0.067741  1
  Br  Br14  1  0.100485  0.213127  0.333178  1
  Br  Br15  1  0.312592  0.778547  0.720203  1
  Br  Br16  1  0.187408  0.778547  0.220203  1
  Br  Br17  1  0.836423  0.699651  0.399112  1
  Br  Br18  1  0.336423  0.300349  0.100888  1
  Br  Br19  1  0.812592  0.221453  0.779797  1
  Br  Br20  1  0.899515  0.786873  0.666822  1
  Br  Br21  1  0.163577  0.300349  0.600888  1
  Br  Br22  1  0.663577  0.699651  0.899112  1
  Br  Br23  1  0.687408  0.221453  0.279797  1
  Br  Br24  1  0.399515  0.213127  0.833178  1
  Br  Br25  1  0.538095  0.207039  0.567741  1
  Br  Br26  1  0.600485  0.786873  0.166822  1
  Br  Br27  1  0.461905  0.792961  0.432259  1
