# generated using pymatgen
data_Ba6NdDy(BO3)6
_symmetry_space_group_name_H-M   'P 1'
_cell_length_a   8.26912419
_cell_length_b   8.26912426
_cell_length_c   8.26912435
_cell_angle_alpha   105.61223433
_cell_angle_beta   105.61225065
_cell_angle_gamma   105.61224452
_symmetry_Int_Tables_number   1
_chemical_formula_structural   Ba6NdDy(BO3)6
_chemical_formula_sum   'Ba6 Nd1 Dy1 B6 O18'
_cell_volume   487.62507723
_cell_formula_units_Z   1
loop_
 _symmetry_equiv_pos_site_id
 _symmetry_equiv_pos_as_xyz
  1  'x, y, z'
loop_
 _atom_site_type_symbol
 _atom_site_label
 _atom_site_symmetry_multiplicity
 _atom_site_fract_x
 _atom_site_fract_y
 _atom_site_fract_z
 _atom_site_occupancy
  Ba  Ba0  1  0.350939  0.734062  0.841585  1
  Ba  Ba1  1  0.841585  0.350939  0.734062  1
  Ba  Ba2  1  0.734062  0.841585  0.350939  1
  Ba  Ba3  1  0.649061  0.265938  0.158415  1
  Ba  Ba4  1  0.158415  0.649061  0.265938  1
  Ba  Ba5  1  0.265938  0.158415  0.649061  1
  Nd  Nd6  1  0.000000  0.000000  0.000000  1
  Dy  Dy7  1  0.500000  0.500000  0.500000  1
  B  B8  1  0.706765  0.620922  0.956098  1
  B  B9  1  0.956098  0.706765  0.620922  1
  B  B10  1  0.620922  0.956098  0.706765  1
  B  B11  1  0.043902  0.293235  0.379078  1
  B  B12  1  0.379078  0.043902  0.293235  1
  B  B13  1  0.293235  0.379078  0.043902  1
  O  O14  1  0.062553  0.804359  0.551067  1
  O  O15  1  0.551067  0.062553  0.804359  1
  O  O16  1  0.426448  0.492735  0.213677  1
  O  O17  1  0.492735  0.213677  0.426448  1
  O  O18  1  0.213677  0.426448  0.492735  1
  O  O19  1  0.786323  0.573552  0.507265  1
  O  O20  1  0.573552  0.507265  0.786323  1
  O  O21  1  0.507265  0.786323  0.573552  1
  O  O22  1  0.265894  0.194827  0.984185  1
  O  O23  1  0.194827  0.984185  0.265894  1
  O  O24  1  0.984185  0.265894  0.194827  1
  O  O25  1  0.734106  0.805173  0.015815  1
  O  O26  1  0.805173  0.015815  0.734106  1
  O  O27  1  0.015815  0.734106  0.805173  1
  O  O28  1  0.195641  0.448933  0.937447  1
  O  O29  1  0.448933  0.937447  0.195641  1
  O  O30  1  0.937447  0.195641  0.448933  1
  O  O31  1  0.804359  0.551067  0.062553  1
