# generated using pymatgen
data_Nd3Dy(TcB4)4
_symmetry_space_group_name_H-M   'P 1'
_cell_length_a   6.04718901
_cell_length_b   11.71109230
_cell_length_c   3.65972400
_cell_angle_alpha   90.00000000
_cell_angle_beta   90.00000000
_cell_angle_gamma   89.88315441
_symmetry_Int_Tables_number   1
_chemical_formula_structural   Nd3Dy(TcB4)4
_chemical_formula_sum   'Nd3 Dy1 Tc4 B16'
_cell_volume   259.17814520
_cell_formula_units_Z   1
loop_
 _symmetry_equiv_pos_site_id
 _symmetry_equiv_pos_as_xyz
  1  'x, y, z'
loop_
 _atom_site_type_symbol
 _atom_site_label
 _atom_site_symmetry_multiplicity
 _atom_site_fract_x
 _atom_site_fract_y
 _atom_site_fract_z
 _atom_site_occupancy
  Nd  Nd0  1  0.625656  0.349432  0.000000  1
  Nd  Nd1  1  0.374386  0.651314  0.000000  1
  Nd  Nd2  1  0.125529  0.149883  0.000000  1
  Dy  Dy3  1  0.874342  0.850081  0.000000  1
  Tc  Tc4  1  0.631898  0.084691  0.000000  1
  Tc  Tc5  1  0.368739  0.912509  0.000000  1
  Tc  Tc6  1  0.129984  0.414326  0.000000  1
  Tc  Tc7  1  0.869607  0.588444  0.000000  1
  B  B8  1  0.782429  0.182499  0.500000  1
  B  B9  1  0.213748  0.816550  0.500000  1
  B  B10  1  0.282528  0.316550  0.500000  1
  B  B11  1  0.717560  0.685769  0.500000  1
  B  B12  1  0.861866  0.029793  0.500000  1
  B  B13  1  0.137843  0.966587  0.500000  1
  B  B14  1  0.360279  0.468471  0.500000  1
  B  B15  1  0.639810  0.533192  0.500000  1
  B  B16  1  0.887987  0.454915  0.500000  1
  B  B17  1  0.110969  0.547049  0.500000  1
  B  B18  1  0.388979  0.044377  0.500000  1
  B  B19  1  0.614696  0.952145  0.500000  1
  B  B20  1  0.976209  0.310240  0.500000  1
  B  B21  1  0.022274  0.692611  0.500000  1
  B  B22  1  0.476409  0.188967  0.500000  1
  B  B23  1  0.526273  0.809608  0.500000  1
