# generated using pymatgen
data_Zr4Fe3CoSi7
_symmetry_space_group_name_H-M   'P 1'
_cell_length_a   5.05958091
_cell_length_b   9.57140942
_cell_length_c   9.56682488
_cell_angle_alpha   94.00776408
_cell_angle_beta   105.33331199
_cell_angle_gamma   74.67422845
_symmetry_Int_Tables_number   1
_chemical_formula_structural   Zr4Fe3CoSi7
_chemical_formula_sum   'Zr8 Fe6 Co2 Si14'
_cell_volume   430.91517819
_cell_formula_units_Z   2
loop_
 _symmetry_equiv_pos_site_id
 _symmetry_equiv_pos_as_xyz
  1  'x, y, z'
loop_
 _atom_site_type_symbol
 _atom_site_label
 _atom_site_symmetry_multiplicity
 _atom_site_fract_x
 _atom_site_fract_y
 _atom_site_fract_z
 _atom_site_occupancy
  Zr  Zr0  1  0.862250  0.275272  0.999773  1
  Zr  Zr1  1  0.137522  0.724728  0.999773  1
  Zr  Zr2  1  0.696860  0.802423  0.196144  1
  Zr  Zr3  1  0.499283  0.197578  0.196145  1
  Zr  Zr4  1  0.137879  0.000000  0.275758  1
  Zr  Zr5  1  0.861960  0.000000  0.723920  1
  Zr  Zr6  1  0.303582  0.196352  0.803517  1
  Zr  Zr7  1  0.499934  0.803648  0.803517  1
  Fe  Fe8  1  0.102060  0.500000  0.204122  1
  Fe  Fe9  1  0.602060  0.500000  0.204122  1
  Fe  Fe10  1  0.398685  0.204398  0.500760  1
  Fe  Fe11  1  0.897678  0.204398  0.500760  1
  Fe  Fe12  1  0.102075  0.795602  0.500760  1
  Fe  Fe13  1  0.603082  0.795602  0.500760  1
  Co  Co14  1  0.397441  0.500000  0.794881  1
  Co  Co15  1  0.897440  0.500000  0.794881  1
  Si  Si16  1  0.250522  0.000000  0.999902  1
  Si  Si17  1  0.749382  0.000000  0.999902  1
  Si  Si18  1  0.287869  0.421945  0.997684  1
  Si  Si19  1  0.709814  0.578055  0.997684  1
  Si  Si20  1  0.000388  0.299541  0.300317  1
  Si  Si21  1  0.299928  0.700459  0.300317  1
  Si  Si22  1  0.500372  0.409475  0.410219  1
  Si  Si23  1  0.909846  0.590525  0.410219  1
  Si  Si24  1  0.710369  0.000000  0.420739  1
  Si  Si25  1  0.289623  0.000000  0.579245  1
  Si  Si26  1  0.091843  0.408550  0.592237  1
  Si  Si27  1  0.500393  0.591450  0.592237  1
  Si  Si28  1  0.698397  0.303059  0.699853  1
  Si  Si29  1  0.001456  0.696941  0.699853  1
