# generated using pymatgen
data_YHo3Lu2(Al3Os)8
_symmetry_space_group_name_H-M   'P 1'
_cell_length_a   8.79050924
_cell_length_b   8.78487230
_cell_length_c   9.60858800
_cell_angle_alpha   90.00000000
_cell_angle_beta   90.00000000
_cell_angle_gamma   119.99973524
_symmetry_Int_Tables_number   1
_chemical_formula_structural   YHo3Lu2(Al3Os)8
_chemical_formula_sum   'Y1 Ho3 Lu2 Al24 Os8'
_cell_volume   642.60019049
_cell_formula_units_Z   1
loop_
 _symmetry_equiv_pos_site_id
 _symmetry_equiv_pos_as_xyz
  1  'x, y, z'
loop_
 _atom_site_type_symbol
 _atom_site_label
 _atom_site_symmetry_multiplicity
 _atom_site_fract_x
 _atom_site_fract_y
 _atom_site_fract_z
 _atom_site_occupancy
  Y  Y0  1  0.807482  0.192719  0.750000  1
  Ho  Ho1  1  0.193762  0.388038  0.250000  1
  Ho  Ho2  1  0.805910  0.611983  0.750000  1
  Ho  Ho3  1  0.388164  0.194259  0.750000  1
  Lu  Lu4  1  0.608781  0.804739  0.250000  1
  Lu  Lu5  1  0.195592  0.804530  0.250000  1
  Al  Al6  1  0.333546  0.667191  0.021686  1
  Al  Al7  1  0.666908  0.333305  0.980484  1
  Al  Al8  1  0.666908  0.333305  0.519516  1
  Al  Al9  1  0.333546  0.667191  0.478314  1
  Al  Al10  1  0.164052  0.327898  0.575564  1
  Al  Al11  1  0.836752  0.673678  0.423063  1
  Al  Al12  1  0.672421  0.836193  0.574947  1
  Al  Al13  1  0.836752  0.673678  0.076937  1
  Al  Al14  1  0.326840  0.163089  0.423158  1
  Al  Al15  1  0.164052  0.327898  0.924436  1
  Al  Al16  1  0.163663  0.836500  0.575117  1
  Al  Al17  1  0.326840  0.163089  0.076842  1
  Al  Al18  1  0.835964  0.163185  0.422692  1
  Al  Al19  1  0.672421  0.836193  0.925053  1
  Al  Al20  1  0.835964  0.163185  0.077308  1
  Al  Al21  1  0.163663  0.836500  0.924883  1
  Al  Al22  1  0.561024  0.122649  0.250000  1
  Al  Al23  1  0.437882  0.875824  0.750000  1
  Al  Al24  1  0.876421  0.439219  0.250000  1
  Al  Al25  1  0.124310  0.562334  0.750000  1
  Al  Al26  1  0.562351  0.439115  0.250000  1
  Al  Al27  1  0.437921  0.562411  0.750000  1
  Al  Al28  1  0.998983  0.998151  0.250000  1
  Al  Al29  1  0.001594  0.998703  0.750000  1
  Os  Os30  1  0.499186  0.999327  0.001169  1
  Os  Os31  1  0.000705  0.501264  0.000942  1
  Os  Os32  1  0.499186  0.999327  0.498831  1
  Os  Os33  1  0.500132  0.500621  0.000518  1
  Os  Os34  1  0.000705  0.501264  0.499058  1
  Os  Os35  1  0.500132  0.500621  0.499482  1
  Os  Os36  1  0.999743  0.000412  0.000107  1
  Os  Os37  1  0.999743  0.000412  0.499893  1
