# generated using pymatgen
data_Gd7VO12
_symmetry_space_group_name_H-M   'P 1'
_cell_length_a   6.74295048
_cell_length_b   6.74295172
_cell_length_c   6.74294965
_cell_angle_alpha   93.65511853
_cell_angle_beta   93.65511542
_cell_angle_gamma   93.65512882
_symmetry_Int_Tables_number   1
_chemical_formula_structural   Gd7VO12
_chemical_formula_sum   'Gd7 V1 O12'
_cell_volume   304.62964976
_cell_formula_units_Z   1
loop_
 _symmetry_equiv_pos_site_id
 _symmetry_equiv_pos_as_xyz
  1  'x, y, z'
loop_
 _atom_site_type_symbol
 _atom_site_label
 _atom_site_symmetry_multiplicity
 _atom_site_fract_x
 _atom_site_fract_y
 _atom_site_fract_z
 _atom_site_occupancy
  Gd  Gd0  1  0.737241  0.922746  0.435604  1
  Gd  Gd1  1  0.435604  0.737241  0.922746  1
  Gd  Gd2  1  0.077254  0.564396  0.262759  1
  Gd  Gd3  1  0.922746  0.435604  0.737241  1
  Gd  Gd4  1  0.564396  0.262759  0.077254  1
  Gd  Gd5  1  0.262759  0.077254  0.564396  1
  Gd  Gd6  1  0.000000  0.000000  0.000000  1
  V  V7  1  0.500000  0.500000  0.500000  1
  O  O8  1  0.066403  0.907021  0.319882  1
  O  O9  1  0.680118  0.933597  0.092979  1
  O  O10  1  0.461319  0.796873  0.587280  1
  O  O11  1  0.092979  0.680118  0.933597  1
  O  O12  1  0.796873  0.587280  0.461319  1
  O  O13  1  0.412720  0.538681  0.203127  1
  O  O14  1  0.587280  0.461319  0.796873  1
  O  O15  1  0.203127  0.412720  0.538681  1
  O  O16  1  0.907021  0.319882  0.066403  1
  O  O17  1  0.538681  0.203127  0.412720  1
  O  O18  1  0.319882  0.066403  0.907021  1
  O  O19  1  0.933597  0.092979  0.680118  1
