# generated using pymatgen
data_Sr4TaNiO8
_symmetry_space_group_name_H-M   'P 1'
_cell_length_a   6.89365141
_cell_length_b   6.89365215
_cell_length_c   5.62182000
_cell_angle_alpha   90.00000000
_cell_angle_beta   90.00000000
_cell_angle_gamma   131.76582843
_symmetry_Int_Tables_number   1
_chemical_formula_structural   Sr4TaNiO8
_chemical_formula_sum   'Sr4 Ta1 Ni1 O8'
_cell_volume   199.26945569
_cell_formula_units_Z   1
loop_
 _symmetry_equiv_pos_site_id
 _symmetry_equiv_pos_as_xyz
  1  'x, y, z'
loop_
 _atom_site_type_symbol
 _atom_site_label
 _atom_site_symmetry_multiplicity
 _atom_site_fract_x
 _atom_site_fract_y
 _atom_site_fract_z
 _atom_site_occupancy
  Sr  Sr0  1  0.645426  0.354574  0.000000  1
  Sr  Sr1  1  0.142705  0.857295  0.500000  1
  Sr  Sr2  1  0.857295  0.142705  0.500000  1
  Sr  Sr3  1  0.354574  0.645426  0.000000  1
  Ta  Ta4  1  0.500000  0.500000  0.500000  1
  Ni  Ni5  1  0.000000  0.000000  0.000000  1
  O  O6  1  0.747643  0.747643  0.748076  1
  O  O7  1  0.252357  0.252357  0.251924  1
  O  O8  1  0.252357  0.252357  0.748076  1
  O  O9  1  0.747643  0.747643  0.251924  1
  O  O10  1  0.841507  0.158493  0.000000  1
  O  O11  1  0.338056  0.661944  0.500000  1
  O  O12  1  0.661944  0.338056  0.500000  1
  O  O13  1  0.158493  0.841507  0.000000  1
