# generated using pymatgen
data_La17Tm2CdIr12
_symmetry_space_group_name_H-M   'P 1'
_cell_length_a   11.39293600
_cell_length_b   11.39293600
_cell_length_c   6.49523600
_cell_angle_alpha   90.00000000
_cell_angle_beta   90.00000000
_cell_angle_gamma   90.00000000
_symmetry_Int_Tables_number   1
_chemical_formula_structural   La17Tm2CdIr12
_chemical_formula_sum   'La17 Tm2 Cd1 Ir12'
_cell_volume   843.07507716
_cell_formula_units_Z   1
loop_
 _symmetry_equiv_pos_site_id
 _symmetry_equiv_pos_as_xyz
  1  'x, y, z'
loop_
 _atom_site_type_symbol
 _atom_site_label
 _atom_site_symmetry_multiplicity
 _atom_site_fract_x
 _atom_site_fract_y
 _atom_site_fract_z
 _atom_site_occupancy
  La  La0  1  0.278940  0.086702  0.391538  1
  La  La1  1  0.290664  0.909910  0.887610  1
  La  La2  1  0.709336  0.090090  0.887610  1
  La  La3  1  0.721060  0.913298  0.391538  1
  La  La4  1  0.589827  0.789197  0.891827  1
  La  La5  1  0.587454  0.210717  0.387468  1
  La  La6  1  0.412546  0.789283  0.387468  1
  La  La7  1  0.410173  0.210803  0.891827  1
  La  La8  1  0.210717  0.412546  0.612532  1
  La  La9  1  0.210803  0.589827  0.108173  1
  La  La10  1  0.789197  0.410173  0.108173  1
  La  La11  1  0.789283  0.587454  0.612532  1
  La  La12  1  0.909910  0.709336  0.112390  1
  La  La13  1  0.913298  0.278940  0.608462  1
  La  La14  1  0.086702  0.721060  0.608462  1
  La  La15  1  0.090090  0.290664  0.112390  1
  La  La16  1  0.000000  0.000000  0.000000  1
  Tm  Tm17  1  0.500000  0.500000  0.000000  1
  Tm  Tm18  1  0.500000  0.500000  0.500000  1
  Cd  Cd19  1  0.000000  0.000000  0.500000  1
  Ir  Ir20  1  0.844741  0.156280  0.242009  1
  Ir  Ir21  1  0.843720  0.844741  0.757991  1
  Ir  Ir22  1  0.156280  0.155259  0.757991  1
  Ir  Ir23  1  0.155259  0.843720  0.242009  1
  Ir  Ir24  1  0.647128  0.354737  0.746860  1
  Ir  Ir25  1  0.645263  0.647128  0.253140  1
  Ir  Ir26  1  0.354737  0.352872  0.253140  1
  Ir  Ir27  1  0.352872  0.645263  0.746860  1
  Ir  Ir28  1  0.500000  0.000000  0.122627  1
  Ir  Ir29  1  0.500000  0.000000  0.616822  1
  Ir  Ir30  1  0.000000  0.500000  0.877373  1
  Ir  Ir31  1  0.000000  0.500000  0.383178  1
