# generated using pymatgen
data_LuSc2(Rh2Pb)3
_symmetry_space_group_name_H-M   'P 1'
_cell_length_a   4.48042600
_cell_length_b   7.19195100
_cell_length_c   13.32381400
_cell_angle_alpha   90.00026874
_cell_angle_beta   89.99999572
_cell_angle_gamma   89.99997924
_symmetry_Int_Tables_number   1
_chemical_formula_structural   LuSc2(Rh2Pb)3
_chemical_formula_sum   'Lu2 Sc4 Rh12 Pb6'
_cell_volume   429.33331519
_cell_formula_units_Z   2
loop_
 _symmetry_equiv_pos_site_id
 _symmetry_equiv_pos_as_xyz
  1  'x, y, z'
loop_
 _atom_site_type_symbol
 _atom_site_label
 _atom_site_symmetry_multiplicity
 _atom_site_fract_x
 _atom_site_fract_y
 _atom_site_fract_z
 _atom_site_occupancy
  Lu  Lu0  1  0.000015  0.000031  0.999614  1
  Lu  Lu1  1  0.500033  0.499974  0.167218  1
  Sc  Sc2  1  0.000030  0.000004  0.334331  1
  Sc  Sc3  1  0.499997  0.499998  0.500328  1
  Sc  Sc4  1  0.999972  0.000003  0.666001  1
  Sc  Sc5  1  0.499968  0.499997  0.832349  1
  Rh  Rh6  1  0.500002  0.251876  0.998329  1
  Rh  Rh7  1  0.500000  0.748146  0.998353  1
  Rh  Rh8  1  0.000024  0.248093  0.168717  1
  Rh  Rh9  1  0.000056  0.751900  0.168711  1
  Rh  Rh10  1  0.500037  0.248391  0.335481  1
  Rh  Rh11  1  0.500036  0.751584  0.335479  1
  Rh  Rh12  1  0.999990  0.248988  0.500106  1
  Rh  Rh13  1  0.999986  0.751009  0.500106  1
  Rh  Rh14  1  0.499967  0.251026  0.666239  1
  Rh  Rh15  1  0.499951  0.748973  0.666219  1
  Rh  Rh16  1  0.999976  0.251585  0.831189  1
  Rh  Rh17  1  0.999957  0.748438  0.831193  1
  Pb  Pb18  1  0.000007  0.499994  0.997472  1
  Pb  Pb19  1  0.500031  0.999999  0.169419  1
  Pb  Pb20  1  0.000054  0.499994  0.336490  1
  Pb  Pb21  1  0.499976  0.000003  0.500544  1
  Pb  Pb22  1  0.999949  0.499988  0.665970  1
  Pb  Pb23  1  0.499981  0.000007  0.830141  1
