# generated using pymatgen
data_Dy3TmCr2(Fe3P2)6
_symmetry_space_group_name_H-M   'P 1'
_cell_length_a   3.65743800
_cell_length_b   10.30539928
_cell_length_c   11.84820332
_cell_angle_alpha   89.97334568
_cell_angle_beta   90.00000000
_cell_angle_gamma   90.00000000
_symmetry_Int_Tables_number   1
_chemical_formula_structural   Dy3TmCr2(Fe3P2)6
_chemical_formula_sum   'Dy3 Tm1 Cr2 Fe18 P12'
_cell_volume   446.57483568
_cell_formula_units_Z   1
loop_
 _symmetry_equiv_pos_site_id
 _symmetry_equiv_pos_as_xyz
  1  'x, y, z'
loop_
 _atom_site_type_symbol
 _atom_site_label
 _atom_site_symmetry_multiplicity
 _atom_site_fract_x
 _atom_site_fract_y
 _atom_site_fract_z
 _atom_site_occupancy
  Dy  Dy0  1  0.250000  0.580982  0.704340  1
  Dy  Dy1  1  0.250000  0.918860  0.204509  1
  Dy  Dy2  1  0.750000  0.081026  0.795351  1
  Tm  Tm3  1  0.750000  0.419290  0.295489  1
  Cr  Cr4  1  0.250000  0.702980  0.989687  1
  Cr  Cr5  1  0.250000  0.796684  0.489351  1
  Fe  Fe6  1  0.750000  0.293006  0.011819  1
  Fe  Fe7  1  0.750000  0.207137  0.511767  1
  Fe  Fe8  1  0.250000  0.404185  0.489337  1
  Fe  Fe9  1  0.250000  0.095876  0.990369  1
  Fe  Fe10  1  0.750000  0.594262  0.509084  1
  Fe  Fe11  1  0.750000  0.905331  0.009428  1
  Fe  Fe12  1  0.250000  0.220237  0.176402  1
  Fe  Fe13  1  0.250000  0.280561  0.676039  1
  Fe  Fe14  1  0.750000  0.781878  0.824294  1
  Fe  Fe15  1  0.750000  0.717551  0.324279  1
  Fe  Fe16  1  0.250000  0.875617  0.701243  1
  Fe  Fe17  1  0.250000  0.623568  0.201765  1
  Fe  Fe18  1  0.750000  0.125165  0.299589  1
  Fe  Fe19  1  0.750000  0.375673  0.799658  1
  Fe  Fe20  1  0.250000  0.462119  0.933152  1
  Fe  Fe21  1  0.250000  0.038390  0.432448  1
  Fe  Fe22  1  0.750000  0.533786  0.066790  1
  Fe  Fe23  1  0.750000  0.965854  0.566076  1
  P  P24  1  0.250000  0.422741  0.114016  1
  P  P25  1  0.250000  0.077310  0.612918  1
  P  P26  1  0.750000  0.577760  0.886852  1
  P  P27  1  0.750000  0.922102  0.386572  1
  P  P28  1  0.250000  0.265556  0.870997  1
  P  P29  1  0.250000  0.235723  0.370464  1
  P  P30  1  0.750000  0.732619  0.130587  1
  P  P31  1  0.750000  0.767194  0.630428  1
  P  P32  1  0.250000  0.596418  0.393317  1
  P  P33  1  0.250000  0.902559  0.893781  1
  P  P34  1  0.750000  0.398091  0.603865  1
  P  P35  1  0.750000  0.101909  0.103934  1
