# generated using pymatgen
data_Zr6SiPO2
_symmetry_space_group_name_H-M   'P 1'
_cell_length_a   5.82642813
_cell_length_b   5.82643009
_cell_length_c   8.49778500
_cell_angle_alpha   90.00000000
_cell_angle_beta   90.00000000
_cell_angle_gamma   145.10146291
_symmetry_Int_Tables_number   1
_chemical_formula_structural   Zr6SiPO2
_chemical_formula_sum   'Zr6 Si1 P1 O2'
_cell_volume   165.04468651
_cell_formula_units_Z   1
loop_
 _symmetry_equiv_pos_site_id
 _symmetry_equiv_pos_as_xyz
  1  'x, y, z'
loop_
 _atom_site_type_symbol
 _atom_site_label
 _atom_site_symmetry_multiplicity
 _atom_site_fract_x
 _atom_site_fract_y
 _atom_site_fract_z
 _atom_site_occupancy
  Zr  Zr0  1  0.942232  0.057768  0.750000  1
  Zr  Zr1  1  0.064920  0.935080  0.250000  1
  Zr  Zr2  1  0.639386  0.360614  0.554527  1
  Zr  Zr3  1  0.358010  0.641990  0.439841  1
  Zr  Zr4  1  0.358010  0.641990  0.060159  1
  Zr  Zr5  1  0.639386  0.360614  0.945473  1
  Si  Si6  1  0.255206  0.744794  0.750000  1
  P  P7  1  0.745214  0.254786  0.250000  1
  O  O8  1  0.998817  0.001183  0.497518  1
  O  O9  1  0.998817  0.001183  0.002482  1
