# generated using pymatgen
data_TbVF7
_symmetry_space_group_name_H-M   'P 1'
_cell_length_a   5.52875500
_cell_length_b   8.87098145
_cell_length_c   11.84773013
_cell_angle_alpha   63.09553387
_cell_angle_beta   90.00000000
_cell_angle_gamma   90.00000000
_symmetry_Int_Tables_number   1
_chemical_formula_structural   TbVF7
_chemical_formula_sum   'Tb4 V4 F28'
_cell_volume   518.18311634
_cell_formula_units_Z   4
loop_
 _symmetry_equiv_pos_site_id
 _symmetry_equiv_pos_as_xyz
  1  'x, y, z'
loop_
 _atom_site_type_symbol
 _atom_site_label
 _atom_site_symmetry_multiplicity
 _atom_site_fract_x
 _atom_site_fract_y
 _atom_site_fract_z
 _atom_site_occupancy
  Tb  Tb0  1  0.258319  0.808338  0.269115  1
  Tb  Tb1  1  0.741681  0.191662  0.730885  1
  Tb  Tb2  1  0.758319  0.191662  0.230885  1
  Tb  Tb3  1  0.241681  0.808338  0.769115  1
  V  V4  1  0.754535  0.726252  0.044744  1
  V  V5  1  0.245465  0.273748  0.955256  1
  V  V6  1  0.254535  0.273748  0.455256  1
  V  V7  1  0.745465  0.726252  0.544744  1
  F  F8  1  0.949265  0.706357  0.423752  1
  F  F9  1  0.050735  0.293643  0.576248  1
  F  F10  1  0.449265  0.293643  0.076248  1
  F  F11  1  0.550735  0.706357  0.923752  1
  F  F12  1  0.480817  0.731546  0.139573  1
  F  F13  1  0.519183  0.268454  0.860427  1
  F  F14  1  0.980817  0.268454  0.360427  1
  F  F15  1  0.019183  0.731546  0.639573  1
  F  F16  1  0.956847  0.746480  0.168345  1
  F  F17  1  0.043153  0.253520  0.831655  1
  F  F18  1  0.456847  0.253520  0.331655  1
  F  F19  1  0.543153  0.746480  0.668345  1
  F  F20  1  0.766675  0.493863  0.137644  1
  F  F21  1  0.233325  0.506137  0.862356  1
  F  F22  1  0.266675  0.506137  0.362356  1
  F  F23  1  0.733325  0.493863  0.637644  1
  F  F24  1  0.963170  0.284583  0.045008  1
  F  F25  1  0.036830  0.715417  0.954992  1
  F  F26  1  0.463170  0.715417  0.454992  1
  F  F27  1  0.536830  0.284583  0.545008  1
  F  F28  1  0.741764  0.956365  0.453408  1
  F  F29  1  0.258236  0.043635  0.546592  1
  F  F30  1  0.241764  0.043635  0.046592  1
  F  F31  1  0.758236  0.956365  0.953408  1
  F  F32  1  0.580935  0.972553  0.230338  1
  F  F33  1  0.419065  0.027447  0.769662  1
  F  F34  1  0.080935  0.027447  0.269662  1
  F  F35  1  0.919065  0.972553  0.730338  1
