# generated using pymatgen
data_Zr4Mn3Fe3Si8
_symmetry_space_group_name_H-M   'P 1'
_cell_length_a   9.70869758
_cell_length_b   9.70869883
_cell_length_c   13.02402616
_cell_angle_alpha   53.29142670
_cell_angle_beta   53.29141494
_cell_angle_gamma   30.91588621
_symmetry_Int_Tables_number   1
_chemical_formula_structural   Zr4Mn3Fe3Si8
_chemical_formula_sum   'Zr8 Mn6 Fe6 Si16'
_cell_volume   494.78277326
_cell_formula_units_Z   2
loop_
 _symmetry_equiv_pos_site_id
 _symmetry_equiv_pos_as_xyz
  1  'x, y, z'
loop_
 _atom_site_type_symbol
 _atom_site_label
 _atom_site_symmetry_multiplicity
 _atom_site_fract_x
 _atom_site_fract_y
 _atom_site_fract_z
 _atom_site_occupancy
  Zr  Zr0  1  0.036005  0.294196  0.642692  1
  Zr  Zr1  1  0.705804  0.963995  0.857308  1
  Zr  Zr2  1  0.963376  0.705626  0.359787  1
  Zr  Zr3  1  0.294374  0.036624  0.140213  1
  Zr  Zr4  1  0.292082  0.564889  0.644319  1
  Zr  Zr5  1  0.435111  0.707918  0.855681  1
  Zr  Zr6  1  0.707360  0.434940  0.355970  1
  Zr  Zr7  1  0.565060  0.292640  0.144030  1
  Mn  Mn8  1  0.164350  0.353251  0.226779  1
  Mn  Mn9  1  0.646749  0.835650  0.273221  1
  Mn  Mn10  1  0.241767  0.514455  0.937231  1
  Mn  Mn11  1  0.485545  0.758233  0.562769  1
  Mn  Mn12  1  0.756297  0.485255  0.063600  1
  Mn  Mn13  1  0.514745  0.243703  0.436400  1
  Fe  Fe14  1  0.896221  0.141731  0.586336  1
  Fe  Fe15  1  0.858269  0.103779  0.913664  1
  Fe  Fe16  1  0.102676  0.853417  0.416063  1
  Fe  Fe17  1  0.146583  0.897324  0.083937  1
  Fe  Fe18  1  0.831797  0.647556  0.777200  1
  Fe  Fe19  1  0.352444  0.168203  0.722800  1
  Si  Si20  1  0.967425  0.258859  0.897261  1
  Si  Si21  1  0.741141  0.032575  0.602739  1
  Si  Si22  1  0.033922  0.745417  0.101251  1
  Si  Si23  1  0.254583  0.966078  0.398749  1
  Si  Si24  1  0.134062  0.392251  0.896281  1
  Si  Si25  1  0.607749  0.865938  0.603719  1
  Si  Si26  1  0.864273  0.607838  0.101276  1
  Si  Si27  1  0.392162  0.135727  0.398724  1
  Si  Si28  1  0.089837  0.568831  0.566914  1
  Si  Si29  1  0.431169  0.910163  0.933086  1
  Si  Si30  1  0.911066  0.424778  0.438701  1
  Si  Si31  1  0.575222  0.088934  0.061299  1
  Si  Si32  1  0.614464  0.385536  0.750000  1
  Si  Si33  1  0.385383  0.614617  0.250000  1
  Si  Si34  1  0.122982  0.877018  0.750000  1
  Si  Si35  1  0.877942  0.122058  0.250000  1
