# generated using pymatgen
data_Y2U(ZnIr)3
_symmetry_space_group_name_H-M   'P 1'
_cell_length_a   7.10669317
_cell_length_b   7.33812471
_cell_length_c   3.86257600
_cell_angle_alpha   90.00000000
_cell_angle_beta   90.00000000
_cell_angle_gamma   121.08321238
_symmetry_Int_Tables_number   1
_chemical_formula_structural   Y2U(ZnIr)3
_chemical_formula_sum   'Y2 U1 Zn3 Ir3'
_cell_volume   172.51055662
_cell_formula_units_Z   1
loop_
 _symmetry_equiv_pos_site_id
 _symmetry_equiv_pos_as_xyz
  1  'x, y, z'
loop_
 _atom_site_type_symbol
 _atom_site_label
 _atom_site_symmetry_multiplicity
 _atom_site_fract_x
 _atom_site_fract_y
 _atom_site_fract_z
 _atom_site_occupancy
  Y  Y0  1  0.596142  0.002190  0.500000  1
  Y  Y1  1  0.403858  0.406048  0.500000  1
  U  U2  1  0.000000  0.594614  0.500000  1
  Zn  Zn3  1  0.264351  0.014148  0.000000  1
  Zn  Zn4  1  0.735649  0.749797  0.000000  1
  Zn  Zn5  1  0.000000  0.233069  0.000000  1
  Ir  Ir6  1  0.000000  0.977268  0.500000  1
  Ir  Ir7  1  0.299397  0.661133  0.000000  1
  Ir  Ir8  1  0.700603  0.361735  0.000000  1
