# generated using pymatgen
data_HoTmMn3Co9P7
_symmetry_space_group_name_H-M   'P 1'
_cell_length_a   9.06696100
_cell_length_b   9.06696126
_cell_length_c   3.58609500
_cell_angle_alpha   90.00000000
_cell_angle_beta   90.00000000
_cell_angle_gamma   120.00000998
_symmetry_Int_Tables_number   1
_chemical_formula_structural   HoTmMn3Co9P7
_chemical_formula_sum   'Ho1 Tm1 Mn3 Co9 P7'
_cell_volume   255.31473877
_cell_formula_units_Z   1
loop_
 _symmetry_equiv_pos_site_id
 _symmetry_equiv_pos_as_xyz
  1  'x, y, z'
loop_
 _atom_site_type_symbol
 _atom_site_label
 _atom_site_symmetry_multiplicity
 _atom_site_fract_x
 _atom_site_fract_y
 _atom_site_fract_z
 _atom_site_occupancy
  Ho  Ho0  1  0.333333  0.666667  0.500000  1
  Tm  Tm1  1  0.666667  0.333333  0.000000  1
  Mn  Mn2  1  0.101240  0.221683  0.500000  1
  Mn  Mn3  1  0.778317  0.879558  0.500000  1
  Mn  Mn4  1  0.120442  0.898760  0.500000  1
  Co  Co5  1  0.060800  0.429988  0.000000  1
  Co  Co6  1  0.570012  0.630813  0.000000  1
  Co  Co7  1  0.369187  0.939200  0.000000  1
  Co  Co8  1  0.276143  0.158458  0.000000  1
  Co  Co9  1  0.841542  0.117685  0.000000  1
  Co  Co10  1  0.882315  0.723857  0.000000  1
  Co  Co11  1  0.438603  0.386630  0.500000  1
  Co  Co12  1  0.613370  0.051973  0.500000  1
  Co  Co13  1  0.948027  0.561397  0.500000  1
  P  P14  1  0.301100  0.412846  0.000000  1
  P  P15  1  0.587154  0.888254  0.000000  1
  P  P16  1  0.111746  0.698900  0.000000  1
  P  P17  1  0.407689  0.118569  0.500000  1
  P  P18  1  0.881431  0.289120  0.500000  1
  P  P19  1  0.710880  0.592311  0.500000  1
  P  P20  1  0.000000  0.000000  0.000000  1
