# generated using pymatgen
data_La12Ga(OsBr4)3
_symmetry_space_group_name_H-M   'P 1'
_cell_length_a   10.76286492
_cell_length_b   10.76286566
_cell_length_c   10.76286500
_cell_angle_alpha   109.91384660
_cell_angle_beta   109.91385370
_cell_angle_gamma   109.91384652
_symmetry_Int_Tables_number   1
_chemical_formula_structural   La12Ga(OsBr4)3
_chemical_formula_sum   'La12 Ga1 Os3 Br12'
_cell_volume   943.70225958
_cell_formula_units_Z   1
loop_
 _symmetry_equiv_pos_site_id
 _symmetry_equiv_pos_as_xyz
  1  'x, y, z'
loop_
 _atom_site_type_symbol
 _atom_site_label
 _atom_site_symmetry_multiplicity
 _atom_site_fract_x
 _atom_site_fract_y
 _atom_site_fract_z
 _atom_site_occupancy
  La  La0  1  0.470645  0.496374  0.228928  1
  La  La1  1  0.750000  0.233716  0.266284  1
  La  La2  1  0.750000  0.015399  0.484601  1
  La  La3  1  0.228928  0.470645  0.496374  1
  La  La4  1  0.266284  0.750000  0.233716  1
  La  La5  1  0.029355  0.271072  0.003626  1
  La  La6  1  0.003626  0.029355  0.271072  1
  La  La7  1  0.484601  0.750000  0.015399  1
  La  La8  1  0.496374  0.228928  0.470645  1
  La  La9  1  0.015399  0.484601  0.750000  1
  La  La10  1  0.271072  0.003626  0.029355  1
  La  La11  1  0.233716  0.266284  0.750000  1
  Ga  Ga12  1  0.250000  0.250000  0.250000  1
  Os  Os13  1  0.500519  0.999481  0.250000  1
  Os  Os14  1  0.999481  0.250000  0.500519  1
  Os  Os15  1  0.250000  0.500519  0.999481  1
  Br  Br16  1  0.250000  0.756674  0.743326  1
  Br  Br17  1  0.506784  0.500337  0.750184  1
  Br  Br18  1  0.993216  0.749816  0.999663  1
  Br  Br19  1  0.743326  0.250000  0.756674  1
  Br  Br20  1  0.999663  0.993216  0.749816  1
  Br  Br21  1  0.250000  0.000118  0.499882  1
  Br  Br22  1  0.750184  0.506784  0.500337  1
  Br  Br23  1  0.499882  0.250000  0.000118  1
  Br  Br24  1  0.756674  0.743326  0.250000  1
  Br  Br25  1  0.749816  0.999663  0.993216  1
  Br  Br26  1  0.000118  0.499882  0.250000  1
  Br  Br27  1  0.500337  0.750184  0.506784  1
