# generated using pymatgen
data_Tb12Dy4In4TcRh3
_symmetry_space_group_name_H-M   'P 1'
_cell_length_a   9.71677295
_cell_length_b   9.71677219
_cell_length_c   9.71689722
_cell_angle_alpha   59.71987068
_cell_angle_beta   59.71987045
_cell_angle_gamma   59.73798285
_symmetry_Int_Tables_number   1
_chemical_formula_structural   Tb12Dy4In4TcRh3
_chemical_formula_sum   'Tb12 Dy4 In4 Tc1 Rh3'
_cell_volume   644.68079816
_cell_formula_units_Z   1
loop_
 _symmetry_equiv_pos_site_id
 _symmetry_equiv_pos_as_xyz
  1  'x, y, z'
loop_
 _atom_site_type_symbol
 _atom_site_label
 _atom_site_symmetry_multiplicity
 _atom_site_fract_x
 _atom_site_fract_y
 _atom_site_fract_z
 _atom_site_occupancy
  Tb  Tb0  1  0.689861  0.309493  0.309618  1
  Tb  Tb1  1  0.691793  0.691793  0.310728  1
  Tb  Tb2  1  0.309493  0.689861  0.309618  1
  Tb  Tb3  1  0.936695  0.936695  0.564395  1
  Tb  Tb4  1  0.150120  0.150120  0.546580  1
  Tb  Tb5  1  0.557730  0.946363  0.557781  1
  Tb  Tb6  1  0.151173  0.151173  0.151081  1
  Tb  Tb7  1  0.309686  0.309686  0.689859  1
  Tb  Tb8  1  0.946363  0.557730  0.557781  1
  Tb  Tb9  1  0.557670  0.557670  0.946372  1
  Tb  Tb10  1  0.564328  0.936832  0.936647  1
  Tb  Tb11  1  0.936832  0.564328  0.936647  1
  Dy  Dy12  1  0.150228  0.546447  0.150025  1
  Dy  Dy13  1  0.310608  0.691691  0.691924  1
  Dy  Dy14  1  0.691691  0.310608  0.691924  1
  Dy  Dy15  1  0.546447  0.150228  0.150025  1
  In  In16  1  0.917919  0.917919  0.247784  1
  In  In17  1  0.247796  0.917846  0.917966  1
  In  In18  1  0.917846  0.247796  0.917966  1
  In  In19  1  0.918493  0.918493  0.918555  1
  Tc  Tc20  1  0.358752  0.358752  0.358454  1
  Rh  Rh21  1  0.922155  0.358132  0.358031  1
  Rh  Rh22  1  0.358190  0.358190  0.922208  1
  Rh  Rh23  1  0.358132  0.922155  0.358031  1
