# generated using pymatgen
data_Th3In(Pd3Pt)3
_symmetry_space_group_name_H-M   'P 1'
_cell_length_a   5.89857700
_cell_length_b   5.89857629
_cell_length_c   9.72883700
_cell_angle_alpha   90.00000000
_cell_angle_beta   90.00000000
_cell_angle_gamma   119.99999836
_symmetry_Int_Tables_number   1
_chemical_formula_structural   Th3In(Pd3Pt)3
_chemical_formula_sum   'Th3 In1 Pd9 Pt3'
_cell_volume   293.14738205
_cell_formula_units_Z   1
loop_
 _symmetry_equiv_pos_site_id
 _symmetry_equiv_pos_as_xyz
  1  'x, y, z'
loop_
 _atom_site_type_symbol
 _atom_site_label
 _atom_site_symmetry_multiplicity
 _atom_site_fract_x
 _atom_site_fract_y
 _atom_site_fract_z
 _atom_site_occupancy
  Th  Th0  1  0.000000  0.000000  0.496636  1
  Th  Th1  1  0.000000  0.000000  0.003364  1
  Th  Th2  1  0.666667  0.333333  0.750000  1
  In  In3  1  0.333333  0.666667  0.250000  1
  Pd  Pd4  1  0.499229  0.500771  0.495594  1
  Pd  Pd5  1  0.499229  0.998459  0.495594  1
  Pd  Pd6  1  0.001541  0.500771  0.495594  1
  Pd  Pd7  1  0.499229  0.500771  0.004406  1
  Pd  Pd8  1  0.499229  0.998459  0.004406  1
  Pd  Pd9  1  0.001541  0.500771  0.004406  1
  Pd  Pd10  1  0.824940  0.649881  0.250000  1
  Pd  Pd11  1  0.350119  0.175060  0.250000  1
  Pd  Pd12  1  0.824940  0.175060  0.250000  1
  Pt  Pt13  1  0.173322  0.346643  0.750000  1
  Pt  Pt14  1  0.653357  0.826678  0.750000  1
  Pt  Pt15  1  0.173322  0.826678  0.750000  1
