# generated using pymatgen
data_Sr3La5(As7Ir8)2
_symmetry_space_group_name_H-M   'P 1'
_cell_length_a   4.17086000
_cell_length_b   13.35992363
_cell_length_c   13.75584177
_cell_angle_alpha   81.30577843
_cell_angle_beta   90.00000000
_cell_angle_gamma   90.00000000
_symmetry_Int_Tables_number   1
_chemical_formula_structural   Sr3La5(As7Ir8)2
_chemical_formula_sum   'Sr3 La5 As14 Ir16'
_cell_volume   757.70027944
_cell_formula_units_Z   1
loop_
 _symmetry_equiv_pos_site_id
 _symmetry_equiv_pos_as_xyz
  1  'x, y, z'
loop_
 _atom_site_type_symbol
 _atom_site_label
 _atom_site_symmetry_multiplicity
 _atom_site_fract_x
 _atom_site_fract_y
 _atom_site_fract_z
 _atom_site_occupancy
  Sr  Sr0  1  0.250000  0.102319  0.792179  1
  Sr  Sr1  1  0.750000  0.896992  0.207421  1
  Sr  Sr2  1  0.250000  0.286451  0.104725  1
  La  La3  1  0.750000  0.712465  0.893863  1
  La  La4  1  0.250000  0.520217  0.291697  1
  La  La5  1  0.750000  0.479582  0.708040  1
  La  La6  1  0.250000  0.211767  0.437561  1
  La  La7  1  0.750000  0.790767  0.561057  1
  As  As8  1  0.250000  0.057559  0.098224  1
  As  As9  1  0.750000  0.940421  0.900340  1
  As  As10  1  0.250000  0.311638  0.686635  1
  As  As11  1  0.750000  0.687600  0.313259  1
  As  As12  1  0.250000  0.607915  0.565698  1
  As  As13  1  0.750000  0.394352  0.437209  1
  As  As14  1  0.250000  0.846418  0.721149  1
  As  As15  1  0.750000  0.154495  0.278707  1
  As  As16  1  0.750000  0.255818  0.917897  1
  As  As17  1  0.250000  0.741274  0.080072  1
  As  As18  1  0.750000  0.093704  0.587284  1
  As  As19  1  0.250000  0.906963  0.412645  1
  As  As20  1  0.750000  0.471401  0.127739  1
  As  As21  1  0.250000  0.526904  0.873098  1
  Ir  Ir22  1  0.250000  0.986496  0.574094  1
  Ir  Ir23  1  0.750000  0.014719  0.425087  1
  Ir  Ir24  1  0.250000  0.663639  0.733645  1
  Ir  Ir25  1  0.750000  0.337652  0.273039  1
  Ir  Ir26  1  0.250000  0.554720  0.046516  1
  Ir  Ir27  1  0.750000  0.447686  0.950925  1
  Ir  Ir28  1  0.250000  0.059451  0.278299  1
  Ir  Ir29  1  0.750000  0.939981  0.721132  1
  Ir  Ir30  1  0.250000  0.427165  0.527251  1
  Ir  Ir31  1  0.750000  0.575745  0.475432  1
  Ir  Ir32  1  0.250000  0.918832  0.997181  1
  Ir  Ir33  1  0.750000  0.077390  0.001324  1
  Ir  Ir34  1  0.250000  0.722266  0.402154  1
  Ir  Ir35  1  0.750000  0.278026  0.598263  1
  Ir  Ir36  1  0.250000  0.343715  0.860531  1
  Ir  Ir37  1  0.750000  0.655495  0.138628  1
