# generated using pymatgen
data_Mn5AsPd10
_symmetry_space_group_name_H-M   'P 1'
_cell_length_a   4.13325000
_cell_length_b   5.48303262
_cell_length_c   10.79541553
_cell_angle_alpha   89.45434212
_cell_angle_beta   90.00000000
_cell_angle_gamma   90.00000000
_symmetry_Int_Tables_number   1
_chemical_formula_structural   Mn5AsPd10
_chemical_formula_sum   'Mn5 As1 Pd10'
_cell_volume   244.64265027
_cell_formula_units_Z   1
loop_
 _symmetry_equiv_pos_site_id
 _symmetry_equiv_pos_as_xyz
  1  'x, y, z'
loop_
 _atom_site_type_symbol
 _atom_site_label
 _atom_site_symmetry_multiplicity
 _atom_site_fract_x
 _atom_site_fract_y
 _atom_site_fract_z
 _atom_site_occupancy
  Mn  Mn0  1  0.000000  0.000000  0.000000  1
  Mn  Mn1  1  0.500000  0.171467  0.357308  1
  Mn  Mn2  1  0.500000  0.828533  0.642692  1
  Mn  Mn3  1  0.500000  0.683868  0.136302  1
  Mn  Mn4  1  0.500000  0.316132  0.863698  1
  As  As5  1  0.000000  0.500000  0.500000  1
  Pd  Pd6  1  0.500000  0.193238  0.111943  1
  Pd  Pd7  1  0.500000  0.806762  0.888057  1
  Pd  Pd8  1  0.500000  0.686295  0.392817  1
  Pd  Pd9  1  0.500000  0.313705  0.607183  1
  Pd  Pd10  1  0.000000  0.000000  0.500000  1
  Pd  Pd11  1  0.000000  0.500000  0.000000  1
  Pd  Pd12  1  0.000000  0.922926  0.242457  1
  Pd  Pd13  1  0.000000  0.077074  0.757543  1
  Pd  Pd14  1  0.000000  0.424544  0.259520  1
  Pd  Pd15  1  0.000000  0.575456  0.740480  1
