# generated using pymatgen
data_Yb2Dy2TmRu2
_symmetry_space_group_name_H-M   'P 1'
_cell_length_a   6.43728015
_cell_length_b   7.20292261
_cell_length_c   8.52075023
_cell_angle_alpha   97.11145371
_cell_angle_beta   112.19386600
_cell_angle_gamma   90.00000285
_symmetry_Int_Tables_number   1
_chemical_formula_structural   Yb2Dy2TmRu2
_chemical_formula_sum   'Yb4 Dy4 Tm2 Ru4'
_cell_volume   362.52764252
_cell_formula_units_Z   2
loop_
 _symmetry_equiv_pos_site_id
 _symmetry_equiv_pos_as_xyz
  1  'x, y, z'
loop_
 _atom_site_type_symbol
 _atom_site_label
 _atom_site_symmetry_multiplicity
 _atom_site_fract_x
 _atom_site_fract_y
 _atom_site_fract_z
 _atom_site_occupancy
  Yb  Yb0  1  0.795678  0.079839  0.817657  1
  Yb  Yb1  1  0.978021  0.420161  0.182343  1
  Yb  Yb2  1  0.204322  0.920161  0.182343  1
  Yb  Yb3  1  0.021979  0.579839  0.817657  1
  Dy  Dy4  1  0.198823  0.184720  0.567047  1
  Dy  Dy5  1  0.631777  0.315280  0.432953  1
  Dy  Dy6  1  0.801177  0.815280  0.432953  1
  Dy  Dy7  1  0.368223  0.684720  0.567047  1
  Tm  Tm8  1  0.433408  0.250000  0.000000  1
  Tm  Tm9  1  0.566592  0.750000  0.000000  1
  Ru  Ru10  1  0.583215  0.426081  0.771234  1
  Ru  Ru11  1  0.811980  0.073919  0.228766  1
  Ru  Ru12  1  0.416785  0.573919  0.228766  1
  Ru  Ru13  1  0.188020  0.926081  0.771234  1
