# generated using pymatgen
data_Ba3ScCrSe6
_symmetry_space_group_name_H-M   'P 1'
_cell_length_a   8.57151644
_cell_length_b   8.57151623
_cell_length_c   8.57151719
_cell_angle_alpha   93.84149688
_cell_angle_beta   93.84149600
_cell_angle_gamma   93.84149358
_symmetry_Int_Tables_number   1
_chemical_formula_structural   Ba3ScCrSe6
_chemical_formula_sum   'Ba6 Sc2 Cr2 Se12'
_cell_volume   625.31192171
_cell_formula_units_Z   2
loop_
 _symmetry_equiv_pos_site_id
 _symmetry_equiv_pos_as_xyz
  1  'x, y, z'
loop_
 _atom_site_type_symbol
 _atom_site_label
 _atom_site_symmetry_multiplicity
 _atom_site_fract_x
 _atom_site_fract_y
 _atom_site_fract_z
 _atom_site_occupancy
  Ba  Ba0  1  0.364288  0.750000  0.135712  1
  Ba  Ba1  1  0.135712  0.364288  0.750000  1
  Ba  Ba2  1  0.750000  0.135712  0.364288  1
  Ba  Ba3  1  0.635712  0.250000  0.864288  1
  Ba  Ba4  1  0.864288  0.635712  0.250000  1
  Ba  Ba5  1  0.250000  0.864288  0.635712  1
  Sc  Sc6  1  0.250000  0.250000  0.250000  1
  Sc  Sc7  1  0.750000  0.750000  0.750000  1
  Cr  Cr8  1  0.500000  0.500000  0.500000  1
  Cr  Cr9  1  0.000000  0.000000  0.000000  1
  Se  Se10  1  0.529391  0.411617  0.207385  1
  Se  Se11  1  0.207385  0.529391  0.411617  1
  Se  Se12  1  0.411617  0.207385  0.529391  1
  Se  Se13  1  0.970609  0.292615  0.088383  1
  Se  Se14  1  0.088383  0.970609  0.292615  1
  Se  Se15  1  0.292615  0.088383  0.970609  1
  Se  Se16  1  0.470609  0.588383  0.792615  1
  Se  Se17  1  0.792615  0.470609  0.588383  1
  Se  Se18  1  0.588383  0.792615  0.470609  1
  Se  Se19  1  0.029391  0.707385  0.911617  1
  Se  Se20  1  0.707385  0.911617  0.029391  1
  Se  Se21  1  0.911617  0.029391  0.707385  1
