# generated using pymatgen
data_Tb5Er11Cd4PdRu3
_symmetry_space_group_name_H-M   'P 1'
_cell_length_a   9.60276792
_cell_length_b   9.64544701
_cell_length_c   9.64544651
_cell_angle_alpha   59.60938709
_cell_angle_beta   59.42991956
_cell_angle_gamma   59.42991399
_symmetry_Int_Tables_number   1
_chemical_formula_structural   Tb5Er11Cd4PdRu3
_chemical_formula_sum   'Tb5 Er11 Cd4 Pd1 Ru3'
_cell_volume   624.38664767
_cell_formula_units_Z   1
loop_
 _symmetry_equiv_pos_site_id
 _symmetry_equiv_pos_as_xyz
  1  'x, y, z'
loop_
 _atom_site_type_symbol
 _atom_site_label
 _atom_site_symmetry_multiplicity
 _atom_site_fract_x
 _atom_site_fract_y
 _atom_site_fract_z
 _atom_site_occupancy
  Tb  Tb0  1  0.555807  0.939417  0.939417  1
  Tb  Tb1  1  0.556317  0.938372  0.565686  1
  Tb  Tb2  1  0.936822  0.561258  0.939121  1
  Tb  Tb3  1  0.556317  0.565686  0.938372  1
  Tb  Tb4  1  0.936822  0.939121  0.561258  1
  Er  Er5  1  0.344315  0.351823  0.351823  1
  Er  Er6  1  0.345206  0.352131  0.953308  1
  Er  Er7  1  0.345206  0.953308  0.352131  1
  Er  Er8  1  0.965903  0.345165  0.345165  1
  Er  Er9  1  0.816327  0.188506  0.188506  1
  Er  Er10  1  0.184473  0.812176  0.812176  1
  Er  Er11  1  0.186191  0.811151  0.189152  1
  Er  Er12  1  0.816718  0.189335  0.804663  1
  Er  Er13  1  0.186191  0.189152  0.811151  1
  Er  Er14  1  0.816718  0.804663  0.189335  1
  Er  Er15  1  0.936334  0.561676  0.561676  1
  Cd  Cd16  1  0.581857  0.579429  0.579429  1
  Cd  Cd17  1  0.580892  0.579702  0.259140  1
  Cd  Cd18  1  0.580892  0.259140  0.579702  1
  Cd  Cd19  1  0.255222  0.581210  0.581210  1
  Pd  Pd20  1  0.574317  0.142720  0.142720  1
  Ru  Ru21  1  0.146480  0.137931  0.137931  1
  Ru  Ru22  1  0.147336  0.140137  0.576794  1
  Ru  Ru23  1  0.147336  0.576794  0.140137  1
