# generated using pymatgen
data_Li6SmEuUN6
_symmetry_space_group_name_H-M   'P 1'
_cell_length_a   6.14779300
_cell_length_b   6.14778223
_cell_length_c   5.45518600
_cell_angle_alpha   89.99898277
_cell_angle_beta   90.00026702
_cell_angle_gamma   120.00006681
_symmetry_Int_Tables_number   1
_chemical_formula_structural   Li6SmEuUN6
_chemical_formula_sum   'Li6 Sm1 Eu1 U1 N6'
_cell_volume   178.55730123
_cell_formula_units_Z   1
loop_
 _symmetry_equiv_pos_site_id
 _symmetry_equiv_pos_as_xyz
  1  'x, y, z'
loop_
 _atom_site_type_symbol
 _atom_site_label
 _atom_site_symmetry_multiplicity
 _atom_site_fract_x
 _atom_site_fract_y
 _atom_site_fract_z
 _atom_site_occupancy
  Li  Li0  1  0.974735  0.645265  0.603393  1
  Li  Li1  1  0.354730  0.329475  0.603401  1
  Li  Li2  1  0.670532  0.025258  0.603404  1
  Li  Li3  1  0.003962  0.336241  0.394003  1
  Li  Li4  1  0.663754  0.667725  0.393992  1
  Li  Li5  1  0.332283  0.996035  0.393998  1
  Sm  Sm6  1  0.333331  0.666666  0.992480  1
  Eu  Eu7  1  0.000001  0.000003  0.997685  1
  U  U8  1  0.666663  0.333332  0.006642  1
  N  N9  1  0.971476  0.637069  0.227824  1
  N  N10  1  0.362909  0.334383  0.227821  1
  N  N11  1  0.665602  0.028505  0.227826  1
  N  N12  1  0.967306  0.334759  0.775840  1
  N  N13  1  0.665256  0.632569  0.775843  1
  N  N14  1  0.367460  0.032716  0.775849  1
