# generated using pymatgen
data_Ho6VFe7(Co5P6)2
_symmetry_space_group_name_H-M   'P 1'
_cell_length_a   3.70885300
_cell_length_b   10.52343300
_cell_length_c   12.12618200
_cell_angle_alpha   90.00000000
_cell_angle_beta   90.00000000
_cell_angle_gamma   90.00000000
_symmetry_Int_Tables_number   1
_chemical_formula_structural   Ho6VFe7(Co5P6)2
_chemical_formula_sum   'Ho6 V1 Fe7 Co10 P12'
_cell_volume   473.28325919
_cell_formula_units_Z   1
loop_
 _symmetry_equiv_pos_site_id
 _symmetry_equiv_pos_as_xyz
  1  'x, y, z'
loop_
 _atom_site_type_symbol
 _atom_site_label
 _atom_site_symmetry_multiplicity
 _atom_site_fract_x
 _atom_site_fract_y
 _atom_site_fract_z
 _atom_site_occupancy
  Ho  Ho0  1  0.000000  0.500000  0.523549  1
  Ho  Ho1  1  0.500000  0.000000  0.476543  1
  Ho  Ho2  1  0.500000  0.820244  0.206366  1
  Ho  Ho3  1  0.500000  0.179756  0.206366  1
  Ho  Ho4  1  0.000000  0.680210  0.795591  1
  Ho  Ho5  1  0.000000  0.319790  0.795591  1
  V  V6  1  0.500000  0.500000  0.149835  1
  Fe  Fe7  1  0.000000  0.500000  0.986378  1
  Fe  Fe8  1  0.500000  0.000000  0.011587  1
  Fe  Fe9  1  0.500000  0.296884  0.430469  1
  Fe  Fe10  1  0.500000  0.703116  0.430469  1
  Fe  Fe11  1  0.000000  0.201151  0.572452  1
  Fe  Fe12  1  0.000000  0.798849  0.572452  1
  Fe  Fe13  1  0.000000  0.000000  0.843853  1
  Co  Co14  1  0.500000  0.881286  0.710842  1
  Co  Co15  1  0.500000  0.118714  0.710842  1
  Co  Co16  1  0.000000  0.621072  0.290023  1
  Co  Co17  1  0.000000  0.378928  0.290023  1
  Co  Co18  1  0.500000  0.329479  0.992483  1
  Co  Co19  1  0.500000  0.670521  0.992483  1
  Co  Co20  1  0.000000  0.166747  0.005424  1
  Co  Co21  1  0.000000  0.833253  0.005424  1
  Co  Co22  1  0.500000  0.500000  0.699634  1
  Co  Co23  1  0.000000  0.000000  0.299720  1
  P  P24  1  0.500000  0.307570  0.615299  1
  P  P25  1  0.500000  0.692430  0.615299  1
  P  P26  1  0.000000  0.192338  0.387332  1
  P  P27  1  0.000000  0.807662  0.387332  1
  P  P28  1  0.500000  0.500000  0.883354  1
  P  P29  1  0.000000  0.000000  0.116342  1
  P  P30  1  0.500000  0.849368  0.891685  1
  P  P31  1  0.500000  0.150632  0.891685  1
  P  P32  1  0.000000  0.654754  0.105170  1
  P  P33  1  0.000000  0.345246  0.105170  1
  P  P34  1  0.500000  0.500000  0.346290  1
  P  P35  1  0.000000  0.000000  0.656642  1
