# generated using pymatgen
data_Cs4Cr2S5
_symmetry_space_group_name_H-M   'P 1'
_cell_length_a   7.92903625
_cell_length_b   8.94991095
_cell_length_c   10.97165516
_cell_angle_alpha   77.69066775
_cell_angle_beta   84.99837996
_cell_angle_gamma   80.24909742
_symmetry_Int_Tables_number   1
_chemical_formula_structural   Cs4Cr2S5
_chemical_formula_sum   'Cs8 Cr4 S10'
_cell_volume   748.65020345
_cell_formula_units_Z   2
loop_
 _symmetry_equiv_pos_site_id
 _symmetry_equiv_pos_as_xyz
  1  'x, y, z'
loop_
 _atom_site_type_symbol
 _atom_site_label
 _atom_site_symmetry_multiplicity
 _atom_site_fract_x
 _atom_site_fract_y
 _atom_site_fract_z
 _atom_site_occupancy
  Cs  Cs0  1  0.933290  0.894747  0.248503  1
  Cs  Cs1  1  0.066710  0.105253  0.751497  1
  Cs  Cs2  1  0.578279  0.178582  0.907451  1
  Cs  Cs3  1  0.421721  0.821418  0.092549  1
  Cs  Cs4  1  0.408742  0.785527  0.492631  1
  Cs  Cs5  1  0.591258  0.214473  0.507369  1
  Cs  Cs6  1  0.204837  0.575828  0.871120  1
  Cs  Cs7  1  0.795163  0.424172  0.128880  1
  Cr  Cr8  1  0.728277  0.767616  0.779793  1
  Cr  Cr9  1  0.271723  0.232384  0.220207  1
  Cr  Cr10  1  0.909488  0.581023  0.593909  1
  Cr  Cr11  1  0.090512  0.418977  0.406091  1
  S  S12  1  0.832263  0.810156  0.949373  1
  S  S13  1  0.167737  0.189844  0.050627  1
  S  S14  1  0.463385  0.897519  0.766651  1
  S  S15  1  0.536615  0.102481  0.233349  1
  S  S16  1  0.892207  0.839438  0.606368  1
  S  S17  1  0.107793  0.160562  0.393632  1
  S  S18  1  0.742981  0.512308  0.777741  1
  S  S19  1  0.257019  0.487692  0.222259  1
  S  S20  1  0.810297  0.542342  0.413748  1
  S  S21  1  0.189703  0.457658  0.586252  1
