# generated using pymatgen
data_TbGd6PI12
_symmetry_space_group_name_H-M   'P 1'
_cell_length_a   9.83113030
_cell_length_b   9.83113005
_cell_length_c   9.83113000
_cell_angle_alpha   107.84774234
_cell_angle_beta   107.84773573
_cell_angle_gamma   107.84773670
_symmetry_Int_Tables_number   1
_chemical_formula_structural   TbGd6PI12
_chemical_formula_sum   'Tb1 Gd6 P1 I12'
_cell_volume   772.29693022
_cell_formula_units_Z   1
loop_
 _symmetry_equiv_pos_site_id
 _symmetry_equiv_pos_as_xyz
  1  'x, y, z'
loop_
 _atom_site_type_symbol
 _atom_site_label
 _atom_site_symmetry_multiplicity
 _atom_site_fract_x
 _atom_site_fract_y
 _atom_site_fract_z
 _atom_site_occupancy
  Tb  Tb0  1  0.500000  0.500000  0.500000  1
  Gd  Gd1  1  0.899569  0.696611  0.969816  1
  Gd  Gd2  1  0.969816  0.899569  0.696611  1
  Gd  Gd3  1  0.696611  0.969816  0.899569  1
  Gd  Gd4  1  0.100431  0.303389  0.030184  1
  Gd  Gd5  1  0.030184  0.100431  0.303389  1
  Gd  Gd6  1  0.303389  0.030184  0.100431  1
  P  P7  1  0.000000  0.000000  0.000000  1
  I  I8  1  0.772087  0.314049  0.924090  1
  I  I9  1  0.924090  0.772087  0.314049  1
  I  I10  1  0.314049  0.924090  0.772087  1
  I  I11  1  0.227913  0.685951  0.075910  1
  I  I12  1  0.075910  0.227913  0.685951  1
  I  I13  1  0.685951  0.075910  0.227913  1
  I  I14  1  0.532880  0.612773  0.842832  1
  I  I15  1  0.842832  0.532880  0.612773  1
  I  I16  1  0.612773  0.842832  0.532880  1
  I  I17  1  0.467120  0.387227  0.157168  1
  I  I18  1  0.157168  0.467120  0.387227  1
  I  I19  1  0.387227  0.157168  0.467120  1
