# generated using pymatgen
data_Tb8MgAlPt2
_symmetry_space_group_name_H-M   'P 1'
_cell_length_a   9.72943304
_cell_length_b   9.72943349
_cell_length_c   9.73246700
_cell_angle_alpha   59.98968224
_cell_angle_beta   59.98968070
_cell_angle_gamma   59.89245875
_symmetry_Int_Tables_number   1
_chemical_formula_structural   Tb8MgAlPt2
_chemical_formula_sum   'Tb16 Mg2 Al2 Pt4'
_cell_volume   650.82042434
_cell_formula_units_Z   2
loop_
 _symmetry_equiv_pos_site_id
 _symmetry_equiv_pos_as_xyz
  1  'x, y, z'
loop_
 _atom_site_type_symbol
 _atom_site_label
 _atom_site_symmetry_multiplicity
 _atom_site_fract_x
 _atom_site_fract_y
 _atom_site_fract_z
 _atom_site_occupancy
  Tb  Tb0  1  0.351089  0.351089  0.352413  1
  Tb  Tb1  1  0.351089  0.351089  0.945409  1
  Tb  Tb2  1  0.349765  0.945758  0.352239  1
  Tb  Tb3  1  0.945758  0.349765  0.352239  1
  Tb  Tb4  1  0.808178  0.191346  0.192285  1
  Tb  Tb5  1  0.191346  0.808178  0.808192  1
  Tb  Tb6  1  0.191346  0.808178  0.192285  1
  Tb  Tb7  1  0.808178  0.191346  0.808192  1
  Tb  Tb8  1  0.195888  0.195888  0.804112  1
  Tb  Tb9  1  0.811525  0.811525  0.188475  1
  Tb  Tb10  1  0.939833  0.565249  0.565276  1
  Tb  Tb11  1  0.565249  0.939833  0.929641  1
  Tb  Tb12  1  0.565249  0.939833  0.565276  1
  Tb  Tb13  1  0.939833  0.565249  0.929641  1
  Tb  Tb14  1  0.566698  0.566698  0.933302  1
  Tb  Tb15  1  0.935237  0.935237  0.564763  1
  Mg  Mg16  1  0.574253  0.574253  0.580350  1
  Mg  Mg17  1  0.574253  0.574253  0.271143  1
  Al  Al18  1  0.575022  0.260849  0.582064  1
  Al  Al19  1  0.260849  0.575022  0.582064  1
  Pt  Pt20  1  0.142189  0.142189  0.144136  1
  Pt  Pt21  1  0.142189  0.142189  0.571488  1
  Pt  Pt22  1  0.143499  0.571485  0.142509  1
  Pt  Pt23  1  0.571485  0.143499  0.142509  1
