# generated using pymatgen
data_Nd6AlNiOs
_symmetry_space_group_name_H-M   'P 1'
_cell_length_a   8.69190583
_cell_length_b   8.69190770
_cell_length_c   8.69190573
_cell_angle_alpha   113.14760784
_cell_angle_beta   110.12586015
_cell_angle_gamma   105.23717318
_symmetry_Int_Tables_number   1
_chemical_formula_structural   Nd6AlNiOs
_chemical_formula_sum   'Nd12 Al2 Ni2 Os2'
_cell_volume   503.07262962
_cell_formula_units_Z   2
loop_
 _symmetry_equiv_pos_site_id
 _symmetry_equiv_pos_as_xyz
  1  'x, y, z'
loop_
 _atom_site_type_symbol
 _atom_site_label
 _atom_site_symmetry_multiplicity
 _atom_site_fract_x
 _atom_site_fract_y
 _atom_site_fract_z
 _atom_site_occupancy
  Nd  Nd0  1  0.046263  0.739921  0.306343  1
  Nd  Nd1  1  0.953737  0.260079  0.693657  1
  Nd  Nd2  1  0.566422  0.260079  0.306343  1
  Nd  Nd3  1  0.433578  0.739921  0.693657  1
  Nd  Nd4  1  0.670013  0.855788  0.185775  1
  Nd  Nd5  1  0.329987  0.515762  0.185775  1
  Nd  Nd6  1  0.329987  0.144212  0.814225  1
  Nd  Nd7  1  0.670013  0.484238  0.814225  1
  Nd  Nd8  1  0.180418  0.219877  0.400296  1
  Nd  Nd9  1  0.819582  0.219877  0.039460  1
  Nd  Nd10  1  0.180418  0.780123  0.960540  1
  Nd  Nd11  1  0.819582  0.780123  0.599704  1
  Al  Al12  1  0.000000  0.500000  0.500000  1
  Al  Al13  1  0.500000  0.000000  0.500000  1
  Ni  Ni14  1  0.886299  0.886299  0.000000  1
  Ni  Ni15  1  0.113701  0.113701  0.000000  1
  Os  Os16  1  0.673830  0.500000  0.173830  1
  Os  Os17  1  0.326170  0.500000  0.826170  1
