# generated using pymatgen
data_CaTm3B16
_symmetry_space_group_name_H-M   'P 1'
_cell_length_a   7.08074248
_cell_length_b   7.08074237
_cell_length_c   4.00375400
_cell_angle_alpha   90.00000000
_cell_angle_beta   90.00000000
_cell_angle_gamma   90.28715458
_symmetry_Int_Tables_number   1
_chemical_formula_structural   CaTm3B16
_chemical_formula_sum   'Ca1 Tm3 B16'
_cell_volume   200.73334608
_cell_formula_units_Z   1
loop_
 _symmetry_equiv_pos_site_id
 _symmetry_equiv_pos_as_xyz
  1  'x, y, z'
loop_
 _atom_site_type_symbol
 _atom_site_label
 _atom_site_symmetry_multiplicity
 _atom_site_fract_x
 _atom_site_fract_y
 _atom_site_fract_z
 _atom_site_occupancy
  Ca  Ca0  1  0.817917  0.317917  0.000000  1
  Tm  Tm1  1  0.180884  0.680884  0.000000  1
  Tm  Tm2  1  0.681838  0.818228  0.000000  1
  Tm  Tm3  1  0.318228  0.181838  0.000000  1
  B  B4  1  0.322078  0.462583  0.500000  1
  B  B5  1  0.675769  0.540066  0.500000  1
  B  B6  1  0.536039  0.324380  0.500000  1
  B  B7  1  0.461194  0.676879  0.500000  1
  B  B8  1  0.000792  0.999845  0.202630  1
  B  B9  1  0.499845  0.500792  0.797370  1
  B  B10  1  0.000792  0.999845  0.797370  1
  B  B11  1  0.499845  0.500792  0.202630  1
  B  B12  1  0.586542  0.086542  0.500000  1
  B  B13  1  0.086871  0.414064  0.500000  1
  B  B14  1  0.914064  0.586871  0.500000  1
  B  B15  1  0.413394  0.913394  0.500000  1
  B  B16  1  0.040066  0.175769  0.500000  1
  B  B17  1  0.176879  0.961194  0.500000  1
  B  B18  1  0.824380  0.036039  0.500000  1
  B  B19  1  0.962583  0.822078  0.500000  1
