# generated using pymatgen
data_Rb2U3F13
_symmetry_space_group_name_H-M   'P 1'
_cell_length_a   11.41875574
_cell_length_b   11.41875679
_cell_length_c   11.41875500
_cell_angle_alpha   42.87834804
_cell_angle_beta   42.87834970
_cell_angle_gamma   42.87834363
_symmetry_Int_Tables_number   1
_chemical_formula_structural   Rb2U3F13
_chemical_formula_sum   'Rb4 U6 F26'
_cell_volume   624.67479040
_cell_formula_units_Z   2
loop_
 _symmetry_equiv_pos_site_id
 _symmetry_equiv_pos_as_xyz
  1  'x, y, z'
loop_
 _atom_site_type_symbol
 _atom_site_label
 _atom_site_symmetry_multiplicity
 _atom_site_fract_x
 _atom_site_fract_y
 _atom_site_fract_z
 _atom_site_occupancy
  Rb  Rb0  1  0.000000  0.000000  0.000000  1
  Rb  Rb1  1  0.500000  0.500000  0.500000  1
  Rb  Rb2  1  0.136905  0.136905  0.136905  1
  Rb  Rb3  1  0.863095  0.863095  0.863095  1
  U  U4  1  0.574058  0.574058  0.044294  1
  U  U5  1  0.044294  0.574058  0.574058  1
  U  U6  1  0.574058  0.044294  0.574058  1
  U  U7  1  0.425942  0.955706  0.425942  1
  U  U8  1  0.955706  0.425942  0.425942  1
  U  U9  1  0.425942  0.425942  0.955706  1
  F  F10  1  0.294615  0.294615  0.294615  1
  F  F11  1  0.705385  0.705385  0.705385  1
  F  F12  1  0.364217  0.696978  0.696978  1
  F  F13  1  0.696978  0.364217  0.696978  1
  F  F14  1  0.696978  0.696978  0.364217  1
  F  F15  1  0.635783  0.303022  0.303022  1
  F  F16  1  0.303022  0.635783  0.303022  1
  F  F17  1  0.303022  0.303022  0.635783  1
  F  F18  1  0.090615  0.586250  0.090615  1
  F  F19  1  0.090615  0.090615  0.586250  1
  F  F20  1  0.000000  0.349949  0.650051  1
  F  F21  1  0.349949  0.650051  0.000000  1
  F  F22  1  0.650051  0.000000  0.349949  1
  F  F23  1  0.000000  0.650051  0.349949  1
  F  F24  1  0.650051  0.349949  0.000000  1
  F  F25  1  0.349949  0.000000  0.650051  1
  F  F26  1  0.081330  0.659346  0.659346  1
  F  F27  1  0.659346  0.659346  0.081330  1
  F  F28  1  0.659346  0.081330  0.659346  1
  F  F29  1  0.340654  0.918670  0.340654  1
  F  F30  1  0.918670  0.340654  0.340654  1
  F  F31  1  0.340654  0.340654  0.918670  1
  F  F32  1  0.909385  0.413750  0.909385  1
  F  F33  1  0.413750  0.909385  0.909385  1
  F  F34  1  0.909385  0.909385  0.413750  1
  F  F35  1  0.586250  0.090615  0.090615  1
