# generated using pymatgen
data_Ho5Er5Ru3Rh
_symmetry_space_group_name_H-M   'P 1'
_cell_length_a   6.30442165
_cell_length_b   7.28546966
_cell_length_c   8.41963601
_cell_angle_alpha   96.79791106
_cell_angle_beta   111.88296197
_cell_angle_gamma   90.04260323
_symmetry_Int_Tables_number   1
_chemical_formula_structural   Ho5Er5Ru3Rh
_chemical_formula_sum   'Ho5 Er5 Ru3 Rh1'
_cell_volume   355.90990971
_cell_formula_units_Z   1
loop_
 _symmetry_equiv_pos_site_id
 _symmetry_equiv_pos_as_xyz
  1  'x, y, z'
loop_
 _atom_site_type_symbol
 _atom_site_label
 _atom_site_symmetry_multiplicity
 _atom_site_fract_x
 _atom_site_fract_y
 _atom_site_fract_z
 _atom_site_occupancy
  Ho  Ho0  1  0.792929  0.582092  0.814649  1
  Ho  Ho1  1  0.980100  0.915185  0.188888  1
  Ho  Ho2  1  0.208332  0.415345  0.186271  1
  Ho  Ho3  1  0.024030  0.086001  0.814581  1
  Ho  Ho4  1  0.203657  0.683297  0.563684  1
  Er  Er5  1  0.642561  0.814998  0.432791  1
  Er  Er6  1  0.792954  0.314862  0.434820  1
  Er  Er7  1  0.356875  0.186657  0.563756  1
  Er  Er8  1  0.419237  0.749159  0.000883  1
  Er  Er9  1  0.580404  0.252091  0.001304  1
  Ru  Ru10  1  0.823605  0.576780  0.219709  1
  Ru  Ru11  1  0.396390  0.075508  0.220949  1
  Ru  Ru12  1  0.177611  0.424075  0.779376  1
  Rh  Rh13  1  0.601315  0.923948  0.778340  1
