# generated using pymatgen
data_Cs4MnZnS4
_symmetry_space_group_name_H-M   'P 1'
_cell_length_a   8.43903109
_cell_length_b   8.43903173
_cell_length_c   8.43903100
_cell_angle_alpha   135.23251929
_cell_angle_beta   128.94202916
_cell_angle_gamma   70.21422377
_symmetry_Int_Tables_number   1
_chemical_formula_structural   Cs4MnZnS4
_chemical_formula_sum   'Cs4 Mn1 Zn1 S4'
_cell_volume   322.76274293
_cell_formula_units_Z   1
loop_
 _symmetry_equiv_pos_site_id
 _symmetry_equiv_pos_as_xyz
  1  'x, y, z'
loop_
 _atom_site_type_symbol
 _atom_site_label
 _atom_site_symmetry_multiplicity
 _atom_site_fract_x
 _atom_site_fract_y
 _atom_site_fract_z
 _atom_site_occupancy
  Cs  Cs0  1  0.518421  0.853444  0.666558  1
  Cs  Cs1  1  0.481579  0.148137  0.335024  1
  Cs  Cs2  1  0.813113  0.646556  0.164976  1
  Cs  Cs3  1  0.186887  0.351863  0.833442  1
  Mn  Mn4  1  0.000000  0.750000  0.750000  1
  Zn  Zn5  1  0.000000  0.250000  0.250000  1
  S  S6  1  0.078722  0.908403  0.176210  1
  S  S7  1  0.732194  0.402513  0.323790  1
  S  S8  1  0.921278  0.097487  0.829681  1
  S  S9  1  0.267807  0.591597  0.670319  1
