# generated using pymatgen
data_Ho(PuGa4)3
_symmetry_space_group_name_H-M   'P 1'
_cell_length_a   6.11996000
_cell_length_b   6.11995965
_cell_length_c   9.61147400
_cell_angle_alpha   90.00000000
_cell_angle_beta   90.00000000
_cell_angle_gamma   119.99999110
_symmetry_Int_Tables_number   1
_chemical_formula_structural   Ho(PuGa4)3
_chemical_formula_sum   'Ho1 Pu3 Ga12'
_cell_volume   311.75814473
_cell_formula_units_Z   1
loop_
 _symmetry_equiv_pos_site_id
 _symmetry_equiv_pos_as_xyz
  1  'x, y, z'
loop_
 _atom_site_type_symbol
 _atom_site_label
 _atom_site_symmetry_multiplicity
 _atom_site_fract_x
 _atom_site_fract_y
 _atom_site_fract_z
 _atom_site_occupancy
  Ho  Ho0  1  0.666667  0.333333  0.750000  1
  Pu  Pu1  1  0.000000  0.000000  0.500788  1
  Pu  Pu2  1  0.000000  0.000000  0.999212  1
  Pu  Pu3  1  0.333333  0.666667  0.250000  1
  Ga  Ga4  1  0.497997  0.502003  0.500277  1
  Ga  Ga5  1  0.497997  0.995993  0.500277  1
  Ga  Ga6  1  0.004007  0.502003  0.500277  1
  Ga  Ga7  1  0.497997  0.502003  0.999723  1
  Ga  Ga8  1  0.497997  0.995993  0.999723  1
  Ga  Ga9  1  0.004007  0.502003  0.999723  1
  Ga  Ga10  1  0.821537  0.643073  0.250000  1
  Ga  Ga11  1  0.356927  0.178463  0.250000  1
  Ga  Ga12  1  0.821537  0.178463  0.250000  1
  Ga  Ga13  1  0.180539  0.361078  0.750000  1
  Ga  Ga14  1  0.638922  0.819461  0.750000  1
  Ga  Ga15  1  0.180539  0.819461  0.750000  1
