# generated using pymatgen
data_Tm8Mn3B24Rh
_symmetry_space_group_name_H-M   'P 1'
_cell_length_a   3.54544900
_cell_length_b   9.03291912
_cell_length_c   11.40291212
_cell_angle_alpha   90.07238724
_cell_angle_beta   90.00000000
_cell_angle_gamma   90.00000000
_symmetry_Int_Tables_number   1
_chemical_formula_structural   Tm8Mn3B24Rh
_chemical_formula_sum   'Tm8 Mn3 B24 Rh1'
_cell_volume   365.18656777
_cell_formula_units_Z   1
loop_
 _symmetry_equiv_pos_site_id
 _symmetry_equiv_pos_as_xyz
  1  'x, y, z'
loop_
 _atom_site_type_symbol
 _atom_site_label
 _atom_site_symmetry_multiplicity
 _atom_site_fract_x
 _atom_site_fract_y
 _atom_site_fract_z
 _atom_site_occupancy
  Tm  Tm0  1  0.000000  0.318733  0.417062  1
  Tm  Tm1  1  0.000000  0.677471  0.591459  1
  Tm  Tm2  1  0.000000  0.828111  0.079965  1
  Tm  Tm3  1  0.000000  0.175698  0.913179  1
  Tm  Tm4  1  0.000000  0.946033  0.368873  1
  Tm  Tm5  1  0.000000  0.057328  0.631493  1
  Tm  Tm6  1  0.000000  0.438295  0.128406  1
  Tm  Tm7  1  0.000000  0.557690  0.869221  1
  Mn  Mn8  1  0.000000  0.362139  0.678587  1
  Mn  Mn9  1  0.000000  0.137820  0.180140  1
  Mn  Mn10  1  0.000000  0.861860  0.820394  1
  B  B11  1  0.500000  0.552897  0.435137  1
  B  B12  1  0.500000  0.445761  0.568292  1
  B  B13  1  0.500000  0.053786  0.066908  1
  B  B14  1  0.500000  0.946624  0.931661  1
  B  B15  1  0.500000  0.749553  0.421196  1
  B  B16  1  0.500000  0.252608  0.582865  1
  B  B17  1  0.500000  0.246228  0.081858  1
  B  B18  1  0.500000  0.753437  0.917256  1
  B  B19  1  0.500000  0.792389  0.263632  1
  B  B20  1  0.500000  0.209758  0.734861  1
  B  B21  1  0.500000  0.289837  0.234956  1
  B  B22  1  0.500000  0.709725  0.765564  1
  B  B23  1  0.500000  0.631468  0.182791  1
  B  B24  1  0.500000  0.369074  0.813582  1
  B  B25  1  0.500000  0.131406  0.314226  1
  B  B26  1  0.500000  0.868873  0.686718  1
  B  B27  1  0.500000  0.984740  0.210577  1
  B  B28  1  0.500000  0.016150  0.788473  1
  B  B29  1  0.500000  0.480792  0.287995  1
  B  B30  1  0.500000  0.516180  0.711822  1
  B  B31  1  0.500000  0.603901  0.028422  1
  B  B32  1  0.500000  0.395987  0.971068  1
  B  B33  1  0.500000  0.103387  0.471742  1
  B  B34  1  0.500000  0.896150  0.528793  1
  Rh  Rh35  1  0.000000  0.638114  0.320828  1
