# generated using pymatgen
data_AgHgRu2O7
_symmetry_space_group_name_H-M   'P 1'
_cell_length_a   7.27886531
_cell_length_b   7.29626275
_cell_length_c   7.27886407
_cell_angle_alpha   59.92088803
_cell_angle_beta   59.75771441
_cell_angle_gamma   59.92088509
_symmetry_Int_Tables_number   1
_chemical_formula_structural   AgHgRu2O7
_chemical_formula_sum   'Ag2 Hg2 Ru4 O14'
_cell_volume   272.51646963
_cell_formula_units_Z   2
loop_
 _symmetry_equiv_pos_site_id
 _symmetry_equiv_pos_as_xyz
  1  'x, y, z'
loop_
 _atom_site_type_symbol
 _atom_site_label
 _atom_site_symmetry_multiplicity
 _atom_site_fract_x
 _atom_site_fract_y
 _atom_site_fract_z
 _atom_site_occupancy
  Ag  Ag0  1  0.625000  0.125000  0.625000  1
  Ag  Ag1  1  0.625000  0.625000  0.625000  1
  Hg  Hg2  1  0.625000  0.625000  0.125000  1
  Hg  Hg3  1  0.125000  0.625000  0.625000  1
  Ru  Ru4  1  0.625000  0.125000  0.125000  1
  Ru  Ru5  1  0.125000  0.625000  0.125000  1
  Ru  Ru6  1  0.125000  0.125000  0.625000  1
  Ru  Ru7  1  0.125000  0.125000  0.125000  1
  O  O8  1  0.191631  0.190803  0.808700  1
  O  O9  1  0.190284  0.809716  0.190284  1
  O  O10  1  0.441300  0.059197  0.058369  1
  O  O11  1  0.191631  0.808866  0.808700  1
  O  O12  1  0.058369  0.441134  0.441300  1
  O  O13  1  0.808700  0.808866  0.191631  1
  O  O14  1  0.441300  0.441134  0.058369  1
  O  O15  1  0.499047  0.500953  0.499047  1
  O  O16  1  0.058369  0.059197  0.441300  1
  O  O17  1  0.441926  0.058074  0.441926  1
  O  O18  1  0.059716  0.440284  0.059716  1
  O  O19  1  0.750953  0.749047  0.750953  1
  O  O20  1  0.808074  0.191926  0.808074  1
  O  O21  1  0.808700  0.190803  0.191631  1
