# generated using pymatgen
data_V12ReMo6Os5
_symmetry_space_group_name_H-M   'P 1'
_cell_length_a   4.30159600
_cell_length_b   6.09206200
_cell_length_c   12.96894000
_cell_angle_alpha   90.00000000
_cell_angle_beta   90.00015944
_cell_angle_gamma   90.00000000
_symmetry_Int_Tables_number   1
_chemical_formula_structural   V12ReMo6Os5
_chemical_formula_sum   'V12 Re1 Mo6 Os5'
_cell_volume   339.85871829
_cell_formula_units_Z   1
loop_
 _symmetry_equiv_pos_site_id
 _symmetry_equiv_pos_as_xyz
  1  'x, y, z'
loop_
 _atom_site_type_symbol
 _atom_site_label
 _atom_site_symmetry_multiplicity
 _atom_site_fract_x
 _atom_site_fract_y
 _atom_site_fract_z
 _atom_site_occupancy
  V  V0  1  0.500000  0.250955  0.000000  1
  V  V1  1  0.500000  0.749045  0.000000  1
  V  V2  1  0.000113  0.250152  0.166231  1
  V  V3  1  0.000113  0.749848  0.166231  1
  V  V4  1  0.500114  0.250224  0.333307  1
  V  V5  1  0.500114  0.749775  0.333307  1
  V  V6  1  0.000000  0.249700  0.500000  1
  V  V7  1  0.000000  0.750301  0.500000  1
  V  V8  1  0.499887  0.250224  0.666692  1
  V  V9  1  0.499887  0.749775  0.666692  1
  V  V10  1  0.999886  0.250152  0.833769  1
  V  V11  1  0.999886  0.749848  0.833769  1
  Re  Re12  1  0.000000  0.500000  0.000000  1
  Mo  Mo13  1  0.000000  0.000000  0.000000  1
  Mo  Mo14  1  0.500105  0.500000  0.167386  1
  Mo  Mo15  1  0.000103  0.000000  0.333619  1
  Mo  Mo16  1  0.500001  0.500000  0.500000  1
  Mo  Mo17  1  0.999899  0.000000  0.666381  1
  Mo  Mo18  1  0.499896  0.500000  0.832614  1
  Os  Os19  1  0.500103  0.000000  0.166989  1
  Os  Os20  1  0.000097  0.500000  0.333567  1
  Os  Os21  1  0.500001  0.000000  0.500000  1
  Os  Os22  1  0.999904  0.500000  0.666433  1
  Os  Os23  1  0.499896  0.000000  0.833011  1
