# generated using pymatgen
data_Ta6Mn5Si6Tc
_symmetry_space_group_name_H-M   'P 1'
_cell_length_a   7.30986974
_cell_length_b   7.33837445
_cell_length_c   7.31079077
_cell_angle_alpha   127.82339567
_cell_angle_beta   122.41443002
_cell_angle_gamma   81.30215609
_symmetry_Int_Tables_number   1
_chemical_formula_structural   Ta6Mn5Si6Tc
_chemical_formula_sum   'Ta6 Mn5 Si6 Tc1'
_cell_volume   252.07735020
_cell_formula_units_Z   1
loop_
 _symmetry_equiv_pos_site_id
 _symmetry_equiv_pos_as_xyz
  1  'x, y, z'
loop_
 _atom_site_type_symbol
 _atom_site_label
 _atom_site_symmetry_multiplicity
 _atom_site_fract_x
 _atom_site_fract_y
 _atom_site_fract_z
 _atom_site_occupancy
  Ta  Ta0  1  0.553928  0.100030  0.048365  1
  Ta  Ta1  1  0.453210  0.493525  0.546075  1
  Ta  Ta2  1  0.963722  0.497216  0.026316  1
  Ta  Ta3  1  0.032547  0.061607  0.526220  1
  Ta  Ta4  1  0.752358  0.912842  0.661372  1
  Ta  Ta5  1  0.248707  0.913745  0.164162  1
  Mn  Mn6  1  0.848747  0.495670  0.595002  1
  Mn  Mn7  1  0.590447  0.742793  0.087669  1
  Mn  Mn8  1  0.407093  0.500244  0.152586  1
  Mn  Mn9  1  0.501959  0.250432  0.750546  1
  Mn  Mn10  1  0.999989  0.247721  0.250684  1
  Si  Si11  1  0.340596  0.829969  0.499368  1
  Si  Si12  1  0.662357  0.160339  0.489686  1
  Si  Si13  1  0.827639  0.829853  0.991293  1
  Si  Si14  1  0.172363  0.171505  0.006262  1
  Si  Si15  1  0.763663  0.516224  0.243512  1
  Si  Si16  1  0.230687  0.475522  0.754939  1
  Tc  Tc17  1  0.149989  0.742762  0.647946  1
