# generated using pymatgen
data_Sr3ScFeMoO9
_symmetry_space_group_name_H-M   'P 1'
_cell_length_a   9.84938332
_cell_length_b   9.84938422
_cell_length_c   5.65905374
_cell_angle_alpha   73.39534093
_cell_angle_beta   73.39534721
_cell_angle_gamma   48.83574525
_symmetry_Int_Tables_number   1
_chemical_formula_structural   Sr3ScFeMoO9
_chemical_formula_sum   'Sr6 Sc2 Fe2 Mo2 O18'
_cell_volume   392.41056184
_cell_formula_units_Z   2
loop_
 _symmetry_equiv_pos_site_id
 _symmetry_equiv_pos_as_xyz
  1  'x, y, z'
loop_
 _atom_site_type_symbol
 _atom_site_label
 _atom_site_symmetry_multiplicity
 _atom_site_fract_x
 _atom_site_fract_y
 _atom_site_fract_z
 _atom_site_occupancy
  Sr  Sr0  1  0.917424  0.402808  0.842244  1
  Sr  Sr1  1  0.225149  0.766415  0.504410  1
  Sr  Sr2  1  0.605409  0.076891  0.153894  1
  Sr  Sr3  1  0.766415  0.225149  0.504410  1
  Sr  Sr4  1  0.076891  0.605409  0.153894  1
  Sr  Sr5  1  0.402808  0.917424  0.842244  1
  Sc  Sc6  1  0.499634  0.499634  0.001244  1
  Sc  Sc7  1  0.165044  0.165044  0.336240  1
  Fe  Fe8  1  0.834178  0.834178  0.665045  1
  Fe  Fe9  1  0.000578  0.000578  0.001533  1
  Mo  Mo10  1  0.332977  0.332977  0.663499  1
  Mo  Mo11  1  0.668349  0.668349  0.333278  1
  O  O12  1  0.432509  0.910670  0.329066  1
  O  O13  1  0.749521  0.248500  0.000041  1
  O  O14  1  0.090547  0.571317  0.669283  1
  O  O15  1  0.910670  0.432509  0.329066  1
  O  O16  1  0.248500  0.749521  0.000041  1
  O  O17  1  0.571317  0.090547  0.669283  1
  O  O18  1  0.071429  0.071429  0.214731  1
  O  O19  1  0.397414  0.397414  0.885952  1
  O  O20  1  0.733259  0.733259  0.552970  1
  O  O21  1  0.603396  0.603396  0.113908  1
  O  O22  1  0.922673  0.922673  0.797469  1
  O  O23  1  0.272485  0.272485  0.435574  1
  O  O24  1  0.574634  0.574634  0.618638  1
  O  O25  1  0.901793  0.901793  0.322649  1
  O  O26  1  0.238625  0.238625  0.948940  1
  O  O27  1  0.096428  0.096428  0.691757  1
  O  O28  1  0.429368  0.429368  0.383144  1
  O  O29  1  0.760577  0.760577  0.035554  1
