# generated using pymatgen
data_Dy3Lu7Si5Ge
_symmetry_space_group_name_H-M   'P 1'
_cell_length_a   8.30587403
_cell_length_b   8.32884834
_cell_length_c   6.21606400
_cell_angle_alpha   90.00000000
_cell_angle_beta   90.00000000
_cell_angle_gamma   120.00025819
_symmetry_Int_Tables_number   1
_chemical_formula_structural   Dy3Lu7Si5Ge
_chemical_formula_sum   'Dy3 Lu7 Si5 Ge1'
_cell_volume   372.40480271
_cell_formula_units_Z   1
loop_
 _symmetry_equiv_pos_site_id
 _symmetry_equiv_pos_as_xyz
  1  'x, y, z'
loop_
 _atom_site_type_symbol
 _atom_site_label
 _atom_site_symmetry_multiplicity
 _atom_site_fract_x
 _atom_site_fract_y
 _atom_site_fract_z
 _atom_site_occupancy
  Dy  Dy0  1  0.759229  0.999751  0.750000  1
  Dy  Dy1  1  0.242546  0.244180  0.750000  1
  Dy  Dy2  1  0.240932  0.999291  0.250000  1
  Lu  Lu3  1  0.998245  0.754736  0.750000  1
  Lu  Lu4  1  0.999768  0.244055  0.250000  1
  Lu  Lu5  1  0.757341  0.757015  0.250000  1
  Lu  Lu6  1  0.668127  0.334952  0.000836  1
  Lu  Lu7  1  0.332941  0.665557  0.499154  1
  Lu  Lu8  1  0.332941  0.665557  0.000846  1
  Lu  Lu9  1  0.668127  0.334952  0.499164  1
  Si  Si10  1  0.395132  0.396363  0.250000  1
  Si  Si11  1  0.998538  0.603153  0.250000  1
  Si  Si12  1  0.999656  0.397513  0.750000  1
  Si  Si13  1  0.605970  0.604684  0.750000  1
  Si  Si14  1  0.607269  0.999836  0.250000  1
  Ge  Ge15  1  0.393237  0.998405  0.750000  1
