# generated using pymatgen
data_LaGdTeO6
_symmetry_space_group_name_H-M   'P 1'
_cell_length_a   5.50159500
_cell_length_b   9.40799000
_cell_length_c   10.29913000
_cell_angle_alpha   90.00000000
_cell_angle_beta   90.00000000
_cell_angle_gamma   90.00000000
_symmetry_Int_Tables_number   1
_chemical_formula_structural   LaGdTeO6
_chemical_formula_sum   'La4 Gd4 Te4 O24'
_cell_volume   533.07216238
_cell_formula_units_Z   4
loop_
 _symmetry_equiv_pos_site_id
 _symmetry_equiv_pos_as_xyz
  1  'x, y, z'
loop_
 _atom_site_type_symbol
 _atom_site_label
 _atom_site_symmetry_multiplicity
 _atom_site_fract_x
 _atom_site_fract_y
 _atom_site_fract_z
 _atom_site_occupancy
  La  La0  1  0.530362  0.219800  0.357291  1
  La  La1  1  0.030362  0.280200  0.642709  1
  La  La2  1  0.469638  0.719800  0.142709  1
  La  La3  1  0.969638  0.780200  0.857291  1
  Gd  Gd4  1  0.522292  0.103304  0.955645  1
  Gd  Gd5  1  0.022292  0.396696  0.044355  1
  Gd  Gd6  1  0.477708  0.603304  0.544355  1
  Gd  Gd7  1  0.977708  0.896696  0.455645  1
  Te  Te8  1  0.464251  0.991075  0.641402  1
  Te  Te9  1  0.964251  0.508925  0.358598  1
  Te  Te10  1  0.535749  0.491075  0.858598  1
  Te  Te11  1  0.035749  0.008925  0.141402  1
  O  O12  1  0.305345  0.141830  0.169053  1
  O  O13  1  0.805345  0.358170  0.830947  1
  O  O14  1  0.694655  0.641830  0.330947  1
  O  O15  1  0.194655  0.858170  0.669053  1
  O  O16  1  0.724519  0.107516  0.562842  1
  O  O17  1  0.224519  0.392484  0.437158  1
  O  O18  1  0.275481  0.607516  0.937158  1
  O  O19  1  0.775481  0.892484  0.062842  1
  O  O20  1  0.674125  0.633701  0.744539  1
  O  O21  1  0.174125  0.866299  0.255461  1
  O  O22  1  0.325875  0.133701  0.755461  1
  O  O23  1  0.825875  0.366299  0.244539  1
  O  O24  1  0.664726  0.948581  0.790846  1
  O  O25  1  0.164726  0.551419  0.209154  1
  O  O26  1  0.335274  0.448581  0.709154  1
  O  O27  1  0.835274  0.051419  0.290846  1
  O  O28  1  0.257166  0.076430  0.504101  1
  O  O29  1  0.757166  0.423570  0.495899  1
  O  O30  1  0.742834  0.576430  0.995899  1
  O  O31  1  0.242834  0.923570  0.004101  1
  O  O32  1  0.097202  0.658961  0.468603  1
  O  O33  1  0.597202  0.841039  0.531397  1
  O  O34  1  0.902798  0.158961  0.031397  1
  O  O35  1  0.402798  0.341039  0.968603  1
