# generated using pymatgen
data_HoTh7(AlRu)8
_symmetry_space_group_name_H-M   'P 1'
_cell_length_a   4.11877800
_cell_length_b   7.29701000
_cell_length_c   16.18514786
_cell_angle_alpha   90.55373834
_cell_angle_beta   90.00000000
_cell_angle_gamma   90.00000000
_symmetry_Int_Tables_number   1
_chemical_formula_structural   HoTh7(AlRu)8
_chemical_formula_sum   'Ho1 Th7 Al8 Ru8'
_cell_volume   486.41808617
_cell_formula_units_Z   1
loop_
 _symmetry_equiv_pos_site_id
 _symmetry_equiv_pos_as_xyz
  1  'x, y, z'
loop_
 _atom_site_type_symbol
 _atom_site_label
 _atom_site_symmetry_multiplicity
 _atom_site_fract_x
 _atom_site_fract_y
 _atom_site_fract_z
 _atom_site_occupancy
  Ho  Ho0  1  0.750000  0.958468  0.216412  1
  Th  Th1  1  0.250000  0.165603  0.560324  1
  Th  Th2  1  0.750000  0.831937  0.436274  1
  Th  Th3  1  0.750000  0.458904  0.280690  1
  Th  Th4  1  0.750000  0.334012  0.062820  1
  Th  Th5  1  0.250000  0.669005  0.939979  1
  Th  Th6  1  0.250000  0.042308  0.782694  1
  Th  Th7  1  0.250000  0.541840  0.717801  1
  Al  Al8  1  0.750000  0.502827  0.560953  1
  Al  Al9  1  0.750000  0.365360  0.851808  1
  Al  Al10  1  0.750000  0.003959  0.939269  1
  Al  Al11  1  0.750000  0.865500  0.649511  1
  Al  Al12  1  0.250000  0.492524  0.437307  1
  Al  Al13  1  0.250000  0.998701  0.066974  1
  Al  Al14  1  0.250000  0.643812  0.151110  1
  Al  Al15  1  0.250000  0.126992  0.344006  1
  Ru  Ru16  1  0.750000  0.742919  0.816014  1
  Ru  Ru17  1  0.250000  0.238058  0.936767  1
  Ru  Ru18  1  0.750000  0.257174  0.434083  1
  Ru  Ru19  1  0.250000  0.746585  0.319351  1
  Ru  Ru20  1  0.750000  0.762390  0.063865  1
  Ru  Ru21  1  0.750000  0.246412  0.682697  1
  Ru  Ru22  1  0.250000  0.267952  0.184589  1
  Ru  Ru23  1  0.250000  0.736756  0.564699  1
