# generated using pymatgen
data_SmZrP7Ru12
_symmetry_space_group_name_H-M   'P 1'
_cell_length_a   9.41945000
_cell_length_b   9.41944864
_cell_length_c   3.93620300
_cell_angle_alpha   90.00000000
_cell_angle_beta   90.00000000
_cell_angle_gamma   119.99999774
_symmetry_Int_Tables_number   1
_chemical_formula_structural   SmZrP7Ru12
_chemical_formula_sum   'Sm1 Zr1 P7 Ru12'
_cell_volume   302.45387801
_cell_formula_units_Z   1
loop_
 _symmetry_equiv_pos_site_id
 _symmetry_equiv_pos_as_xyz
  1  'x, y, z'
loop_
 _atom_site_type_symbol
 _atom_site_label
 _atom_site_symmetry_multiplicity
 _atom_site_fract_x
 _atom_site_fract_y
 _atom_site_fract_z
 _atom_site_occupancy
  Sm  Sm0  1  0.333333  0.666667  0.000000  1
  Zr  Zr1  1  0.666667  0.333333  0.500000  1
  P  P2  1  0.601892  0.719260  0.500000  1
  P  P3  1  0.000000  0.000000  0.000000  1
  P  P4  1  0.280740  0.882632  0.500000  1
  P  P5  1  0.117368  0.398108  0.500000  1
  P  P6  1  0.885682  0.571815  0.000000  1
  P  P7  1  0.428185  0.313868  0.000000  1
  P  P8  1  0.686132  0.114318  0.000000  1
  Ru  Ru9  1  0.559230  0.956635  0.500000  1
  Ru  Ru10  1  0.397405  0.440770  0.500000  1
  Ru  Ru11  1  0.914290  0.121534  0.500000  1
  Ru  Ru12  1  0.207244  0.085710  0.500000  1
  Ru  Ru13  1  0.878466  0.792756  0.500000  1
  Ru  Ru14  1  0.727282  0.890873  0.000000  1
  Ru  Ru15  1  0.109127  0.836408  0.000000  1
  Ru  Ru16  1  0.163592  0.272718  0.000000  1
  Ru  Ru17  1  0.426363  0.073819  0.000000  1
  Ru  Ru18  1  0.926181  0.352545  0.000000  1
  Ru  Ru19  1  0.647455  0.573637  0.000000  1
  Ru  Ru20  1  0.043365  0.602595  0.500000  1
