# generated using pymatgen
data_TbSmSn5Rh3
_symmetry_space_group_name_H-M   'P 1'
_cell_length_a   13.51261078
_cell_length_b   13.51261137
_cell_length_c   7.28125700
_cell_angle_alpha   90.00000000
_cell_angle_beta   90.00000000
_cell_angle_gamma   160.99586556
_symmetry_Int_Tables_number   1
_chemical_formula_structural   TbSmSn5Rh3
_chemical_formula_sum   'Tb2 Sm2 Sn10 Rh6'
_cell_volume   432.93015277
_cell_formula_units_Z   2
loop_
 _symmetry_equiv_pos_site_id
 _symmetry_equiv_pos_as_xyz
  1  'x, y, z'
loop_
 _atom_site_type_symbol
 _atom_site_label
 _atom_site_symmetry_multiplicity
 _atom_site_fract_x
 _atom_site_fract_y
 _atom_site_fract_z
 _atom_site_occupancy
  Tb  Tb0  1  0.476464  0.523536  0.736915  1
  Tb  Tb1  1  0.523536  0.476464  0.236915  1
  Sm  Sm2  1  0.172231  0.827769  0.754648  1
  Sm  Sm3  1  0.827769  0.172231  0.254648  1
  Sn  Sn4  1  0.880758  0.119242  0.731108  1
  Sn  Sn5  1  0.119242  0.880758  0.231108  1
  Sn  Sn6  1  0.704733  0.295267  0.050179  1
  Sn  Sn7  1  0.295267  0.704733  0.550179  1
  Sn  Sn8  1  0.595922  0.404078  0.612666  1
  Sn  Sn9  1  0.404078  0.595922  0.112666  1
  Sn  Sn10  1  0.952403  0.047597  0.399589  1
  Sn  Sn11  1  0.047597  0.952403  0.899589  1
  Sn  Sn12  1  0.290498  0.709502  0.976337  1
  Sn  Sn13  1  0.709502  0.290498  0.476337  1
  Rh  Rh14  1  0.050244  0.949756  0.518787  1
  Rh  Rh15  1  0.949756  0.050244  0.018787  1
  Rh  Rh16  1  0.777349  0.222651  0.764360  1
  Rh  Rh17  1  0.222651  0.777349  0.264360  1
  Rh  Rh18  1  0.394123  0.605877  0.483409  1
  Rh  Rh19  1  0.605877  0.394123  0.983409  1
