# generated using pymatgen
data_Th8GaOs5Au2
_symmetry_space_group_name_H-M   'P 1'
_cell_length_a   4.35267100
_cell_length_b   6.05882874
_cell_length_c   14.96998825
_cell_angle_alpha   89.55032445
_cell_angle_beta   90.00000000
_cell_angle_gamma   90.00000000
_symmetry_Int_Tables_number   1
_chemical_formula_structural   Th8GaOs5Au2
_chemical_formula_sum   'Th8 Ga1 Os5 Au2'
_cell_volume   394.77769135
_cell_formula_units_Z   1
loop_
 _symmetry_equiv_pos_site_id
 _symmetry_equiv_pos_as_xyz
  1  'x, y, z'
loop_
 _atom_site_type_symbol
 _atom_site_label
 _atom_site_symmetry_multiplicity
 _atom_site_fract_x
 _atom_site_fract_y
 _atom_site_fract_z
 _atom_site_occupancy
  Th  Th0  1  0.250000  0.500566  0.272692  1
  Th  Th1  1  0.750000  0.478211  0.724496  1
  Th  Th2  1  0.750000  0.035053  0.209434  1
  Th  Th3  1  0.250000  0.982626  0.780283  1
  Th  Th4  1  0.250000  0.739702  0.046535  1
  Th  Th5  1  0.750000  0.260291  0.970075  1
  Th  Th6  1  0.750000  0.242755  0.454799  1
  Th  Th7  1  0.250000  0.780385  0.541984  1
  Ga  Ga8  1  0.750000  0.751689  0.387931  1
  Os  Os9  1  0.250000  0.018242  0.362516  1
  Os  Os10  1  0.750000  0.947834  0.648327  1
  Os  Os11  1  0.750000  0.561628  0.150798  1
  Os  Os12  1  0.250000  0.435651  0.852295  1
  Os  Os13  1  0.250000  0.214691  0.097532  1
  Au  Au14  1  0.750000  0.766028  0.900174  1
  Au  Au15  1  0.250000  0.284650  0.600129  1
