# generated using pymatgen
data_Na2Li3Sc3(P3Ir4)4
_symmetry_space_group_name_H-M   'P 1'
_cell_length_a   12.68175379
_cell_length_b   12.68175421
_cell_length_c   3.90126100
_cell_angle_alpha   90.00000000
_cell_angle_beta   90.00000000
_cell_angle_gamma   120.45685853
_symmetry_Int_Tables_number   1
_chemical_formula_structural   Na2Li3Sc3(P3Ir4)4
_chemical_formula_sum   'Na2 Li3 Sc3 P12 Ir16'
_cell_volume   540.84958343
_cell_formula_units_Z   1
loop_
 _symmetry_equiv_pos_site_id
 _symmetry_equiv_pos_as_xyz
  1  'x, y, z'
loop_
 _atom_site_type_symbol
 _atom_site_label
 _atom_site_symmetry_multiplicity
 _atom_site_fract_x
 _atom_site_fract_y
 _atom_site_fract_z
 _atom_site_occupancy
  Na  Na0  1  0.812837  0.000546  0.500000  1
  Na  Na1  1  0.000546  0.812837  0.500000  1
  Li  Li2  1  0.442248  0.001747  0.000000  1
  Li  Li3  1  0.001747  0.442248  0.000000  1
  Li  Li4  1  0.557245  0.557245  0.000000  1
  Sc  Sc5  1  0.331329  0.663693  0.000000  1
  Sc  Sc6  1  0.663693  0.331329  0.000000  1
  Sc  Sc7  1  0.189347  0.189347  0.500000  1
  P  P8  1  0.179096  0.999662  0.000000  1
  P  P9  1  0.999662  0.179096  0.000000  1
  P  P10  1  0.822857  0.822857  0.000000  1
  P  P11  1  0.174042  0.483562  0.500000  1
  P  P12  1  0.517430  0.690847  0.500000  1
  P  P13  1  0.309271  0.826078  0.500000  1
  P  P14  1  0.690847  0.517430  0.500000  1
  P  P15  1  0.826078  0.309271  0.500000  1
  P  P16  1  0.483562  0.174042  0.500000  1
  P  P17  1  0.628819  0.999695  0.000000  1
  P  P18  1  0.999695  0.628819  0.000000  1
  P  P19  1  0.368064  0.368064  0.000000  1
  Ir  Ir20  1  0.362423  0.493787  0.500000  1
  Ir  Ir21  1  0.504593  0.867482  0.500000  1
  Ir  Ir22  1  0.130990  0.636296  0.500000  1
  Ir  Ir23  1  0.867482  0.504593  0.500000  1
  Ir  Ir24  1  0.636296  0.130990  0.500000  1
  Ir  Ir25  1  0.493787  0.362423  0.500000  1
  Ir  Ir26  1  0.181794  0.371358  0.000000  1
  Ir  Ir27  1  0.621868  0.803145  0.000000  1
  Ir  Ir28  1  0.198793  0.818936  0.000000  1
  Ir  Ir29  1  0.803145  0.621868  0.000000  1
  Ir  Ir30  1  0.818936  0.198793  0.000000  1
  Ir  Ir31  1  0.371358  0.181794  0.000000  1
  Ir  Ir32  1  0.279323  0.000996  0.500000  1
  Ir  Ir33  1  0.000996  0.279323  0.500000  1
  Ir  Ir34  1  0.723069  0.723069  0.500000  1
  Ir  Ir35  1  0.006733  0.006733  0.000000  1
