# generated using pymatgen
data_La7Tm13Si15As
_symmetry_space_group_name_H-M   'P 1'
_cell_length_a   7.78005129
_cell_length_b   7.73331999
_cell_length_c   14.29946140
_cell_angle_alpha   90.43262796
_cell_angle_beta   89.37497866
_cell_angle_gamma   90.24529439
_symmetry_Int_Tables_number   1
_chemical_formula_structural   La7Tm13Si15As
_chemical_formula_sum   'La7 Tm13 Si15 As1'
_cell_volume   860.25275083
_cell_formula_units_Z   1
loop_
 _symmetry_equiv_pos_site_id
 _symmetry_equiv_pos_as_xyz
  1  'x, y, z'
loop_
 _atom_site_type_symbol
 _atom_site_label
 _atom_site_symmetry_multiplicity
 _atom_site_fract_x
 _atom_site_fract_y
 _atom_site_fract_z
 _atom_site_occupancy
  La  La0  1  0.009336  0.357040  0.539898  1
  La  La1  1  0.647905  0.993740  0.961423  1
  La  La2  1  0.146607  0.510638  0.789989  1
  La  La3  1  0.846913  0.487888  0.285248  1
  La  La4  1  0.506882  0.143058  0.207371  1
  La  La5  1  0.495805  0.857600  0.713216  1
  La  La6  1  0.351628  0.003195  0.459427  1
  Tm  Tm7  1  0.350929  0.496911  0.378603  1
  Tm  Tm8  1  0.851193  0.005657  0.369637  1
  Tm  Tm9  1  0.995738  0.140361  0.123636  1
  Tm  Tm10  1  0.012824  0.854996  0.622682  1
  Tm  Tm11  1  0.645206  0.510387  0.878369  1
  Tm  Tm12  1  0.498373  0.353326  0.626905  1
  Tm  Tm13  1  0.508806  0.645031  0.123341  1
  Tm  Tm14  1  0.139738  0.994227  0.876304  1
  Tm  Tm15  1  0.000859  0.638252  0.042948  1
  Tm  Tm16  1  0.671726  0.681248  0.501373  1
  Tm  Tm17  1  0.822018  0.182929  0.750676  1
  Tm  Tm18  1  0.176127  0.816441  0.246818  1
  Tm  Tm19  1  0.319060  0.321590  0.000185  1
  Si  Si20  1  0.943301  0.295552  0.939427  1
  Si  Si21  1  0.713896  0.060643  0.561253  1
  Si  Si22  1  0.208272  0.442602  0.186442  1
  Si  Si23  1  0.794710  0.561694  0.687977  1
  Si  Si24  1  0.440824  0.215281  0.814707  1
  Si  Si25  1  0.553628  0.786389  0.312988  1
  Si  Si26  1  0.288123  0.935189  0.062292  1
  Si  Si27  1  0.852744  0.796176  0.809198  1
  Si  Si28  1  0.145790  0.203971  0.311377  1
  Si  Si29  1  0.802888  0.846923  0.180408  1
  Si  Si30  1  0.311914  0.643216  0.573694  1
  Si  Si31  1  0.711857  0.358368  0.062257  1
  Si  Si32  1  0.646571  0.295457  0.439102  1
  Si  Si33  1  0.345337  0.704662  0.942204  1
  Si  Si34  1  0.203391  0.148093  0.690121  1
  As  As35  1  0.039081  0.711267  0.428507  1
