# generated using pymatgen
data_ErMgZn3Rh
_symmetry_space_group_name_H-M   'P 1'
_cell_length_a   5.31535521
_cell_length_b   5.31535455
_cell_length_c   5.31535440
_cell_angle_alpha   58.88813802
_cell_angle_beta   58.88814237
_cell_angle_gamma   58.88814828
_symmetry_Int_Tables_number   1
_chemical_formula_structural   ErMgZn3Rh
_chemical_formula_sum   'Er1 Mg1 Zn3 Rh1'
_cell_volume   103.49461577
_cell_formula_units_Z   1
loop_
 _symmetry_equiv_pos_site_id
 _symmetry_equiv_pos_as_xyz
  1  'x, y, z'
loop_
 _atom_site_type_symbol
 _atom_site_label
 _atom_site_symmetry_multiplicity
 _atom_site_fract_x
 _atom_site_fract_y
 _atom_site_fract_z
 _atom_site_occupancy
  Er  Er0  1  0.252808  0.252808  0.252808  1
  Mg  Mg1  1  0.998426  0.998426  0.998426  1
  Zn  Zn2  1  0.625473  0.625473  0.122887  1
  Zn  Zn3  1  0.625473  0.122887  0.625473  1
  Zn  Zn4  1  0.122887  0.625473  0.625473  1
  Rh  Rh5  1  0.624933  0.624933  0.624933  1
