# generated using pymatgen
data_Er16Tl3InNiRh3
_symmetry_space_group_name_H-M   'P 1'
_cell_length_a   9.57323056
_cell_length_b   9.57976085
_cell_length_c   9.57323010
_cell_angle_alpha   59.93666220
_cell_angle_beta   60.02929663
_cell_angle_gamma   59.93666757
_symmetry_Int_Tables_number   1
_chemical_formula_structural   Er16Tl3InNiRh3
_chemical_formula_sum   'Er16 Tl3 In1 Ni1 Rh3'
_cell_volume   620.34908638
_cell_formula_units_Z   1
loop_
 _symmetry_equiv_pos_site_id
 _symmetry_equiv_pos_as_xyz
  1  'x, y, z'
loop_
 _atom_site_type_symbol
 _atom_site_label
 _atom_site_symmetry_multiplicity
 _atom_site_fract_x
 _atom_site_fract_y
 _atom_site_fract_z
 _atom_site_occupancy
  Er  Er0  1  0.186808  0.189940  0.810675  1
  Er  Er1  1  0.438998  0.059798  0.060376  1
  Er  Er2  1  0.437878  0.062667  0.437878  1
  Er  Er3  1  0.061275  0.438806  0.061275  1
  Er  Er4  1  0.648451  0.050821  0.648451  1
  Er  Er5  1  0.188907  0.812162  0.811105  1
  Er  Er6  1  0.060376  0.059798  0.438998  1
  Er  Er7  1  0.810675  0.189940  0.186808  1
  Er  Er8  1  0.811105  0.812162  0.188907  1
  Er  Er9  1  0.650999  0.647092  0.047887  1
  Er  Er10  1  0.653585  0.649133  0.653585  1
  Er  Er11  1  0.064315  0.438086  0.435717  1
  Er  Er12  1  0.047887  0.647092  0.650999  1
  Er  Er13  1  0.811938  0.190490  0.811938  1
  Er  Er14  1  0.435717  0.438086  0.064315  1
  Er  Er15  1  0.188480  0.811054  0.188480  1
  Tl  Tl16  1  0.414655  0.755665  0.414655  1
  Tl  Tl17  1  0.414297  0.414838  0.756971  1
  Tl  Tl18  1  0.756971  0.414838  0.414297  1
  In  In19  1  0.415120  0.416700  0.415120  1
  Ni  Ni20  1  0.858716  0.426189  0.858716  1
  Rh  Rh21  1  0.858067  0.858542  0.427456  1
  Rh  Rh22  1  0.427456  0.858542  0.858067  1
  Rh  Rh23  1  0.857327  0.857556  0.857327  1
