# generated using pymatgen
data_Lu12Ni6Pb
_symmetry_space_group_name_H-M   'P 1'
_cell_length_a   8.23490311
_cell_length_b   8.23490323
_cell_length_c   8.23490400
_cell_angle_alpha   109.47122253
_cell_angle_beta   109.47122283
_cell_angle_gamma   109.47122162
_symmetry_Int_Tables_number   1
_chemical_formula_structural   Lu12Ni6Pb
_chemical_formula_sum   'Lu12 Ni6 Pb1'
_cell_volume   429.88631123
_cell_formula_units_Z   1
loop_
 _symmetry_equiv_pos_site_id
 _symmetry_equiv_pos_as_xyz
  1  'x, y, z'
loop_
 _atom_site_type_symbol
 _atom_site_label
 _atom_site_symmetry_multiplicity
 _atom_site_fract_x
 _atom_site_fract_y
 _atom_site_fract_z
 _atom_site_occupancy
  Lu  Lu0  1  0.812147  0.695662  0.507809  1
  Lu  Lu1  1  0.187853  0.304338  0.492191  1
  Lu  Lu2  1  0.187853  0.695662  0.883515  1
  Lu  Lu3  1  0.812147  0.304338  0.116485  1
  Lu  Lu4  1  0.695662  0.507809  0.812147  1
  Lu  Lu5  1  0.304338  0.492191  0.187853  1
  Lu  Lu6  1  0.695662  0.883515  0.187853  1
  Lu  Lu7  1  0.304338  0.116485  0.812147  1
  Lu  Lu8  1  0.507809  0.812147  0.695662  1
  Lu  Lu9  1  0.492191  0.187853  0.304338  1
  Lu  Lu10  1  0.116485  0.812147  0.304338  1
  Lu  Lu11  1  0.883515  0.187853  0.695662  1
  Ni  Ni12  1  0.875960  0.375960  0.500000  1
  Ni  Ni13  1  0.124040  0.624040  0.500000  1
  Ni  Ni14  1  0.375960  0.500000  0.875960  1
  Ni  Ni15  1  0.624040  0.500000  0.124040  1
  Ni  Ni16  1  0.500000  0.875960  0.375960  1
  Ni  Ni17  1  0.500000  0.124040  0.624040  1
  Pb  Pb18  1  0.000000  0.000000  0.000000  1
