# generated using pymatgen
data_La7Pr5(ThPt3)2
_symmetry_space_group_name_H-M   'P 1'
_cell_length_a   6.56763707
_cell_length_b   10.30502567
_cell_length_c   10.30502511
_cell_angle_alpha   119.98288925
_cell_angle_beta   90.01449953
_cell_angle_gamma   89.98549945
_symmetry_Int_Tables_number   1
_chemical_formula_structural   La7Pr5(ThPt3)2
_chemical_formula_sum   'La7 Pr5 Th2 Pt6'
_cell_volume   604.10543878
_cell_formula_units_Z   1
loop_
 _symmetry_equiv_pos_site_id
 _symmetry_equiv_pos_as_xyz
  1  'x, y, z'
loop_
 _atom_site_type_symbol
 _atom_site_label
 _atom_site_symmetry_multiplicity
 _atom_site_fract_x
 _atom_site_fract_y
 _atom_site_fract_z
 _atom_site_occupancy
  La  La0  1  0.247954  0.128665  0.871335  1
  La  La1  1  0.247493  0.743206  0.871862  1
  La  La2  1  0.247493  0.128138  0.256794  1
  La  La3  1  0.747865  0.871406  0.128594  1
  La  La4  1  0.747772  0.256753  0.128271  1
  La  La5  1  0.747772  0.871729  0.743247  1
  La  La6  1  0.445921  0.538157  0.461843  1
  Pr  Pr7  1  0.446378  0.923872  0.461832  1
  Pr  Pr8  1  0.446378  0.538168  0.076128  1
  Pr  Pr9  1  0.946896  0.461768  0.538232  1
  Pr  Pr10  1  0.946360  0.076367  0.538144  1
  Pr  Pr11  1  0.946360  0.461856  0.923633  1
  Th  Th12  1  0.466915  0.333350  0.666650  1
  Th  Th13  1  0.966656  0.666833  0.333167  1
  Pt  Pt14  1  0.181281  0.808540  0.191460  1
  Pt  Pt15  1  0.181377  0.382876  0.191764  1
  Pt  Pt16  1  0.181377  0.808236  0.617124  1
  Pt  Pt17  1  0.681358  0.191475  0.808525  1
  Pt  Pt18  1  0.681194  0.617220  0.808615  1
  Pt  Pt19  1  0.681194  0.191385  0.382780  1
