# generated using pymatgen
data_Rb12Na8Sm(TaAs4)3
_symmetry_space_group_name_H-M   'P 1'
_cell_length_a   10.96156664
_cell_length_b   10.96156926
_cell_length_c   16.07706116
_cell_angle_alpha   90.08768153
_cell_angle_beta   90.08768019
_cell_angle_gamma   142.75938556
_symmetry_Int_Tables_number   1
_chemical_formula_structural   Rb12Na8Sm(TaAs4)3
_chemical_formula_sum   'Rb12 Na8 Sm1 Ta3 As12'
_cell_volume   1169.01430519
_cell_formula_units_Z   1
loop_
 _symmetry_equiv_pos_site_id
 _symmetry_equiv_pos_as_xyz
  1  'x, y, z'
loop_
 _atom_site_type_symbol
 _atom_site_label
 _atom_site_symmetry_multiplicity
 _atom_site_fract_x
 _atom_site_fract_y
 _atom_site_fract_z
 _atom_site_occupancy
  Rb  Rb0  1  0.611045  0.934878  0.826360  1
  Rb  Rb1  1  0.279521  0.276721  0.316753  1
  Rb  Rb2  1  0.223114  0.224029  0.814508  1
  Rb  Rb3  1  0.723279  0.720479  0.683247  1
  Rb  Rb4  1  0.451501  0.104879  0.683838  1
  Rb  Rb5  1  0.895121  0.548499  0.316162  1
  Rb  Rb6  1  0.065122  0.388955  0.173640  1
  Rb  Rb7  1  0.388425  0.060673  0.170653  1
  Rb  Rb8  1  0.555670  0.900808  0.320804  1
  Rb  Rb9  1  0.099192  0.444330  0.679196  1
  Rb  Rb10  1  0.939327  0.611575  0.829347  1
  Rb  Rb11  1  0.775971  0.776886  0.185492  1
  Na  Na12  1  0.078252  0.921748  0.000000  1
  Na  Na13  1  0.581874  0.418126  0.500000  1
  Na  Na14  1  0.921071  0.078929  0.000000  1
  Na  Na15  1  0.754011  0.245989  0.000000  1
  Na  Na16  1  0.743550  0.256450  0.500000  1
  Na  Na17  1  0.245987  0.754013  0.000000  1
  Na  Na18  1  0.255822  0.744178  0.500000  1
  Na  Na19  1  0.417343  0.582657  0.500000  1
  Sm  Sm20  1  0.088891  0.911109  0.500000  1
  Ta  Ta21  1  0.418978  0.581022  0.000000  1
  Ta  Ta22  1  0.913229  0.086771  0.500000  1
  Ta  Ta23  1  0.580296  0.419704  0.000000  1
  As  As24  1  0.049655  0.357539  0.405542  1
  As  As25  1  0.858826  0.556286  0.091523  1
  As  As26  1  0.443714  0.141174  0.908477  1
  As  As27  1  0.642461  0.950345  0.594458  1
  As  As28  1  0.931501  0.605229  0.608202  1
  As  As29  1  0.141066  0.444757  0.907762  1
  As  As30  1  0.555243  0.858934  0.092238  1
  As  As31  1  0.394771  0.068499  0.391798  1
  As  As32  1  0.191535  0.214394  0.589495  1
  As  As33  1  0.696802  0.697769  0.911712  1
  As  As34  1  0.302231  0.303198  0.088288  1
  As  As35  1  0.785606  0.808465  0.410505  1
