# generated using pymatgen
data_Y16Hf4(IrRh3)3
_symmetry_space_group_name_H-M   'P 1'
_cell_length_a   10.88988843
_cell_length_b   10.88988843
_cell_length_c   6.24115297
_cell_angle_alpha   90.04505189
_cell_angle_beta   90.04505189
_cell_angle_gamma   89.96241443
_symmetry_Int_Tables_number   1
_chemical_formula_structural   Y16Hf4(IrRh3)3
_chemical_formula_sum   'Y16 Hf4 Ir3 Rh9'
_cell_volume   740.13565359
_cell_formula_units_Z   1
loop_
 _symmetry_equiv_pos_site_id
 _symmetry_equiv_pos_as_xyz
  1  'x, y, z'
loop_
 _atom_site_type_symbol
 _atom_site_label
 _atom_site_symmetry_multiplicity
 _atom_site_fract_x
 _atom_site_fract_y
 _atom_site_fract_z
 _atom_site_occupancy
  Y  Y0  1  0.288609  0.087376  0.375026  1
  Y  Y1  1  0.288554  0.912334  0.874904  1
  Y  Y2  1  0.711825  0.085820  0.875194  1
  Y  Y3  1  0.711345  0.912402  0.374834  1
  Y  Y4  1  0.584562  0.787016  0.876573  1
  Y  Y5  1  0.584618  0.212281  0.375629  1
  Y  Y6  1  0.415103  0.787394  0.375670  1
  Y  Y7  1  0.413816  0.212332  0.876187  1
  Y  Y8  1  0.212984  0.415438  0.623427  1
  Y  Y9  1  0.212606  0.584897  0.124330  1
  Y  Y10  1  0.787719  0.415382  0.124371  1
  Y  Y11  1  0.787668  0.586184  0.623813  1
  Y  Y12  1  0.912624  0.711391  0.124974  1
  Y  Y13  1  0.914180  0.288175  0.624806  1
  Y  Y14  1  0.087666  0.711446  0.625096  1
  Y  Y15  1  0.087598  0.288655  0.125166  1
  Hf  Hf16  1  0.000068  0.000029  0.499887  1
  Hf  Hf17  1  0.999971  0.999932  0.000113  1
  Hf  Hf18  1  0.499474  0.500416  0.000374  1
  Hf  Hf19  1  0.499584  0.500526  0.499626  1
  Ir  Ir20  1  0.643383  0.642252  0.250117  1
  Ir  Ir21  1  0.357748  0.356617  0.249883  1
  Ir  Ir22  1  0.356676  0.643324  0.750000  1
  Rh  Rh23  1  0.858270  0.141730  0.250000  1
  Rh  Rh24  1  0.858468  0.858668  0.750056  1
  Rh  Rh25  1  0.141332  0.141532  0.749944  1
  Rh  Rh26  1  0.141353  0.858647  0.250000  1
  Rh  Rh27  1  0.642839  0.357161  0.750000  1
  Rh  Rh28  1  0.500159  0.000370  0.119905  1
  Rh  Rh29  1  0.500275  0.000706  0.620783  1
  Rh  Rh30  1  0.999294  0.499725  0.879217  1
  Rh  Rh31  1  0.999630  0.499841  0.380095  1
