# generated using pymatgen
data_Na4DyRuO6
_symmetry_space_group_name_H-M   'P 1'
_cell_length_a   5.67552908
_cell_length_b   5.67554002
_cell_length_c   5.81106462
_cell_angle_alpha   99.42956443
_cell_angle_beta   99.42951023
_cell_angle_gamma   120.00326346
_symmetry_Int_Tables_number   1
_chemical_formula_structural   Na4DyRuO6
_chemical_formula_sum   'Na4 Dy1 Ru1 O6'
_cell_volume   153.15087531
_cell_formula_units_Z   1
loop_
 _symmetry_equiv_pos_site_id
 _symmetry_equiv_pos_as_xyz
  1  'x, y, z'
loop_
 _atom_site_type_symbol
 _atom_site_label
 _atom_site_symmetry_multiplicity
 _atom_site_fract_x
 _atom_site_fract_y
 _atom_site_fract_z
 _atom_site_occupancy
  Na  Na0  1  0.499106  0.500897  0.000001  1
  Na  Na1  1  0.013081  0.986923  0.500001  1
  Na  Na2  1  0.656431  0.343571  0.500001  1
  Na  Na3  1  0.336625  0.663378  0.500001  1
  Dy  Dy4  1  0.833491  0.166510  0.000001  1
  Ru  Ru5  1  0.166923  0.833071  0.999996  1
  O  O6  1  0.951735  0.602933  0.207795  1
  O  O7  1  0.535875  0.920841  0.213621  1
  O  O8  1  0.220710  0.190198  0.213635  1
  O  O9  1  0.809804  0.779292  0.786365  1
  O  O10  1  0.079160  0.464126  0.786381  1
  O  O11  1  0.397068  0.048266  0.792207  1
