# generated using pymatgen
data_Ho6Sn7AsPd16
_symmetry_space_group_name_H-M   'P 1'
_cell_length_a   9.33242824
_cell_length_b   9.33242868
_cell_length_c   9.33242800
_cell_angle_alpha   60.00000241
_cell_angle_beta   60.00000084
_cell_angle_gamma   59.99999599
_symmetry_Int_Tables_number   1
_chemical_formula_structural   Ho6Sn7AsPd16
_chemical_formula_sum   'Ho6 Sn7 As1 Pd16'
_cell_volume   574.73677448
_cell_formula_units_Z   1
loop_
 _symmetry_equiv_pos_site_id
 _symmetry_equiv_pos_as_xyz
  1  'x, y, z'
loop_
 _atom_site_type_symbol
 _atom_site_label
 _atom_site_symmetry_multiplicity
 _atom_site_fract_x
 _atom_site_fract_y
 _atom_site_fract_z
 _atom_site_occupancy
  Ho  Ho0  1  0.715231  0.284769  0.284769  1
  Ho  Ho1  1  0.284769  0.715231  0.715231  1
  Ho  Ho2  1  0.284769  0.715231  0.284769  1
  Ho  Ho3  1  0.715231  0.284769  0.715231  1
  Ho  Ho4  1  0.284769  0.284769  0.715231  1
  Ho  Ho5  1  0.715231  0.715231  0.284769  1
  Sn  Sn6  1  0.000000  0.000000  0.000000  1
  Sn  Sn7  1  0.500000  0.000000  0.000000  1
  Sn  Sn8  1  0.000000  0.500000  0.500000  1
  Sn  Sn9  1  0.000000  0.500000  0.000000  1
  Sn  Sn10  1  0.500000  0.000000  0.500000  1
  Sn  Sn11  1  0.000000  0.000000  0.500000  1
  Sn  Sn12  1  0.500000  0.500000  0.000000  1
  As  As13  1  0.500000  0.500000  0.500000  1
  Pd  Pd14  1  0.119057  0.119057  0.119057  1
  Pd  Pd15  1  0.880943  0.880943  0.880943  1
  Pd  Pd16  1  0.119057  0.119057  0.642829  1
  Pd  Pd17  1  0.119057  0.642829  0.119057  1
  Pd  Pd18  1  0.880943  0.880943  0.357171  1
  Pd  Pd19  1  0.880943  0.357171  0.880943  1
  Pd  Pd20  1  0.642829  0.119057  0.119057  1
  Pd  Pd21  1  0.357171  0.880943  0.880943  1
  Pd  Pd22  1  0.333307  0.333307  0.333307  1
  Pd  Pd23  1  0.666693  0.666693  0.666693  1
  Pd  Pd24  1  0.333307  0.333307  0.000081  1
  Pd  Pd25  1  0.333307  0.000081  0.333307  1
  Pd  Pd26  1  0.666693  0.666693  0.999919  1
  Pd  Pd27  1  0.666693  0.999919  0.666693  1
  Pd  Pd28  1  0.000081  0.333307  0.333307  1
  Pd  Pd29  1  0.999919  0.666693  0.666693  1
