# generated using pymatgen
data_Ca2Yb8SnSb5
_symmetry_space_group_name_H-M   'P 1'
_cell_length_a   9.11955700
_cell_length_b   9.13835071
_cell_length_c   6.90563200
_cell_angle_alpha   90.00000000
_cell_angle_beta   90.00000000
_cell_angle_gamma   119.93198868
_symmetry_Int_Tables_number   1
_chemical_formula_structural   Ca2Yb8SnSb5
_chemical_formula_sum   'Ca2 Yb8 Sn1 Sb5'
_cell_volume   498.73845154
_cell_formula_units_Z   1
loop_
 _symmetry_equiv_pos_site_id
 _symmetry_equiv_pos_as_xyz
  1  'x, y, z'
loop_
 _atom_site_type_symbol
 _atom_site_label
 _atom_site_symmetry_multiplicity
 _atom_site_fract_x
 _atom_site_fract_y
 _atom_site_fract_z
 _atom_site_occupancy
  Ca  Ca0  1  0.000268  0.262428  0.250000  1
  Ca  Ca1  1  0.737840  0.737572  0.250000  1
  Yb  Yb2  1  0.004179  0.736536  0.750000  1
  Yb  Yb3  1  0.732328  0.000000  0.750000  1
  Yb  Yb4  1  0.267643  0.263464  0.750000  1
  Yb  Yb5  1  0.261119  0.000000  0.250000  1
  Yb  Yb6  1  0.333103  0.669150  0.501600  1
  Yb  Yb7  1  0.663954  0.330850  0.998400  1
  Yb  Yb8  1  0.663954  0.330850  0.501600  1
  Yb  Yb9  1  0.333103  0.669150  0.998400  1
  Sn  Sn10  1  0.383643  0.000000  0.750000  1
  Sb  Sb11  1  0.384884  0.387245  0.250000  1
  Sb  Sb12  1  0.997639  0.612755  0.250000  1
  Sb  Sb13  1  0.000866  0.381098  0.750000  1
  Sb  Sb14  1  0.619769  0.618902  0.750000  1
  Sb  Sb15  1  0.615709  0.000000  0.250000  1
