# generated using pymatgen
data_HoEr3Re5Os3
_symmetry_space_group_name_H-M   'P 1'
_cell_length_a   5.36316197
_cell_length_b   5.24914532
_cell_length_c   8.99097621
_cell_angle_alpha   90.02136655
_cell_angle_beta   90.00009066
_cell_angle_gamma   119.46020041
_symmetry_Int_Tables_number   1
_chemical_formula_structural   HoEr3Re5Os3
_chemical_formula_sum   'Ho1 Er3 Re5 Os3'
_cell_volume   220.38581359
_cell_formula_units_Z   1
loop_
 _symmetry_equiv_pos_site_id
 _symmetry_equiv_pos_as_xyz
  1  'x, y, z'
loop_
 _atom_site_type_symbol
 _atom_site_label
 _atom_site_symmetry_multiplicity
 _atom_site_fract_x
 _atom_site_fract_y
 _atom_site_fract_z
 _atom_site_occupancy
  Ho  Ho0  1  0.331468  0.665416  0.438087  1
  Er  Er1  1  0.671274  0.336349  0.563948  1
  Er  Er2  1  0.671265  0.336101  0.936174  1
  Er  Er3  1  0.331284  0.665024  0.061859  1
  Re  Re4  1  0.829247  0.167724  0.249686  1
  Re  Re5  1  0.829040  0.658030  0.249819  1
  Re  Re6  1  0.344672  0.172414  0.249688  1
  Re  Re7  1  0.165204  0.829922  0.750159  1
  Re  Re8  1  0.165797  0.335658  0.750305  1
  Os  Os9  1  0.007639  0.005524  0.500617  1
  Os  Os10  1  0.007523  0.005079  0.999421  1
  Os  Os11  1  0.645587  0.822759  0.750239  1
