# generated using pymatgen
data_Tb2Lu4GaCo2
_symmetry_space_group_name_H-M   'P 1'
_cell_length_a   8.17360710
_cell_length_b   8.17362000
_cell_length_c   8.17360190
_cell_angle_alpha   106.74424375
_cell_angle_beta   109.26262999
_cell_angle_gamma   112.45708750
_symmetry_Int_Tables_number   1
_chemical_formula_structural   Tb2Lu4GaCo2
_chemical_formula_sum   'Tb4 Lu8 Ga2 Co4'
_cell_volume   419.30847575
_cell_formula_units_Z   2
loop_
 _symmetry_equiv_pos_site_id
 _symmetry_equiv_pos_as_xyz
  1  'x, y, z'
loop_
 _atom_site_type_symbol
 _atom_site_label
 _atom_site_symmetry_multiplicity
 _atom_site_fract_x
 _atom_site_fract_y
 _atom_site_fract_z
 _atom_site_occupancy
  Tb  Tb0  1  0.698638  0.260022  0.958662  1
  Tb  Tb1  1  0.301362  0.739978  0.041338  1
  Tb  Tb2  1  0.698637  0.739976  0.438619  1
  Tb  Tb3  1  0.301363  0.260024  0.561381  1
  Lu  Lu4  1  0.812611  0.140937  0.328314  1
  Lu  Lu5  1  0.812620  0.484299  0.671678  1
  Lu  Lu6  1  0.187389  0.859063  0.671686  1
  Lu  Lu7  1  0.187380  0.515701  0.328322  1
  Lu  Lu8  1  0.602557  0.780828  0.821738  1
  Lu  Lu9  1  0.959092  0.780828  0.178265  1
  Lu  Lu10  1  0.040908  0.219172  0.821735  1
  Lu  Lu11  1  0.397443  0.219172  0.178262  1
  Ga  Ga12  1  0.500000  0.500000  0.000000  1
  Ga  Ga13  1  0.500000  0.000000  0.500000  1
  Co  Co14  1  0.838785  0.499995  0.338784  1
  Co  Co15  1  0.161215  0.500005  0.661216  1
  Co  Co16  1  0.999998  0.115927  0.115923  1
  Co  Co17  1  0.000002  0.884073  0.884077  1
