# generated using pymatgen
data_NbTl6VS8
_symmetry_space_group_name_H-M   'P 1'
_cell_length_a   9.58699600
_cell_length_b   9.62562600
_cell_length_c   11.26313900
_cell_angle_alpha   90.00000000
_cell_angle_beta   90.00000000
_cell_angle_gamma   90.00000000
_symmetry_Int_Tables_number   1
_chemical_formula_structural   NbTl6VS8
_chemical_formula_sum   'Nb2 Tl12 V2 S16'
_cell_volume   1039.37190497
_cell_formula_units_Z   2
loop_
 _symmetry_equiv_pos_site_id
 _symmetry_equiv_pos_as_xyz
  1  'x, y, z'
loop_
 _atom_site_type_symbol
 _atom_site_label
 _atom_site_symmetry_multiplicity
 _atom_site_fract_x
 _atom_site_fract_y
 _atom_site_fract_z
 _atom_site_occupancy
  Nb  Nb0  1  0.706629  0.969603  0.750000  1
  Nb  Nb1  1  0.206629  0.530397  0.750000  1
  Tl  Tl2  1  0.594696  0.205685  0.061304  1
  Tl  Tl3  1  0.094696  0.294315  0.438696  1
  Tl  Tl4  1  0.399785  0.802559  0.553542  1
  Tl  Tl5  1  0.899785  0.697441  0.946458  1
  Tl  Tl6  1  0.399785  0.802559  0.946458  1
  Tl  Tl7  1  0.899785  0.697441  0.553542  1
  Tl  Tl8  1  0.594696  0.205685  0.438696  1
  Tl  Tl9  1  0.094696  0.294315  0.061304  1
  Tl  Tl10  1  0.574849  0.402520  0.750000  1
  Tl  Tl11  1  0.074849  0.097480  0.750000  1
  Tl  Tl12  1  0.433636  0.594165  0.250000  1
  Tl  Tl13  1  0.933636  0.905835  0.250000  1
  V  V14  1  0.293569  0.030737  0.250000  1
  V  V15  1  0.793569  0.469263  0.250000  1
  S  S16  1  0.834752  0.027584  0.584873  1
  S  S17  1  0.334752  0.472416  0.915127  1
  S  S18  1  0.173233  0.975563  0.093808  1
  S  S19  1  0.673233  0.524437  0.406192  1
  S  S20  1  0.173233  0.975563  0.406192  1
  S  S21  1  0.673233  0.524437  0.093808  1
  S  S22  1  0.834752  0.027584  0.915127  1
  S  S23  1  0.334752  0.472416  0.584873  1
  S  S24  1  0.492998  0.073592  0.750000  1
  S  S25  1  0.992998  0.426408  0.750000  1
  S  S26  1  0.492913  0.931016  0.250000  1
  S  S27  1  0.992913  0.568984  0.250000  1
  S  S28  1  0.681793  0.730348  0.750000  1
  S  S29  1  0.181793  0.769652  0.750000  1
  S  S30  1  0.318684  0.257068  0.250000  1
  S  S31  1  0.818684  0.242932  0.250000  1
