# generated using pymatgen
data_CsTa4AsO13
_symmetry_space_group_name_H-M   'P 1'
_cell_length_a   7.49546504
_cell_length_b   7.49546584
_cell_length_c   10.17843300
_cell_angle_alpha   90.00000000
_cell_angle_beta   90.00000000
_cell_angle_gamma   91.95822359
_symmetry_Int_Tables_number   1
_chemical_formula_structural   CsTa4AsO13
_chemical_formula_sum   'Cs2 Ta8 As2 O26'
_cell_volume   571.51079222
_cell_formula_units_Z   2
loop_
 _symmetry_equiv_pos_site_id
 _symmetry_equiv_pos_as_xyz
  1  'x, y, z'
loop_
 _atom_site_type_symbol
 _atom_site_label
 _atom_site_symmetry_multiplicity
 _atom_site_fract_x
 _atom_site_fract_y
 _atom_site_fract_z
 _atom_site_occupancy
  Cs  Cs0  1  0.435822  0.435822  0.450847  1
  Cs  Cs1  1  0.564178  0.564178  0.950847  1
  Ta  Ta2  1  0.551422  0.896924  0.252339  1
  Ta  Ta3  1  0.103076  0.448578  0.752339  1
  Ta  Ta4  1  0.448578  0.103076  0.752339  1
  Ta  Ta5  1  0.896924  0.551422  0.252339  1
  Ta  Ta6  1  0.173180  0.833375  0.501756  1
  Ta  Ta7  1  0.166625  0.826820  0.001756  1
  Ta  Ta8  1  0.833375  0.173180  0.501756  1
  Ta  Ta9  1  0.826820  0.166625  0.001756  1
  As  As10  1  0.164654  0.164654  0.245371  1
  As  As11  1  0.835346  0.835346  0.745371  1
  O  O12  1  0.667882  0.667882  0.252268  1
  O  O13  1  0.332118  0.332118  0.752268  1
  O  O14  1  0.387810  0.131083  0.245917  1
  O  O15  1  0.868917  0.612190  0.745917  1
  O  O16  1  0.612190  0.868917  0.745917  1
  O  O17  1  0.131083  0.387810  0.245917  1
  O  O18  1  0.808591  0.364007  0.386224  1
  O  O19  1  0.643375  0.193895  0.616969  1
  O  O20  1  0.806105  0.356625  0.116969  1
  O  O21  1  0.635993  0.191409  0.886224  1
  O  O22  1  0.193895  0.643375  0.616969  1
  O  O23  1  0.364007  0.808591  0.386224  1
  O  O24  1  0.191409  0.635993  0.886224  1
  O  O25  1  0.356625  0.806105  0.116969  1
  O  O26  1  0.070647  0.070647  0.388762  1
  O  O27  1  0.933239  0.933239  0.605038  1
  O  O28  1  0.066761  0.066761  0.105038  1
  O  O29  1  0.929353  0.929353  0.888762  1
  O  O30  1  0.693494  0.004543  0.385509  1
  O  O31  1  0.008274  0.308358  0.610342  1
  O  O32  1  0.691642  0.991726  0.110342  1
  O  O33  1  0.995457  0.306506  0.885509  1
  O  O34  1  0.308358  0.008274  0.610342  1
  O  O35  1  0.004543  0.693494  0.385509  1
  O  O36  1  0.306506  0.995457  0.885509  1
  O  O37  1  0.991726  0.691642  0.110342  1
