# generated using pymatgen
data_LiTb3In3HgPt
_symmetry_space_group_name_H-M   'P 1'
_cell_length_a   7.98409000
_cell_length_b   7.98409070
_cell_length_c   3.79549600
_cell_angle_alpha   90.00000000
_cell_angle_beta   90.00000000
_cell_angle_gamma   120.00000538
_symmetry_Int_Tables_number   1
_chemical_formula_structural   LiTb3In3HgPt
_chemical_formula_sum   'Li1 Tb3 In3 Hg1 Pt1'
_cell_volume   209.53184261
_cell_formula_units_Z   1
loop_
 _symmetry_equiv_pos_site_id
 _symmetry_equiv_pos_as_xyz
  1  'x, y, z'
loop_
 _atom_site_type_symbol
 _atom_site_label
 _atom_site_symmetry_multiplicity
 _atom_site_fract_x
 _atom_site_fract_y
 _atom_site_fract_z
 _atom_site_occupancy
  Li  Li0  1  0.000000  0.000000  0.000000  1
  Tb  Tb1  1  0.396587  0.975366  0.000000  1
  Tb  Tb2  1  0.024634  0.421221  0.000000  1
  Tb  Tb3  1  0.578779  0.603413  0.000000  1
  In  In4  1  0.250450  0.250413  0.500000  1
  In  In5  1  0.999963  0.749550  0.500000  1
  In  In6  1  0.749587  0.000037  0.500000  1
  Hg  Hg7  1  0.666667  0.333333  0.500000  1
  Pt  Pt8  1  0.333333  0.666667  0.500000  1
