# generated using pymatgen
data_Dy3PaGa20Ni11
_symmetry_space_group_name_H-M   'P 1'
_cell_length_a   4.08925918
_cell_length_b   10.52945172
_cell_length_c   12.90847916
_cell_angle_alpha   80.86625776
_cell_angle_beta   80.67839941
_cell_angle_gamma   78.58821700
_symmetry_Int_Tables_number   1
_chemical_formula_structural   Dy3PaGa20Ni11
_chemical_formula_sum   'Dy3 Pa1 Ga20 Ni11'
_cell_volume   532.99494625
_cell_formula_units_Z   1
loop_
 _symmetry_equiv_pos_site_id
 _symmetry_equiv_pos_as_xyz
  1  'x, y, z'
loop_
 _atom_site_type_symbol
 _atom_site_label
 _atom_site_symmetry_multiplicity
 _atom_site_fract_x
 _atom_site_fract_y
 _atom_site_fract_z
 _atom_site_occupancy
  Dy  Dy0  1  0.232605  0.366461  0.177513  1
  Dy  Dy1  1  0.772660  0.633455  0.821311  1
  Dy  Dy2  1  0.883999  0.903082  0.334280  1
  Pa  Pa3  1  0.119803  0.096244  0.667387  1
  Ga  Ga4  1  0.066018  0.666708  0.202995  1
  Ga  Ga5  1  0.300635  0.899506  0.501653  1
  Ga  Ga6  1  0.607888  0.793370  0.002767  1
  Ga  Ga7  1  0.251264  0.794006  0.704107  1
  Ga  Ga8  1  0.890141  0.670789  0.548519  1
  Ga  Ga9  1  0.756514  0.202234  0.293742  1
  Ga  Ga10  1  0.633956  0.937627  0.804760  1
  Ga  Ga11  1  0.705683  0.099821  0.495777  1
  Ga  Ga12  1  0.397820  0.207239  0.995183  1
  Ga  Ga13  1  0.937473  0.335525  0.797188  1
  Ga  Ga14  1  0.462992  0.704551  0.376198  1
  Ga  Ga15  1  0.995136  0.920593  0.090739  1
  Ga  Ga16  1  0.803425  0.399454  0.003374  1
  Ga  Ga17  1  0.540210  0.299740  0.621680  1
  Ga  Ga18  1  0.009291  0.079072  0.912024  1
  Ga  Ga19  1  0.201431  0.601189  0.995978  1
  Ga  Ga20  1  0.114184  0.330470  0.449750  1
  Ga  Ga21  1  0.371802  0.058741  0.197926  1
  Ga  Ga22  1  0.614994  0.470694  0.307476  1
  Ga  Ga23  1  0.388869  0.531164  0.691781  1
  Ni  Ni24  1  0.140036  0.839750  0.893430  1
  Ni  Ni25  1  0.512118  0.179120  0.806918  1
  Ni  Ni26  1  0.866668  0.160491  0.103277  1
  Ni  Ni27  1  0.975342  0.435953  0.612414  1
  Ni  Ni28  1  0.500503  0.502090  0.499951  1
  Ni  Ni29  1  0.653698  0.579902  0.113991  1
  Ni  Ni30  1  0.029219  0.563090  0.386512  1
  Ni  Ni31  1  0.351760  0.419504  0.884605  1
  Ni  Ni32  1  0.250755  0.118927  0.388438  1
  Ni  Ni33  1  0.499030  0.817084  0.187539  1
  Ni  Ni34  1  0.750886  0.884278  0.614458  1
