# generated using pymatgen
data_Er3Zn3RuAu2
_symmetry_space_group_name_H-M   'P 1'
_cell_length_a   7.40214900
_cell_length_b   7.40214782
_cell_length_c   3.81548500
_cell_angle_alpha   90.00000000
_cell_angle_beta   90.00000000
_cell_angle_gamma   120.00000081
_symmetry_Int_Tables_number   1
_chemical_formula_structural   Er3Zn3RuAu2
_chemical_formula_sum   'Er3 Zn3 Ru1 Au2'
_cell_volume   181.04892691
_cell_formula_units_Z   1
loop_
 _symmetry_equiv_pos_site_id
 _symmetry_equiv_pos_as_xyz
  1  'x, y, z'
loop_
 _atom_site_type_symbol
 _atom_site_label
 _atom_site_symmetry_multiplicity
 _atom_site_fract_x
 _atom_site_fract_y
 _atom_site_fract_z
 _atom_site_occupancy
  Er  Er0  1  0.579883  0.976197  0.000000  1
  Er  Er1  1  0.023803  0.603685  0.000000  1
  Er  Er2  1  0.396315  0.420117  0.000000  1
  Zn  Zn3  1  0.258338  0.988784  0.500000  1
  Zn  Zn4  1  0.011216  0.269554  0.500000  1
  Zn  Zn5  1  0.730446  0.741662  0.500000  1
  Ru  Ru6  1  0.333333  0.666667  0.500000  1
  Au  Au7  1  0.000000  0.000000  0.000000  1
  Au  Au8  1  0.666667  0.333333  0.500000  1
