# generated using pymatgen
data_Ce6YHo9(CdRu)4
_symmetry_space_group_name_H-M   'P 1'
_cell_length_a   9.57518514
_cell_length_b   9.57518565
_cell_length_c   9.65347619
_cell_angle_alpha   60.22485697
_cell_angle_beta   60.22485366
_cell_angle_gamma   60.61359020
_symmetry_Int_Tables_number   1
_chemical_formula_structural   Ce6YHo9(CdRu)4
_chemical_formula_sum   'Ce6 Y1 Ho9 Cd4 Ru4'
_cell_volume   630.83832457
_cell_formula_units_Z   1
loop_
 _symmetry_equiv_pos_site_id
 _symmetry_equiv_pos_as_xyz
  1  'x, y, z'
loop_
 _atom_site_type_symbol
 _atom_site_label
 _atom_site_symmetry_multiplicity
 _atom_site_fract_x
 _atom_site_fract_y
 _atom_site_fract_z
 _atom_site_occupancy
  Ce  Ce0  1  0.187126  0.811642  0.185234  1
  Ce  Ce1  1  0.811642  0.187127  0.185235  1
  Ce  Ce2  1  0.347145  0.347145  0.958622  1
  Ce  Ce3  1  0.348717  0.958878  0.347209  1
  Ce  Ce4  1  0.958878  0.348717  0.347209  1
  Ce  Ce5  1  0.344779  0.344779  0.355015  1
  Y  Y6  1  0.560171  0.560171  0.938007  1
  Ho  Ho7  1  0.936111  0.562781  0.934156  1
  Ho  Ho8  1  0.562781  0.936111  0.934156  1
  Ho  Ho9  1  0.938071  0.938071  0.562971  1
  Ho  Ho10  1  0.564218  0.935013  0.563350  1
  Ho  Ho11  1  0.935013  0.564218  0.563350  1
  Ho  Ho12  1  0.190234  0.190234  0.804830  1
  Ho  Ho13  1  0.812024  0.186303  0.809319  1
  Ho  Ho14  1  0.186302  0.812025  0.809319  1
  Ho  Ho15  1  0.808839  0.808840  0.185323  1
  Cd  Cd16  1  0.582815  0.582815  0.254121  1
  Cd  Cd17  1  0.580714  0.253961  0.583649  1
  Cd  Cd18  1  0.253961  0.580714  0.583649  1
  Cd  Cd19  1  0.580904  0.580904  0.579813  1
  Ru  Ru20  1  0.143104  0.143104  0.561301  1
  Ru  Ru21  1  0.153736  0.582950  0.150880  1
  Ru  Ru22  1  0.582950  0.153736  0.150880  1
  Ru  Ru23  1  0.129765  0.129765  0.152398  1
