# generated using pymatgen
data_DyHo5NiRh17
_symmetry_space_group_name_H-M   'P 1'
_cell_length_a   5.26034000
_cell_length_b   5.26034080
_cell_length_c   17.41651300
_cell_angle_alpha   90.00000000
_cell_angle_beta   90.00000000
_cell_angle_gamma   119.99999495
_symmetry_Int_Tables_number   1
_chemical_formula_structural   DyHo5NiRh17
_chemical_formula_sum   'Dy1 Ho5 Ni1 Rh17'
_cell_volume   417.36839516
_cell_formula_units_Z   1
loop_
 _symmetry_equiv_pos_site_id
 _symmetry_equiv_pos_as_xyz
  1  'x, y, z'
loop_
 _atom_site_type_symbol
 _atom_site_label
 _atom_site_symmetry_multiplicity
 _atom_site_fract_x
 _atom_site_fract_y
 _atom_site_fract_z
 _atom_site_occupancy
  Dy  Dy0  1  0.666667  0.333333  0.250000  1
  Ho  Ho1  1  0.333333  0.666667  0.957856  1
  Ho  Ho2  1  0.666667  0.333333  0.041675  1
  Ho  Ho3  1  0.666667  0.333333  0.458325  1
  Ho  Ho4  1  0.333333  0.666667  0.542144  1
  Ho  Ho5  1  0.333333  0.666667  0.750000  1
  Ni  Ni6  1  0.333333  0.666667  0.250000  1
  Rh  Rh7  1  0.168910  0.831090  0.372342  1
  Rh  Rh8  1  0.168910  0.337820  0.372342  1
  Rh  Rh9  1  0.662180  0.831090  0.372342  1
  Rh  Rh10  1  0.832751  0.167249  0.624765  1
  Rh  Rh11  1  0.832751  0.665501  0.624765  1
  Rh  Rh12  1  0.334499  0.167249  0.624765  1
  Rh  Rh13  1  0.832751  0.167249  0.875235  1
  Rh  Rh14  1  0.832751  0.665501  0.875235  1
  Rh  Rh15  1  0.334499  0.167249  0.875235  1
  Rh  Rh16  1  0.168910  0.831090  0.127658  1
  Rh  Rh17  1  0.168910  0.337820  0.127658  1
  Rh  Rh18  1  0.662180  0.831090  0.127658  1
  Rh  Rh19  1  0.666667  0.333333  0.750000  1
  Rh  Rh20  1  0.000000  0.000000  0.250000  1
  Rh  Rh21  1  0.000000  0.000000  0.750000  1
  Rh  Rh22  1  0.000000  0.000000  0.497788  1
  Rh  Rh23  1  0.000000  0.000000  0.002212  1
