# generated using pymatgen
data_Pr3Mg2InSn2Rh
_symmetry_space_group_name_H-M   'P 1'
_cell_length_a   7.56106800
_cell_length_b   7.56667847
_cell_length_c   4.72627300
_cell_angle_alpha   90.00000000
_cell_angle_beta   90.00000000
_cell_angle_gamma   119.97548413
_symmetry_Int_Tables_number   1
_chemical_formula_structural   Pr3Mg2InSn2Rh
_chemical_formula_sum   'Pr3 Mg2 In1 Sn2 Rh1'
_cell_volume   234.23138883
_cell_formula_units_Z   1
loop_
 _symmetry_equiv_pos_site_id
 _symmetry_equiv_pos_as_xyz
  1  'x, y, z'
loop_
 _atom_site_type_symbol
 _atom_site_label
 _atom_site_symmetry_multiplicity
 _atom_site_fract_x
 _atom_site_fract_y
 _atom_site_fract_z
 _atom_site_occupancy
  Pr  Pr0  1  0.999780  0.608967  0.500000  1
  Pr  Pr1  1  0.390813  0.391033  0.500000  1
  Pr  Pr2  1  0.605150  0.000000  0.500000  1
  Mg  Mg3  1  0.770956  0.775569  0.000000  1
  Mg  Mg4  1  0.995387  0.224431  0.000000  1
  In  In5  1  0.227482  0.000000  0.000000  1
  Sn  Sn6  1  0.332267  0.661786  0.000000  1
  Sn  Sn7  1  0.670482  0.338214  0.000000  1
  Rh  Rh8  1  0.007682  0.000000  0.500000  1
