# generated using pymatgen
data_Lu2Zn4Ru
_symmetry_space_group_name_H-M   'P 1'
_cell_length_a   6.90151800
_cell_length_b   6.90151800
_cell_length_c   5.22808200
_cell_angle_alpha   90.00000000
_cell_angle_beta   90.00000000
_cell_angle_gamma   90.00000000
_symmetry_Int_Tables_number   1
_chemical_formula_structural   Lu2Zn4Ru
_chemical_formula_sum   'Lu4 Zn8 Ru2'
_cell_volume   249.01851602
_cell_formula_units_Z   2
loop_
 _symmetry_equiv_pos_site_id
 _symmetry_equiv_pos_as_xyz
  1  'x, y, z'
loop_
 _atom_site_type_symbol
 _atom_site_label
 _atom_site_symmetry_multiplicity
 _atom_site_fract_x
 _atom_site_fract_y
 _atom_site_fract_z
 _atom_site_occupancy
  Lu  Lu0  1  0.000000  0.500000  0.769122  1
  Lu  Lu1  1  0.000000  0.000000  0.000000  1
  Lu  Lu2  1  0.500000  0.000000  0.230878  1
  Lu  Lu3  1  0.500000  0.500000  0.000000  1
  Zn  Zn4  1  0.187957  0.687957  0.286707  1
  Zn  Zn5  1  0.812043  0.687957  0.286707  1
  Zn  Zn6  1  0.812043  0.312043  0.286707  1
  Zn  Zn7  1  0.312043  0.187957  0.713293  1
  Zn  Zn8  1  0.187957  0.312043  0.286707  1
  Zn  Zn9  1  0.687957  0.187957  0.713293  1
  Zn  Zn10  1  0.687957  0.812043  0.713293  1
  Zn  Zn11  1  0.312043  0.812043  0.713293  1
  Ru  Ru12  1  0.500000  0.500000  0.500000  1
  Ru  Ru13  1  0.000000  0.000000  0.500000  1
