# generated using pymatgen
data_Tm2Ga4CuPd
_symmetry_space_group_name_H-M   'P 1'
_cell_length_a   5.47648294
_cell_length_b   5.47648225
_cell_length_c   6.54641200
_cell_angle_alpha   90.00000000
_cell_angle_beta   90.00000000
_cell_angle_gamma   133.20915159
_symmetry_Int_Tables_number   1
_chemical_formula_structural   Tm2Ga4CuPd
_chemical_formula_sum   'Tm2 Ga4 Cu1 Pd1'
_cell_volume   143.10356217
_cell_formula_units_Z   1
loop_
 _symmetry_equiv_pos_site_id
 _symmetry_equiv_pos_as_xyz
  1  'x, y, z'
loop_
 _atom_site_type_symbol
 _atom_site_label
 _atom_site_symmetry_multiplicity
 _atom_site_fract_x
 _atom_site_fract_y
 _atom_site_fract_z
 _atom_site_occupancy
  Tm  Tm0  1  0.913001  0.086999  0.750000  1
  Tm  Tm1  1  0.086775  0.913225  0.250000  1
  Ga  Ga2  1  0.627474  0.372526  0.945869  1
  Ga  Ga3  1  0.372177  0.627823  0.048066  1
  Ga  Ga4  1  0.372177  0.627823  0.451934  1
  Ga  Ga5  1  0.627474  0.372526  0.554131  1
  Cu  Cu6  1  0.201861  0.798139  0.750000  1
  Pd  Pd7  1  0.799061  0.200939  0.250000  1
