# generated using pymatgen
data_DyEr5GaNiOs
_symmetry_space_group_name_H-M   'P 1'
_cell_length_a   8.29280472
_cell_length_b   8.29110070
_cell_length_c   8.29110107
_cell_angle_alpha   113.08764771
_cell_angle_beta   110.21527966
_cell_angle_gamma   105.19991592
_symmetry_Int_Tables_number   1
_chemical_formula_structural   DyEr5GaNiOs
_chemical_formula_sum   'Dy2 Er10 Ga2 Ni2 Os2'
_cell_volume   436.77192223
_cell_formula_units_Z   2
loop_
 _symmetry_equiv_pos_site_id
 _symmetry_equiv_pos_as_xyz
  1  'x, y, z'
loop_
 _atom_site_type_symbol
 _atom_site_label
 _atom_site_symmetry_multiplicity
 _atom_site_fract_x
 _atom_site_fract_y
 _atom_site_fract_z
 _atom_site_occupancy
  Dy  Dy0  1  0.050888  0.743455  0.307433  1
  Dy  Dy1  1  0.949112  0.256545  0.692567  1
  Er  Er2  1  0.564276  0.257157  0.307119  1
  Er  Er3  1  0.435724  0.742843  0.692881  1
  Er  Er4  1  0.668638  0.856486  0.186355  1
  Er  Er5  1  0.331362  0.517717  0.187847  1
  Er  Er6  1  0.331362  0.143514  0.813645  1
  Er  Er7  1  0.668638  0.482283  0.812153  1
  Er  Er8  1  0.180450  0.223174  0.402252  1
  Er  Er9  1  0.819550  0.221801  0.042724  1
  Er  Er10  1  0.180450  0.778199  0.957276  1
  Er  Er11  1  0.819550  0.776826  0.597748  1
  Ga  Ga12  1  0.000000  0.500000  0.500000  1
  Ga  Ga13  1  0.500000  0.000000  0.500000  1
  Ni  Ni14  1  0.883748  0.883904  0.999843  1
  Ni  Ni15  1  0.116252  0.116096  0.000157  1
  Os  Os16  1  0.670503  0.499797  0.170706  1
  Os  Os17  1  0.329497  0.500203  0.829294  1
