# generated using pymatgen
data_NaHf(TaSe2)6
_symmetry_space_group_name_H-M   'P 1'
_cell_length_a   6.07907900
_cell_length_b   6.07907852
_cell_length_c   14.33525700
_cell_angle_alpha   90.00000000
_cell_angle_beta   90.00000000
_cell_angle_gamma   120.00000807
_symmetry_Int_Tables_number   1
_chemical_formula_structural   NaHf(TaSe2)6
_chemical_formula_sum   'Na1 Hf1 Ta6 Se12'
_cell_volume   458.78754545
_cell_formula_units_Z   1
loop_
 _symmetry_equiv_pos_site_id
 _symmetry_equiv_pos_as_xyz
  1  'x, y, z'
loop_
 _atom_site_type_symbol
 _atom_site_label
 _atom_site_symmetry_multiplicity
 _atom_site_fract_x
 _atom_site_fract_y
 _atom_site_fract_z
 _atom_site_occupancy
  Na  Na0  1  0.333333  0.666667  0.250000  1
  Hf  Hf1  1  0.666667  0.333333  0.750000  1
  Ta  Ta2  1  0.333333  0.666667  0.515508  1
  Ta  Ta3  1  0.666667  0.333333  0.982772  1
  Ta  Ta4  1  0.666667  0.333333  0.517228  1
  Ta  Ta5  1  0.333333  0.666667  0.984492  1
  Ta  Ta6  1  0.000000  0.000000  0.515903  1
  Ta  Ta7  1  0.000000  0.000000  0.984097  1
  Se  Se8  1  0.333873  0.330222  0.099588  1
  Se  Se9  1  0.669778  0.003652  0.099588  1
  Se  Se10  1  0.996348  0.666127  0.099588  1
  Se  Se11  1  0.006198  0.333717  0.633476  1
  Se  Se12  1  0.666283  0.993802  0.866524  1
  Se  Se13  1  0.666283  0.672481  0.633476  1
  Se  Se14  1  0.327519  0.993802  0.633476  1
  Se  Se15  1  0.669778  0.666127  0.400412  1
  Se  Se16  1  0.333873  0.003652  0.400412  1
  Se  Se17  1  0.327519  0.333717  0.866524  1
  Se  Se18  1  0.006198  0.672481  0.866524  1
  Se  Se19  1  0.996348  0.330222  0.400412  1
