# generated using pymatgen
data_NdY(NiAs)2
_symmetry_space_group_name_H-M   'P 1'
_cell_length_a   4.08749000
_cell_length_b   4.08749035
_cell_length_c   15.97051800
_cell_angle_alpha   90.00000000
_cell_angle_beta   90.00000000
_cell_angle_gamma   120.00001338
_symmetry_Int_Tables_number   1
_chemical_formula_structural   NdY(NiAs)2
_chemical_formula_sum   'Nd2 Y2 Ni4 As4'
_cell_volume   231.08035116
_cell_formula_units_Z   2
loop_
 _symmetry_equiv_pos_site_id
 _symmetry_equiv_pos_as_xyz
  1  'x, y, z'
loop_
 _atom_site_type_symbol
 _atom_site_label
 _atom_site_symmetry_multiplicity
 _atom_site_fract_x
 _atom_site_fract_y
 _atom_site_fract_z
 _atom_site_occupancy
  Nd  Nd0  1  0.000000  0.000000  0.000000  1
  Nd  Nd1  1  0.000000  0.000000  0.500000  1
  Y  Y2  1  0.000000  0.000000  0.250000  1
  Y  Y3  1  0.000000  0.000000  0.750000  1
  Ni  Ni4  1  0.333333  0.666667  0.134648  1
  Ni  Ni5  1  0.666667  0.333333  0.865352  1
  Ni  Ni6  1  0.666667  0.333333  0.634648  1
  Ni  Ni7  1  0.333333  0.666667  0.365352  1
  As  As8  1  0.333333  0.666667  0.625585  1
  As  As9  1  0.666667  0.333333  0.374415  1
  As  As10  1  0.666667  0.333333  0.125585  1
  As  As11  1  0.333333  0.666667  0.874415  1
