# generated using pymatgen
data_Pr4Ga4IrPt2Rh
_symmetry_space_group_name_H-M   'P 1'
_cell_length_a   4.49891200
_cell_length_b   7.14117065
_cell_length_c   7.88555067
_cell_angle_alpha   90.18842311
_cell_angle_beta   90.00000000
_cell_angle_gamma   90.00000000
_symmetry_Int_Tables_number   1
_chemical_formula_structural   Pr4Ga4IrPt2Rh
_chemical_formula_sum   'Pr4 Ga4 Ir1 Pt2 Rh1'
_cell_volume   253.34164587
_cell_formula_units_Z   1
loop_
 _symmetry_equiv_pos_site_id
 _symmetry_equiv_pos_as_xyz
  1  'x, y, z'
loop_
 _atom_site_type_symbol
 _atom_site_label
 _atom_site_symmetry_multiplicity
 _atom_site_fract_x
 _atom_site_fract_y
 _atom_site_fract_z
 _atom_site_occupancy
  Pr  Pr0  1  0.250000  0.029936  0.686621  1
  Pr  Pr1  1  0.250000  0.530226  0.813853  1
  Pr  Pr2  1  0.750000  0.975983  0.307243  1
  Pr  Pr3  1  0.750000  0.474501  0.193290  1
  Ga  Ga4  1  0.250000  0.155520  0.073571  1
  Ga  Ga5  1  0.250000  0.654805  0.427275  1
  Ga  Ga6  1  0.750000  0.840266  0.932046  1
  Ga  Ga7  1  0.750000  0.340113  0.567984  1
  Ir  Ir8  1  0.250000  0.280207  0.392155  1
  Pt  Pt9  1  0.750000  0.719009  0.608468  1
  Pt  Pt10  1  0.750000  0.219104  0.891351  1
  Rh  Rh11  1  0.250000  0.780327  0.106144  1
