# generated using pymatgen
data_Ho8MgHgPd2
_symmetry_space_group_name_H-M   'P 1'
_cell_length_a   9.66648298
_cell_length_b   9.66648169
_cell_length_c   9.66294400
_cell_angle_alpha   60.01210562
_cell_angle_beta   60.01211003
_cell_angle_gamma   60.17162359
_symmetry_Int_Tables_number   1
_chemical_formula_structural   Ho8MgHgPd2
_chemical_formula_sum   'Ho16 Mg2 Hg2 Pd4'
_cell_volume   639.39787093
_cell_formula_units_Z   2
loop_
 _symmetry_equiv_pos_site_id
 _symmetry_equiv_pos_as_xyz
  1  'x, y, z'
loop_
 _atom_site_type_symbol
 _atom_site_label
 _atom_site_symmetry_multiplicity
 _atom_site_fract_x
 _atom_site_fract_y
 _atom_site_fract_z
 _atom_site_occupancy
  Ho  Ho0  1  0.352663  0.352663  0.347652  1
  Ho  Ho1  1  0.352663  0.352663  0.947022  1
  Ho  Ho2  1  0.360846  0.931852  0.353652  1
  Ho  Ho3  1  0.931852  0.360846  0.353652  1
  Ho  Ho4  1  0.811677  0.188011  0.189784  1
  Ho  Ho5  1  0.188011  0.811677  0.810528  1
  Ho  Ho6  1  0.188011  0.811677  0.189784  1
  Ho  Ho7  1  0.811677  0.188011  0.810528  1
  Ho  Ho8  1  0.188690  0.188690  0.811310  1
  Ho  Ho9  1  0.810165  0.810165  0.189835  1
  Ho  Ho10  1  0.932009  0.565621  0.566520  1
  Ho  Ho11  1  0.565621  0.932009  0.935850  1
  Ho  Ho12  1  0.565621  0.932009  0.566520  1
  Ho  Ho13  1  0.932009  0.565621  0.935850  1
  Ho  Ho14  1  0.566265  0.566265  0.933735  1
  Ho  Ho15  1  0.934723  0.934723  0.565277  1
  Mg  Mg16  1  0.577138  0.268215  0.577322  1
  Mg  Mg17  1  0.268215  0.577138  0.577322  1
  Hg  Hg18  1  0.582805  0.582805  0.590409  1
  Hg  Hg19  1  0.582805  0.582805  0.243981  1
  Pd  Pd20  1  0.143793  0.143793  0.149594  1
  Pd  Pd21  1  0.143793  0.143793  0.562821  1
  Pd  Pd22  1  0.140817  0.568130  0.145527  1
  Pd  Pd23  1  0.568130  0.140817  0.145527  1
