# generated using pymatgen
data_LiLu(BrO3)4
_symmetry_space_group_name_H-M   'P 1'
_cell_length_a   5.04643170
_cell_length_b   6.76052456
_cell_length_c   8.63597280
_cell_angle_alpha   84.67905901
_cell_angle_beta   88.33299574
_cell_angle_gamma   88.43730187
_symmetry_Int_Tables_number   1
_chemical_formula_structural   LiLu(BrO3)4
_chemical_formula_sum   'Li1 Lu1 Br4 O12'
_cell_volume   293.14624298
_cell_formula_units_Z   1
loop_
 _symmetry_equiv_pos_site_id
 _symmetry_equiv_pos_as_xyz
  1  'x, y, z'
loop_
 _atom_site_type_symbol
 _atom_site_label
 _atom_site_symmetry_multiplicity
 _atom_site_fract_x
 _atom_site_fract_y
 _atom_site_fract_z
 _atom_site_occupancy
  Li  Li0  1  0.500000  0.000000  0.500000  1
  Lu  Lu1  1  0.500000  0.500000  0.500000  1
  Br  Br2  1  0.571272  0.814418  0.155285  1
  Br  Br3  1  0.027623  0.277047  0.266876  1
  Br  Br4  1  0.972377  0.722953  0.733124  1
  Br  Br5  1  0.428728  0.185582  0.844715  1
  O  O6  1  0.750539  0.635389  0.080818  1
  O  O7  1  0.726276  0.026824  0.109144  1
  O  O8  1  0.200251  0.471531  0.321434  1
  O  O9  1  0.204548  0.077690  0.328645  1
  O  O10  1  0.621753  0.769816  0.358907  1
  O  O11  1  0.757395  0.276037  0.392907  1
  O  O12  1  0.242605  0.723963  0.607093  1
  O  O13  1  0.378247  0.230184  0.641093  1
  O  O14  1  0.795452  0.922310  0.671355  1
  O  O15  1  0.799749  0.528469  0.678566  1
  O  O16  1  0.273724  0.973176  0.890856  1
  O  O17  1  0.249461  0.364611  0.919182  1
