# generated using pymatgen
data_CsNd6(CBr6)2
_symmetry_space_group_name_H-M   'P 1'
_cell_length_a   9.21116605
_cell_length_b   9.19796676
_cell_length_c   9.75283708
_cell_angle_alpha   71.27285876
_cell_angle_beta   69.91641943
_cell_angle_gamma   72.27802404
_symmetry_Int_Tables_number   1
_chemical_formula_structural   CsNd6(CBr6)2
_chemical_formula_sum   'Cs1 Nd6 C2 Br12'
_cell_volume   717.24664809
_cell_formula_units_Z   1
loop_
 _symmetry_equiv_pos_site_id
 _symmetry_equiv_pos_as_xyz
  1  'x, y, z'
loop_
 _atom_site_type_symbol
 _atom_site_label
 _atom_site_symmetry_multiplicity
 _atom_site_fract_x
 _atom_site_fract_y
 _atom_site_fract_z
 _atom_site_occupancy
  Cs  Cs0  1  0.000105  0.499945  0.999791  1
  Nd  Nd1  1  0.480080  0.121489  0.179206  1
  Nd  Nd2  1  0.783945  0.033340  0.405134  1
  Nd  Nd3  1  0.596721  0.719588  0.474306  1
  Nd  Nd4  1  0.403273  0.280414  0.525707  1
  Nd  Nd5  1  0.216043  0.966679  0.594883  1
  Nd  Nd6  1  0.519909  0.878507  0.820818  1
  C  C7  1  0.494934  0.026971  0.424910  1
  C  C8  1  0.505062  0.973031  0.575115  1
  Br  Br9  1  0.802945  0.168296  0.081043  1
  Br  Br10  1  0.591191  0.788075  0.141733  1
  Br  Br11  1  0.349849  0.437733  0.223991  1
  Br  Br12  1  0.139062  0.076094  0.293649  1
  Br  Br13  1  0.928424  0.723637  0.349902  1
  Br  Br14  1  0.716268  0.367439  0.425921  1
  Br  Br15  1  0.283708  0.632569  0.574099  1
  Br  Br16  1  0.071553  0.276398  0.650129  1
  Br  Br17  1  0.860937  0.923884  0.706373  1
  Br  Br18  1  0.650156  0.562267  0.776034  1
  Br  Br19  1  0.408808  0.211922  0.858278  1
  Br  Br20  1  0.197028  0.831721  0.918979  1
