# generated using pymatgen
data_Na14Cd2S9
_symmetry_space_group_name_H-M   'P 1'
_cell_length_a   7.99077800
_cell_length_b   7.99077736
_cell_length_c   11.20141400
_cell_angle_alpha   90.00000000
_cell_angle_beta   90.00000000
_cell_angle_gamma   120.00000267
_symmetry_Int_Tables_number   1
_chemical_formula_structural   Na14Cd2S9
_chemical_formula_sum   'Na14 Cd2 S9'
_cell_volume   619.41478065
_cell_formula_units_Z   1
loop_
 _symmetry_equiv_pos_site_id
 _symmetry_equiv_pos_as_xyz
  1  'x, y, z'
loop_
 _atom_site_type_symbol
 _atom_site_label
 _atom_site_symmetry_multiplicity
 _atom_site_fract_x
 _atom_site_fract_y
 _atom_site_fract_z
 _atom_site_occupancy
  Na  Na0  1  0.021763  0.672870  0.909958  1
  Na  Na1  1  0.321500  0.954940  0.591914  1
  Na  Na2  1  0.045060  0.366561  0.591914  1
  Na  Na3  1  0.000000  0.000000  0.250409  1
  Na  Na4  1  0.000000  0.000000  0.749591  1
  Na  Na5  1  0.327130  0.348893  0.909958  1
  Na  Na6  1  0.651107  0.978237  0.909958  1
  Na  Na7  1  0.366561  0.321500  0.408086  1
  Na  Na8  1  0.633439  0.678500  0.591914  1
  Na  Na9  1  0.348893  0.021763  0.090042  1
  Na  Na10  1  0.672870  0.651107  0.090042  1
  Na  Na11  1  0.954940  0.633439  0.408086  1
  Na  Na12  1  0.678500  0.045060  0.408086  1
  Na  Na13  1  0.978237  0.327130  0.090042  1
  Cd  Cd14  1  0.333333  0.666667  0.256532  1
  Cd  Cd15  1  0.666667  0.333333  0.743468  1
  S  S16  1  0.307594  0.959832  0.337654  1
  S  S17  1  0.040168  0.347762  0.337654  1
  S  S18  1  0.333333  0.666667  0.024520  1
  S  S19  1  0.000000  0.000000  0.000000  1
  S  S20  1  0.347762  0.307594  0.662346  1
  S  S21  1  0.652238  0.692406  0.337654  1
  S  S22  1  0.666667  0.333333  0.975480  1
  S  S23  1  0.959832  0.652238  0.662346  1
  S  S24  1  0.692406  0.040168  0.662346  1
