# generated using pymatgen
data_HoScReB6
_symmetry_space_group_name_H-M   'P 1'
_cell_length_a   3.57945900
_cell_length_b   9.00260900
_cell_length_c   11.37370400
_cell_angle_alpha   90.00000000
_cell_angle_beta   90.00000000
_cell_angle_gamma   90.00000000
_symmetry_Int_Tables_number   1
_chemical_formula_structural   HoScReB6
_chemical_formula_sum   'Ho4 Sc4 Re4 B24'
_cell_volume   366.51158116
_cell_formula_units_Z   4
loop_
 _symmetry_equiv_pos_site_id
 _symmetry_equiv_pos_as_xyz
  1  'x, y, z'
loop_
 _atom_site_type_symbol
 _atom_site_label
 _atom_site_symmetry_multiplicity
 _atom_site_fract_x
 _atom_site_fract_y
 _atom_site_fract_z
 _atom_site_occupancy
  Ho  Ho0  1  0.000000  0.321792  0.413754  1
  Ho  Ho1  1  0.000000  0.678208  0.586246  1
  Ho  Ho2  1  0.000000  0.821792  0.086246  1
  Ho  Ho3  1  0.000000  0.178208  0.913754  1
  Sc  Sc4  1  0.000000  0.944288  0.370553  1
  Sc  Sc5  1  0.000000  0.055712  0.629447  1
  Sc  Sc6  1  0.000000  0.444288  0.129447  1
  Sc  Sc7  1  0.000000  0.555712  0.870553  1
  Re  Re8  1  0.000000  0.640802  0.318632  1
  Re  Re9  1  0.000000  0.359198  0.681368  1
  Re  Re10  1  0.000000  0.140802  0.181368  1
  Re  Re11  1  0.000000  0.859198  0.818632  1
  B  B12  1  0.500000  0.554145  0.432876  1
  B  B13  1  0.500000  0.445855  0.567124  1
  B  B14  1  0.500000  0.054145  0.067124  1
  B  B15  1  0.500000  0.945855  0.932876  1
  B  B16  1  0.500000  0.754601  0.418886  1
  B  B17  1  0.500000  0.245399  0.581114  1
  B  B18  1  0.500000  0.254601  0.081114  1
  B  B19  1  0.500000  0.745399  0.918886  1
  B  B20  1  0.500000  0.795437  0.264978  1
  B  B21  1  0.500000  0.204563  0.735022  1
  B  B22  1  0.500000  0.295437  0.235022  1
  B  B23  1  0.500000  0.704563  0.764978  1
  B  B24  1  0.500000  0.629355  0.183127  1
  B  B25  1  0.500000  0.370645  0.816873  1
  B  B26  1  0.500000  0.129355  0.316873  1
  B  B27  1  0.500000  0.870645  0.683127  1
  B  B28  1  0.500000  0.981260  0.213543  1
  B  B29  1  0.500000  0.018740  0.786457  1
  B  B30  1  0.500000  0.481260  0.286457  1
  B  B31  1  0.500000  0.518740  0.713543  1
  B  B32  1  0.500000  0.595749  0.026210  1
  B  B33  1  0.500000  0.404251  0.973790  1
  B  B34  1  0.500000  0.095749  0.473790  1
  B  B35  1  0.500000  0.904251  0.526210  1
