# generated using pymatgen
data_La5Ga5P7Ir19
_symmetry_space_group_name_H-M   'P 1'
_cell_length_a   13.05137059
_cell_length_b   13.02448305
_cell_length_c   4.03272000
_cell_angle_alpha   90.00000000
_cell_angle_beta   90.00000000
_cell_angle_gamma   119.61289365
_symmetry_Int_Tables_number   1
_chemical_formula_structural   La5Ga5P7Ir19
_chemical_formula_sum   'La5 Ga5 P7 Ir19'
_cell_volume   595.97247874
_cell_formula_units_Z   1
loop_
 _symmetry_equiv_pos_site_id
 _symmetry_equiv_pos_as_xyz
  1  'x, y, z'
loop_
 _atom_site_type_symbol
 _atom_site_label
 _atom_site_symmetry_multiplicity
 _atom_site_fract_x
 _atom_site_fract_y
 _atom_site_fract_z
 _atom_site_occupancy
  La  La0  1  0.000554  0.814940  0.500000  1
  La  La1  1  0.183631  0.186190  0.500000  1
  La  La2  1  0.816265  0.000653  0.500000  1
  La  La3  1  0.335620  0.668439  0.000000  1
  La  La4  1  0.664466  0.330918  0.000000  1
  Ga  Ga5  1  0.520362  0.679581  0.500000  1
  Ga  Ga6  1  0.319027  0.838710  0.500000  1
  Ga  Ga7  1  0.163073  0.484978  0.500000  1
  Ga  Ga8  1  0.479334  0.161469  0.500000  1
  Ga  Ga9  1  0.682498  0.515853  0.500000  1
  P  P10  1  0.000515  0.185489  0.000000  1
  P  P11  1  0.820284  0.816147  0.000000  1
  P  P12  1  0.181060  0.001575  0.000000  1
  P  P13  1  0.825957  0.305662  0.500000  1
  P  P14  1  0.003966  0.632620  0.000000  1
  P  P15  1  0.371305  0.371086  0.000000  1
  P  P16  1  0.627373  0.996040  0.000000  1
  Ir  Ir17  1  0.993559  0.280684  0.500000  1
  Ir  Ir18  1  0.728653  0.723837  0.500000  1
  Ir  Ir19  1  0.273030  0.000968  0.500000  1
  Ir  Ir20  1  0.635585  0.813570  0.000000  1
  Ir  Ir21  1  0.188024  0.821390  0.000000  1
  Ir  Ir22  1  0.179746  0.367574  0.000000  1
  Ir  Ir23  1  0.365852  0.182030  0.000000  1
  Ir  Ir24  1  0.818369  0.627346  0.000000  1
  Ir  Ir25  1  0.822173  0.202281  0.000000  1
  Ir  Ir26  1  0.526027  0.880125  0.500000  1
  Ir  Ir27  1  0.114952  0.646071  0.500000  1
  Ir  Ir28  1  0.353513  0.475892  0.500000  1
  Ir  Ir29  1  0.474808  0.355806  0.500000  1
  Ir  Ir30  1  0.872669  0.499993  0.500000  1
  Ir  Ir31  1  0.647898  0.122953  0.500000  1
  Ir  Ir32  1  0.998852  0.002441  0.000000  1
  Ir  Ir33  1  0.007403  0.455757  0.000000  1
  Ir  Ir34  1  0.551071  0.548975  0.000000  1
  Ir  Ir35  1  0.452526  0.001962  0.000000  1
