# generated using pymatgen
data_Zr9Sc3(Si3Ru)4
_symmetry_space_group_name_H-M   'P 1'
_cell_length_a   3.93931000
_cell_length_b   10.39694342
_cell_length_c   11.77195547
_cell_angle_alpha   89.96736685
_cell_angle_beta   90.00000000
_cell_angle_gamma   90.00000000
_symmetry_Int_Tables_number   1
_chemical_formula_structural   Zr9Sc3(Si3Ru)4
_chemical_formula_sum   'Zr9 Sc3 Si12 Ru4'
_cell_volume   482.14135001
_cell_formula_units_Z   1
loop_
 _symmetry_equiv_pos_site_id
 _symmetry_equiv_pos_as_xyz
  1  'x, y, z'
loop_
 _atom_site_type_symbol
 _atom_site_label
 _atom_site_symmetry_multiplicity
 _atom_site_fract_x
 _atom_site_fract_y
 _atom_site_fract_z
 _atom_site_occupancy
  Zr  Zr0  1  0.250000  0.874989  0.020226  1
  Zr  Zr1  1  0.250000  0.625240  0.519368  1
  Zr  Zr2  1  0.750000  0.123889  0.979677  1
  Zr  Zr3  1  0.750000  0.374901  0.480471  1
  Zr  Zr4  1  0.250000  0.925065  0.597752  1
  Zr  Zr5  1  0.250000  0.575739  0.097750  1
  Zr  Zr6  1  0.750000  0.075423  0.401825  1
  Zr  Zr7  1  0.750000  0.425186  0.901593  1
  Zr  Zr8  1  0.250000  0.658099  0.801208  1
  Sc  Sc9  1  0.250000  0.842704  0.300749  1
  Sc  Sc10  1  0.750000  0.341243  0.198731  1
  Sc  Sc11  1  0.750000  0.158452  0.699535  1
  Si  Si12  1  0.250000  0.015826  0.825024  1
  Si  Si13  1  0.250000  0.483897  0.324918  1
  Si  Si14  1  0.750000  0.984001  0.174291  1
  Si  Si15  1  0.750000  0.515887  0.674244  1
  Si  Si16  1  0.250000  0.250582  0.840789  1
  Si  Si17  1  0.250000  0.249312  0.340862  1
  Si  Si18  1  0.750000  0.749069  0.159756  1
  Si  Si19  1  0.750000  0.751674  0.659040  1
  Si  Si20  1  0.250000  0.192862  0.544445  1
  Si  Si21  1  0.250000  0.306027  0.044020  1
  Si  Si22  1  0.750000  0.807459  0.455634  1
  Si  Si23  1  0.750000  0.693378  0.956977  1
  Ru  Ru24  1  0.250000  0.386809  0.677592  1
  Ru  Ru25  1  0.250000  0.112500  0.178408  1
  Ru  Ru26  1  0.750000  0.612490  0.322944  1
  Ru  Ru27  1  0.750000  0.887298  0.822172  1
