# generated using pymatgen
data_LaTh3(CuAu)4
_symmetry_space_group_name_H-M   'P 1'
_cell_length_a   4.54821100
_cell_length_b   7.16388721
_cell_length_c   7.96351060
_cell_angle_alpha   90.00834918
_cell_angle_beta   90.00000000
_cell_angle_gamma   90.00000000
_symmetry_Int_Tables_number   1
_chemical_formula_structural   LaTh3(CuAu)4
_chemical_formula_sum   'La1 Th3 Cu4 Au4'
_cell_volume   259.47403289
_cell_formula_units_Z   1
loop_
 _symmetry_equiv_pos_site_id
 _symmetry_equiv_pos_as_xyz
  1  'x, y, z'
loop_
 _atom_site_type_symbol
 _atom_site_label
 _atom_site_symmetry_multiplicity
 _atom_site_fract_x
 _atom_site_fract_y
 _atom_site_fract_z
 _atom_site_occupancy
  La  La0  1  0.250000  0.499946  0.239363  1
  Th  Th1  1  0.750000  0.500214  0.759123  1
  Th  Th2  1  0.250000  0.000365  0.260164  1
  Th  Th3  1  0.750000  0.000034  0.740026  1
  Cu  Cu4  1  0.250000  0.230296  0.914766  1
  Cu  Cu5  1  0.250000  0.736174  0.585212  1
  Cu  Cu6  1  0.750000  0.777842  0.083910  1
  Cu  Cu7  1  0.750000  0.252793  0.416862  1
  Au  Au8  1  0.250000  0.765569  0.915168  1
  Au  Au9  1  0.250000  0.260236  0.585407  1
  Au  Au10  1  0.750000  0.747803  0.417239  1
  Au  Au11  1  0.750000  0.228725  0.082761  1
