# generated using pymatgen
data_Ta4ZnGe(B2Ru5)2
_symmetry_space_group_name_H-M   'P 1'
_cell_length_a   9.29934400
_cell_length_b   9.29934400
_cell_length_c   3.00434100
_cell_angle_alpha   90.00000000
_cell_angle_beta   90.00000000
_cell_angle_gamma   90.00000000
_symmetry_Int_Tables_number   1
_chemical_formula_structural   Ta4ZnGe(B2Ru5)2
_chemical_formula_sum   'Ta4 Zn1 Ge1 B4 Ru10'
_cell_volume   259.80879662
_cell_formula_units_Z   1
loop_
 _symmetry_equiv_pos_site_id
 _symmetry_equiv_pos_as_xyz
  1  'x, y, z'
loop_
 _atom_site_type_symbol
 _atom_site_label
 _atom_site_symmetry_multiplicity
 _atom_site_fract_x
 _atom_site_fract_y
 _atom_site_fract_z
 _atom_site_occupancy
  Ta  Ta0  1  0.825844  0.677796  0.000000  1
  Ta  Ta1  1  0.174156  0.322204  0.000000  1
  Ta  Ta2  1  0.322204  0.825844  0.000000  1
  Ta  Ta3  1  0.677796  0.174156  0.000000  1
  Zn  Zn4  1  0.000000  0.000000  0.000000  1
  Ge  Ge5  1  0.500000  0.500000  0.000000  1
  B  B6  1  0.627088  0.876538  0.000000  1
  B  B7  1  0.372912  0.123462  0.000000  1
  B  B8  1  0.123462  0.627088  0.000000  1
  B  B9  1  0.876538  0.372912  0.000000  1
  Ru  Ru10  1  0.568136  0.713459  0.500000  1
  Ru  Ru11  1  0.431864  0.286541  0.500000  1
  Ru  Ru12  1  0.070033  0.784202  0.500000  1
  Ru  Ru13  1  0.929967  0.215798  0.500000  1
  Ru  Ru14  1  0.286541  0.568136  0.500000  1
  Ru  Ru15  1  0.713459  0.431864  0.500000  1
  Ru  Ru16  1  0.215798  0.070033  0.500000  1
  Ru  Ru17  1  0.784202  0.929967  0.500000  1
  Ru  Ru18  1  0.500000  0.000000  0.500000  1
  Ru  Ru19  1  0.000000  0.500000  0.500000  1
