# generated using pymatgen
data_Tb7DySc12Si15Ru
_symmetry_space_group_name_H-M   'P 1'
_cell_length_a   7.08987631
_cell_length_b   7.45719865
_cell_length_c   13.96824706
_cell_angle_alpha   89.98951387
_cell_angle_beta   89.99749888
_cell_angle_gamma   90.17685393
_symmetry_Int_Tables_number   1
_chemical_formula_structural   Tb7DySc12Si15Ru
_chemical_formula_sum   'Tb7 Dy1 Sc12 Si15 Ru1'
_cell_volume   738.50629564
_cell_formula_units_Z   1
loop_
 _symmetry_equiv_pos_site_id
 _symmetry_equiv_pos_as_xyz
  1  'x, y, z'
loop_
 _atom_site_type_symbol
 _atom_site_label
 _atom_site_symmetry_multiplicity
 _atom_site_fract_x
 _atom_site_fract_y
 _atom_site_fract_z
 _atom_site_occupancy
  Tb  Tb0  1  0.011140  0.178518  0.096057  1
  Tb  Tb1  1  0.991197  0.826859  0.904180  1
  Tb  Tb2  1  0.489092  0.676470  0.904166  1
  Tb  Tb3  1  0.991211  0.826821  0.595775  1
  Tb  Tb4  1  0.510922  0.323022  0.096092  1
  Tb  Tb5  1  0.011161  0.178515  0.403964  1
  Tb  Tb6  1  0.510928  0.323055  0.403964  1
  Dy  Dy7  1  0.489043  0.676688  0.595968  1
  Sc  Sc8  1  0.157287  0.500815  0.749953  1
  Sc  Sc9  1  0.838286  0.495568  0.250017  1
  Sc  Sc10  1  0.338947  0.005065  0.250026  1
  Sc  Sc11  1  0.669830  0.999336  0.749952  1
  Sc  Sc12  1  0.316820  0.171844  0.628067  1
  Sc  Sc13  1  0.671572  0.825578  0.373945  1
  Sc  Sc14  1  0.171291  0.677730  0.374084  1
  Sc  Sc15  1  0.671634  0.825651  0.126091  1
  Sc  Sc16  1  0.837448  0.319776  0.627740  1
  Sc  Sc17  1  0.316829  0.171817  0.871898  1
  Sc  Sc18  1  0.837430  0.319779  0.872244  1
  Sc  Sc19  1  0.171242  0.677703  0.125955  1
  Si  Si20  1  0.968380  0.884141  0.250020  1
  Si  Si21  1  0.468980  0.614679  0.250030  1
  Si  Si22  1  0.529452  0.388079  0.749905  1
  Si  Si23  1  0.286853  0.867893  0.749870  1
  Si  Si24  1  0.713156  0.128738  0.250018  1
  Si  Si25  1  0.213778  0.371630  0.250018  1
  Si  Si26  1  0.779826  0.626722  0.749862  1
  Si  Si27  1  0.159692  0.468441  0.537404  1
  Si  Si28  1  0.844285  0.535920  0.461542  1
  Si  Si29  1  0.344863  0.965340  0.460342  1
  Si  Si30  1  0.844417  0.535893  0.038476  1
  Si  Si31  1  0.655614  0.034601  0.538730  1
  Si  Si32  1  0.159340  0.468285  0.962651  1
  Si  Si33  1  0.655678  0.034842  0.961301  1
  Si  Si34  1  0.344835  0.965549  0.039711  1
  Ru  Ru35  1  0.027541  0.108637  0.749984  1
