# generated using pymatgen
data_Y15HoB4C8I19
_symmetry_space_group_name_H-M   'P 1'
_cell_length_a   12.59811564
_cell_length_b   14.49159573
_cell_length_c   19.83007228
_cell_angle_alpha   104.71185904
_cell_angle_beta   89.61277621
_cell_angle_gamma   112.76277946
_symmetry_Int_Tables_number   1
_chemical_formula_structural   Y15HoB4C8I19
_chemical_formula_sum   'Y30 Ho2 B8 C16 I38'
_cell_volume   3211.85870271
_cell_formula_units_Z   2
loop_
 _symmetry_equiv_pos_site_id
 _symmetry_equiv_pos_as_xyz
  1  'x, y, z'
loop_
 _atom_site_type_symbol
 _atom_site_label
 _atom_site_symmetry_multiplicity
 _atom_site_fract_x
 _atom_site_fract_y
 _atom_site_fract_z
 _atom_site_occupancy
  Y  Y0  1  0.685357  0.659122  0.779283  1
  Y  Y1  1  0.398026  0.264926  0.043201  1
  Y  Y2  1  0.321123  0.710892  0.543930  1
  Y  Y3  1  0.859589  0.727864  0.541832  1
  Y  Y4  1  0.639207  0.504525  0.408327  1
  Y  Y5  1  0.443641  0.651452  0.279150  1
  Y  Y6  1  0.397930  0.264057  0.372709  1
  Y  Y7  1  0.138762  0.276968  0.956097  1
  Y  Y8  1  0.325127  0.714402  0.041862  1
  Y  Y9  1  0.405024  0.263001  0.872573  1
  Y  Y10  1  0.861233  0.722986  0.043946  1
  Y  Y11  1  0.678916  0.289132  0.456019  1
  Y  Y12  1  0.601988  0.735115  0.956914  1
  Y  Y13  1  0.594960  0.736932  0.127420  1
  Y  Y14  1  0.637756  0.502161  0.091808  1
  Y  Y15  1  0.362183  0.497750  0.908323  1
  Y  Y16  1  0.140416  0.272099  0.458111  1
  Y  Y17  1  0.700066  0.659800  0.277987  1
  Y  Y18  1  0.404987  0.264680  0.543074  1
  Y  Y19  1  0.366104  0.496574  0.407747  1
  Y  Y20  1  0.366085  0.497303  0.092092  1
  Y  Y21  1  0.633842  0.502562  0.908001  1
  Y  Y22  1  0.429420  0.652419  0.778271  1
  Y  Y23  1  0.360721  0.495393  0.591525  1
  Y  Y24  1  0.674910  0.285637  0.958226  1
  Y  Y25  1  0.594994  0.735244  0.456911  1
  Y  Y26  1  0.633817  0.503304  0.592137  1
  Y  Y27  1  0.556549  0.348564  0.720857  1
  Y  Y28  1  0.299943  0.340159  0.721998  1
  Y  Y29  1  0.602089  0.735932  0.627176  1
  Ho  Ho30  1  0.315926  0.341574  0.220873  1
  Ho  Ho31  1  0.569306  0.348004  0.221697  1
  B  B32  1  0.507986  0.501214  0.205411  1
  B  B33  1  0.470740  0.430040  0.486920  1
  B  B34  1  0.492105  0.498838  0.794743  1
  B  B35  1  0.470675  0.430067  0.987042  1
  B  B36  1  0.529303  0.569892  0.013079  1
  B  B37  1  0.492397  0.500725  0.705325  1
  B  B38  1  0.507685  0.499279  0.294549  1
  B  B39  1  0.529245  0.569921  0.512944  1
  C  C40  1  0.666064  0.635771  0.525187  1
  C  C41  1  0.460449  0.391146  0.314774  1
  C  C42  1  0.449773  0.391722  0.815890  1
  C  C43  1  0.444973  0.630078  0.025012  1
  C  C44  1  0.553805  0.368660  0.475680  1
  C  C45  1  0.539184  0.608263  0.684395  1
  C  C46  1  0.333934  0.363285  0.975584  1
  C  C47  1  0.450764  0.394932  0.644464  1
  C  C48  1  0.554976  0.369841  0.975097  1
  C  C49  1  0.666038  0.636635  0.024500  1
  C  C50  1  0.550190  0.608203  0.184035  1
  C  C51  1  0.460941  0.394674  0.145164  1
  C  C52  1  0.446150  0.631257  0.524179  1
  C  C53  1  0.333915  0.364149  0.474695  1
  C  C54  1  0.549206  0.604956  0.355594  1
  C  C55  1  0.538812  0.604841  0.855397  1
  I  I56  1  0.455910  0.086076  0.947397  1
  I  I57  1  0.617029  0.867574  0.833996  1
  I  I58  1  0.503143  0.905309  0.640816  1
  I  I59  1  0.111413  0.353206  0.824839  1
  I  I60  1  0.615264  0.205125  0.584256  1
  I  I61  1  0.869301  0.194097  0.437720  1
  I  I62  1  0.845517  0.911667  0.143461  1
  I  I63  1  0.873506  0.506000  0.949638  1
  I  I64  1  0.862766  0.812036  0.702512  1
  I  I65  1  0.383808  0.133503  0.166409  1
  I  I66  1  0.137929  0.188605  0.297208  1
  I  I67  1  0.770346  0.366396  0.324298  1
  I  I68  1  0.867054  0.807801  0.916405  1
  I  I69  1  0.750112  0.338713  0.114965  1
  I  I70  1  0.544033  0.913951  0.052656  1
  I  I71  1  0.108064  0.325473  0.615104  1
  I  I72  1  0.891924  0.674511  0.384880  1
  I  I73  1  0.818055  0.921664  0.539030  1
  I  I74  1  0.135417  0.810171  0.057291  1
  I  I75  1  0.806053  0.509712  0.748876  1
  I  I76  1  0.864604  0.189900  0.942780  1
  I  I77  1  0.127056  0.491398  0.450537  1
  I  I78  1  0.248886  0.661241  0.885470  1
  I  I79  1  0.130704  0.805918  0.562240  1
  I  I80  1  0.624173  0.211825  0.797760  1
  I  I81  1  0.194708  0.489338  0.250897  1
  I  I82  1  0.181924  0.078333  0.460927  1
  I  I83  1  0.496815  0.094679  0.359183  1
  I  I84  1  0.384711  0.794861  0.415703  1
  I  I85  1  0.154468  0.088325  0.856549  1
  I  I86  1  0.872975  0.508621  0.549408  1
  I  I87  1  0.683916  0.868243  0.328105  1
  I  I88  1  0.133564  0.192730  0.084027  1
  I  I89  1  0.126535  0.494025  0.050410  1
  I  I90  1  0.228582  0.633449  0.675195  1
  I  I91  1  0.375792  0.788153  0.202279  1
  I  I92  1  0.316059  0.131672  0.671875  1
  I  I93  1  0.888577  0.646773  0.175166  1
