# generated using pymatgen
data_Co4ReB4MoW2
_symmetry_space_group_name_H-M   'P 1'
_cell_length_a   3.24903400
_cell_length_b   5.74489484
_cell_length_c   6.61698870
_cell_angle_alpha   89.64450590
_cell_angle_beta   90.00000000
_cell_angle_gamma   90.00000000
_symmetry_Int_Tables_number   1
_chemical_formula_structural   Co4ReB4MoW2
_chemical_formula_sum   'Co4 Re1 B4 Mo1 W2'
_cell_volume   123.50609003
_cell_formula_units_Z   1
loop_
 _symmetry_equiv_pos_site_id
 _symmetry_equiv_pos_as_xyz
  1  'x, y, z'
loop_
 _atom_site_type_symbol
 _atom_site_label
 _atom_site_symmetry_multiplicity
 _atom_site_fract_x
 _atom_site_fract_y
 _atom_site_fract_z
 _atom_site_occupancy
  Co  Co0  1  0.750000  0.856379  0.556171  1
  Co  Co1  1  0.250000  0.146230  0.443581  1
  Co  Co2  1  0.750000  0.354090  0.943822  1
  Co  Co3  1  0.250000  0.643500  0.055979  1
  Re  Re4  1  0.750000  0.970226  0.172541  1
  B  B5  1  0.250000  0.268935  0.127896  1
  B  B6  1  0.750000  0.727664  0.877134  1
  B  B7  1  0.250000  0.775725  0.371157  1
  B  B8  1  0.750000  0.228755  0.625687  1
  Mo  Mo9  1  0.750000  0.472379  0.326092  1
  W  W10  1  0.250000  0.528340  0.673279  1
  W  W11  1  0.250000  0.027777  0.826659  1
