# generated using pymatgen
data_Ti2Co5SiB2
_symmetry_space_group_name_H-M   'P 1'
_cell_length_a   8.35188300
_cell_length_b   8.35188300
_cell_length_c   2.98317100
_cell_angle_alpha   90.00000000
_cell_angle_beta   90.00000000
_cell_angle_gamma   90.00000000
_symmetry_Int_Tables_number   1
_chemical_formula_structural   Ti2Co5SiB2
_chemical_formula_sum   'Ti4 Co10 Si2 B4'
_cell_volume   208.08795972
_cell_formula_units_Z   2
loop_
 _symmetry_equiv_pos_site_id
 _symmetry_equiv_pos_as_xyz
  1  'x, y, z'
loop_
 _atom_site_type_symbol
 _atom_site_label
 _atom_site_symmetry_multiplicity
 _atom_site_fract_x
 _atom_site_fract_y
 _atom_site_fract_z
 _atom_site_occupancy
  Ti  Ti0  1  0.824583  0.324583  0.000000  1
  Ti  Ti1  1  0.324583  0.175417  0.000000  1
  Ti  Ti2  1  0.675417  0.824583  0.000000  1
  Ti  Ti3  1  0.175417  0.675417  0.000000  1
  Co  Co4  1  0.500000  0.000000  0.500000  1
  Co  Co5  1  0.000000  0.500000  0.500000  1
  Co  Co6  1  0.069296  0.215095  0.500000  1
  Co  Co7  1  0.215095  0.930704  0.500000  1
  Co  Co8  1  0.784905  0.069296  0.500000  1
  Co  Co9  1  0.930704  0.784905  0.500000  1
  Co  Co10  1  0.430704  0.715095  0.500000  1
  Co  Co11  1  0.569296  0.284905  0.500000  1
  Co  Co12  1  0.715095  0.569296  0.500000  1
  Co  Co13  1  0.284905  0.430704  0.500000  1
  Si  Si14  1  0.000000  0.000000  0.000000  1
  Si  Si15  1  0.500000  0.500000  0.000000  1
  B  B16  1  0.620883  0.120883  0.000000  1
  B  B17  1  0.120883  0.379117  0.000000  1
  B  B18  1  0.879117  0.620883  0.000000  1
  B  B19  1  0.379117  0.879117  0.000000  1
