# generated using pymatgen
data_Y11LuGa20
_symmetry_space_group_name_H-M   'P 1'
_cell_length_a   6.10340400
_cell_length_b   9.65411200
_cell_length_c   11.57240200
_cell_angle_alpha   90.00000000
_cell_angle_beta   89.99849862
_cell_angle_gamma   90.00000000
_symmetry_Int_Tables_number   1
_chemical_formula_structural   Y11LuGa20
_chemical_formula_sum   'Y11 Lu1 Ga20'
_cell_volume   681.88001568
_cell_formula_units_Z   1
loop_
 _symmetry_equiv_pos_site_id
 _symmetry_equiv_pos_as_xyz
  1  'x, y, z'
loop_
 _atom_site_type_symbol
 _atom_site_label
 _atom_site_symmetry_multiplicity
 _atom_site_fract_x
 _atom_site_fract_y
 _atom_site_fract_z
 _atom_site_occupancy
  Y  Y0  1  0.849159  0.750000  0.076151  1
  Y  Y1  1  0.650536  0.750000  0.576148  1
  Y  Y2  1  0.150471  0.250000  0.923421  1
  Y  Y3  1  0.892035  0.509701  0.350678  1
  Y  Y4  1  0.609100  0.990710  0.850587  1
  Y  Y5  1  0.109322  0.010561  0.648393  1
  Y  Y6  1  0.390678  0.489809  0.149435  1
  Y  Y7  1  0.109322  0.489439  0.648393  1
  Y  Y8  1  0.390678  0.010191  0.149435  1
  Y  Y9  1  0.892035  0.990299  0.350678  1
  Y  Y10  1  0.609100  0.509290  0.850587  1
  Lu  Lu11  1  0.348746  0.250000  0.424076  1
  Ga  Ga12  1  0.875737  0.055662  0.090516  1
  Ga  Ga13  1  0.624249  0.444100  0.588913  1
  Ga  Ga14  1  0.124360  0.554839  0.909834  1
  Ga  Ga15  1  0.376263  0.947399  0.410443  1
  Ga  Ga16  1  0.124360  0.945161  0.909834  1
  Ga  Ga17  1  0.376263  0.552601  0.410443  1
  Ga  Ga18  1  0.875737  0.444338  0.090516  1
  Ga  Ga19  1  0.624249  0.055900  0.588913  1
  Ga  Ga20  1  0.173888  0.750000  0.252538  1
  Ga  Ga21  1  0.325954  0.750000  0.752478  1
  Ga  Ga22  1  0.825690  0.250000  0.746832  1
  Ga  Ga23  1  0.670025  0.250000  0.249141  1
  Ga  Ga24  1  0.374267  0.750000  0.003932  1
  Ga  Ga25  1  0.127503  0.750000  0.503954  1
  Ga  Ga26  1  0.625455  0.250000  0.996656  1
  Ga  Ga27  1  0.876958  0.250000  0.494703  1
  Ga  Ga28  1  0.599524  0.750000  0.300306  1
  Ga  Ga29  1  0.899260  0.750000  0.799885  1
  Ga  Ga30  1  0.398938  0.250000  0.699173  1
  Ga  Ga31  1  0.100139  0.250000  0.203009  1
