# generated using pymatgen
data_Be5Nb4Al3
_symmetry_space_group_name_H-M   'P 1'
_cell_length_a   4.83412375
_cell_length_b   4.81739190
_cell_length_c   7.88297600
_cell_angle_alpha   90.00000000
_cell_angle_beta   90.00000000
_cell_angle_gamma   119.88557134
_symmetry_Int_Tables_number   1
_chemical_formula_structural   Be5Nb4Al3
_chemical_formula_sum   'Be5 Nb4 Al3'
_cell_volume   159.16595921
_cell_formula_units_Z   1
loop_
 _symmetry_equiv_pos_site_id
 _symmetry_equiv_pos_as_xyz
  1  'x, y, z'
loop_
 _atom_site_type_symbol
 _atom_site_label
 _atom_site_symmetry_multiplicity
 _atom_site_fract_x
 _atom_site_fract_y
 _atom_site_fract_z
 _atom_site_occupancy
  Be  Be0  1  0.820384  0.182496  0.250000  1
  Be  Be1  1  0.820384  0.637888  0.250000  1
  Be  Be2  1  0.368278  0.184139  0.250000  1
  Be  Be3  1  0.159885  0.820363  0.750000  1
  Be  Be4  1  0.159885  0.339522  0.750000  1
  Nb  Nb5  1  0.335785  0.667893  0.430391  1
  Nb  Nb6  1  0.667782  0.333890  0.561165  1
  Nb  Nb7  1  0.667782  0.333890  0.938835  1
  Nb  Nb8  1  0.335785  0.667893  0.069609  1
  Al  Al9  1  0.011321  0.005660  0.487987  1
  Al  Al10  1  0.011321  0.005660  0.012013  1
  Al  Al11  1  0.641410  0.820705  0.750000  1
