# generated using pymatgen
data_Gd5DyOsI10
_symmetry_space_group_name_H-M   'P 1'
_cell_length_a   7.75960582
_cell_length_b   9.74115016
_cell_length_c   9.75591600
_cell_angle_alpha   107.12257402
_cell_angle_beta   96.57303353
_cell_angle_gamma   104.57555361
_symmetry_Int_Tables_number   1
_chemical_formula_structural   Gd5DyOsI10
_chemical_formula_sum   'Gd5 Dy1 Os1 I10'
_cell_volume   667.73508344
_cell_formula_units_Z   1
loop_
 _symmetry_equiv_pos_site_id
 _symmetry_equiv_pos_as_xyz
  1  'x, y, z'
loop_
 _atom_site_type_symbol
 _atom_site_label
 _atom_site_symmetry_multiplicity
 _atom_site_fract_x
 _atom_site_fract_y
 _atom_site_fract_z
 _atom_site_occupancy
  Gd  Gd0  1  0.115315  0.041701  0.758542  1
  Gd  Gd1  1  0.880989  0.955947  0.239564  1
  Gd  Gd2  1  0.965220  0.283092  0.083190  1
  Gd  Gd3  1  0.032151  0.715687  0.915321  1
  Gd  Gd4  1  0.354822  0.127122  0.170063  1
  Dy  Dy5  1  0.651558  0.876064  0.834175  1
  Os  Os6  1  0.000681  0.001775  0.000899  1
  I  I7  1  0.348621  0.452823  0.272134  1
  I  I8  1  0.647701  0.551324  0.726941  1
  I  I9  1  0.256362  0.085177  0.460091  1
  I  I10  1  0.737582  0.912001  0.541625  1
  I  I11  1  0.087181  0.371493  0.817220  1
  I  I12  1  0.912228  0.628200  0.181493  1
  I  I13  1  0.455137  0.812964  0.088489  1
  I  I14  1  0.546386  0.182334  0.905388  1
  I  I15  1  0.782849  0.259390  0.351497  1
  I  I16  1  0.225215  0.742907  0.653369  1
