# generated using pymatgen
data_ErTmSc2(B6Ir)2
_symmetry_space_group_name_H-M   'P 1'
_cell_length_a   3.53239500
_cell_length_b   8.99150401
_cell_length_c   11.34709402
_cell_angle_alpha   90.00610212
_cell_angle_beta   90.00000000
_cell_angle_gamma   90.00000000
_symmetry_Int_Tables_number   1
_chemical_formula_structural   ErTmSc2(B6Ir)2
_chemical_formula_sum   'Er2 Tm2 Sc4 B24 Ir4'
_cell_volume   360.40122174
_cell_formula_units_Z   2
loop_
 _symmetry_equiv_pos_site_id
 _symmetry_equiv_pos_as_xyz
  1  'x, y, z'
loop_
 _atom_site_type_symbol
 _atom_site_label
 _atom_site_symmetry_multiplicity
 _atom_site_fract_x
 _atom_site_fract_y
 _atom_site_fract_z
 _atom_site_occupancy
  Er  Er0  1  0.500000  0.319615  0.413960  1
  Er  Er1  1  0.500000  0.680385  0.586040  1
  Tm  Tm2  1  0.500000  0.180369  0.913943  1
  Tm  Tm3  1  0.500000  0.819631  0.086057  1
  Sc  Sc4  1  0.500000  0.445095  0.124150  1
  Sc  Sc5  1  0.500000  0.554905  0.875850  1
  Sc  Sc6  1  0.500000  0.054934  0.624204  1
  Sc  Sc7  1  0.500000  0.945066  0.375796  1
  B  B8  1  0.000000  0.100834  0.472616  1
  B  B9  1  0.000000  0.899166  0.527384  1
  B  B10  1  0.000000  0.398966  0.972556  1
  B  B11  1  0.000000  0.601034  0.027444  1
  B  B12  1  0.000000  0.130130  0.318403  1
  B  B13  1  0.000000  0.869870  0.681597  1
  B  B14  1  0.000000  0.369712  0.818498  1
  B  B15  1  0.000000  0.630288  0.181502  1
  B  B16  1  0.000000  0.054465  0.065033  1
  B  B17  1  0.000000  0.945535  0.934967  1
  B  B18  1  0.000000  0.445477  0.565175  1
  B  B19  1  0.000000  0.554523  0.434825  1
  B  B20  1  0.000000  0.481394  0.285441  1
  B  B21  1  0.000000  0.518606  0.714559  1
  B  B22  1  0.000000  0.018749  0.785527  1
  B  B23  1  0.000000  0.981251  0.214473  1
  B  B24  1  0.000000  0.253640  0.079462  1
  B  B25  1  0.000000  0.746360  0.920538  1
  B  B26  1  0.000000  0.246306  0.579621  1
  B  B27  1  0.000000  0.753694  0.420379  1
  B  B28  1  0.000000  0.295735  0.235652  1
  B  B29  1  0.000000  0.704265  0.764348  1
  B  B30  1  0.000000  0.204223  0.735820  1
  B  B31  1  0.000000  0.795777  0.264180  1
  Ir  Ir32  1  0.500000  0.141053  0.180930  1
  Ir  Ir33  1  0.500000  0.858947  0.819070  1
  Ir  Ir34  1  0.500000  0.358715  0.681188  1
  Ir  Ir35  1  0.500000  0.641285  0.318812  1
