# generated using pymatgen
data_Zr4In2Co3Hg
_symmetry_space_group_name_H-M   'P 1'
_cell_length_a   7.46407522
_cell_length_b   7.46407525
_cell_length_c   3.32092600
_cell_angle_alpha   90.00000000
_cell_angle_beta   90.00000000
_cell_angle_gamma   92.00124456
_symmetry_Int_Tables_number   1
_chemical_formula_structural   Zr4In2Co3Hg
_chemical_formula_sum   'Zr4 In2 Co3 Hg1'
_cell_volume   184.90397359
_cell_formula_units_Z   1
loop_
 _symmetry_equiv_pos_site_id
 _symmetry_equiv_pos_as_xyz
  1  'x, y, z'
loop_
 _atom_site_type_symbol
 _atom_site_label
 _atom_site_symmetry_multiplicity
 _atom_site_fract_x
 _atom_site_fract_y
 _atom_site_fract_z
 _atom_site_occupancy
  Zr  Zr0  1  0.706515  0.159830  0.500000  1
  Zr  Zr1  1  0.137082  0.362918  0.500000  1
  Zr  Zr2  1  0.824237  0.675763  0.500000  1
  Zr  Zr3  1  0.340170  0.793485  0.500000  1
  In  In4  1  0.001773  0.990765  0.000000  1
  In  In5  1  0.509235  0.498227  0.000000  1
  Co  Co6  1  0.118567  0.633794  0.000000  1
  Co  Co7  1  0.624097  0.875903  0.000000  1
  Co  Co8  1  0.866206  0.381433  0.000000  1
  Hg  Hg9  1  0.372119  0.127881  0.000000  1
