# generated using pymatgen
data_Dy4Er(SiHg)2
_symmetry_space_group_name_H-M   'P 1'
_cell_length_a   8.76742405
_cell_length_b   8.76742463
_cell_length_c   7.56209000
_cell_angle_alpha   90.00000000
_cell_angle_beta   90.00000000
_cell_angle_gamma   129.08920372
_symmetry_Int_Tables_number   1
_chemical_formula_structural   Dy4Er(SiHg)2
_chemical_formula_sum   'Dy8 Er2 Si4 Hg4'
_cell_volume   451.16986109
_cell_formula_units_Z   2
loop_
 _symmetry_equiv_pos_site_id
 _symmetry_equiv_pos_as_xyz
  1  'x, y, z'
loop_
 _atom_site_type_symbol
 _atom_site_label
 _atom_site_symmetry_multiplicity
 _atom_site_fract_x
 _atom_site_fract_y
 _atom_site_fract_z
 _atom_site_occupancy
  Dy  Dy0  1  0.052024  0.306840  0.325950  1
  Dy  Dy1  1  0.947976  0.693160  0.674050  1
  Dy  Dy2  1  0.447976  0.193160  0.825950  1
  Dy  Dy3  1  0.806840  0.552024  0.174050  1
  Dy  Dy4  1  0.552024  0.806840  0.174050  1
  Dy  Dy5  1  0.193160  0.447976  0.825950  1
  Dy  Dy6  1  0.693160  0.947976  0.674050  1
  Dy  Dy7  1  0.306840  0.052024  0.325950  1
  Er  Er8  1  0.000000  0.000000  0.000000  1
  Er  Er9  1  0.500000  0.500000  0.500000  1
  Si  Si10  1  0.378365  0.378365  0.124340  1
  Si  Si11  1  0.621635  0.621635  0.875660  1
  Si  Si12  1  0.121635  0.121635  0.624340  1
  Si  Si13  1  0.878365  0.878365  0.375660  1
  Hg  Hg14  1  0.783891  0.216109  0.000000  1
  Hg  Hg15  1  0.216110  0.783891  0.000000  1
  Hg  Hg16  1  0.716109  0.283891  0.500000  1
  Hg  Hg17  1  0.283891  0.716109  0.500000  1
