# generated using pymatgen
data_Tb6Sm2Re3B24Ru
_symmetry_space_group_name_H-M   'P 1'
_cell_length_a   3.71074400
_cell_length_b   9.21879942
_cell_length_c   11.62521661
_cell_angle_alpha   90.07917172
_cell_angle_beta   90.00000000
_cell_angle_gamma   90.00000000
_symmetry_Int_Tables_number   1
_chemical_formula_structural   Tb6Sm2Re3B24Ru
_chemical_formula_sum   'Tb6 Sm2 Re3 B24 Ru1'
_cell_volume   397.68205912
_cell_formula_units_Z   1
loop_
 _symmetry_equiv_pos_site_id
 _symmetry_equiv_pos_as_xyz
  1  'x, y, z'
loop_
 _atom_site_type_symbol
 _atom_site_label
 _atom_site_symmetry_multiplicity
 _atom_site_fract_x
 _atom_site_fract_y
 _atom_site_fract_z
 _atom_site_occupancy
  Tb  Tb0  1  0.000000  0.825374  0.083983  1
  Tb  Tb1  1  0.000000  0.176310  0.913917  1
  Tb  Tb2  1  0.000000  0.941444  0.368689  1
  Tb  Tb3  1  0.000000  0.056612  0.630131  1
  Tb  Tb4  1  0.000000  0.442964  0.130495  1
  Tb  Tb5  1  0.000000  0.557095  0.871220  1
  Sm  Sm6  1  0.000000  0.322190  0.413996  1
  Sm  Sm7  1  0.000000  0.677042  0.587638  1
  Re  Re8  1  0.000000  0.361578  0.679069  1
  Re  Re9  1  0.000000  0.137688  0.178951  1
  Re  Re10  1  0.000000  0.862296  0.821358  1
  B  B11  1  0.500000  0.554783  0.431210  1
  B  B12  1  0.500000  0.446071  0.568460  1
  B  B13  1  0.500000  0.053309  0.066764  1
  B  B14  1  0.500000  0.947194  0.932744  1
  B  B15  1  0.500000  0.748178  0.416563  1
  B  B16  1  0.500000  0.250934  0.583055  1
  B  B17  1  0.500000  0.248543  0.081434  1
  B  B18  1  0.500000  0.752425  0.918791  1
  B  B19  1  0.500000  0.790425  0.264986  1
  B  B20  1  0.500000  0.208436  0.734761  1
  B  B21  1  0.500000  0.290212  0.233398  1
  B  B22  1  0.500000  0.709284  0.767322  1
  B  B23  1  0.500000  0.631895  0.185723  1
  B  B24  1  0.500000  0.368865  0.814297  1
  B  B25  1  0.500000  0.130026  0.313284  1
  B  B26  1  0.500000  0.869510  0.687126  1
  B  B27  1  0.500000  0.982928  0.211008  1
  B  B28  1  0.500000  0.017196  0.788255  1
  B  B29  1  0.500000  0.485361  0.287394  1
  B  B30  1  0.500000  0.516415  0.713141  1
  B  B31  1  0.500000  0.602839  0.029170  1
  B  B32  1  0.500000  0.397779  0.972122  1
  B  B33  1  0.500000  0.098405  0.471747  1
  B  B34  1  0.500000  0.899472  0.527643  1
  Ru  Ru35  1  0.000000  0.638921  0.320158  1
