# generated using pymatgen
data_Dy4HoTcMoO12
_symmetry_space_group_name_H-M   'P 1'
_cell_length_a   6.81998840
_cell_length_b   6.81998704
_cell_length_c   7.51337607
_cell_angle_alpha   73.85821706
_cell_angle_beta   73.85822118
_cell_angle_gamma   50.11761975
_symmetry_Int_Tables_number   1
_chemical_formula_structural   Dy4HoTcMoO12
_chemical_formula_sum   'Dy4 Ho1 Tc1 Mo1 O12'
_cell_volume   255.22400499
_cell_formula_units_Z   1
loop_
 _symmetry_equiv_pos_site_id
 _symmetry_equiv_pos_as_xyz
  1  'x, y, z'
loop_
 _atom_site_type_symbol
 _atom_site_label
 _atom_site_symmetry_multiplicity
 _atom_site_fract_x
 _atom_site_fract_y
 _atom_site_fract_z
 _atom_site_occupancy
  Dy  Dy0  1  0.313586  0.294256  0.360146  1
  Dy  Dy1  1  0.705744  0.686414  0.639854  1
  Dy  Dy2  1  0.317145  0.309197  0.823827  1
  Dy  Dy3  1  0.690803  0.682855  0.176173  1
  Ho  Ho4  1  0.006513  0.993487  0.500000  1
  Tc  Tc5  1  0.766315  0.233685  0.000000  1
  Mo  Mo6  1  0.210309  0.789691  0.000000  1
  O  O7  1  0.910168  0.429370  0.914417  1
  O  O8  1  0.417552  0.904247  0.915923  1
  O  O9  1  0.095753  0.582448  0.084077  1
  O  O10  1  0.570630  0.089832  0.085583  1
  O  O11  1  0.104714  0.592064  0.571212  1
  O  O12  1  0.598519  0.090544  0.576042  1
  O  O13  1  0.909456  0.401481  0.423958  1
  O  O14  1  0.407936  0.895286  0.428788  1
  O  O15  1  0.991744  0.005111  0.797462  1
  O  O16  1  0.994889  0.008256  0.202538  1
  O  O17  1  0.494264  0.506039  0.818993  1
  O  O18  1  0.493961  0.505736  0.181007  1
