# generated using pymatgen
data_Rb17Ho5O16
_symmetry_space_group_name_H-M   'P 1'
_cell_length_a   20.52383168
_cell_length_b   20.52383303
_cell_length_c   7.35528779
_cell_angle_alpha   84.93074246
_cell_angle_beta   84.93073608
_cell_angle_gamma   159.43780532
_symmetry_Int_Tables_number   1
_chemical_formula_structural   Rb17Ho5O16
_chemical_formula_sum   'Rb17 Ho5 O16'
_cell_volume   945.46498651
_cell_formula_units_Z   1
loop_
 _symmetry_equiv_pos_site_id
 _symmetry_equiv_pos_as_xyz
  1  'x, y, z'
loop_
 _atom_site_type_symbol
 _atom_site_label
 _atom_site_symmetry_multiplicity
 _atom_site_fract_x
 _atom_site_fract_y
 _atom_site_fract_z
 _atom_site_occupancy
  Rb  Rb0  1  0.388270  0.666205  0.061927  1
  Rb  Rb1  1  0.478277  0.570303  0.080912  1
  Rb  Rb2  1  0.321771  0.782688  0.059868  1
  Rb  Rb3  1  0.087749  0.914632  0.187602  1
  Rb  Rb4  1  0.170259  0.824921  0.473263  1
  Rb  Rb5  1  0.332530  0.605971  0.586167  1
  Rb  Rb6  1  0.223565  0.675829  0.613028  1
  Rb  Rb7  1  0.423217  0.515085  0.606628  1
  Rb  Rb8  1  0.666205  0.388270  0.061927  1
  Rb  Rb9  1  0.570303  0.478277  0.080912  1
  Rb  Rb10  1  0.782688  0.321771  0.059868  1
  Rb  Rb11  1  0.914632  0.087749  0.187602  1
  Rb  Rb12  1  0.824921  0.170259  0.473263  1
  Rb  Rb13  1  0.605971  0.332530  0.586167  1
  Rb  Rb14  1  0.675829  0.223565  0.613028  1
  Rb  Rb15  1  0.515085  0.423217  0.606628  1
  Rb  Rb16  1  0.993401  0.993401  0.493334  1
  Ho  Ho17  1  0.997879  0.997879  0.999997  1
  Ho  Ho18  1  0.085061  0.906029  0.679783  1
  Ho  Ho19  1  0.179230  0.821113  0.990166  1
  Ho  Ho20  1  0.906029  0.085061  0.679783  1
  Ho  Ho21  1  0.821113  0.179230  0.990166  1
  O  O22  1  0.090629  0.463650  0.012387  1
  O  O23  1  0.176616  0.362900  0.383452  1
  O  O24  1  0.463650  0.090629  0.012387  1
  O  O25  1  0.270842  0.270842  0.029209  1
  O  O26  1  0.535347  0.906353  0.282365  1
  O  O27  1  0.211639  0.783141  0.775888  1
  O  O28  1  0.039772  0.953938  0.825941  1
  O  O29  1  0.128850  0.870953  0.874365  1
  O  O30  1  0.362900  0.176616  0.383452  1
  O  O31  1  0.630871  0.816005  0.650040  1
  O  O32  1  0.906353  0.535347  0.282365  1
  O  O33  1  0.722509  0.722509  0.296393  1
  O  O34  1  0.783141  0.211639  0.775888  1
  O  O35  1  0.953938  0.039772  0.825941  1
  O  O36  1  0.870953  0.128850  0.874365  1
  O  O37  1  0.816005  0.630871  0.650040  1
