# generated using pymatgen
data_Li8CoN3
_symmetry_space_group_name_H-M   'P 1'
_cell_length_a   3.68269633
_cell_length_b   5.22450567
_cell_length_c   8.40190180
_cell_angle_alpha   119.57021422
_cell_angle_beta   102.65435013
_cell_angle_gamma   69.34796121
_symmetry_Int_Tables_number   1
_chemical_formula_structural   Li8CoN3
_chemical_formula_sum   'Li8 Co1 N3'
_cell_volume   131.36313533
_cell_formula_units_Z   1
loop_
 _symmetry_equiv_pos_site_id
 _symmetry_equiv_pos_as_xyz
  1  'x, y, z'
loop_
 _atom_site_type_symbol
 _atom_site_label
 _atom_site_symmetry_multiplicity
 _atom_site_fract_x
 _atom_site_fract_y
 _atom_site_fract_z
 _atom_site_occupancy
  Li  Li0  1  0.804972  0.617494  0.434361  1
  Li  Li1  1  0.140388  0.294485  0.792860  1
  Li  Li2  1  0.794045  0.283938  0.082405  1
  Li  Li3  1  0.518508  0.911840  0.158714  1
  Li  Li4  1  0.430535  0.346154  0.414177  1
  Li  Li5  1  0.437709  0.674334  0.765962  1
  Li  Li6  1  0.090813  0.667086  0.057996  1
  Li  Li7  1  0.713100  0.049206  0.692001  1
  Co  Co8  1  0.116767  0.982462  0.425497  1
  N  N9  1  0.615456  0.480912  0.925340  1
  N  N10  1  0.959227  0.136755  0.263946  1
  N  N11  1  0.273250  0.826607  0.586252  1
