# generated using pymatgen
data_PrErV2F14
_symmetry_space_group_name_H-M   'P 1'
_cell_length_a   5.60700410
_cell_length_b   9.02440305
_cell_length_c   12.02846700
_cell_angle_alpha   63.07384896
_cell_angle_beta   89.93978173
_cell_angle_gamma   89.94779186
_symmetry_Int_Tables_number   1
_chemical_formula_structural   PrErV2F14
_chemical_formula_sum   'Pr2 Er2 V4 F28'
_cell_volume   542.65647707
_cell_formula_units_Z   2
loop_
 _symmetry_equiv_pos_site_id
 _symmetry_equiv_pos_as_xyz
  1  'x, y, z'
loop_
 _atom_site_type_symbol
 _atom_site_label
 _atom_site_symmetry_multiplicity
 _atom_site_fract_x
 _atom_site_fract_y
 _atom_site_fract_z
 _atom_site_occupancy
  Pr  Pr0  1  0.256488  0.809313  0.270617  1
  Pr  Pr1  1  0.743512  0.190687  0.729383  1
  Er  Er2  1  0.758869  0.199495  0.226923  1
  Er  Er3  1  0.241131  0.800505  0.773077  1
  V  V4  1  0.752835  0.721755  0.041482  1
  V  V5  1  0.247165  0.278245  0.958518  1
  V  V6  1  0.254237  0.269549  0.449735  1
  V  V7  1  0.745763  0.730451  0.550265  1
  F  F8  1  0.950719  0.708276  0.432746  1
  F  F9  1  0.049281  0.291724  0.567254  1
  F  F10  1  0.455527  0.295404  0.076734  1
  F  F11  1  0.544473  0.704596  0.923266  1
  F  F12  1  0.487146  0.732439  0.134957  1
  F  F13  1  0.512854  0.267561  0.865043  1
  F  F14  1  0.984999  0.267063  0.352702  1
  F  F15  1  0.015001  0.732937  0.647298  1
  F  F16  1  0.954554  0.741726  0.161968  1
  F  F17  1  0.045446  0.258274  0.838032  1
  F  F18  1  0.465152  0.249755  0.330155  1
  F  F19  1  0.534848  0.750245  0.669845  1
  F  F20  1  0.761875  0.493486  0.133789  1
  F  F21  1  0.238125  0.506514  0.866211  1
  F  F22  1  0.264562  0.498574  0.359000  1
  F  F23  1  0.735438  0.501426  0.641000  1
  F  F24  1  0.969887  0.289320  0.049236  1
  F  F25  1  0.030113  0.710680  0.950764  1
  F  F26  1  0.473703  0.714282  0.460123  1
  F  F27  1  0.526297  0.285718  0.539877  1
  F  F28  1  0.743594  0.954514  0.459992  1
  F  F29  1  0.256406  0.045486  0.540008  1
  F  F30  1  0.241758  0.051183  0.047913  1
  F  F31  1  0.758242  0.948817  0.952087  1
  F  F32  1  0.583887  0.984715  0.233343  1
  F  F33  1  0.416113  0.015285  0.766657  1
  F  F34  1  0.062239  0.034072  0.268279  1
  F  F35  1  0.937761  0.965928  0.731721  1
