# generated using pymatgen
data_Pr2Nd3(PdO6)2
_symmetry_space_group_name_H-M   'P 1'
_cell_length_a   7.14382199
_cell_length_b   7.14382260
_cell_length_c   7.59151963
_cell_angle_alpha   74.54727127
_cell_angle_beta   74.54726127
_cell_angle_gamma   50.52495033
_symmetry_Int_Tables_number   1
_chemical_formula_structural   Pr2Nd3(PdO6)2
_chemical_formula_sum   'Pr2 Nd3 Pd2 O12'
_cell_volume   285.78181929
_cell_formula_units_Z   1
loop_
 _symmetry_equiv_pos_site_id
 _symmetry_equiv_pos_as_xyz
  1  'x, y, z'
loop_
 _atom_site_type_symbol
 _atom_site_label
 _atom_site_symmetry_multiplicity
 _atom_site_fract_x
 _atom_site_fract_y
 _atom_site_fract_z
 _atom_site_occupancy
  Pr  Pr0  1  0.305016  0.305016  0.836134  1
  Pr  Pr1  1  0.000110  0.000110  0.499904  1
  Nd  Nd2  1  0.303511  0.303511  0.357458  1
  Nd  Nd3  1  0.696514  0.696514  0.641736  1
  Nd  Nd4  1  0.694952  0.694952  0.164193  1
  Pd  Pd5  1  0.752994  0.246915  0.000233  1
  Pd  Pd6  1  0.246915  0.752994  0.000233  1
  O  O7  1  0.095034  0.597452  0.574756  1
  O  O8  1  0.999591  0.999591  0.175242  1
  O  O9  1  0.403841  0.903968  0.423796  1
  O  O10  1  0.500212  0.500212  0.178379  1
  O  O11  1  0.099443  0.574749  0.082149  1
  O  O12  1  0.903968  0.403841  0.423796  1
  O  O13  1  0.000479  0.000479  0.824563  1
  O  O14  1  0.597452  0.095033  0.574756  1
  O  O15  1  0.500363  0.500363  0.821955  1
  O  O16  1  0.574749  0.099443  0.082149  1
  O  O17  1  0.427150  0.897708  0.919285  1
  O  O18  1  0.897708  0.427150  0.919285  1
