# generated using pymatgen
data_CaPr2Zr(GaO3)4
_symmetry_space_group_name_H-M   'P 1'
_cell_length_a   11.00739518
_cell_length_b   11.08727044
_cell_length_c   11.10256760
_cell_angle_alpha   109.27729321
_cell_angle_beta   109.40869356
_cell_angle_gamma   109.25721068
_symmetry_Int_Tables_number   1
_chemical_formula_structural   CaPr2Zr(GaO3)4
_chemical_formula_sum   'Ca4 Pr8 Zr4 Ga16 O48'
_cell_volume   1049.07433046
_cell_formula_units_Z   4
loop_
 _symmetry_equiv_pos_site_id
 _symmetry_equiv_pos_as_xyz
  1  'x, y, z'
loop_
 _atom_site_type_symbol
 _atom_site_label
 _atom_site_symmetry_multiplicity
 _atom_site_fract_x
 _atom_site_fract_y
 _atom_site_fract_z
 _atom_site_occupancy
  Ca  Ca0  1  0.621758  0.234888  0.369546  1
  Ca  Ca1  1  0.872291  0.120009  0.241841  1
  Ca  Ca2  1  0.127709  0.879991  0.758159  1
  Ca  Ca3  1  0.378242  0.765112  0.630454  1
  Pr  Pr4  1  0.249817  0.624507  0.876010  1
  Pr  Pr5  1  0.628610  0.370796  0.749098  1
  Pr  Pr6  1  0.126173  0.251092  0.880726  1
  Pr  Pr7  1  0.250207  0.122990  0.369438  1
  Pr  Pr8  1  0.873827  0.748908  0.119274  1
  Pr  Pr9  1  0.749793  0.877010  0.630562  1
  Pr  Pr10  1  0.371390  0.629204  0.250902  1
  Pr  Pr11  1  0.750183  0.375493  0.123990  1
  Zr  Zr12  1  0.000000  0.000000  0.500000  1
  Zr  Zr13  1  0.500000  0.000000  0.000000  1
  Zr  Zr14  1  0.000000  0.500000  0.500000  1
  Zr  Zr15  1  0.500000  0.500000  0.500000  1
  Ga  Ga16  1  0.885402  0.637733  0.762780  1
  Ga  Ga17  1  0.623789  0.749396  0.872905  1
  Ga  Ga18  1  0.867290  0.252269  0.627811  1
  Ga  Ga19  1  0.246027  0.870222  0.128015  1
  Ga  Ga20  1  0.255108  0.374972  0.633008  1
  Ga  Ga21  1  0.500000  0.500000  0.000000  1
  Ga  Ga22  1  0.000000  0.000000  0.000000  1
  Ga  Ga23  1  0.625233  0.875159  0.250035  1
  Ga  Ga24  1  0.374767  0.124841  0.749965  1
  Ga  Ga25  1  0.500000  0.000000  0.500000  1
  Ga  Ga26  1  0.753973  0.129778  0.871984  1
  Ga  Ga27  1  0.744892  0.625028  0.366992  1
  Ga  Ga28  1  0.132710  0.747731  0.372189  1
  Ga  Ga29  1  0.000000  0.500000  0.000000  1
  Ga  Ga30  1  0.376211  0.250604  0.127095  1
  Ga  Ga31  1  0.114598  0.362267  0.237220  1
  O  O32  1  0.296159  0.877855  0.983934  1
  O  O33  1  0.420491  0.292745  0.320780  1
  O  O34  1  0.691009  0.490949  0.610538  1
  O  O35  1  0.028910  0.627712  0.710107  1
  O  O36  1  0.473465  0.791804  0.876272  1
  O  O37  1  0.205468  0.517984  0.623466  1
  O  O38  1  0.876902  0.297662  0.482706  1
  O  O39  1  0.019505  0.402766  0.820495  1
  O  O40  1  0.671408  0.200582  0.579786  1
  O  O41  1  0.398172  0.014828  0.319777  1
  O  O42  1  0.624272  0.021900  0.204278  1
  O  O43  1  0.616911  0.595758  0.915167  1
  O  O44  1  0.078398  0.172598  0.197975  1
  O  O45  1  0.404518  0.377231  0.586684  1
  O  O46  1  0.300193  0.417722  0.825655  1
  O  O47  1  0.105373  0.185201  0.482885  1
  O  O48  1  0.883566  0.584309  0.906938  1
  O  O49  1  0.818068  0.898707  0.015657  1
  O  O50  1  0.914556  0.100755  0.623480  1
  O  O51  1  0.198807  0.675171  0.081320  1
  O  O52  1  0.585533  0.881669  0.403744  1
  O  O53  1  0.819142  0.915461  0.291971  1
  O  O54  1  0.522533  0.320112  0.901619  1
  O  O55  1  0.094414  0.915673  0.119106  1
  O  O56  1  0.905586  0.084327  0.880894  1
  O  O57  1  0.477467  0.679888  0.098381  1
  O  O58  1  0.180858  0.084539  0.708029  1
  O  O59  1  0.414467  0.118331  0.596256  1
  O  O60  1  0.801193  0.324829  0.918680  1
  O  O61  1  0.085444  0.899245  0.376520  1
  O  O62  1  0.181932  0.101293  0.984343  1
  O  O63  1  0.116434  0.415691  0.093062  1
  O  O64  1  0.894627  0.814799  0.517115  1
  O  O65  1  0.699807  0.582278  0.174345  1
  O  O66  1  0.595482  0.622769  0.413316  1
  O  O67  1  0.921602  0.827402  0.802025  1
  O  O68  1  0.383089  0.404242  0.084833  1
  O  O69  1  0.375728  0.978100  0.795722  1
  O  O70  1  0.601828  0.985172  0.680223  1
  O  O71  1  0.328592  0.799418  0.420214  1
  O  O72  1  0.980495  0.597234  0.179505  1
  O  O73  1  0.123098  0.702338  0.517294  1
  O  O74  1  0.794532  0.482016  0.376534  1
  O  O75  1  0.526535  0.208196  0.123728  1
  O  O76  1  0.971090  0.372288  0.289893  1
  O  O77  1  0.308991  0.509051  0.389462  1
  O  O78  1  0.579509  0.707255  0.679220  1
  O  O79  1  0.703841  0.122145  0.016066  1
