# generated using pymatgen
data_Ca3Eu7Si4(SbH)2
_symmetry_space_group_name_H-M   'P 1'
_cell_length_a   9.37706799
_cell_length_b   9.37706813
_cell_length_c   9.38062934
_cell_angle_alpha   129.57558045
_cell_angle_beta   129.57558255
_cell_angle_gamma   74.02479532
_symmetry_Int_Tables_number   1
_chemical_formula_structural   Ca3Eu7Si4(SbH)2
_chemical_formula_sum   'Ca3 Eu7 Si4 Sb2 H2'
_cell_volume   478.04138957
_cell_formula_units_Z   1
loop_
 _symmetry_equiv_pos_site_id
 _symmetry_equiv_pos_as_xyz
  1  'x, y, z'
loop_
 _atom_site_type_symbol
 _atom_site_label
 _atom_site_symmetry_multiplicity
 _atom_site_fract_x
 _atom_site_fract_y
 _atom_site_fract_z
 _atom_site_occupancy
  Ca  Ca0  1  0.499958  0.498521  0.999964  1
  Ca  Ca1  1  0.998521  0.999958  0.999964  1
  Ca  Ca2  1  0.519868  0.019868  0.824785  1
  Eu  Eu3  1  0.191657  0.691657  0.169004  1
  Eu  Eu4  1  0.022987  0.191440  0.499911  1
  Eu  Eu5  1  0.691440  0.522987  0.499911  1
  Eu  Eu6  1  0.477116  0.977116  0.169732  1
  Eu  Eu7  1  0.808568  0.308568  0.831442  1
  Eu  Eu8  1  0.977193  0.808636  0.500052  1
  Eu  Eu9  1  0.308636  0.477193  0.500052  1
  Si  Si10  1  0.887230  0.387230  0.273303  1
  Si  Si11  1  0.113420  0.613420  0.727108  1
  Si  Si12  1  0.386416  0.113479  0.500828  1
  Si  Si13  1  0.613479  0.886416  0.500828  1
  Sb  Sb14  1  0.252013  0.249107  0.000145  1
  Sb  Sb15  1  0.749107  0.752013  0.000145  1
  H  H16  1  0.252402  0.752402  0.502835  1
  H  H17  1  0.749990  0.249990  0.499992  1
