# generated using pymatgen
data_La5Pr4NdRu4
_symmetry_space_group_name_H-M   'P 1'
_cell_length_a   9.10843058
_cell_length_b   9.11018834
_cell_length_c   7.35611581
_cell_angle_alpha   84.64011351
_cell_angle_beta   84.73395410
_cell_angle_gamma   43.08349802
_symmetry_Int_Tables_number   1
_chemical_formula_structural   La5Pr4NdRu4
_chemical_formula_sum   'La5 Pr4 Nd1 Ru4'
_cell_volume   414.87450758
_cell_formula_units_Z   1
loop_
 _symmetry_equiv_pos_site_id
 _symmetry_equiv_pos_as_xyz
  1  'x, y, z'
loop_
 _atom_site_type_symbol
 _atom_site_label
 _atom_site_symmetry_multiplicity
 _atom_site_fract_x
 _atom_site_fract_y
 _atom_site_fract_z
 _atom_site_occupancy
  La  La0  1  0.016157  0.797870  0.906650  1
  La  La1  1  0.204435  0.983097  0.594647  1
  La  La2  1  0.981889  0.205214  0.095438  1
  La  La3  1  0.798436  0.014987  0.405316  1
  La  La4  1  0.362270  0.210653  0.818188  1
  Pr  Pr5  1  0.791528  0.637990  0.683797  1
  Pr  Pr6  1  0.638870  0.790841  0.184449  1
  Pr  Pr7  1  0.207177  0.362113  0.317089  1
  Pr  Pr8  1  0.575337  0.426551  0.749208  1
  Nd  Nd9  1  0.424227  0.575029  0.249302  1
  Ru  Ru10  1  0.167920  0.607404  0.588084  1
  Ru  Ru11  1  0.389681  0.832934  0.913625  1
  Ru  Ru12  1  0.834343  0.387650  0.413379  1
  Ru  Ru13  1  0.607733  0.167668  0.080828  1
