# generated using pymatgen
data_Sr2(PPd)3
_symmetry_space_group_name_H-M   'P 1'
_cell_length_a   4.22286300
_cell_length_b   4.28372900
_cell_length_c   34.48579900
_cell_angle_alpha   90.00000000
_cell_angle_beta   90.00000000
_cell_angle_gamma   90.00000000
_symmetry_Int_Tables_number   1
_chemical_formula_structural   Sr2(PPd)3
_chemical_formula_sum   'Sr8 P12 Pd12'
_cell_volume   623.83433360
_cell_formula_units_Z   4
loop_
 _symmetry_equiv_pos_site_id
 _symmetry_equiv_pos_as_xyz
  1  'x, y, z'
loop_
 _atom_site_type_symbol
 _atom_site_label
 _atom_site_symmetry_multiplicity
 _atom_site_fract_x
 _atom_site_fract_y
 _atom_site_fract_z
 _atom_site_occupancy
  Sr  Sr0  1  0.000000  0.000000  0.426791  1
  Sr  Sr1  1  0.500000  0.000000  0.678675  1
  Sr  Sr2  1  0.500000  0.000000  0.321325  1
  Sr  Sr3  1  0.000000  0.500000  0.176674  1
  Sr  Sr4  1  0.500000  0.500000  0.927741  1
  Sr  Sr5  1  0.500000  0.500000  0.072259  1
  Sr  Sr6  1  0.000000  0.500000  0.823326  1
  Sr  Sr7  1  0.000000  0.000000  0.573209  1
  P  P8  1  0.000000  0.000000  0.960359  1
  P  P9  1  0.500000  0.500000  0.540218  1
  P  P10  1  0.500000  0.500000  0.459782  1
  P  P11  1  0.500000  0.000000  0.210321  1
  P  P12  1  0.000000  0.500000  0.287345  1
  P  P13  1  0.000000  0.500000  0.712655  1
  P  P14  1  0.500000  0.000000  0.855441  1
  P  P15  1  0.500000  0.000000  0.789679  1
  P  P16  1  0.000000  0.500000  0.646708  1
  P  P17  1  0.000000  0.500000  0.353292  1
  P  P18  1  0.500000  0.000000  0.144559  1
  P  P19  1  0.000000  0.000000  0.039641  1
  Pd  Pd20  1  0.000000  0.000000  0.890529  1
  Pd  Pd21  1  0.000000  0.000000  0.109471  1
  Pd  Pd22  1  0.000000  0.000000  0.751993  1
  Pd  Pd23  1  0.500000  0.500000  0.389252  1
  Pd  Pd24  1  0.500000  0.500000  0.610748  1
  Pd  Pd25  1  0.000000  0.000000  0.248007  1
  Pd  Pd26  1  0.000000  0.500000  0.500000  1
  Pd  Pd27  1  0.500000  0.500000  0.249518  1
  Pd  Pd28  1  0.500000  0.000000  0.000000  1
  Pd  Pd29  1  0.500000  0.500000  0.750482  1
  Pd  Pd30  1  0.500000  0.000000  0.500000  1
  Pd  Pd31  1  0.000000  0.500000  0.000000  1
