# generated using pymatgen
data_LaPrLuBiO7
_symmetry_space_group_name_H-M   'P 1'
_cell_length_a   7.78688470
_cell_length_b   7.78688430
_cell_length_c   7.75886200
_cell_angle_alpha   60.11897130
_cell_angle_beta   60.11897297
_cell_angle_gamma   60.61349050
_symmetry_Int_Tables_number   1
_chemical_formula_structural   LaPrLuBiO7
_chemical_formula_sum   'La2 Pr2 Lu2 Bi2 O14'
_cell_volume   334.78781146
_cell_formula_units_Z   2
loop_
 _symmetry_equiv_pos_site_id
 _symmetry_equiv_pos_as_xyz
  1  'x, y, z'
loop_
 _atom_site_type_symbol
 _atom_site_label
 _atom_site_symmetry_multiplicity
 _atom_site_fract_x
 _atom_site_fract_y
 _atom_site_fract_z
 _atom_site_occupancy
  La  La0  1  0.625000  0.125000  0.125000  1
  La  La1  1  0.125000  0.625000  0.125000  1
  Pr  Pr2  1  0.125000  0.125000  0.125000  1
  Pr  Pr3  1  0.125000  0.125000  0.625000  1
  Lu  Lu4  1  0.625000  0.625000  0.125000  1
  Lu  Lu5  1  0.625000  0.625000  0.625000  1
  Bi  Bi6  1  0.625000  0.125000  0.625000  1
  Bi  Bi7  1  0.125000  0.625000  0.625000  1
  O  O8  1  0.721019  0.282108  0.293040  1
  O  O9  1  0.722140  0.722140  0.277860  1
  O  O10  1  0.282108  0.721019  0.293040  1
  O  O11  1  0.002969  0.002969  0.997031  1
  O  O12  1  0.721019  0.282108  0.703833  1
  O  O13  1  0.967892  0.528981  0.546167  1
  O  O14  1  0.282108  0.721019  0.703833  1
  O  O15  1  0.528981  0.967892  0.546167  1
  O  O16  1  0.247031  0.247031  0.252969  1
  O  O17  1  0.967892  0.528981  0.956960  1
  O  O18  1  0.527860  0.527860  0.972140  1
  O  O19  1  0.957807  0.957807  0.542193  1
  O  O20  1  0.528981  0.967892  0.956960  1
  O  O21  1  0.292193  0.292193  0.707807  1
