# generated using pymatgen
data_Sc8TaNb10Si16Ru
_symmetry_space_group_name_H-M   'P 1'
_cell_length_a   6.66548841
_cell_length_b   6.91051400
_cell_length_c   13.10712800
_cell_angle_alpha   90.00000000
_cell_angle_beta   90.00000000
_cell_angle_gamma   90.18890397
_symmetry_Int_Tables_number   1
_chemical_formula_structural   Sc8TaNb10Si16Ru
_chemical_formula_sum   'Sc8 Ta1 Nb10 Si16 Ru1'
_cell_volume   603.73660556
_cell_formula_units_Z   1
loop_
 _symmetry_equiv_pos_site_id
 _symmetry_equiv_pos_as_xyz
  1  'x, y, z'
loop_
 _atom_site_type_symbol
 _atom_site_label
 _atom_site_symmetry_multiplicity
 _atom_site_fract_x
 _atom_site_fract_y
 _atom_site_fract_z
 _atom_site_occupancy
  Sc  Sc0  1  0.496354  0.675537  0.593549  1
  Sc  Sc1  1  0.001592  0.827447  0.906650  1
  Sc  Sc2  1  0.499609  0.326226  0.094741  1
  Sc  Sc3  1  0.998798  0.174231  0.404486  1
  Sc  Sc4  1  0.499609  0.326226  0.405259  1
  Sc  Sc5  1  0.998798  0.174231  0.095514  1
  Sc  Sc6  1  0.496354  0.675537  0.906451  1
  Sc  Sc7  1  0.001592  0.827447  0.593350  1
  Ta  Ta8  1  0.338576  0.002766  0.750000  1
  Nb  Nb9  1  0.666491  0.169608  0.626805  1
  Nb  Nb10  1  0.164849  0.326247  0.872953  1
  Nb  Nb11  1  0.336054  0.825800  0.124438  1
  Nb  Nb12  1  0.836653  0.672494  0.376969  1
  Nb  Nb13  1  0.336054  0.825800  0.375562  1
  Nb  Nb14  1  0.836653  0.672494  0.123031  1
  Nb  Nb15  1  0.666491  0.169608  0.873195  1
  Nb  Nb16  1  0.164849  0.326247  0.627047  1
  Nb  Nb17  1  0.163221  0.506572  0.250000  1
  Nb  Nb18  1  0.662221  0.994649  0.250000  1
  Si  Si19  1  0.669794  0.966766  0.460369  1
  Si  Si20  1  0.169235  0.533005  0.038158  1
  Si  Si21  1  0.331809  0.034054  0.959728  1
  Si  Si22  1  0.830790  0.466028  0.543954  1
  Si  Si23  1  0.331809  0.034054  0.540272  1
  Si  Si24  1  0.830790  0.466028  0.956046  1
  Si  Si25  1  0.669794  0.966766  0.039631  1
  Si  Si26  1  0.169235  0.533005  0.461842  1
  Si  Si27  1  0.472009  0.391124  0.750000  1
  Si  Si28  1  0.960626  0.108517  0.750000  1
  Si  Si29  1  0.540462  0.614062  0.250000  1
  Si  Si30  1  0.038084  0.887172  0.250000  1
  Si  Si31  1  0.706718  0.852355  0.750000  1
  Si  Si32  1  0.194549  0.636055  0.750000  1
  Si  Si33  1  0.294321  0.138172  0.250000  1
  Si  Si34  1  0.794093  0.362769  0.250000  1
  Ru  Ru35  1  0.831065  0.510899  0.750000  1
