# generated using pymatgen
data_Nd4BeCo3Br2
_symmetry_space_group_name_H-M   'P 1'
_cell_length_a   3.96230000
_cell_length_b   3.96229860
_cell_length_c   17.07720900
_cell_angle_alpha   90.00000000
_cell_angle_beta   90.00000000
_cell_angle_gamma   119.99997826
_symmetry_Int_Tables_number   1
_chemical_formula_structural   Nd4BeCo3Br2
_chemical_formula_sum   'Nd4 Be1 Co3 Br2'
_cell_volume   232.18928612
_cell_formula_units_Z   1
loop_
 _symmetry_equiv_pos_site_id
 _symmetry_equiv_pos_as_xyz
  1  'x, y, z'
loop_
 _atom_site_type_symbol
 _atom_site_label
 _atom_site_symmetry_multiplicity
 _atom_site_fract_x
 _atom_site_fract_y
 _atom_site_fract_z
 _atom_site_occupancy
  Nd  Nd0  1  0.000000  0.000000  0.109170  1
  Nd  Nd1  1  0.000000  0.000000  0.890231  1
  Nd  Nd2  1  0.000000  0.000000  0.608368  1
  Nd  Nd3  1  0.000000  0.000000  0.392665  1
  Be  Be4  1  0.333333  0.666667  0.500448  1
  Co  Co5  1  0.666667  0.333333  0.499462  1
  Co  Co6  1  0.666667  0.333333  0.001811  1
  Co  Co7  1  0.333333  0.666667  0.997939  1
  Br  Br8  1  0.333333  0.666667  0.249044  1
  Br  Br9  1  0.666667  0.333333  0.750862  1
