# generated using pymatgen
data_U6Ti2GeAs9
_symmetry_space_group_name_H-M   'P 1'
_cell_length_a   8.51936900
_cell_length_b   8.51936877
_cell_length_c   5.71845100
_cell_angle_alpha   90.00000000
_cell_angle_beta   90.00000000
_cell_angle_gamma   119.99999701
_symmetry_Int_Tables_number   1
_chemical_formula_structural   U6Ti2GeAs9
_chemical_formula_sum   'U6 Ti2 Ge1 As9'
_cell_volume   359.43792267
_cell_formula_units_Z   1
loop_
 _symmetry_equiv_pos_site_id
 _symmetry_equiv_pos_as_xyz
  1  'x, y, z'
loop_
 _atom_site_type_symbol
 _atom_site_label
 _atom_site_symmetry_multiplicity
 _atom_site_fract_x
 _atom_site_fract_y
 _atom_site_fract_z
 _atom_site_occupancy
  U  U0  1  0.613850  0.000148  0.249923  1
  U  U1  1  0.613850  0.613703  0.750077  1
  U  U2  1  0.999852  0.386150  0.750077  1
  U  U3  1  0.999852  0.613703  0.249923  1
  U  U4  1  0.386297  0.386150  0.249923  1
  U  U5  1  0.386297  0.000148  0.750077  1
  Ti  Ti6  1  0.000000  0.000000  0.000000  1
  Ti  Ti7  1  0.000000  0.000000  0.500000  1
  Ge  Ge8  1  0.333333  0.666667  0.500000  1
  As  As9  1  0.261003  0.999414  0.250730  1
  As  As10  1  0.261003  0.261589  0.749270  1
  As  As11  1  0.000586  0.738997  0.749270  1
  As  As12  1  0.000586  0.261589  0.250730  1
  As  As13  1  0.738411  0.738997  0.250730  1
  As  As14  1  0.738411  0.999414  0.749270  1
  As  As15  1  0.333333  0.666667  0.000000  1
  As  As16  1  0.666667  0.333333  0.500000  1
  As  As17  1  0.666667  0.333333  0.000000  1
