# generated using pymatgen
data_Tb10AlSb5
_symmetry_space_group_name_H-M   'P 1'
_cell_length_a   9.01265900
_cell_length_b   8.98658785
_cell_length_c   6.41610200
_cell_angle_alpha   90.00000000
_cell_angle_beta   90.00000000
_cell_angle_gamma   120.09601101
_symmetry_Int_Tables_number   1
_chemical_formula_structural   Tb10AlSb5
_chemical_formula_sum   'Tb10 Al1 Sb5'
_cell_volume   449.60245542
_cell_formula_units_Z   1
loop_
 _symmetry_equiv_pos_site_id
 _symmetry_equiv_pos_as_xyz
  1  'x, y, z'
loop_
 _atom_site_type_symbol
 _atom_site_label
 _atom_site_symmetry_multiplicity
 _atom_site_fract_x
 _atom_site_fract_y
 _atom_site_fract_z
 _atom_site_occupancy
  Tb  Tb0  1  0.008598  0.762427  0.750000  1
  Tb  Tb1  1  0.999616  0.245135  0.250000  1
  Tb  Tb2  1  0.754482  0.754865  0.250000  1
  Tb  Tb3  1  0.750934  0.000000  0.750000  1
  Tb  Tb4  1  0.246171  0.237573  0.750000  1
  Tb  Tb5  1  0.243741  0.000000  0.250000  1
  Tb  Tb6  1  0.334762  0.672736  0.500688  1
  Tb  Tb7  1  0.662027  0.327264  0.999312  1
  Tb  Tb8  1  0.662027  0.327264  0.500688  1
  Tb  Tb9  1  0.334762  0.672736  0.999312  1
  Al  Al10  1  0.394879  0.000000  0.750000  1
  Sb  Sb11  1  0.388833  0.391213  0.250000  1
  Sb  Sb12  1  0.997620  0.608787  0.250000  1
  Sb  Sb13  1  0.001713  0.390149  0.750000  1
  Sb  Sb14  1  0.611564  0.609851  0.750000  1
  Sb  Sb15  1  0.608269  0.000000  0.250000  1
