# generated using pymatgen
data_SrLi2GeSe4
_symmetry_space_group_name_H-M   'P 1'
_cell_length_a   6.41769100
_cell_length_b   6.41769137
_cell_length_c   6.41769079
_cell_angle_alpha   114.67401961
_cell_angle_beta   114.67402675
_cell_angle_gamma   99.50244913
_symmetry_Int_Tables_number   1
_chemical_formula_structural   SrLi2GeSe4
_chemical_formula_sum   'Sr1 Li2 Ge1 Se4'
_cell_volume   198.97599785
_cell_formula_units_Z   1
loop_
 _symmetry_equiv_pos_site_id
 _symmetry_equiv_pos_as_xyz
  1  'x, y, z'
loop_
 _atom_site_type_symbol
 _atom_site_label
 _atom_site_symmetry_multiplicity
 _atom_site_fract_x
 _atom_site_fract_y
 _atom_site_fract_z
 _atom_site_occupancy
  Sr  Sr0  1  0.000000  0.000000  0.000000  1
  Li  Li1  1  0.750000  0.250000  0.500000  1
  Li  Li2  1  0.250000  0.750000  0.500000  1
  Ge  Ge3  1  0.500000  0.500000  0.000000  1
  Se  Se4  1  0.466149  0.864377  0.000000  1
  Se  Se5  1  0.135623  0.135623  0.601773  1
  Se  Se6  1  0.533851  0.533851  0.398227  1
  Se  Se7  1  0.864377  0.466149  0.000000  1
