# generated using pymatgen
data_Li4B4(IrRh)3
_symmetry_space_group_name_H-M   'P 1'
_cell_length_a   2.86555900
_cell_length_b   5.77534008
_cell_length_c   9.58466385
_cell_angle_alpha   89.88321590
_cell_angle_beta   90.00000000
_cell_angle_gamma   90.00000000
_symmetry_Int_Tables_number   1
_chemical_formula_structural   Li4B4(IrRh)3
_chemical_formula_sum   'Li4 B4 Ir3 Rh3'
_cell_volume   158.62180996
_cell_formula_units_Z   1
loop_
 _symmetry_equiv_pos_site_id
 _symmetry_equiv_pos_as_xyz
  1  'x, y, z'
loop_
 _atom_site_type_symbol
 _atom_site_label
 _atom_site_symmetry_multiplicity
 _atom_site_fract_x
 _atom_site_fract_y
 _atom_site_fract_z
 _atom_site_occupancy
  Li  Li0  1  0.500000  0.339334  0.071763  1
  Li  Li1  1  0.500000  0.660657  0.927418  1
  Li  Li2  1  0.500000  0.161061  0.572545  1
  Li  Li3  1  0.500000  0.838894  0.426294  1
  B  B4  1  0.500000  0.063641  0.831361  1
  B  B5  1  0.500000  0.561042  0.668868  1
  B  B6  1  0.500000  0.438028  0.331999  1
  B  B7  1  0.500000  0.938690  0.167941  1
  Ir  Ir8  1  0.000000  0.335169  0.780026  1
  Ir  Ir9  1  0.000000  0.164821  0.279723  1
  Ir  Ir10  1  0.000000  0.665233  0.220658  1
  Rh  Rh11  1  0.000000  0.500467  0.500691  1
  Rh  Rh12  1  0.000000  0.833183  0.721517  1
  Rh  Rh13  1  0.000000  0.999779  0.999194  1
