# generated using pymatgen
data_La5Th(ScSb5)2
_symmetry_space_group_name_H-M   'P 1'
_cell_length_a   9.57982700
_cell_length_b   9.57367050
_cell_length_c   6.45573400
_cell_angle_alpha   90.00000000
_cell_angle_beta   90.00000000
_cell_angle_gamma   120.02128510
_symmetry_Int_Tables_number   1
_chemical_formula_structural   La5Th(ScSb5)2
_chemical_formula_sum   'La5 Th1 Sc2 Sb10'
_cell_volume   512.64793571
_cell_formula_units_Z   1
loop_
 _symmetry_equiv_pos_site_id
 _symmetry_equiv_pos_as_xyz
  1  'x, y, z'
loop_
 _atom_site_type_symbol
 _atom_site_label
 _atom_site_symmetry_multiplicity
 _atom_site_fract_x
 _atom_site_fract_y
 _atom_site_fract_z
 _atom_site_occupancy
  La  La0  1  0.616727  0.615701  0.750000  1
  La  La1  1  0.381157  0.000000  0.750000  1
  La  La2  1  0.381555  0.381642  0.250000  1
  La  La3  1  0.999913  0.618358  0.250000  1
  La  La4  1  0.001026  0.384299  0.750000  1
  Th  Th5  1  0.617557  0.000000  0.250000  1
  Sc  Sc6  1  0.000606  0.000000  0.998748  1
  Sc  Sc7  1  0.000606  0.000000  0.501252  1
  Sb  Sb8  1  0.336653  0.670206  0.497659  1
  Sb  Sb9  1  0.666448  0.329794  0.002341  1
  Sb  Sb10  1  0.666448  0.329794  0.497659  1
  Sb  Sb11  1  0.336653  0.670206  0.002341  1
  Sb  Sb12  1  0.739045  0.000000  0.750000  1
  Sb  Sb13  1  0.740075  0.743210  0.250000  1
  Sb  Sb14  1  0.996866  0.256790  0.250000  1
  Sb  Sb15  1  0.999328  0.740648  0.750000  1
  Sb  Sb16  1  0.260656  0.000000  0.250000  1
  Sb  Sb17  1  0.258679  0.259352  0.750000  1
