# generated using pymatgen
data_Ho9Sc(Zn2Sb)2
_symmetry_space_group_name_H-M   'P 1'
_cell_length_a   8.47967143
_cell_length_b   8.47967151
_cell_length_c   8.47967251
_cell_angle_alpha   123.40430211
_cell_angle_beta   123.40430167
_cell_angle_gamma   84.19823929
_symmetry_Int_Tables_number   1
_chemical_formula_structural   Ho9Sc(Zn2Sb)2
_chemical_formula_sum   'Ho9 Sc1 Zn4 Sb2'
_cell_volume   406.67798661
_cell_formula_units_Z   1
loop_
 _symmetry_equiv_pos_site_id
 _symmetry_equiv_pos_as_xyz
  1  'x, y, z'
loop_
 _atom_site_type_symbol
 _atom_site_label
 _atom_site_symmetry_multiplicity
 _atom_site_fract_x
 _atom_site_fract_y
 _atom_site_fract_z
 _atom_site_occupancy
  Ho  Ho0  1  0.500000  0.500000  0.000000  1
  Ho  Ho1  1  0.513335  0.009934  0.809999  1
  Ho  Ho2  1  0.199935  0.703337  0.190001  1
  Ho  Ho3  1  0.009934  0.199935  0.496598  1
  Ho  Ho4  1  0.703337  0.513335  0.503402  1
  Ho  Ho5  1  0.486665  0.990066  0.190001  1
  Ho  Ho6  1  0.800065  0.296663  0.809999  1
  Ho  Ho7  1  0.990066  0.800065  0.503402  1
  Ho  Ho8  1  0.296663  0.486665  0.496598  1
  Sc  Sc9  1  0.000000  0.000000  0.000000  1
  Zn  Zn10  1  0.136091  0.640775  0.776868  1
  Zn  Zn11  1  0.863909  0.359225  0.223132  1
  Zn  Zn12  1  0.640775  0.863909  0.504685  1
  Zn  Zn13  1  0.359225  0.136091  0.495315  1
  Sb  Sb14  1  0.246186  0.246186  0.000000  1
  Sb  Sb15  1  0.753814  0.753814  0.000000  1
