# generated using pymatgen
data_La5VMoO12
_symmetry_space_group_name_H-M   'P 1'
_cell_length_a   7.12946933
_cell_length_b   7.12946839
_cell_length_c   7.78132043
_cell_angle_alpha   74.37254170
_cell_angle_beta   74.37253990
_cell_angle_gamma   51.35011421
_symmetry_Int_Tables_number   1
_chemical_formula_structural   La5VMoO12
_chemical_formula_sum   'La5 V1 Mo1 O12'
_cell_volume   294.77104797
_cell_formula_units_Z   1
loop_
 _symmetry_equiv_pos_site_id
 _symmetry_equiv_pos_as_xyz
  1  'x, y, z'
loop_
 _atom_site_type_symbol
 _atom_site_label
 _atom_site_symmetry_multiplicity
 _atom_site_fract_x
 _atom_site_fract_y
 _atom_site_fract_z
 _atom_site_occupancy
  La  La0  1  0.313564  0.304080  0.358071  1
  La  La1  1  0.695920  0.686436  0.641929  1
  La  La2  1  0.309870  0.307789  0.830851  1
  La  La3  1  0.692211  0.690130  0.169149  1
  La  La4  1  0.999453  0.000547  0.500000  1
  V  V5  1  0.753014  0.246986  0.000000  1
  Mo  Mo6  1  0.236044  0.763956  0.000000  1
  O  O7  1  0.892004  0.415104  0.924867  1
  O  O8  1  0.421247  0.893268  0.922977  1
  O  O9  1  0.106732  0.578753  0.077023  1
  O  O10  1  0.584896  0.107996  0.075133  1
  O  O11  1  0.095250  0.594764  0.579079  1
  O  O12  1  0.595788  0.092721  0.579615  1
  O  O13  1  0.907279  0.404212  0.420385  1
  O  O14  1  0.405236  0.904750  0.420921  1
  O  O15  1  0.998515  0.004413  0.826783  1
  O  O16  1  0.995587  0.001485  0.173217  1
  O  O17  1  0.497428  0.500036  0.825911  1
  O  O18  1  0.499964  0.502572  0.174089  1
