# generated using pymatgen
data_Tb20Ru11Au
_symmetry_space_group_name_H-M   'P 1'
_cell_length_a   10.90875392
_cell_length_b   10.90875384
_cell_length_c   6.43508996
_cell_angle_alpha   90.07206251
_cell_angle_beta   90.07206451
_cell_angle_gamma   89.74425904
_symmetry_Int_Tables_number   1
_chemical_formula_structural   Tb20Ru11Au
_chemical_formula_sum   'Tb20 Ru11 Au1'
_cell_volume   765.77273459
_cell_formula_units_Z   1
loop_
 _symmetry_equiv_pos_site_id
 _symmetry_equiv_pos_as_xyz
  1  'x, y, z'
loop_
 _atom_site_type_symbol
 _atom_site_label
 _atom_site_symmetry_multiplicity
 _atom_site_fract_x
 _atom_site_fract_y
 _atom_site_fract_z
 _atom_site_occupancy
  Tb  Tb0  1  0.292125  0.087493  0.377932  1
  Tb  Tb1  1  0.291035  0.922148  0.877681  1
  Tb  Tb2  1  0.708597  0.087650  0.877528  1
  Tb  Tb3  1  0.708871  0.913395  0.378712  1
  Tb  Tb4  1  0.593511  0.795496  0.879243  1
  Tb  Tb5  1  0.587723  0.205674  0.376606  1
  Tb  Tb6  1  0.416739  0.797252  0.365149  1
  Tb  Tb7  1  0.413345  0.210010  0.877132  1
  Tb  Tb8  1  0.204504  0.406489  0.620757  1
  Tb  Tb9  1  0.202748  0.583261  0.134851  1
  Tb  Tb10  1  0.794326  0.412277  0.123394  1
  Tb  Tb11  1  0.789990  0.586655  0.622868  1
  Tb  Tb12  1  0.912507  0.707875  0.122068  1
  Tb  Tb13  1  0.912350  0.291403  0.622472  1
  Tb  Tb14  1  0.077852  0.708965  0.622319  1
  Tb  Tb15  1  0.086605  0.291129  0.121288  1
  Tb  Tb16  1  0.000229  0.000161  0.499000  1
  Tb  Tb17  1  0.999839  0.999771  0.001000  1
  Tb  Tb18  1  0.505714  0.496264  0.004386  1
  Tb  Tb19  1  0.503736  0.494286  0.495614  1
  Ru  Ru20  1  0.847220  0.152780  0.250000  1
  Ru  Ru21  1  0.847384  0.846908  0.749368  1
  Ru  Ru22  1  0.153092  0.152616  0.750632  1
  Ru  Ru23  1  0.154979  0.845021  0.250000  1
  Ru  Ru24  1  0.652555  0.347445  0.750000  1
  Ru  Ru25  1  0.650143  0.652393  0.250812  1
  Ru  Ru26  1  0.347607  0.349857  0.249188  1
  Ru  Ru27  1  0.500446  0.999620  0.122440  1
  Ru  Ru28  1  0.499692  0.999827  0.625711  1
  Ru  Ru29  1  0.000173  0.500308  0.874289  1
  Ru  Ru30  1  0.000380  0.499554  0.377560  1
  Au  Au31  1  0.343982  0.656018  0.750000  1
