# generated using pymatgen
data_Ho8Zn3Si12Rh
_symmetry_space_group_name_H-M   'P 1'
_cell_length_a   8.09141800
_cell_length_b   8.09141753
_cell_length_c   8.04122700
_cell_angle_alpha   90.00000000
_cell_angle_beta   90.00000000
_cell_angle_gamma   120.00000191
_symmetry_Int_Tables_number   1
_chemical_formula_structural   Ho8Zn3Si12Rh
_chemical_formula_sum   'Ho8 Zn3 Si12 Rh1'
_cell_volume   455.93422595
_cell_formula_units_Z   1
loop_
 _symmetry_equiv_pos_site_id
 _symmetry_equiv_pos_as_xyz
  1  'x, y, z'
loop_
 _atom_site_type_symbol
 _atom_site_label
 _atom_site_symmetry_multiplicity
 _atom_site_fract_x
 _atom_site_fract_y
 _atom_site_fract_z
 _atom_site_occupancy
  Ho  Ho0  1  0.996832  0.498416  0.250368  1
  Ho  Ho1  1  0.501584  0.498416  0.250368  1
  Ho  Ho2  1  0.495931  0.991861  0.749581  1
  Ho  Ho3  1  0.008139  0.504069  0.749581  1
  Ho  Ho4  1  0.495931  0.504069  0.749581  1
  Ho  Ho5  1  0.501584  0.003168  0.250368  1
  Ho  Ho6  1  0.000000  0.000000  0.751207  1
  Ho  Ho7  1  0.000000  0.000000  0.248803  1
  Zn  Zn8  1  0.333333  0.666667  0.017386  1
  Zn  Zn9  1  0.666667  0.333333  0.985288  1
  Zn  Zn10  1  0.666667  0.333333  0.505173  1
  Si  Si11  1  0.169767  0.830233  0.496658  1
  Si  Si12  1  0.169767  0.339533  0.496658  1
  Si  Si13  1  0.660467  0.830233  0.496658  1
  Si  Si14  1  0.333354  0.166678  0.002678  1
  Si  Si15  1  0.836596  0.673194  0.503346  1
  Si  Si16  1  0.833322  0.166678  0.002678  1
  Si  Si17  1  0.833322  0.666646  0.002678  1
  Si  Si18  1  0.166842  0.333684  0.996722  1
  Si  Si19  1  0.666316  0.833158  0.996722  1
  Si  Si20  1  0.326806  0.163404  0.503346  1
  Si  Si21  1  0.836596  0.163404  0.503346  1
  Si  Si22  1  0.166842  0.833158  0.996722  1
  Rh  Rh23  1  0.333333  0.666667  0.494083  1
