# generated using pymatgen
data_LuFe(TcO4)6
_symmetry_space_group_name_H-M   'P 1'
_cell_length_a   10.80014034
_cell_length_b   10.80013934
_cell_length_c   10.80013947
_cell_angle_alpha   48.97700358
_cell_angle_beta   48.97701224
_cell_angle_gamma   48.97701109
_symmetry_Int_Tables_number   1
_chemical_formula_structural   LuFe(TcO4)6
_chemical_formula_sum   'Lu1 Fe1 Tc6 O24'
_cell_volume   658.34175950
_cell_formula_units_Z   1
loop_
 _symmetry_equiv_pos_site_id
 _symmetry_equiv_pos_as_xyz
  1  'x, y, z'
loop_
 _atom_site_type_symbol
 _atom_site_label
 _atom_site_symmetry_multiplicity
 _atom_site_fract_x
 _atom_site_fract_y
 _atom_site_fract_z
 _atom_site_occupancy
  Lu  Lu0  1  0.000000  0.000000  0.000000  1
  Fe  Fe1  1  0.500000  0.500000  0.500000  1
  Tc  Tc2  1  0.591731  0.897428  0.255772  1
  Tc  Tc3  1  0.255772  0.591731  0.897428  1
  Tc  Tc4  1  0.897428  0.255772  0.591731  1
  Tc  Tc5  1  0.744228  0.408269  0.102572  1
  Tc  Tc6  1  0.102572  0.744228  0.408269  1
  Tc  Tc7  1  0.408269  0.102572  0.744228  1
  O  O8  1  0.805229  0.879380  0.179168  1
  O  O9  1  0.179168  0.805229  0.879380  1
  O  O10  1  0.879380  0.179168  0.805229  1
  O  O11  1  0.664948  0.398740  0.313045  1
  O  O12  1  0.313045  0.664948  0.398740  1
  O  O13  1  0.398740  0.313045  0.664948  1
  O  O14  1  0.194771  0.120620  0.820832  1
  O  O15  1  0.820832  0.194771  0.120620  1
  O  O16  1  0.120620  0.820832  0.194771  1
  O  O17  1  0.335052  0.601260  0.686955  1
  O  O18  1  0.686955  0.335052  0.601260  1
  O  O19  1  0.601260  0.686955  0.335052  1
  O  O20  1  0.442099  0.972399  0.423516  1
  O  O21  1  0.423516  0.442099  0.972399  1
  O  O22  1  0.972399  0.423516  0.442099  1
  O  O23  1  0.916576  0.476999  0.950963  1
  O  O24  1  0.950963  0.916576  0.476999  1
  O  O25  1  0.476999  0.950963  0.916576  1
  O  O26  1  0.557901  0.027601  0.576484  1
  O  O27  1  0.576484  0.557901  0.027601  1
  O  O28  1  0.027601  0.576484  0.557901  1
  O  O29  1  0.083424  0.523001  0.049037  1
  O  O30  1  0.049037  0.083424  0.523001  1
  O  O31  1  0.523001  0.049037  0.083424  1
