# generated using pymatgen
data_TmLu4In2Bi
_symmetry_space_group_name_H-M   'P 1'
_cell_length_a   6.49817800
_cell_length_b   8.87151319
_cell_length_c   8.83332688
_cell_angle_alpha   119.73534494
_cell_angle_beta   90.00056007
_cell_angle_gamma   89.99906416
_symmetry_Int_Tables_number   1
_chemical_formula_structural   TmLu4In2Bi
_chemical_formula_sum   'Tm2 Lu8 In4 Bi2'
_cell_volume   442.17712044
_cell_formula_units_Z   2
loop_
 _symmetry_equiv_pos_site_id
 _symmetry_equiv_pos_as_xyz
  1  'x, y, z'
loop_
 _atom_site_type_symbol
 _atom_site_label
 _atom_site_symmetry_multiplicity
 _atom_site_fract_x
 _atom_site_fract_y
 _atom_site_fract_z
 _atom_site_occupancy
  Tm  Tm0  1  0.750007  0.772217  0.762103  1
  Tm  Tm1  1  0.749975  0.999980  0.237086  1
  Lu  Lu2  1  0.492285  0.328301  0.667167  1
  Lu  Lu3  1  0.492378  0.671805  0.339097  1
  Lu  Lu4  1  0.007596  0.671751  0.339053  1
  Lu  Lu5  1  0.007742  0.328293  0.667128  1
  Lu  Lu6  1  0.750023  0.226798  0.990163  1
  Lu  Lu7  1  0.250018  0.765639  0.000971  1
  Lu  Lu8  1  0.250005  0.233552  0.234267  1
  Lu  Lu9  1  0.249986  0.000552  0.764236  1
  In  In10  1  0.749995  0.000688  0.595568  1
  In  In11  1  0.249995  0.398519  0.003984  1
  In  In12  1  0.250032  0.601830  0.604990  1
  In  In13  1  0.249974  0.000066  0.397695  1
  Bi  Bi14  1  0.749991  0.602855  0.000048  1
  Bi  Bi15  1  0.749995  0.397154  0.396445  1
