# generated using pymatgen
data_LuZr3Mo8
_symmetry_space_group_name_H-M   'P 1'
_cell_length_a   9.39954273
_cell_length_b   9.39954363
_cell_length_c   9.39954315
_cell_angle_alpha   33.40138890
_cell_angle_beta   33.40138206
_cell_angle_gamma   33.40138985
_symmetry_Int_Tables_number   1
_chemical_formula_structural   LuZr3Mo8
_chemical_formula_sum   'Lu1 Zr3 Mo8'
_cell_volume   224.11359037
_cell_formula_units_Z   1
loop_
 _symmetry_equiv_pos_site_id
 _symmetry_equiv_pos_as_xyz
  1  'x, y, z'
loop_
 _atom_site_type_symbol
 _atom_site_label
 _atom_site_symmetry_multiplicity
 _atom_site_fract_x
 _atom_site_fract_y
 _atom_site_fract_z
 _atom_site_occupancy
  Lu  Lu0  1  0.125102  0.125102  0.125102  1
  Zr  Zr1  1  0.624760  0.624760  0.624760  1
  Zr  Zr2  1  0.999542  0.999542  0.999542  1
  Zr  Zr3  1  0.500947  0.500947  0.500947  1
  Mo  Mo4  1  0.561901  0.062205  0.561901  1
  Mo  Mo5  1  0.062956  0.562893  0.062956  1
  Mo  Mo6  1  0.062205  0.561901  0.561901  1
  Mo  Mo7  1  0.562893  0.062956  0.062956  1
  Mo  Mo8  1  0.812101  0.812101  0.812101  1
  Mo  Mo9  1  0.312738  0.312738  0.312738  1
  Mo  Mo10  1  0.561901  0.561901  0.062205  1
  Mo  Mo11  1  0.062956  0.062956  0.562893  1
