# generated using pymatgen
data_Nd2SmTh11Ru6
_symmetry_space_group_name_H-M   'P 1'
_cell_length_a   9.86225104
_cell_length_b   9.96954693
_cell_length_c   6.40721222
_cell_angle_alpha   89.91149031
_cell_angle_beta   90.12602622
_cell_angle_gamma   120.27928590
_symmetry_Int_Tables_number   1
_chemical_formula_structural   Nd2SmTh11Ru6
_chemical_formula_sum   'Nd2 Sm1 Th11 Ru6'
_cell_volume   544.02767892
_cell_formula_units_Z   1
loop_
 _symmetry_equiv_pos_site_id
 _symmetry_equiv_pos_as_xyz
  1  'x, y, z'
loop_
 _atom_site_type_symbol
 _atom_site_label
 _atom_site_symmetry_multiplicity
 _atom_site_fract_x
 _atom_site_fract_y
 _atom_site_fract_z
 _atom_site_occupancy
  Nd  Nd0  1  0.074823  0.536792  0.295210  1
  Nd  Nd1  1  0.924837  0.460865  0.795474  1
  Sm  Sm2  1  0.462276  0.537808  0.296105  1
  Th  Th3  1  0.249542  0.126360  0.509067  1
  Th  Th4  1  0.541324  0.080421  0.801185  1
  Th  Th5  1  0.748688  0.873433  0.009557  1
  Th  Th6  1  0.665479  0.333345  0.280561  1
  Th  Th7  1  0.126184  0.873179  0.003917  1
  Th  Th8  1  0.461031  0.920960  0.301219  1
  Th  Th9  1  0.539277  0.461597  0.798329  1
  Th  Th10  1  0.875567  0.126293  0.507470  1
  Th  Th11  1  0.124448  0.249849  0.007035  1
  Th  Th12  1  0.874241  0.750178  0.506074  1
  Th  Th13  1  0.334985  0.666689  0.777770  1
  Ru  Ru14  1  0.809196  0.633221  0.046887  1
  Ru  Ru15  1  0.808126  0.175880  0.050242  1
  Ru  Ru16  1  0.631821  0.819890  0.550401  1
  Ru  Ru17  1  0.371216  0.186623  0.043946  1
  Ru  Ru18  1  0.184642  0.362051  0.556853  1
  Ru  Ru19  1  0.192297  0.824564  0.546694  1
