# generated using pymatgen
data_SrTbHo5NiI12
_symmetry_space_group_name_H-M   'P 1'
_cell_length_a   9.76123676
_cell_length_b   9.76390873
_cell_length_c   9.76316250
_cell_angle_alpha   106.27362596
_cell_angle_beta   106.21780217
_cell_angle_gamma   106.22160300
_symmetry_Int_Tables_number   1
_chemical_formula_structural   SrTbHo5NiI12
_chemical_formula_sum   'Sr1 Tb1 Ho5 Ni1 I12'
_cell_volume   790.49558960
_cell_formula_units_Z   1
loop_
 _symmetry_equiv_pos_site_id
 _symmetry_equiv_pos_as_xyz
  1  'x, y, z'
loop_
 _atom_site_type_symbol
 _atom_site_label
 _atom_site_symmetry_multiplicity
 _atom_site_fract_x
 _atom_site_fract_y
 _atom_site_fract_z
 _atom_site_occupancy
  Sr  Sr0  1  0.500004  0.499948  0.499990  1
  Tb  Tb1  1  0.020511  0.290838  0.092596  1
  Ho  Ho2  1  0.908220  0.979063  0.711366  1
  Ho  Ho3  1  0.711359  0.907732  0.979283  1
  Ho  Ho4  1  0.979427  0.711503  0.908139  1
  Ho  Ho5  1  0.091836  0.020380  0.288490  1
  Ho  Ho6  1  0.288620  0.091504  0.020508  1
  Ni  Ni7  1  0.000177  0.999806  0.999983  1
  I  I8  1  0.925718  0.322665  0.776102  1
  I  I9  1  0.777904  0.926245  0.322936  1
  I  I10  1  0.323040  0.777811  0.926232  1
  I  I11  1  0.073897  0.677765  0.222367  1
  I  I12  1  0.222027  0.073680  0.677038  1
  I  I13  1  0.675575  0.221283  0.073473  1
  I  I14  1  0.551791  0.864820  0.631388  1
  I  I15  1  0.631284  0.551662  0.864801  1
  I  I16  1  0.864862  0.631309  0.551734  1
  I  I17  1  0.448164  0.135105  0.368615  1
  I  I18  1  0.369886  0.448324  0.135215  1
  I  I19  1  0.135699  0.368559  0.449745  1
