# generated using pymatgen
data_CaAc2DyAs7Ir8
_symmetry_space_group_name_H-M   'P 1'
_cell_length_a   4.14928100
_cell_length_b   13.40708175
_cell_length_c   13.63855623
_cell_angle_alpha   81.87160152
_cell_angle_beta   90.00000000
_cell_angle_gamma   90.00000000
_symmetry_Int_Tables_number   1
_chemical_formula_structural   CaAc2DyAs7Ir8
_chemical_formula_sum   'Ca2 Ac4 Dy2 As14 Ir16'
_cell_volume   751.08724390
_cell_formula_units_Z   2
loop_
 _symmetry_equiv_pos_site_id
 _symmetry_equiv_pos_as_xyz
  1  'x, y, z'
loop_
 _atom_site_type_symbol
 _atom_site_label
 _atom_site_symmetry_multiplicity
 _atom_site_fract_x
 _atom_site_fract_y
 _atom_site_fract_z
 _atom_site_occupancy
  Ca  Ca0  1  0.250000  0.211882  0.438080  1
  Ca  Ca1  1  0.750000  0.788118  0.561920  1
  Ac  Ac2  1  0.250000  0.104924  0.789613  1
  Ac  Ac3  1  0.750000  0.895076  0.210387  1
  Ac  Ac4  1  0.250000  0.287551  0.105008  1
  Ac  Ac5  1  0.750000  0.712449  0.894992  1
  Dy  Dy6  1  0.250000  0.518866  0.293405  1
  Dy  Dy7  1  0.750000  0.481134  0.706595  1
  As  As8  1  0.250000  0.058673  0.099643  1
  As  As9  1  0.750000  0.941327  0.900357  1
  As  As10  1  0.250000  0.318704  0.683818  1
  As  As11  1  0.750000  0.681296  0.316182  1
  As  As12  1  0.250000  0.608465  0.565946  1
  As  As13  1  0.750000  0.391535  0.434054  1
  As  As14  1  0.250000  0.844519  0.716507  1
  As  As15  1  0.750000  0.155481  0.283493  1
  As  As16  1  0.750000  0.256501  0.914387  1
  As  As17  1  0.250000  0.743499  0.085613  1
  As  As18  1  0.750000  0.096789  0.584411  1
  As  As19  1  0.250000  0.903211  0.415589  1
  As  As20  1  0.750000  0.472131  0.129823  1
  As  As21  1  0.250000  0.527869  0.870177  1
  Ir  Ir22  1  0.250000  0.989129  0.573731  1
  Ir  Ir23  1  0.750000  0.010871  0.426269  1
  Ir  Ir24  1  0.250000  0.660843  0.729546  1
  Ir  Ir25  1  0.750000  0.339157  0.270454  1
  Ir  Ir26  1  0.250000  0.550134  0.050949  1
  Ir  Ir27  1  0.750000  0.449866  0.949051  1
  Ir  Ir28  1  0.250000  0.057928  0.281699  1
  Ir  Ir29  1  0.750000  0.942072  0.718301  1
  Ir  Ir30  1  0.250000  0.428483  0.523691  1
  Ir  Ir31  1  0.750000  0.571517  0.476309  1
  Ir  Ir32  1  0.250000  0.919366  0.999467  1
  Ir  Ir33  1  0.750000  0.080634  0.000533  1
  Ir  Ir34  1  0.250000  0.719865  0.401946  1
  Ir  Ir35  1  0.750000  0.280135  0.598054  1
  Ir  Ir36  1  0.250000  0.347107  0.856494  1
  Ir  Ir37  1  0.750000  0.652893  0.143506  1
