# generated using pymatgen
data_HfZrSc(SiRu)3
_symmetry_space_group_name_H-M   'P 1'
_cell_length_a   7.64823266
_cell_length_b   7.64823348
_cell_length_c   7.64823282
_cell_angle_alpha   127.55247038
_cell_angle_beta   123.30437104
_cell_angle_gamma   80.87584895
_symmetry_Int_Tables_number   1
_chemical_formula_structural   HfZrSc(SiRu)3
_chemical_formula_sum   'Hf2 Zr2 Sc2 Si6 Ru6'
_cell_volume   285.77497585
_cell_formula_units_Z   2
loop_
 _symmetry_equiv_pos_site_id
 _symmetry_equiv_pos_as_xyz
  1  'x, y, z'
loop_
 _atom_site_type_symbol
 _atom_site_label
 _atom_site_symmetry_multiplicity
 _atom_site_fract_x
 _atom_site_fract_y
 _atom_site_fract_z
 _atom_site_occupancy
  Hf  Hf0  1  0.052393  0.255753  0.703359  1
  Hf  Hf1  1  0.947607  0.650965  0.203359  1
  Zr  Zr2  1  0.747657  0.836682  0.589024  1
  Zr  Zr3  1  0.252343  0.841367  0.089024  1
  Sc  Sc4  1  0.464492  0.685958  0.721465  1
  Sc  Sc5  1  0.535508  0.256973  0.221465  1
  Si  Si6  1  0.269633  0.270124  0.500491  1
  Si  Si7  1  0.730367  0.230858  0.000491  1
  Si  Si8  1  0.327593  0.585192  0.250450  1
  Si  Si9  1  0.672407  0.922856  0.257600  1
  Si  Si10  1  0.165258  0.922856  0.750450  1
  Si  Si11  1  0.834742  0.585192  0.757600  1
  Ru  Ru12  1  0.500000  0.498990  0.998990  1
  Ru  Ru13  1  0.000000  0.498990  0.498990  1
  Ru  Ru14  1  0.099045  0.252479  0.104988  1
  Ru  Ru15  1  0.900955  0.005943  0.153435  1
  Ru  Ru16  1  0.352508  0.005943  0.604988  1
  Ru  Ru17  1  0.647492  0.252479  0.653435  1
