# generated using pymatgen
data_Tb6Ho10Cd4Ir3Ru
_symmetry_space_group_name_H-M   'P 1'
_cell_length_a   9.64708799
_cell_length_b   9.64708814
_cell_length_c   9.64708790
_cell_angle_alpha   59.75911120
_cell_angle_beta   59.75910126
_cell_angle_gamma   59.75911219
_symmetry_Int_Tables_number   1
_chemical_formula_structural   Tb6Ho10Cd4Ir3Ru
_chemical_formula_sum   'Tb6 Ho10 Cd4 Ir3 Ru1'
_cell_volume   631.38125513
_cell_formula_units_Z   1
loop_
 _symmetry_equiv_pos_site_id
 _symmetry_equiv_pos_as_xyz
  1  'x, y, z'
loop_
 _atom_site_type_symbol
 _atom_site_label
 _atom_site_symmetry_multiplicity
 _atom_site_fract_x
 _atom_site_fract_y
 _atom_site_fract_z
 _atom_site_occupancy
  Tb  Tb0  1  0.188705  0.811376  0.811376  1
  Tb  Tb1  1  0.809518  0.188612  0.188612  1
  Tb  Tb2  1  0.811376  0.188705  0.811376  1
  Tb  Tb3  1  0.188612  0.809518  0.188612  1
  Tb  Tb4  1  0.811376  0.811376  0.188705  1
  Tb  Tb5  1  0.188612  0.188612  0.809518  1
  Ho  Ho6  1  0.598936  0.598936  0.598936  1
  Ho  Ho7  1  0.598124  0.598124  0.206742  1
  Ho  Ho8  1  0.598124  0.206742  0.598124  1
  Ho  Ho9  1  0.206742  0.598124  0.598124  1
  Ho  Ho10  1  0.062498  0.438341  0.438341  1
  Ho  Ho11  1  0.437842  0.060694  0.060694  1
  Ho  Ho12  1  0.438341  0.062498  0.438341  1
  Ho  Ho13  1  0.060694  0.437842  0.060694  1
  Ho  Ho14  1  0.438341  0.438341  0.062498  1
  Ho  Ho15  1  0.060694  0.060694  0.437842  1
  Cd  Cd16  1  0.829863  0.829863  0.829863  1
  Cd  Cd17  1  0.830453  0.830453  0.507664  1
  Cd  Cd18  1  0.830453  0.507664  0.830453  1
  Cd  Cd19  1  0.507664  0.830453  0.830453  1
  Ir  Ir20  1  0.392912  0.392912  0.826098  1
  Ir  Ir21  1  0.392912  0.826098  0.392912  1
  Ir  Ir22  1  0.826098  0.392912  0.392912  1
  Ru  Ru23  1  0.391111  0.391111  0.391111  1
