# generated using pymatgen
data_Ta8AlGaTe8
_symmetry_space_group_name_H-M   'P 1'
_cell_length_a   4.85422200
_cell_length_b   11.08061100
_cell_length_c   19.21016300
_cell_angle_alpha   90.00000000
_cell_angle_beta   90.00000000
_cell_angle_gamma   90.00000000
_symmetry_Int_Tables_number   1
_chemical_formula_structural   Ta8AlGaTe8
_chemical_formula_sum   'Ta16 Al2 Ga2 Te16'
_cell_volume   1033.27136210
_cell_formula_units_Z   2
loop_
 _symmetry_equiv_pos_site_id
 _symmetry_equiv_pos_as_xyz
  1  'x, y, z'
loop_
 _atom_site_type_symbol
 _atom_site_label
 _atom_site_symmetry_multiplicity
 _atom_site_fract_x
 _atom_site_fract_y
 _atom_site_fract_z
 _atom_site_occupancy
  Ta  Ta0  1  0.500070  0.565067  0.381760  1
  Ta  Ta1  1  0.500070  0.434933  0.618240  1
  Ta  Ta2  1  0.499930  0.065067  0.118240  1
  Ta  Ta3  1  0.499930  0.934933  0.881760  1
  Ta  Ta4  1  0.499703  0.706158  0.536651  1
  Ta  Ta5  1  0.499703  0.293842  0.463349  1
  Ta  Ta6  1  0.500297  0.206158  0.963349  1
  Ta  Ta7  1  0.500297  0.793842  0.036651  1
  Ta  Ta8  1  0.000160  0.691581  0.442547  1
  Ta  Ta9  1  0.000160  0.308419  0.557453  1
  Ta  Ta10  1  0.999840  0.191581  0.057453  1
  Ta  Ta11  1  0.999840  0.808419  0.942547  1
  Ta  Ta12  1  0.000014  0.399914  0.390331  1
  Ta  Ta13  1  0.000014  0.600086  0.609669  1
  Ta  Ta14  1  0.999986  0.899914  0.109669  1
  Ta  Ta15  1  0.999986  0.100086  0.890331  1
  Al  Al16  1  0.749965  0.500000  0.500000  1
  Al  Al17  1  0.250035  0.000000  0.000000  1
  Ga  Ga18  1  0.249972  0.500000  0.500000  1
  Ga  Ga19  1  0.750028  0.000000  0.000000  1
  Te  Te20  1  0.997873  0.846004  0.562441  1
  Te  Te21  1  0.997873  0.153996  0.437559  1
  Te  Te22  1  0.002127  0.346004  0.937559  1
  Te  Te23  1  0.002127  0.653996  0.062441  1
  Te  Te24  1  0.500237  0.333457  0.315858  1
  Te  Te25  1  0.500237  0.666543  0.684142  1
  Te  Te26  1  0.499763  0.833457  0.184142  1
  Te  Te27  1  0.499763  0.166543  0.815858  1
  Te  Te28  1  0.502227  0.821515  0.402880  1
  Te  Te29  1  0.502227  0.178485  0.597120  1
  Te  Te30  1  0.497773  0.321515  0.097120  1
  Te  Te31  1  0.497773  0.678485  0.902880  1
  Te  Te32  1  0.999849  0.607377  0.301480  1
  Te  Te33  1  0.999849  0.392623  0.698520  1
  Te  Te34  1  0.000151  0.107377  0.198520  1
  Te  Te35  1  0.000151  0.892623  0.801480  1
