# generated using pymatgen
data_TbHo4In4PdRh
_symmetry_space_group_name_H-M   'P 1'
_cell_length_a   3.61528500
_cell_length_b   8.12140022
_cell_length_c   18.28551825
_cell_angle_alpha   90.00384275
_cell_angle_beta   90.00000000
_cell_angle_gamma   90.00000000
_symmetry_Int_Tables_number   1
_chemical_formula_structural   TbHo4In4PdRh
_chemical_formula_sum   'Tb2 Ho8 In8 Pd2 Rh2'
_cell_volume   536.88432572
_cell_formula_units_Z   2
loop_
 _symmetry_equiv_pos_site_id
 _symmetry_equiv_pos_as_xyz
  1  'x, y, z'
loop_
 _atom_site_type_symbol
 _atom_site_label
 _atom_site_symmetry_multiplicity
 _atom_site_fract_x
 _atom_site_fract_y
 _atom_site_fract_z
 _atom_site_occupancy
  Tb  Tb0  1  0.000000  0.500000  0.500000  1
  Tb  Tb1  1  0.000000  0.000000  0.000000  1
  Ho  Ho2  1  0.000000  0.731400  0.278127  1
  Ho  Ho3  1  0.000000  0.268600  0.721873  1
  Ho  Ho4  1  0.000000  0.748063  0.780096  1
  Ho  Ho5  1  0.000000  0.251937  0.219904  1
  Ho  Ho6  1  0.000000  0.613924  0.086914  1
  Ho  Ho7  1  0.000000  0.386076  0.913086  1
  Ho  Ho8  1  0.000000  0.884121  0.584376  1
  Ho  Ho9  1  0.000000  0.115879  0.415624  1
  In  In10  1  0.500000  0.708929  0.931366  1
  In  In11  1  0.500000  0.291071  0.068634  1
  In  In12  1  0.500000  0.791125  0.431603  1
  In  In13  1  0.500000  0.208875  0.568397  1
  In  In14  1  0.500000  0.578624  0.649755  1
  In  In15  1  0.500000  0.421376  0.350245  1
  In  In16  1  0.500000  0.920456  0.150137  1
  In  In17  1  0.500000  0.079544  0.849863  1
  Pd  Pd18  1  0.500000  0.978591  0.696148  1
  Pd  Pd19  1  0.500000  0.021409  0.303852  1
  Rh  Rh20  1  0.500000  0.521944  0.195218  1
  Rh  Rh21  1  0.500000  0.478056  0.804782  1
