# generated using pymatgen
data_Ho11ThTc4
_symmetry_space_group_name_H-M   'P 1'
_cell_length_a   6.28110837
_cell_length_b   7.39497446
_cell_length_c   9.19317600
_cell_angle_alpha   90.00000000
_cell_angle_beta   90.00000000
_cell_angle_gamma   90.46997070
_symmetry_Int_Tables_number   1
_chemical_formula_structural   Ho11ThTc4
_chemical_formula_sum   'Ho11 Th1 Tc4'
_cell_volume   426.99612038
_cell_formula_units_Z   1
loop_
 _symmetry_equiv_pos_site_id
 _symmetry_equiv_pos_as_xyz
  1  'x, y, z'
loop_
 _atom_site_type_symbol
 _atom_site_label
 _atom_site_symmetry_multiplicity
 _atom_site_fract_x
 _atom_site_fract_y
 _atom_site_fract_z
 _atom_site_occupancy
  Ho  Ho0  1  0.664380  0.175647  0.061391  1
  Ho  Ho1  1  0.126370  0.043489  0.250000  1
  Ho  Ho2  1  0.837270  0.675924  0.438328  1
  Ho  Ho3  1  0.334792  0.826435  0.933592  1
  Ho  Ho4  1  0.165049  0.323519  0.566251  1
  Ho  Ho5  1  0.664380  0.175647  0.438609  1
  Ho  Ho6  1  0.165049  0.323519  0.933749  1
  Ho  Ho7  1  0.334792  0.826435  0.566408  1
  Ho  Ho8  1  0.871826  0.957473  0.750000  1
  Ho  Ho9  1  0.627367  0.459508  0.750000  1
  Ho  Ho10  1  0.837270  0.675924  0.061672  1
  Th  Th11  1  0.361648  0.551284  0.250000  1
  Tc  Tc12  1  0.984537  0.385814  0.250000  1
  Tc  Tc13  1  0.463696  0.114618  0.750000  1
  Tc  Tc14  1  0.524697  0.870869  0.250000  1
  Tc  Tc15  1  0.036875  0.613898  0.750000  1
