# generated using pymatgen
data_Sm3YP3Cl
_symmetry_space_group_name_H-M   'P 1'
_cell_length_a   6.98551517
_cell_length_b   6.98551372
_cell_length_c   7.00203000
_cell_angle_alpha   80.37418953
_cell_angle_beta   80.37419987
_cell_angle_gamma   33.76011962
_symmetry_Int_Tables_number   1
_chemical_formula_structural   Sm3YP3Cl
_chemical_formula_sum   'Sm3 Y1 P3 Cl1'
_cell_volume   186.95653583
_cell_formula_units_Z   1
loop_
 _symmetry_equiv_pos_site_id
 _symmetry_equiv_pos_as_xyz
  1  'x, y, z'
loop_
 _atom_site_type_symbol
 _atom_site_label
 _atom_site_symmetry_multiplicity
 _atom_site_fract_x
 _atom_site_fract_y
 _atom_site_fract_z
 _atom_site_occupancy
  Sm  Sm0  1  0.245834  0.245834  0.264626  1
  Sm  Sm1  1  0.502112  0.502112  0.485017  1
  Sm  Sm2  1  0.740690  0.740690  0.737649  1
  Y  Y3  1  0.011691  0.011691  0.012866  1
  P  P4  1  0.628032  0.628032  0.119000  1
  P  P5  1  0.875466  0.875466  0.369478  1
  P  P6  1  0.118575  0.118575  0.632864  1
  Cl  Cl7  1  0.377600  0.377600  0.878501  1
