# generated using pymatgen
data_Lu8Cu2SiPd22
_symmetry_space_group_name_H-M   'P 1'
_cell_length_a   8.20741700
_cell_length_b   8.30381000
_cell_length_c   8.33016100
_cell_angle_alpha   90.00000000
_cell_angle_beta   90.00000000
_cell_angle_gamma   90.00000000
_symmetry_Int_Tables_number   1
_chemical_formula_structural   Lu8Cu2SiPd22
_chemical_formula_sum   'Lu8 Cu2 Si1 Pd22'
_cell_volume   567.72405782
_cell_formula_units_Z   1
loop_
 _symmetry_equiv_pos_site_id
 _symmetry_equiv_pos_as_xyz
  1  'x, y, z'
loop_
 _atom_site_type_symbol
 _atom_site_label
 _atom_site_symmetry_multiplicity
 _atom_site_fract_x
 _atom_site_fract_y
 _atom_site_fract_z
 _atom_site_occupancy
  Lu  Lu0  1  0.254383  0.252171  0.257316  1
  Lu  Lu1  1  0.745617  0.747829  0.742684  1
  Lu  Lu2  1  0.745617  0.747829  0.257316  1
  Lu  Lu3  1  0.745617  0.252171  0.742684  1
  Lu  Lu4  1  0.254383  0.252171  0.742684  1
  Lu  Lu5  1  0.254383  0.747829  0.257316  1
  Lu  Lu6  1  0.254383  0.747829  0.742684  1
  Lu  Lu7  1  0.745617  0.252171  0.257316  1
  Cu  Cu8  1  0.258758  0.500000  0.000000  1
  Cu  Cu9  1  0.741242  0.500000  0.000000  1
  Si  Si10  1  0.000000  0.000000  0.000000  1
  Pd  Pd11  1  0.000000  0.256234  0.500000  1
  Pd  Pd12  1  0.500000  0.263005  0.000000  1
  Pd  Pd13  1  0.000000  0.743766  0.500000  1
  Pd  Pd14  1  0.500000  0.736995  0.000000  1
  Pd  Pd15  1  0.500000  0.000000  0.256424  1
  Pd  Pd16  1  0.256059  0.000000  0.500000  1
  Pd  Pd17  1  0.500000  0.000000  0.743576  1
  Pd  Pd18  1  0.743941  0.000000  0.500000  1
  Pd  Pd19  1  0.000000  0.500000  0.255175  1
  Pd  Pd20  1  0.000000  0.500000  0.744825  1
  Pd  Pd21  1  0.252752  0.500000  0.500000  1
  Pd  Pd22  1  0.747248  0.500000  0.500000  1
  Pd  Pd23  1  0.500000  0.253035  0.500000  1
  Pd  Pd24  1  0.500000  0.746965  0.500000  1
  Pd  Pd25  1  0.500000  0.500000  0.248061  1
  Pd  Pd26  1  0.500000  0.500000  0.751939  1
  Pd  Pd27  1  0.281610  0.000000  0.000000  1
  Pd  Pd28  1  0.718390  0.000000  0.000000  1
  Pd  Pd29  1  0.000000  0.284224  0.000000  1
  Pd  Pd30  1  0.000000  0.715776  0.000000  1
  Pd  Pd31  1  0.000000  0.000000  0.277865  1
  Pd  Pd32  1  0.000000  0.000000  0.722135  1
