# generated using pymatgen
data_Pr12CoIr2AuBr12
_symmetry_space_group_name_H-M   'P 1'
_cell_length_a   10.61616944
_cell_length_b   10.61617020
_cell_length_c   10.65118654
_cell_angle_alpha   109.81242944
_cell_angle_beta   109.81242544
_cell_angle_gamma   109.80108078
_symmetry_Int_Tables_number   1
_chemical_formula_structural   Pr12CoIr2AuBr12
_chemical_formula_sum   'Pr12 Co1 Ir2 Au1 Br12'
_cell_volume   912.35781914
_cell_formula_units_Z   1
loop_
 _symmetry_equiv_pos_site_id
 _symmetry_equiv_pos_as_xyz
  1  'x, y, z'
loop_
 _atom_site_type_symbol
 _atom_site_label
 _atom_site_symmetry_multiplicity
 _atom_site_fract_x
 _atom_site_fract_y
 _atom_site_fract_z
 _atom_site_occupancy
  Pr  Pr0  1  0.473919  0.494565  0.232020  1
  Pr  Pr1  1  0.743042  0.229029  0.263759  1
  Pr  Pr2  1  0.743578  0.012182  0.481028  1
  Pr  Pr3  1  0.230768  0.472940  0.494312  1
  Pr  Pr4  1  0.270971  0.756958  0.236241  1
  Pr  Pr5  1  0.027060  0.269232  0.005688  1
  Pr  Pr6  1  0.005435  0.026081  0.267980  1
  Pr  Pr7  1  0.487818  0.756422  0.018972  1
  Pr  Pr8  1  0.495159  0.224721  0.467668  1
  Pr  Pr9  1  0.013157  0.486843  0.750000  1
  Pr  Pr10  1  0.275279  0.004841  0.032332  1
  Pr  Pr11  1  0.234539  0.265461  0.750000  1
  Co  Co12  1  0.501111  0.998889  0.250000  1
  Ir  Ir13  1  0.997595  0.249299  0.500609  1
  Ir  Ir14  1  0.250701  0.502405  0.999391  1
  Au  Au15  1  0.250193  0.249807  0.250000  1
  Br  Br16  1  0.250661  0.757660  0.744586  1
  Br  Br17  1  0.507102  0.502175  0.752145  1
  Br  Br18  1  0.992141  0.747331  0.997840  1
  Br  Br19  1  0.742340  0.249339  0.755414  1
  Br  Br20  1  0.997825  0.992898  0.747855  1
  Br  Br21  1  0.250338  0.997018  0.501630  1
  Br  Br22  1  0.752669  0.507859  0.502160  1
  Br  Br23  1  0.502982  0.249662  0.998370  1
  Br  Br24  1  0.756513  0.743487  0.250000  1
  Br  Br25  1  0.746224  0.997053  0.991928  1
  Br  Br26  1  0.997932  0.502068  0.250000  1
  Br  Br27  1  0.502947  0.753776  0.508072  1
