# generated using pymatgen
data_CaTm7(Ga3Pt)4
_symmetry_space_group_name_H-M   'P 1'
_cell_length_a   8.81325600
_cell_length_b   8.81904422
_cell_length_c   6.94736400
_cell_angle_alpha   90.00000000
_cell_angle_beta   90.00000000
_cell_angle_gamma   120.02939591
_symmetry_Int_Tables_number   1
_chemical_formula_structural   CaTm7(Ga3Pt)4
_chemical_formula_sum   'Ca1 Tm7 Ga12 Pt4'
_cell_volume   467.49812300
_cell_formula_units_Z   1
loop_
 _symmetry_equiv_pos_site_id
 _symmetry_equiv_pos_as_xyz
  1  'x, y, z'
loop_
 _atom_site_type_symbol
 _atom_site_label
 _atom_site_symmetry_multiplicity
 _atom_site_fract_x
 _atom_site_fract_y
 _atom_site_fract_z
 _atom_site_occupancy
  Ca  Ca0  1  0.041127  0.520533  0.750000  1
  Tm  Tm1  1  0.999517  0.999632  0.250000  1
  Tm  Tm2  1  0.998507  0.999384  0.750000  1
  Tm  Tm3  1  0.520169  0.040691  0.250000  1
  Tm  Tm4  1  0.520072  0.479631  0.250000  1
  Tm  Tm5  1  0.958731  0.479400  0.250000  1
  Tm  Tm6  1  0.478928  0.958188  0.750000  1
  Tm  Tm7  1  0.479022  0.520581  0.750000  1
  Ga  Ga8  1  0.167214  0.333397  0.048375  1
  Ga  Ga9  1  0.167385  0.833757  0.451628  1
  Ga  Ga10  1  0.667901  0.834001  0.452498  1
  Ga  Ga11  1  0.667901  0.834001  0.047502  1
  Ga  Ga12  1  0.167385  0.833757  0.048372  1
  Ga  Ga13  1  0.833026  0.667176  0.953431  1
  Ga  Ga14  1  0.832859  0.165911  0.953430  1
  Ga  Ga15  1  0.331955  0.165922  0.952499  1
  Ga  Ga16  1  0.167214  0.333397  0.451625  1
  Ga  Ga17  1  0.331955  0.165922  0.547501  1
  Ga  Ga18  1  0.833026  0.667176  0.546569  1
  Ga  Ga19  1  0.832859  0.165911  0.546570  1
  Pt  Pt20  1  0.337196  0.668508  0.032361  1
  Pt  Pt21  1  0.337196  0.668508  0.467639  1
  Pt  Pt22  1  0.664427  0.332307  0.973424  1
  Pt  Pt23  1  0.664427  0.332307  0.526576  1
