# generated using pymatgen
data_Er5Lu5(In2Ir)4
_symmetry_space_group_name_H-M   'P 1'
_cell_length_a   3.54978600
_cell_length_b   8.00163609
_cell_length_c   18.15395320
_cell_angle_alpha   89.98304951
_cell_angle_beta   90.00000000
_cell_angle_gamma   90.00000000
_symmetry_Int_Tables_number   1
_chemical_formula_structural   Er5Lu5(In2Ir)4
_chemical_formula_sum   'Er5 Lu5 In8 Ir4'
_cell_volume   515.64660252
_cell_formula_units_Z   1
loop_
 _symmetry_equiv_pos_site_id
 _symmetry_equiv_pos_as_xyz
  1  'x, y, z'
loop_
 _atom_site_type_symbol
 _atom_site_label
 _atom_site_symmetry_multiplicity
 _atom_site_fract_x
 _atom_site_fract_y
 _atom_site_fract_z
 _atom_site_occupancy
  Er  Er0  1  0.000000  0.883128  0.086944  1
  Er  Er1  1  0.000000  0.755547  0.279130  1
  Er  Er2  1  0.000000  0.744311  0.778959  1
  Er  Er3  1  0.000000  0.499909  0.999861  1
  Er  Er4  1  0.000000  0.999973  0.499957  1
  Lu  Lu5  1  0.000000  0.382917  0.412563  1
  Lu  Lu6  1  0.000000  0.117058  0.912382  1
  Lu  Lu7  1  0.000000  0.244497  0.721185  1
  Lu  Lu8  1  0.000000  0.255628  0.221260  1
  Lu  Lu9  1  0.000000  0.616403  0.587491  1
  In  In10  1  0.500000  0.207412  0.066632  1
  In  In11  1  0.500000  0.425829  0.850731  1
  In  In12  1  0.500000  0.571064  0.149239  1
  In  In13  1  0.500000  0.074430  0.351025  1
  In  In14  1  0.500000  0.927124  0.649037  1
  In  In15  1  0.500000  0.794203  0.933205  1
  In  In16  1  0.500000  0.705211  0.433891  1
  In  In17  1  0.500000  0.294210  0.566558  1
  Ir  Ir18  1  0.500000  0.979139  0.196686  1
  Ir  Ir19  1  0.500000  0.026533  0.803699  1
  Ir  Ir20  1  0.500000  0.521773  0.695714  1
  Ir  Ir21  1  0.500000  0.473699  0.303851  1
