# generated using pymatgen
data_Yb20(Si3Bi)3
_symmetry_space_group_name_H-M   'P 1'
_cell_length_a   7.76064100
_cell_length_b   7.76064100
_cell_length_c   14.73008900
_cell_angle_alpha   90.00000000
_cell_angle_beta   90.00000000
_cell_angle_gamma   90.00000000
_symmetry_Int_Tables_number   1
_chemical_formula_structural   Yb20(Si3Bi)3
_chemical_formula_sum   'Yb20 Si9 Bi3'
_cell_volume   887.15715306
_cell_formula_units_Z   1
loop_
 _symmetry_equiv_pos_site_id
 _symmetry_equiv_pos_as_xyz
  1  'x, y, z'
loop_
 _atom_site_type_symbol
 _atom_site_label
 _atom_site_symmetry_multiplicity
 _atom_site_fract_x
 _atom_site_fract_y
 _atom_site_fract_z
 _atom_site_occupancy
  Yb  Yb0  1  0.684050  0.165505  0.108697  1
  Yb  Yb1  1  0.174514  0.673005  0.615194  1
  Yb  Yb2  1  0.315950  0.834495  0.108697  1
  Yb  Yb3  1  0.825486  0.326995  0.615194  1
  Yb  Yb4  1  0.834495  0.684050  0.108697  1
  Yb  Yb5  1  0.326995  0.174514  0.615194  1
  Yb  Yb6  1  0.165505  0.315950  0.108697  1
  Yb  Yb7  1  0.673005  0.825486  0.615194  1
  Yb  Yb8  1  0.834495  0.315950  0.891303  1
  Yb  Yb9  1  0.326995  0.825486  0.384806  1
  Yb  Yb10  1  0.165505  0.684050  0.891303  1
  Yb  Yb11  1  0.673005  0.174514  0.384806  1
  Yb  Yb12  1  0.684050  0.834495  0.891303  1
  Yb  Yb13  1  0.174514  0.326995  0.384806  1
  Yb  Yb14  1  0.315950  0.165505  0.891303  1
  Yb  Yb15  1  0.825486  0.673005  0.384806  1
  Yb  Yb16  1  0.500000  0.500000  0.758520  1
  Yb  Yb17  1  0.000000  0.000000  0.246024  1
  Yb  Yb18  1  0.000000  0.000000  0.753976  1
  Yb  Yb19  1  0.500000  0.500000  0.241480  1
  Si  Si20  1  0.613045  0.114424  0.751465  1
  Si  Si21  1  0.114424  0.613045  0.248535  1
  Si  Si22  1  0.885576  0.386955  0.248535  1
  Si  Si23  1  0.386955  0.885576  0.751465  1
  Si  Si24  1  0.885576  0.613045  0.751465  1
  Si  Si25  1  0.386955  0.114424  0.248535  1
  Si  Si26  1  0.114424  0.386955  0.751465  1
  Si  Si27  1  0.613045  0.885576  0.248535  1
  Si  Si28  1  0.000000  0.000000  0.000000  1
  Bi  Bi29  1  0.500000  0.500000  0.500000  1
  Bi  Bi30  1  0.500000  0.500000  0.000000  1
  Bi  Bi31  1  0.000000  0.000000  0.500000  1
