# generated using pymatgen
data_Ho2GaFe2Tc14C3
_symmetry_space_group_name_H-M   'P 1'
_cell_length_a   6.95719405
_cell_length_b   6.88258069
_cell_length_c   6.88257896
_cell_angle_alpha   82.40151299
_cell_angle_beta   82.32653090
_cell_angle_gamma   82.32653294
_symmetry_Int_Tables_number   1
_chemical_formula_structural   Ho2GaFe2Tc14C3
_chemical_formula_sum   'Ho2 Ga1 Fe2 Tc14 C3'
_cell_volume   321.48247270
_cell_formula_units_Z   1
loop_
 _symmetry_equiv_pos_site_id
 _symmetry_equiv_pos_as_xyz
  1  'x, y, z'
loop_
 _atom_site_type_symbol
 _atom_site_label
 _atom_site_symmetry_multiplicity
 _atom_site_fract_x
 _atom_site_fract_y
 _atom_site_fract_z
 _atom_site_occupancy
  Ho  Ho0  1  0.655042  0.652920  0.652920  1
  Ho  Ho1  1  0.344958  0.347080  0.347080  1
  Ga  Ga2  1  0.500000  0.000000  0.000000  1
  Fe  Fe3  1  0.000000  0.000000  0.500000  1
  Fe  Fe4  1  0.000000  0.500000  0.000000  1
  Tc  Tc5  1  0.725916  0.278732  0.002151  1
  Tc  Tc6  1  0.000000  0.726132  0.273868  1
  Tc  Tc7  1  0.274084  0.997849  0.721268  1
  Tc  Tc8  1  0.000000  0.273868  0.726132  1
  Tc  Tc9  1  0.725916  0.002151  0.278732  1
  Tc  Tc10  1  0.274084  0.721268  0.997849  1
  Tc  Tc11  1  0.347537  0.852711  0.353105  1
  Tc  Tc12  1  0.347537  0.353105  0.852711  1
  Tc  Tc13  1  0.858113  0.352151  0.352151  1
  Tc  Tc14  1  0.652463  0.147289  0.646895  1
  Tc  Tc15  1  0.652463  0.646895  0.147289  1
  Tc  Tc16  1  0.141887  0.647849  0.647849  1
  Tc  Tc17  1  0.905137  0.898237  0.898237  1
  Tc  Tc18  1  0.094863  0.101763  0.101763  1
  C  C19  1  0.500000  0.500000  0.000000  1
  C  C20  1  0.000000  0.500000  0.500000  1
  C  C21  1  0.500000  0.000000  0.500000  1
