# generated using pymatgen
data_Hf4Al24Pt7Rh2
_symmetry_space_group_name_H-M   'P 1'
_cell_length_a   7.44195971
_cell_length_b   7.44312639
_cell_length_c   12.92200557
_cell_angle_alpha   84.43725607
_cell_angle_beta   101.08015845
_cell_angle_gamma   119.89380405
_symmetry_Int_Tables_number   1
_chemical_formula_structural   Hf4Al24Pt7Rh2
_chemical_formula_sum   'Hf4 Al24 Pt7 Rh2'
_cell_volume   608.96823745
_cell_formula_units_Z   1
loop_
 _symmetry_equiv_pos_site_id
 _symmetry_equiv_pos_as_xyz
  1  'x, y, z'
loop_
 _atom_site_type_symbol
 _atom_site_label
 _atom_site_symmetry_multiplicity
 _atom_site_fract_x
 _atom_site_fract_y
 _atom_site_fract_z
 _atom_site_occupancy
  Hf  Hf0  1  0.731929  0.999503  0.188714  1
  Hf  Hf1  1  0.268870  0.002359  0.811109  1
  Hf  Hf2  1  0.059407  0.668059  0.188540  1
  Hf  Hf3  1  0.938881  0.330949  0.811676  1
  Al  Al4  1  0.816533  0.876471  0.818672  1
  Al  Al5  1  0.183906  0.122953  0.181297  1
  Al  Al6  1  0.988475  0.669681  0.942261  1
  Al  Al7  1  0.018775  0.334296  0.057021  1
  Al  Al8  1  0.390052  0.662912  0.820216  1
  Al  Al9  1  0.605866  0.336434  0.181752  1
  Al  Al10  1  0.887524  0.664956  0.679602  1
  Al  Al11  1  0.113386  0.334911  0.319989  1
  Al  Al12  1  0.602893  0.453797  0.817400  1
  Al  Al13  1  0.397139  0.550921  0.180600  1
  Al  Al14  1  0.230671  0.337911  0.677907  1
  Al  Al15  1  0.769399  0.662060  0.322093  1
  Al  Al16  1  0.852892  0.332707  0.561018  1
  Al  Al17  1  0.186989  0.999433  0.560710  1
  Al  Al18  1  0.813757  0.000309  0.439270  1
  Al  Al19  1  0.349483  0.992192  0.057839  1
  Al  Al20  1  0.646978  0.000379  0.942853  1
  Al  Al21  1  0.558903  0.994512  0.680164  1
  Al  Al22  1  0.441309  0.004390  0.320225  1
  Al  Al23  1  0.521575  0.667194  0.563688  1
  Al  Al24  1  0.478660  0.332638  0.436208  1
  Al  Al25  1  0.686909  0.674427  0.048461  1
  Al  Al26  1  0.309625  0.329158  0.951664  1
  Al  Al27  1  0.147319  0.666448  0.439149  1
  Pt  Pt28  1  0.545733  0.322401  0.638099  1
  Pt  Pt29  1  0.454733  0.676924  0.361717  1
  Pt  Pt30  1  0.890302  0.009897  0.640096  1
  Pt  Pt31  1  0.110232  0.989522  0.359864  1
  Pt  Pt32  1  0.672484  0.326964  0.999628  1
  Pt  Pt33  1  0.202765  0.666267  0.639994  1
  Pt  Pt34  1  0.797908  0.333188  0.360189  1
  Rh  Rh35  1  0.327739  0.672866  0.000319  1
  Rh  Rh36  1  0.000003  0.000011  0.999996  1
