# generated using pymatgen
data_Ce5SmAl20(SiOs2)4
_symmetry_space_group_name_H-M   'P 1'
_cell_length_a   8.80191753
_cell_length_b   8.80191667
_cell_length_c   9.56660300
_cell_angle_alpha   90.00000000
_cell_angle_beta   90.00000000
_cell_angle_gamma   119.96016182
_symmetry_Int_Tables_number   1
_chemical_formula_structural   Ce5SmAl20(SiOs2)4
_chemical_formula_sum   'Ce5 Sm1 Al20 Si4 Os8'
_cell_volume   642.12138384
_cell_formula_units_Z   1
loop_
 _symmetry_equiv_pos_site_id
 _symmetry_equiv_pos_as_xyz
  1  'x, y, z'
loop_
 _atom_site_type_symbol
 _atom_site_label
 _atom_site_symmetry_multiplicity
 _atom_site_fract_x
 _atom_site_fract_y
 _atom_site_fract_z
 _atom_site_occupancy
  Ce  Ce0  1  0.193225  0.387255  0.250000  1
  Ce  Ce1  1  0.805713  0.612420  0.750000  1
  Ce  Ce2  1  0.612745  0.806775  0.250000  1
  Ce  Ce3  1  0.387580  0.194287  0.750000  1
  Ce  Ce4  1  0.193626  0.806374  0.250000  1
  Sm  Sm5  1  0.806527  0.193473  0.750000  1
  Al  Al6  1  0.163414  0.327323  0.575850  1
  Al  Al7  1  0.836293  0.672802  0.423814  1
  Al  Al8  1  0.672677  0.836586  0.575850  1
  Al  Al9  1  0.836293  0.672802  0.076186  1
  Al  Al10  1  0.327198  0.163707  0.423814  1
  Al  Al11  1  0.163414  0.327323  0.924150  1
  Al  Al12  1  0.163449  0.836551  0.576877  1
  Al  Al13  1  0.327198  0.163707  0.076186  1
  Al  Al14  1  0.836166  0.163834  0.423634  1
  Al  Al15  1  0.672677  0.836586  0.924150  1
  Al  Al16  1  0.836166  0.163834  0.076366  1
  Al  Al17  1  0.163449  0.836551  0.923123  1
  Al  Al18  1  0.564479  0.129290  0.250000  1
  Al  Al19  1  0.436228  0.872162  0.750000  1
  Al  Al20  1  0.870710  0.435521  0.250000  1
  Al  Al21  1  0.127838  0.563772  0.750000  1
  Al  Al22  1  0.564539  0.435461  0.250000  1
  Al  Al23  1  0.435312  0.564688  0.750000  1
  Al  Al24  1  0.999984  0.000016  0.250000  1
  Al  Al25  1  0.000351  0.999649  0.750000  1
  Si  Si26  1  0.333602  0.666398  0.031452  1
  Si  Si27  1  0.667692  0.332308  0.967721  1
  Si  Si28  1  0.667692  0.332308  0.532279  1
  Si  Si29  1  0.333602  0.666398  0.468548  1
  Os  Os30  1  0.498876  0.998814  0.001401  1
  Os  Os31  1  0.001186  0.501124  0.001401  1
  Os  Os32  1  0.498876  0.998814  0.498599  1
  Os  Os33  1  0.500209  0.499791  0.999955  1
  Os  Os34  1  0.001186  0.501124  0.498599  1
  Os  Os35  1  0.500209  0.499791  0.500045  1
  Os  Os36  1  0.999809  0.000191  0.000012  1
  Os  Os37  1  0.999809  0.000191  0.499988  1
