# generated using pymatgen
data_ErPuGeRh3
_symmetry_space_group_name_H-M   'P 1'
_cell_length_a   5.11909273
_cell_length_b   5.11909274
_cell_length_c   5.11909249
_cell_angle_alpha   66.02366717
_cell_angle_beta   66.02366873
_cell_angle_gamma   66.02368455
_symmetry_Int_Tables_number   1
_chemical_formula_structural   ErPuGeRh3
_chemical_formula_sum   'Er1 Pu1 Ge1 Rh3'
_cell_volume   107.21805106
_cell_formula_units_Z   1
loop_
 _symmetry_equiv_pos_site_id
 _symmetry_equiv_pos_as_xyz
  1  'x, y, z'
loop_
 _atom_site_type_symbol
 _atom_site_label
 _atom_site_symmetry_multiplicity
 _atom_site_fract_x
 _atom_site_fract_y
 _atom_site_fract_z
 _atom_site_occupancy
  Er  Er0  1  0.373441  0.373441  0.373441  1
  Pu  Pu1  1  0.628888  0.628888  0.628888  1
  Ge  Ge2  1  0.999221  0.999221  0.999221  1
  Rh  Rh3  1  0.999935  0.999935  0.498580  1
  Rh  Rh4  1  0.498580  0.999935  0.999935  1
  Rh  Rh5  1  0.999935  0.498580  0.999935  1
