# generated using pymatgen
data_Tm8HfGe16Mo11
_symmetry_space_group_name_H-M   'P 1'
_cell_length_a   6.89120928
_cell_length_b   7.05219332
_cell_length_c   13.19630727
_cell_angle_alpha   89.96295935
_cell_angle_beta   90.03407535
_cell_angle_gamma   89.91404842
_symmetry_Int_Tables_number   1
_chemical_formula_structural   Tm8HfGe16Mo11
_chemical_formula_sum   'Tm8 Hf1 Ge16 Mo11'
_cell_volume   641.31501927
_cell_formula_units_Z   1
loop_
 _symmetry_equiv_pos_site_id
 _symmetry_equiv_pos_as_xyz
  1  'x, y, z'
loop_
 _atom_site_type_symbol
 _atom_site_label
 _atom_site_symmetry_multiplicity
 _atom_site_fract_x
 _atom_site_fract_y
 _atom_site_fract_z
 _atom_site_occupancy
  Tm  Tm0  1  0.490494  0.675140  0.592528  1
  Tm  Tm1  1  0.989243  0.825114  0.909132  1
  Tm  Tm2  1  0.511360  0.329168  0.091849  1
  Tm  Tm3  1  0.011761  0.169468  0.405700  1
  Tm  Tm4  1  0.508989  0.329680  0.407619  1
  Tm  Tm5  1  0.012638  0.172237  0.092294  1
  Tm  Tm6  1  0.488964  0.673775  0.908564  1
  Tm  Tm7  1  0.988527  0.828899  0.592057  1
  Hf  Hf8  1  0.162527  0.335542  0.626629  1
  Ge  Ge9  1  0.672018  0.956483  0.452137  1
  Ge  Ge10  1  0.173563  0.547058  0.047487  1
  Ge  Ge11  1  0.325288  0.045314  0.954308  1
  Ge  Ge12  1  0.818910  0.455700  0.543519  1
  Ge  Ge13  1  0.330070  0.037992  0.543069  1
  Ge  Ge14  1  0.826427  0.452725  0.954550  1
  Ge  Ge15  1  0.673004  0.955666  0.047771  1
  Ge  Ge16  1  0.172569  0.548010  0.450149  1
  Ge  Ge17  1  0.470512  0.372114  0.751981  1
  Ge  Ge18  1  0.963876  0.123676  0.756236  1
  Ge  Ge19  1  0.531688  0.629924  0.248870  1
  Ge  Ge20  1  0.033524  0.870172  0.248669  1
  Ge  Ge21  1  0.689306  0.854396  0.750212  1
  Ge  Ge22  1  0.191634  0.648410  0.750289  1
  Ge  Ge23  1  0.314515  0.145656  0.249310  1
  Ge  Ge24  1  0.812485  0.354938  0.249846  1
  Mo  Mo25  1  0.667977  0.159249  0.626081  1
  Mo  Mo26  1  0.167399  0.346004  0.878267  1
  Mo  Mo27  1  0.333289  0.844344  0.126134  1
  Mo  Mo28  1  0.829864  0.659254  0.371809  1
  Mo  Mo29  1  0.336280  0.842471  0.369959  1
  Mo  Mo30  1  0.831430  0.656041  0.126151  1
  Mo  Mo31  1  0.663481  0.156155  0.874309  1
  Mo  Mo32  1  0.835828  0.491760  0.751744  1
  Mo  Mo33  1  0.333438  0.005052  0.752590  1
  Mo  Mo34  1  0.166549  0.506306  0.249103  1
  Mo  Mo35  1  0.670573  0.996109  0.249079  1
