# generated using pymatgen
data_Ca6Al16Rh7
_symmetry_space_group_name_H-M   'P 1'
_cell_length_a   8.98234819
_cell_length_b   8.98234384
_cell_length_c   8.98235000
_cell_angle_alpha   60.00038574
_cell_angle_beta   59.99992067
_cell_angle_gamma   60.00001426
_symmetry_Int_Tables_number   1
_chemical_formula_structural   Ca6Al16Rh7
_chemical_formula_sum   'Ca6 Al16 Rh7'
_cell_volume   512.45482846
_cell_formula_units_Z   1
loop_
 _symmetry_equiv_pos_site_id
 _symmetry_equiv_pos_as_xyz
  1  'x, y, z'
loop_
 _atom_site_type_symbol
 _atom_site_label
 _atom_site_symmetry_multiplicity
 _atom_site_fract_x
 _atom_site_fract_y
 _atom_site_fract_z
 _atom_site_occupancy
  Ca  Ca0  1  0.207115  0.792886  0.792884  1
  Ca  Ca1  1  0.792883  0.207115  0.207114  1
  Ca  Ca2  1  0.792887  0.207113  0.792887  1
  Ca  Ca3  1  0.792890  0.792887  0.207112  1
  Ca  Ca4  1  0.207115  0.792885  0.207115  1
  Ca  Ca5  1  0.207111  0.207110  0.792891  1
  Al  Al6  1  0.826008  0.826007  0.826008  1
  Al  Al7  1  0.826008  0.826008  0.521976  1
  Al  Al8  1  0.521978  0.826008  0.826007  1
  Al  Al9  1  0.826009  0.521976  0.826008  1
  Al  Al10  1  0.173991  0.173993  0.173992  1
  Al  Al11  1  0.173992  0.173993  0.478023  1
  Al  Al12  1  0.173991  0.478024  0.173993  1
  Al  Al13  1  0.478022  0.173992  0.173993  1
  Al  Al14  1  0.619443  0.619443  0.619442  1
  Al  Al15  1  0.619443  0.619442  0.141674  1
  Al  Al16  1  0.141673  0.619441  0.619443  1
  Al  Al17  1  0.619442  0.141673  0.619442  1
  Al  Al18  1  0.380557  0.380558  0.380558  1
  Al  Al19  1  0.380557  0.380558  0.858327  1
  Al  Al20  1  0.380558  0.858327  0.380557  1
  Al  Al21  1  0.858326  0.380559  0.380557  1
  Rh  Rh22  1  0.500000  0.500000  0.499999  1
  Rh  Rh23  1  0.000001  0.500002  0.499999  1
  Rh  Rh24  1  0.500001  0.999998  0.999999  1
  Rh  Rh25  1  0.500001  0.000001  0.499999  1
  Rh  Rh26  1  0.499999  0.500000  0.000001  1
  Rh  Rh27  1  0.999999  0.500001  0.000000  1
  Rh  Rh28  1  0.000000  0.000001  0.499999  1
