# generated using pymatgen
data_Ca4YbSb3Br
_symmetry_space_group_name_H-M   'P 1'
_cell_length_a   9.19566817
_cell_length_b   9.19566826
_cell_length_c   7.14316500
_cell_angle_alpha   90.00000000
_cell_angle_beta   90.00000000
_cell_angle_gamma   119.92130510
_symmetry_Int_Tables_number   1
_chemical_formula_structural   Ca4YbSb3Br
_chemical_formula_sum   'Ca8 Yb2 Sb6 Br2'
_cell_volume   523.51814911
_cell_formula_units_Z   2
loop_
 _symmetry_equiv_pos_site_id
 _symmetry_equiv_pos_as_xyz
  1  'x, y, z'
loop_
 _atom_site_type_symbol
 _atom_site_label
 _atom_site_symmetry_multiplicity
 _atom_site_fract_x
 _atom_site_fract_y
 _atom_site_fract_z
 _atom_site_occupancy
  Ca  Ca0  1  0.263790  0.000015  0.250000  1
  Ca  Ca1  1  0.999985  0.736210  0.750000  1
  Ca  Ca2  1  0.736047  0.736140  0.250000  1
  Ca  Ca3  1  0.263860  0.263953  0.750000  1
  Ca  Ca4  1  0.666813  0.333187  0.500000  1
  Ca  Ca5  1  0.333311  0.666689  0.000000  1
  Ca  Ca6  1  0.333311  0.666689  0.500000  1
  Ca  Ca7  1  0.666813  0.333187  0.000000  1
  Yb  Yb8  1  0.737686  0.000084  0.750000  1
  Yb  Yb9  1  0.999916  0.262314  0.250000  1
  Sb  Sb10  1  0.608471  0.608581  0.750000  1
  Sb  Sb11  1  0.000024  0.607947  0.250000  1
  Sb  Sb12  1  0.608745  0.000126  0.250000  1
  Sb  Sb13  1  0.392053  0.999976  0.750000  1
  Sb  Sb14  1  0.999874  0.391255  0.750000  1
  Sb  Sb15  1  0.391419  0.391529  0.250000  1
  Br  Br16  1  0.998941  0.001059  0.500000  1
  Br  Br17  1  0.998941  0.001059  0.000000  1
