# generated using pymatgen
data_Sm3Ho(MoO4)6
_symmetry_space_group_name_H-M   'P 1'
_cell_length_a   7.53223779
_cell_length_b   7.53223779
_cell_length_c   10.81418915
_cell_angle_alpha   89.94903006
_cell_angle_beta   90.05096994
_cell_angle_gamma   89.88117881
_symmetry_Int_Tables_number   1
_chemical_formula_structural   Sm3Ho(MoO4)6
_chemical_formula_sum   'Sm3 Ho1 Mo6 O24'
_cell_volume   613.53695660
_cell_formula_units_Z   1
loop_
 _symmetry_equiv_pos_site_id
 _symmetry_equiv_pos_as_xyz
  1  'x, y, z'
loop_
 _atom_site_type_symbol
 _atom_site_label
 _atom_site_symmetry_multiplicity
 _atom_site_fract_x
 _atom_site_fract_y
 _atom_site_fract_z
 _atom_site_occupancy
  Sm  Sm0  1  0.188075  0.687880  0.738506  1
  Sm  Sm1  1  0.812120  0.311925  0.738506  1
  Sm  Sm2  1  0.685836  0.814164  0.261188  1
  Ho  Ho3  1  0.310717  0.189283  0.262996  1
  Mo  Mo4  1  0.208373  0.706540  0.354598  1
  Mo  Mo5  1  0.793460  0.291627  0.354598  1
  Mo  Mo6  1  0.707648  0.792352  0.644010  1
  Mo  Mo7  1  0.292390  0.207610  0.640360  1
  Mo  Mo8  1  0.003108  0.002079  0.002533  1
  Mo  Mo9  1  0.497921  0.496892  0.002533  1
  O  O10  1  0.005596  0.224010  0.297061  1
  O  O11  1  0.996914  0.771529  0.296401  1
  O  O12  1  0.225902  0.997797  0.700553  1
  O  O13  1  0.497530  0.725476  0.703199  1
  O  O14  1  0.774524  0.002470  0.703199  1
  O  O15  1  0.502203  0.274098  0.700553  1
  O  O16  1  0.275990  0.494404  0.297061  1
  O  O17  1  0.728471  0.503086  0.296401  1
  O  O18  1  0.189618  0.047501  0.100718  1
  O  O19  1  0.811932  0.959202  0.095969  1
  O  O20  1  0.046283  0.813124  0.906521  1
  O  O21  1  0.310416  0.540170  0.905229  1
  O  O22  1  0.959830  0.189584  0.905229  1
  O  O23  1  0.686876  0.453717  0.906521  1
  O  O24  1  0.452499  0.310382  0.100718  1
  O  O25  1  0.540798  0.688068  0.095969  1
  O  O26  1  0.623324  0.130197  0.308355  1
  O  O27  1  0.369803  0.876676  0.308355  1
  O  O28  1  0.127297  0.372703  0.688233  1
  O  O29  1  0.873408  0.626592  0.690461  1
  O  O30  1  0.196898  0.695528  0.518927  1
  O  O31  1  0.804472  0.303102  0.518927  1
  O  O32  1  0.695357  0.804643  0.479873  1
  O  O33  1  0.304408  0.195592  0.475736  1
