# generated using pymatgen
data_TbTm(Tc2P)4
_symmetry_space_group_name_H-M   'P 1'
_cell_length_a   3.95093700
_cell_length_b   7.40831231
_cell_length_c   7.40831231
_cell_angle_alpha   89.75953475
_cell_angle_beta   90.00000000
_cell_angle_gamma   90.00000000
_symmetry_Int_Tables_number   1
_chemical_formula_structural   TbTm(Tc2P)4
_chemical_formula_sum   'Tb1 Tm1 Tc8 P4'
_cell_volume   216.83772639
_cell_formula_units_Z   1
loop_
 _symmetry_equiv_pos_site_id
 _symmetry_equiv_pos_as_xyz
  1  'x, y, z'
loop_
 _atom_site_type_symbol
 _atom_site_label
 _atom_site_symmetry_multiplicity
 _atom_site_fract_x
 _atom_site_fract_y
 _atom_site_fract_z
 _atom_site_occupancy
  Tb  Tb0  1  0.000000  0.500000  0.500000  1
  Tm  Tm1  1  0.500000  0.000000  0.000000  1
  Tc  Tc2  1  0.500000  0.159969  0.583431  1
  Tc  Tc3  1  0.500000  0.840031  0.416569  1
  Tc  Tc4  1  0.000000  0.338174  0.082241  1
  Tc  Tc5  1  0.000000  0.661826  0.917759  1
  Tc  Tc6  1  0.500000  0.583431  0.159969  1
  Tc  Tc7  1  0.500000  0.416569  0.840031  1
  Tc  Tc8  1  0.000000  0.082241  0.338174  1
  Tc  Tc9  1  0.000000  0.917759  0.661826  1
  P  P10  1  0.500000  0.712681  0.712681  1
  P  P11  1  0.500000  0.287319  0.287319  1
  P  P12  1  0.000000  0.789302  0.210698  1
  P  P13  1  0.000000  0.210698  0.789302  1
