# generated using pymatgen
data_Ta5TiGa4(RhC)2
_symmetry_space_group_name_H-M   'P 1'
_cell_length_a   8.30014202
_cell_length_b   8.30014163
_cell_length_c   8.28036500
_cell_angle_alpha   60.07879136
_cell_angle_beta   60.07879288
_cell_angle_gamma   59.84242671
_symmetry_Int_Tables_number   1
_chemical_formula_structural   Ta5TiGa4(RhC)2
_chemical_formula_sum   'Ta10 Ti2 Ga8 Rh4 C4'
_cell_volume   403.36724237
_cell_formula_units_Z   2
loop_
 _symmetry_equiv_pos_site_id
 _symmetry_equiv_pos_as_xyz
  1  'x, y, z'
loop_
 _atom_site_type_symbol
 _atom_site_label
 _atom_site_symmetry_multiplicity
 _atom_site_fract_x
 _atom_site_fract_y
 _atom_site_fract_z
 _atom_site_occupancy
  Ta  Ta0  1  0.936302  0.936302  0.563698  1
  Ta  Ta1  1  0.688226  0.312345  0.312205  1
  Ta  Ta2  1  0.312345  0.688226  0.687224  1
  Ta  Ta3  1  0.686302  0.686302  0.313698  1
  Ta  Ta4  1  0.688226  0.312345  0.687224  1
  Ta  Ta5  1  0.312345  0.688226  0.312205  1
  Ta  Ta6  1  0.562776  0.937795  0.561774  1
  Ta  Ta7  1  0.562776  0.937795  0.937655  1
  Ta  Ta8  1  0.937795  0.562776  0.561774  1
  Ta  Ta9  1  0.937795  0.562776  0.937655  1
  Ti  Ti10  1  0.313038  0.313038  0.686962  1
  Ti  Ti11  1  0.563038  0.563038  0.936962  1
  Ga  Ga12  1  0.912332  0.258488  0.914590  1
  Ga  Ga13  1  0.335410  0.335410  0.991512  1
  Ga  Ga14  1  0.994413  0.335564  0.335011  1
  Ga  Ga15  1  0.335410  0.335410  0.337668  1
  Ga  Ga16  1  0.258488  0.912332  0.914590  1
  Ga  Ga17  1  0.914989  0.914989  0.914436  1
  Ga  Ga18  1  0.914989  0.914989  0.255587  1
  Ga  Ga19  1  0.335564  0.994413  0.335011  1
  Rh  Rh20  1  0.125535  0.624540  0.124962  1
  Rh  Rh21  1  0.125038  0.125038  0.625460  1
  Rh  Rh22  1  0.624540  0.125535  0.124962  1
  Rh  Rh23  1  0.125038  0.125038  0.124465  1
  C  C24  1  0.620422  0.128224  0.625677  1
  C  C25  1  0.624323  0.624323  0.121776  1
  C  C26  1  0.128224  0.620422  0.625677  1
  C  C27  1  0.624323  0.624323  0.629578  1
