# generated using pymatgen
data_Li4SmY3(Si2Pb)2
_symmetry_space_group_name_H-M   'P 1'
_cell_length_a   9.68975006
_cell_length_b   9.68974979
_cell_length_c   6.86382500
_cell_angle_alpha   90.00000000
_cell_angle_beta   90.00000000
_cell_angle_gamma   153.70738424
_symmetry_Int_Tables_number   1
_chemical_formula_structural   Li4SmY3(Si2Pb)2
_chemical_formula_sum   'Li4 Sm1 Y3 Si4 Pb2'
_cell_volume   285.46415564
_cell_formula_units_Z   1
loop_
 _symmetry_equiv_pos_site_id
 _symmetry_equiv_pos_as_xyz
  1  'x, y, z'
loop_
 _atom_site_type_symbol
 _atom_site_label
 _atom_site_symmetry_multiplicity
 _atom_site_fract_x
 _atom_site_fract_y
 _atom_site_fract_z
 _atom_site_occupancy
  Li  Li0  1  0.182520  0.817480  0.053981  1
  Li  Li1  1  0.182520  0.817480  0.446019  1
  Li  Li2  1  0.817190  0.182810  0.947222  1
  Li  Li3  1  0.817190  0.182810  0.552778  1
  Sm  Sm4  1  0.451955  0.548045  0.750000  1
  Y  Y5  1  0.354062  0.645938  0.250000  1
  Y  Y6  1  0.646070  0.353930  0.750000  1
  Y  Y7  1  0.547786  0.452214  0.250000  1
  Si  Si8  1  0.057544  0.942456  0.926074  1
  Si  Si9  1  0.943423  0.056577  0.075397  1
  Si  Si10  1  0.943423  0.056577  0.424603  1
  Si  Si11  1  0.057544  0.942456  0.573926  1
  Pb  Pb12  1  0.719618  0.280382  0.250000  1
  Pb  Pb13  1  0.279153  0.720847  0.750000  1
