# generated using pymatgen
data_Y3Tm17(Bi3Sb)3
_symmetry_space_group_name_H-M   'P 1'
_cell_length_a   8.12785027
_cell_length_b   9.39367100
_cell_length_c   11.86933100
_cell_angle_alpha   90.00000000
_cell_angle_beta   90.05876310
_cell_angle_gamma   90.00000000
_symmetry_Int_Tables_number   1
_chemical_formula_structural   Y3Tm17(Bi3Sb)3
_chemical_formula_sum   'Y3 Tm17 Bi9 Sb3'
_cell_volume   906.22711633
_cell_formula_units_Z   1
loop_
 _symmetry_equiv_pos_site_id
 _symmetry_equiv_pos_as_xyz
  1  'x, y, z'
loop_
 _atom_site_type_symbol
 _atom_site_label
 _atom_site_symmetry_multiplicity
 _atom_site_fract_x
 _atom_site_fract_y
 _atom_site_fract_z
 _atom_site_occupancy
  Y  Y0  1  0.811202  0.250000  0.278883  1
  Y  Y1  1  0.683518  0.750000  0.782097  1
  Y  Y2  1  0.184090  0.750000  0.718032  1
  Tm  Tm3  1  0.352640  0.750000  0.214234  1
  Tm  Tm4  1  0.853269  0.750000  0.285038  1
  Tm  Tm5  1  0.647000  0.250000  0.785672  1
  Tm  Tm6  1  0.148295  0.250000  0.717795  1
  Tm  Tm7  1  0.689144  0.564502  0.058164  1
  Tm  Tm8  1  0.190254  0.932162  0.441585  1
  Tm  Tm9  1  0.311138  0.064029  0.942379  1
  Tm  Tm10  1  0.808509  0.438222  0.559745  1
  Tm  Tm11  1  0.311138  0.435971  0.942379  1
  Tm  Tm12  1  0.808509  0.061778  0.559745  1
  Tm  Tm13  1  0.689144  0.935498  0.058164  1
  Tm  Tm14  1  0.190254  0.567838  0.441585  1
  Tm  Tm15  1  0.476410  0.250000  0.488543  1
  Tm  Tm16  1  0.974207  0.250000  0.011156  1
  Tm  Tm17  1  0.527554  0.750000  0.511616  1
  Tm  Tm18  1  0.026634  0.750000  0.989251  1
  Tm  Tm19  1  0.317645  0.250000  0.214980  1
  Bi  Bi20  1  0.094802  0.250000  0.457611  1
  Bi  Bi21  1  0.564539  0.994688  0.325660  1
  Bi  Bi22  1  0.066808  0.504150  0.174188  1
  Bi  Bi23  1  0.433984  0.494539  0.674236  1
  Bi  Bi24  1  0.934100  0.004970  0.826380  1
  Bi  Bi25  1  0.433984  0.005461  0.674236  1
  Bi  Bi26  1  0.934100  0.495030  0.826380  1
  Bi  Bi27  1  0.564539  0.505312  0.325660  1
  Bi  Bi28  1  0.066808  0.995850  0.174188  1
  Sb  Sb29  1  0.405057  0.750000  0.959476  1
  Sb  Sb30  1  0.905787  0.750000  0.540223  1
  Sb  Sb31  1  0.594940  0.250000  0.040714  1
