# generated using pymatgen
data_LuScTe2(O3F)2
_symmetry_space_group_name_H-M   'P 1'
_cell_length_a   5.70171300
_cell_length_b   6.00791300
_cell_length_c   22.58871400
_cell_angle_alpha   90.00000000
_cell_angle_beta   90.00000000
_cell_angle_gamma   90.00000000
_symmetry_Int_Tables_number   1
_chemical_formula_structural   LuScTe2(O3F)2
_chemical_formula_sum   'Lu4 Sc4 Te8 O24 F8'
_cell_volume   773.78533541
_cell_formula_units_Z   4
loop_
 _symmetry_equiv_pos_site_id
 _symmetry_equiv_pos_as_xyz
  1  'x, y, z'
loop_
 _atom_site_type_symbol
 _atom_site_label
 _atom_site_symmetry_multiplicity
 _atom_site_fract_x
 _atom_site_fract_y
 _atom_site_fract_z
 _atom_site_occupancy
  Lu  Lu0  1  0.750000  0.430755  0.250000  1
  Lu  Lu1  1  0.750000  0.069245  0.750000  1
  Lu  Lu2  1  0.250000  0.569245  0.750000  1
  Lu  Lu3  1  0.250000  0.930755  0.250000  1
  Sc  Sc4  1  0.670841  0.250000  0.500000  1
  Sc  Sc5  1  0.329159  0.750000  0.500000  1
  Sc  Sc6  1  0.829159  0.250000  0.000000  1
  Sc  Sc7  1  0.170841  0.750000  0.000000  1
  Te  Te8  1  0.684721  0.702628  0.103856  1
  Te  Te9  1  0.684721  0.797372  0.896144  1
  Te  Te10  1  0.815279  0.702628  0.396144  1
  Te  Te11  1  0.815279  0.797372  0.603856  1
  Te  Te12  1  0.315279  0.297372  0.896144  1
  Te  Te13  1  0.315279  0.202628  0.103856  1
  Te  Te14  1  0.184721  0.297372  0.603856  1
  Te  Te15  1  0.184721  0.202628  0.396144  1
  O  O16  1  0.637754  0.462712  0.157987  1
  O  O17  1  0.637754  0.037288  0.842013  1
  O  O18  1  0.862246  0.462712  0.342013  1
  O  O19  1  0.862246  0.037288  0.657987  1
  O  O20  1  0.362246  0.537288  0.842013  1
  O  O21  1  0.362246  0.962712  0.157987  1
  O  O22  1  0.137754  0.537288  0.657987  1
  O  O23  1  0.137754  0.962712  0.342013  1
  O  O24  1  0.415961  0.635038  0.058556  1
  O  O25  1  0.415961  0.864962  0.941444  1
  O  O26  1  0.084039  0.635038  0.441444  1
  O  O27  1  0.084039  0.864962  0.558556  1
  O  O28  1  0.584039  0.364962  0.941444  1
  O  O29  1  0.584039  0.135038  0.058556  1
  O  O30  1  0.915961  0.364962  0.558556  1
  O  O31  1  0.398220  0.054882  0.451245  1
  O  O32  1  0.898220  0.554882  0.048755  1
  O  O33  1  0.898220  0.945118  0.951245  1
  O  O34  1  0.601780  0.554882  0.451245  1
  O  O35  1  0.601780  0.945118  0.548755  1
  O  O36  1  0.101780  0.445118  0.951245  1
  O  O37  1  0.101780  0.054882  0.048755  1
  O  O38  1  0.398220  0.445118  0.548755  1
  O  O39  1  0.915961  0.135038  0.441444  1
  F  F40  1  0.496154  0.187560  0.271977  1
  F  F41  1  0.996154  0.812440  0.771977  1
  F  F42  1  0.503846  0.687560  0.271977  1
  F  F43  1  0.503846  0.812440  0.728023  1
  F  F44  1  0.003846  0.312440  0.771977  1
  F  F45  1  0.003846  0.187560  0.228023  1
  F  F46  1  0.496154  0.312440  0.728023  1
  F  F47  1  0.996154  0.687560  0.228023  1
