# generated using pymatgen
data_Sm8Er9Sc3Si15Tc
_symmetry_space_group_name_H-M   'P 1'
_cell_length_a   7.32864302
_cell_length_b   7.74333530
_cell_length_c   14.47927700
_cell_angle_alpha   90.00000000
_cell_angle_beta   90.00000000
_cell_angle_gamma   90.20643850
_symmetry_Int_Tables_number   1
_chemical_formula_structural   Sm8Er9Sc3Si15Tc
_chemical_formula_sum   'Sm8 Er9 Sc3 Si15 Tc1'
_cell_volume   821.66670771
_cell_formula_units_Z   1
loop_
 _symmetry_equiv_pos_site_id
 _symmetry_equiv_pos_as_xyz
  1  'x, y, z'
loop_
 _atom_site_type_symbol
 _atom_site_label
 _atom_site_symmetry_multiplicity
 _atom_site_fract_x
 _atom_site_fract_y
 _atom_site_fract_z
 _atom_site_occupancy
  Sm  Sm0  1  0.020642  0.182226  0.097112  1
  Sm  Sm1  1  0.983684  0.826344  0.901697  1
  Sm  Sm2  1  0.482107  0.678535  0.902533  1
  Sm  Sm3  1  0.983684  0.826344  0.598303  1
  Sm  Sm4  1  0.517416  0.319442  0.096609  1
  Sm  Sm5  1  0.020642  0.182226  0.402888  1
  Sm  Sm6  1  0.517416  0.319442  0.403391  1
  Sm  Sm7  1  0.482107  0.678535  0.597467  1
  Er  Er8  1  0.845715  0.488303  0.250000  1
  Er  Er9  1  0.310072  0.173352  0.628462  1
  Er  Er10  1  0.678084  0.826805  0.375068  1
  Er  Er11  1  0.179761  0.680023  0.375501  1
  Er  Er12  1  0.678084  0.826805  0.124932  1
  Er  Er13  1  0.830734  0.315912  0.628202  1
  Er  Er14  1  0.310072  0.173352  0.871538  1
  Er  Er15  1  0.830734  0.315912  0.871798  1
  Er  Er16  1  0.179761  0.680023  0.124499  1
  Sc  Sc17  1  0.151635  0.507482  0.750000  1
  Sc  Sc18  1  0.342938  0.015869  0.250000  1
  Sc  Sc19  1  0.664653  0.988447  0.750000  1
  Si  Si20  1  0.978516  0.894774  0.250000  1
  Si  Si21  1  0.476289  0.607598  0.250000  1
  Si  Si22  1  0.518928  0.398558  0.750000  1
  Si  Si23  1  0.280026  0.864185  0.750000  1
  Si  Si24  1  0.716600  0.128248  0.250000  1
  Si  Si25  1  0.226656  0.367744  0.250000  1
  Si  Si26  1  0.773756  0.627806  0.750000  1
  Si  Si27  1  0.152665  0.472592  0.539843  1
  Si  Si28  1  0.850609  0.533579  0.462730  1
  Si  Si29  1  0.349783  0.969108  0.460242  1
  Si  Si30  1  0.850609  0.533579  0.037270  1
  Si  Si31  1  0.646812  0.030844  0.540723  1
  Si  Si32  1  0.152665  0.472592  0.960157  1
  Si  Si33  1  0.646812  0.030844  0.959277  1
  Si  Si34  1  0.349783  0.969108  0.039758  1
  Tc  Tc35  1  0.019549  0.093455  0.750000  1
