# generated using pymatgen
data_TbPr6TmO12
_symmetry_space_group_name_H-M   'P 1'
_cell_length_a   6.99753078
_cell_length_b   6.99753078
_cell_length_c   6.99753200
_cell_angle_alpha   91.99177997
_cell_angle_beta   91.99178817
_cell_angle_gamma   91.99177910
_symmetry_Int_Tables_number   1
_chemical_formula_structural   TbPr6TmO12
_chemical_formula_sum   'Tb1 Pr6 Tm1 O12'
_cell_volume   342.00138310
_cell_formula_units_Z   1
loop_
 _symmetry_equiv_pos_site_id
 _symmetry_equiv_pos_as_xyz
  1  'x, y, z'
loop_
 _atom_site_type_symbol
 _atom_site_label
 _atom_site_symmetry_multiplicity
 _atom_site_fract_x
 _atom_site_fract_y
 _atom_site_fract_z
 _atom_site_occupancy
  Tb  Tb0  1  0.000000  0.000000  0.000000  1
  Pr  Pr1  1  0.746053  0.935485  0.442857  1
  Pr  Pr2  1  0.442857  0.746053  0.935485  1
  Pr  Pr3  1  0.064515  0.557143  0.253947  1
  Pr  Pr4  1  0.935485  0.442857  0.746053  1
  Pr  Pr5  1  0.557143  0.253947  0.064515  1
  Pr  Pr6  1  0.253947  0.064515  0.557143  1
  Tm  Tm7  1  0.500000  0.500000  0.500000  1
  O  O8  1  0.066144  0.908937  0.309356  1
  O  O9  1  0.690644  0.933856  0.091063  1
  O  O10  1  0.466165  0.805738  0.594661  1
  O  O11  1  0.091063  0.690644  0.933856  1
  O  O12  1  0.805738  0.594661  0.466165  1
  O  O13  1  0.405339  0.533835  0.194262  1
  O  O14  1  0.594661  0.466165  0.805738  1
  O  O15  1  0.194262  0.405339  0.533835  1
  O  O16  1  0.908937  0.309356  0.066144  1
  O  O17  1  0.533835  0.194262  0.405339  1
  O  O18  1  0.309356  0.066144  0.908937  1
  O  O19  1  0.933856  0.091063  0.690644  1
