# generated using pymatgen
data_Pr8Zn2CuSi12Au
_symmetry_space_group_name_H-M   'P 1'
_cell_length_a   8.20158700
_cell_length_b   8.20158802
_cell_length_c   8.71374600
_cell_angle_alpha   90.00000000
_cell_angle_beta   90.00000000
_cell_angle_gamma   120.00000800
_symmetry_Int_Tables_number   1
_chemical_formula_structural   Pr8Zn2CuSi12Au
_chemical_formula_sum   'Pr8 Zn2 Cu1 Si12 Au1'
_cell_volume   507.61136739
_cell_formula_units_Z   1
loop_
 _symmetry_equiv_pos_site_id
 _symmetry_equiv_pos_as_xyz
  1  'x, y, z'
loop_
 _atom_site_type_symbol
 _atom_site_label
 _atom_site_symmetry_multiplicity
 _atom_site_fract_x
 _atom_site_fract_y
 _atom_site_fract_z
 _atom_site_occupancy
  Pr  Pr0  1  0.499114  0.500886  0.752559  1
  Pr  Pr1  1  0.499401  0.500599  0.247423  1
  Pr  Pr2  1  0.001772  0.500886  0.752559  1
  Pr  Pr3  1  0.001197  0.500599  0.247423  1
  Pr  Pr4  1  0.499114  0.998228  0.752559  1
  Pr  Pr5  1  0.499401  0.998803  0.247423  1
  Pr  Pr6  1  0.000000  0.000000  0.751933  1
  Pr  Pr7  1  0.000000  0.000000  0.248113  1
  Zn  Zn8  1  0.333333  0.666667  0.001444  1
  Zn  Zn9  1  0.333333  0.666667  0.499422  1
  Cu  Cu10  1  0.666667  0.333333  0.998570  1
  Si  Si11  1  0.829284  0.170716  0.000446  1
  Si  Si12  1  0.164416  0.835584  0.999557  1
  Si  Si13  1  0.341432  0.170716  0.000446  1
  Si  Si14  1  0.165569  0.834431  0.499672  1
  Si  Si15  1  0.671168  0.835584  0.999557  1
  Si  Si16  1  0.835981  0.164019  0.500467  1
  Si  Si17  1  0.829284  0.658568  0.000446  1
  Si  Si18  1  0.668863  0.834431  0.499672  1
  Si  Si19  1  0.164416  0.328832  0.999557  1
  Si  Si20  1  0.328038  0.164019  0.500467  1
  Si  Si21  1  0.165569  0.331137  0.499672  1
  Si  Si22  1  0.835981  0.671962  0.500467  1
  Au  Au23  1  0.666667  0.333333  0.500150  1
