# generated using pymatgen
data_Dy4Ga4IrPt3
_symmetry_space_group_name_H-M   'P 1'
_cell_length_a   4.44501800
_cell_length_b   6.86617164
_cell_length_c   7.69781275
_cell_angle_alpha   90.49600166
_cell_angle_beta   90.00000000
_cell_angle_gamma   90.00000000
_symmetry_Int_Tables_number   1
_chemical_formula_structural   Dy4Ga4IrPt3
_chemical_formula_sum   'Dy4 Ga4 Ir1 Pt3'
_cell_volume   234.93041666
_cell_formula_units_Z   1
loop_
 _symmetry_equiv_pos_site_id
 _symmetry_equiv_pos_as_xyz
  1  'x, y, z'
loop_
 _atom_site_type_symbol
 _atom_site_label
 _atom_site_symmetry_multiplicity
 _atom_site_fract_x
 _atom_site_fract_y
 _atom_site_fract_z
 _atom_site_occupancy
  Dy  Dy0  1  0.250000  0.983104  0.303819  1
  Dy  Dy1  1  0.250000  0.479089  0.193454  1
  Dy  Dy2  1  0.750000  0.017203  0.699383  1
  Dy  Dy3  1  0.750000  0.513188  0.803555  1
  Ga  Ga4  1  0.250000  0.325714  0.575453  1
  Ga  Ga5  1  0.250000  0.834396  0.926099  1
  Ga  Ga6  1  0.750000  0.672493  0.426775  1
  Ga  Ga7  1  0.750000  0.173074  0.072299  1
  Ir  Ir8  1  0.250000  0.225896  0.899401  1
  Pt  Pt9  1  0.250000  0.722363  0.599424  1
  Pt  Pt10  1  0.750000  0.776554  0.100430  1
  Pt  Pt11  1  0.750000  0.276927  0.399907  1
