# generated using pymatgen
data_Dy2Ni5Sn(BIr)2
_symmetry_space_group_name_H-M   'P 1'
_cell_length_a   5.07438700
_cell_length_b   5.34243928
_cell_length_c   7.09962000
_cell_angle_alpha   90.00000000
_cell_angle_beta   90.00000000
_cell_angle_gamma   118.35367508
_symmetry_Int_Tables_number   1
_chemical_formula_structural   Dy2Ni5Sn(BIr)2
_chemical_formula_sum   'Dy2 Ni5 Sn1 B2 Ir2'
_cell_volume   169.37806324
_cell_formula_units_Z   1
loop_
 _symmetry_equiv_pos_site_id
 _symmetry_equiv_pos_as_xyz
  1  'x, y, z'
loop_
 _atom_site_type_symbol
 _atom_site_label
 _atom_site_symmetry_multiplicity
 _atom_site_fract_x
 _atom_site_fract_y
 _atom_site_fract_z
 _atom_site_occupancy
  Dy  Dy0  1  0.487989  0.975979  0.000000  1
  Dy  Dy1  1  0.501667  0.003334  0.500000  1
  Ni  Ni2  1  0.179874  0.359749  0.000000  1
  Ni  Ni3  1  0.498932  0.504361  0.691865  1
  Ni  Ni4  1  0.005429  0.504361  0.691865  1
  Ni  Ni5  1  0.498932  0.504361  0.308135  1
  Ni  Ni6  1  0.005429  0.504361  0.308135  1
  Sn  Sn7  1  0.806158  0.612316  0.000000  1
  B  B8  1  0.839898  0.679794  0.500000  1
  B  B9  1  0.166506  0.333014  0.500000  1
  Ir  Ir10  1  0.004593  0.009185  0.713870  1
  Ir  Ir11  1  0.004593  0.009185  0.286130  1
