# generated using pymatgen
data_Nd12Ga3BiI12
_symmetry_space_group_name_H-M   'P 1'
_cell_length_a   10.95955571
_cell_length_b   10.95955641
_cell_length_c   10.95955600
_cell_angle_alpha   109.72666466
_cell_angle_beta   109.72667152
_cell_angle_gamma   109.72666506
_symmetry_Int_Tables_number   1
_chemical_formula_structural   Nd12Ga3BiI12
_chemical_formula_sum   'Nd12 Ga3 Bi1 I12'
_cell_volume   1003.64599467
_cell_formula_units_Z   1
loop_
 _symmetry_equiv_pos_site_id
 _symmetry_equiv_pos_as_xyz
  1  'x, y, z'
loop_
 _atom_site_type_symbol
 _atom_site_label
 _atom_site_symmetry_multiplicity
 _atom_site_fract_x
 _atom_site_fract_y
 _atom_site_fract_z
 _atom_site_occupancy
  Nd  Nd0  1  0.750000  0.233902  0.266098  1
  Nd  Nd1  1  0.485842  0.750000  0.014158  1
  Nd  Nd2  1  0.022613  0.269037  0.999239  1
  Nd  Nd3  1  0.269037  0.999239  0.022613  1
  Nd  Nd4  1  0.233902  0.266098  0.750000  1
  Nd  Nd5  1  0.266098  0.750000  0.233902  1
  Nd  Nd6  1  0.230963  0.477387  0.500761  1
  Nd  Nd7  1  0.477387  0.500761  0.230963  1
  Nd  Nd8  1  0.750000  0.014158  0.485842  1
  Nd  Nd9  1  0.500761  0.230963  0.477387  1
  Nd  Nd10  1  0.999239  0.022613  0.269037  1
  Nd  Nd11  1  0.014158  0.485842  0.750000  1
  Ga  Ga12  1  0.999531  0.250000  0.500469  1
  Ga  Ga13  1  0.250000  0.500469  0.999531  1
  Ga  Ga14  1  0.500469  0.999531  0.250000  1
  Bi  Bi15  1  0.250000  0.250000  0.250000  1
  I  I16  1  0.758804  0.741196  0.250000  1
  I  I17  1  0.505777  0.250000  0.994223  1
  I  I18  1  0.250000  0.994223  0.505777  1
  I  I19  1  0.514418  0.506419  0.756992  1
  I  I20  1  0.506419  0.756992  0.514418  1
  I  I21  1  0.756992  0.514418  0.506419  1
  I  I22  1  0.741196  0.250000  0.758804  1
  I  I23  1  0.250000  0.758804  0.741196  1
  I  I24  1  0.985582  0.743008  0.993581  1
  I  I25  1  0.994223  0.505777  0.250000  1
  I  I26  1  0.993581  0.985582  0.743008  1
  I  I27  1  0.743008  0.993581  0.985582  1
