# generated using pymatgen
data_Li3Sm2YSi2Ag
_symmetry_space_group_name_H-M   'P 1'
_cell_length_a   7.26351878
_cell_length_b   7.26351862
_cell_length_c   4.21472700
_cell_angle_alpha   90.00000000
_cell_angle_beta   90.00000000
_cell_angle_gamma   119.50131829
_symmetry_Int_Tables_number   1
_chemical_formula_structural   Li3Sm2YSi2Ag
_chemical_formula_sum   'Li3 Sm2 Y1 Si2 Ag1'
_cell_volume   193.53284884
_cell_formula_units_Z   1
loop_
 _symmetry_equiv_pos_site_id
 _symmetry_equiv_pos_as_xyz
  1  'x, y, z'
loop_
 _atom_site_type_symbol
 _atom_site_label
 _atom_site_symmetry_multiplicity
 _atom_site_fract_x
 _atom_site_fract_y
 _atom_site_fract_z
 _atom_site_occupancy
  Li  Li0  1  0.246941  0.001392  0.500000  1
  Li  Li1  1  0.752257  0.752257  0.500000  1
  Li  Li2  1  0.001392  0.246941  0.500000  1
  Sm  Sm3  1  0.999907  0.572162  0.000000  1
  Sm  Sm4  1  0.572162  0.999907  0.000000  1
  Y  Y5  1  0.428013  0.428013  0.000000  1
  Si  Si6  1  0.334344  0.663528  0.500000  1
  Si  Si7  1  0.663528  0.334344  0.500000  1
  Ag  Ag8  1  0.001457  0.001457  0.000000  1
