# generated using pymatgen
data_Tb5In4CoPt
_symmetry_space_group_name_H-M   'P 1'
_cell_length_a   3.64660400
_cell_length_b   8.09522508
_cell_length_c   18.18765424
_cell_angle_alpha   89.98254375
_cell_angle_beta   90.00000000
_cell_angle_gamma   90.00000000
_symmetry_Int_Tables_number   1
_chemical_formula_structural   Tb5In4CoPt
_chemical_formula_sum   'Tb10 In8 Co2 Pt2'
_cell_volume   536.90098625
_cell_formula_units_Z   2
loop_
 _symmetry_equiv_pos_site_id
 _symmetry_equiv_pos_as_xyz
  1  'x, y, z'
loop_
 _atom_site_type_symbol
 _atom_site_label
 _atom_site_symmetry_multiplicity
 _atom_site_fract_x
 _atom_site_fract_y
 _atom_site_fract_z
 _atom_site_occupancy
  Tb  Tb0  1  0.000000  0.112742  0.409594  1
  Tb  Tb1  1  0.000000  0.887258  0.590406  1
  Tb  Tb2  1  0.000000  0.381837  0.913050  1
  Tb  Tb3  1  0.000000  0.618163  0.086950  1
  Tb  Tb4  1  0.000000  0.233716  0.223753  1
  Tb  Tb5  1  0.000000  0.766284  0.776247  1
  Tb  Tb6  1  0.000000  0.243756  0.719772  1
  Tb  Tb7  1  0.000000  0.756244  0.280228  1
  Tb  Tb8  1  0.000000  0.000000  0.000000  1
  Tb  Tb9  1  0.000000  0.500000  0.500000  1
  In  In10  1  0.500000  0.424332  0.351101  1
  In  In11  1  0.500000  0.575668  0.648899  1
  In  In12  1  0.500000  0.069800  0.847592  1
  In  In13  1  0.500000  0.930200  0.152408  1
  In  In14  1  0.500000  0.291324  0.067868  1
  In  In15  1  0.500000  0.708676  0.932132  1
  In  In16  1  0.500000  0.204895  0.568584  1
  In  In17  1  0.500000  0.795105  0.431416  1
  Co  Co18  1  0.500000  0.018545  0.305361  1
  Co  Co19  1  0.500000  0.981455  0.694639  1
  Pt  Pt20  1  0.500000  0.478631  0.802883  1
  Pt  Pt21  1  0.500000  0.521369  0.197117  1
