# generated using pymatgen
data_Sr6LuCr(BO3)6
_symmetry_space_group_name_H-M   'P 1'
_cell_length_a   7.74305817
_cell_length_b   7.74305714
_cell_length_c   7.74305690
_cell_angle_alpha   105.30741378
_cell_angle_beta   105.30741278
_cell_angle_gamma   105.30741924
_symmetry_Int_Tables_number   1
_chemical_formula_structural   Sr6LuCr(BO3)6
_chemical_formula_sum   'Sr6 Lu1 Cr1 B6 O18'
_cell_volume   403.14077928
_cell_formula_units_Z   1
loop_
 _symmetry_equiv_pos_site_id
 _symmetry_equiv_pos_as_xyz
  1  'x, y, z'
loop_
 _atom_site_type_symbol
 _atom_site_label
 _atom_site_symmetry_multiplicity
 _atom_site_fract_x
 _atom_site_fract_y
 _atom_site_fract_z
 _atom_site_occupancy
  Sr  Sr0  1  0.349039  0.732810  0.837277  1
  Sr  Sr1  1  0.837277  0.349039  0.732810  1
  Sr  Sr2  1  0.732810  0.837277  0.349039  1
  Sr  Sr3  1  0.650961  0.267190  0.162723  1
  Sr  Sr4  1  0.162723  0.650961  0.267190  1
  Sr  Sr5  1  0.267190  0.162723  0.650961  1
  Lu  Lu6  1  0.000000  0.000000  0.000000  1
  Cr  Cr7  1  0.500000  0.500000  0.500000  1
  B  B8  1  0.707397  0.621604  0.951393  1
  B  B9  1  0.951393  0.707397  0.621604  1
  B  B10  1  0.621604  0.951393  0.707397  1
  B  B11  1  0.048607  0.292603  0.378396  1
  B  B12  1  0.378396  0.048607  0.292603  1
  B  B13  1  0.292603  0.378396  0.048607  1
  O  O14  1  0.067458  0.805354  0.545506  1
  O  O15  1  0.545506  0.067458  0.805354  1
  O  O16  1  0.429814  0.500759  0.228598  1
  O  O17  1  0.500759  0.228598  0.429814  1
  O  O18  1  0.228598  0.429814  0.500759  1
  O  O19  1  0.771402  0.570186  0.499241  1
  O  O20  1  0.570186  0.499241  0.771402  1
  O  O21  1  0.499241  0.771402  0.570186  1
  O  O22  1  0.266951  0.184057  0.985796  1
  O  O23  1  0.184057  0.985796  0.266951  1
  O  O24  1  0.985796  0.266951  0.184057  1
  O  O25  1  0.733049  0.815943  0.014204  1
  O  O26  1  0.815943  0.014204  0.733049  1
  O  O27  1  0.014204  0.733049  0.815943  1
  O  O28  1  0.194646  0.454494  0.932542  1
  O  O29  1  0.454494  0.932542  0.194646  1
  O  O30  1  0.932542  0.194646  0.454494  1
  O  O31  1  0.805354  0.545506  0.067458  1
