# generated using pymatgen
data_Tb3Dy9InCo4Cu
_symmetry_space_group_name_H-M   'P 1'
_cell_length_a   8.32639391
_cell_length_b   8.32275099
_cell_length_c   8.32275174
_cell_angle_alpha   111.05766045
_cell_angle_beta   110.65038086
_cell_angle_gamma   106.72317330
_symmetry_Int_Tables_number   1
_chemical_formula_structural   Tb3Dy9InCo4Cu
_chemical_formula_sum   'Tb3 Dy9 In1 Co4 Cu1'
_cell_volume   443.31477485
_cell_formula_units_Z   1
loop_
 _symmetry_equiv_pos_site_id
 _symmetry_equiv_pos_as_xyz
  1  'x, y, z'
loop_
 _atom_site_type_symbol
 _atom_site_label
 _atom_site_symmetry_multiplicity
 _atom_site_fract_x
 _atom_site_fract_y
 _atom_site_fract_z
 _atom_site_occupancy
  Tb  Tb0  1  0.416702  0.218012  0.198691  1
  Tb  Tb1  1  0.583430  0.781847  0.801582  1
  Tb  Tb2  1  0.019519  0.218168  0.801351  1
  Dy  Dy3  1  0.980759  0.781889  0.198870  1
  Dy  Dy4  1  0.184479  0.290325  0.475104  1
  Dy  Dy5  1  0.815292  0.709361  0.524404  1
  Dy  Dy6  1  0.184479  0.709376  0.894153  1
  Dy  Dy7  1  0.815292  0.290887  0.105931  1
  Dy  Dy8  1  0.316707  0.622816  0.305726  1
  Dy  Dy9  1  0.683441  0.377550  0.694413  1
  Dy  Dy10  1  0.316707  0.010981  0.693892  1
  Dy  Dy11  1  0.683441  0.989028  0.305890  1
  In  In12  1  0.500329  0.500243  0.000086  1
  Co  Co13  1  0.374333  0.999830  0.374503  1
  Co  Co14  1  0.625384  0.000093  0.625291  1
  Co  Co15  1  0.111900  0.612290  0.499610  1
  Co  Co16  1  0.887752  0.387677  0.500075  1
  Cu  Cu17  1  0.000055  0.999627  0.000428  1
