# generated using pymatgen
data_Dy6Co14Re(P4Rh)3
_symmetry_space_group_name_H-M   'P 1'
_cell_length_a   3.71973400
_cell_length_b   10.65385700
_cell_length_c   12.35413100
_cell_angle_alpha   90.00000000
_cell_angle_beta   90.00000000
_cell_angle_gamma   90.00000000
_symmetry_Int_Tables_number   1
_chemical_formula_structural   Dy6Co14Re(P4Rh)3
_chemical_formula_sum   'Dy6 Co14 Re1 P12 Rh3'
_cell_volume   489.58820883
_cell_formula_units_Z   1
loop_
 _symmetry_equiv_pos_site_id
 _symmetry_equiv_pos_as_xyz
  1  'x, y, z'
loop_
 _atom_site_type_symbol
 _atom_site_label
 _atom_site_symmetry_multiplicity
 _atom_site_fract_x
 _atom_site_fract_y
 _atom_site_fract_z
 _atom_site_occupancy
  Dy  Dy0  1  0.000000  0.500000  0.519659  1
  Dy  Dy1  1  0.500000  0.000000  0.479567  1
  Dy  Dy2  1  0.500000  0.813981  0.205811  1
  Dy  Dy3  1  0.500000  0.186019  0.205811  1
  Dy  Dy4  1  0.000000  0.685349  0.795760  1
  Dy  Dy5  1  0.000000  0.314651  0.795760  1
  Co  Co6  1  0.000000  0.500000  0.990304  1
  Co  Co7  1  0.500000  0.000000  0.012187  1
  Co  Co8  1  0.500000  0.333300  0.993245  1
  Co  Co9  1  0.500000  0.666700  0.993245  1
  Co  Co10  1  0.000000  0.169531  0.007645  1
  Co  Co11  1  0.000000  0.830469  0.007645  1
  Co  Co12  1  0.500000  0.299439  0.429241  1
  Co  Co13  1  0.500000  0.700561  0.429241  1
  Co  Co14  1  0.000000  0.201004  0.569555  1
  Co  Co15  1  0.000000  0.798996  0.569555  1
  Co  Co16  1  0.500000  0.879943  0.709656  1
  Co  Co17  1  0.500000  0.120057  0.709656  1
  Co  Co18  1  0.000000  0.618758  0.289900  1
  Co  Co19  1  0.000000  0.381242  0.289900  1
  Re  Re20  1  0.500000  0.500000  0.156975  1
  P  P21  1  0.500000  0.500000  0.888412  1
  P  P22  1  0.000000  0.000000  0.109833  1
  P  P23  1  0.500000  0.500000  0.348438  1
  P  P24  1  0.000000  0.000000  0.649901  1
  P  P25  1  0.500000  0.302787  0.613552  1
  P  P26  1  0.500000  0.697213  0.613552  1
  P  P27  1  0.000000  0.197429  0.386276  1
  P  P28  1  0.000000  0.802571  0.386276  1
  P  P29  1  0.500000  0.844974  0.894691  1
  P  P30  1  0.500000  0.155026  0.894691  1
  P  P31  1  0.000000  0.654536  0.107416  1
  P  P32  1  0.000000  0.345464  0.107416  1
  Rh  Rh33  1  0.000000  0.000000  0.840010  1
  Rh  Rh34  1  0.500000  0.500000  0.702470  1
  Rh  Rh35  1  0.000000  0.000000  0.296749  1
