# generated using pymatgen
data_Y4Ho2Tm6InCo5
_symmetry_space_group_name_H-M   'P 1'
_cell_length_a   8.21698818
_cell_length_b   8.21890261
_cell_length_c   8.21887919
_cell_angle_alpha   110.57770999
_cell_angle_beta   110.86324361
_cell_angle_gamma   107.00975365
_symmetry_Int_Tables_number   1
_chemical_formula_structural   Y4Ho2Tm6InCo5
_chemical_formula_sum   'Y4 Ho2 Tm6 In1 Co5'
_cell_volume   426.64380501
_cell_formula_units_Z   1
loop_
 _symmetry_equiv_pos_site_id
 _symmetry_equiv_pos_as_xyz
  1  'x, y, z'
loop_
 _atom_site_type_symbol
 _atom_site_label
 _atom_site_symmetry_multiplicity
 _atom_site_fract_x
 _atom_site_fract_y
 _atom_site_fract_z
 _atom_site_occupancy
  Y  Y0  1  0.811300  0.708445  0.520781  1
  Y  Y1  1  0.188700  0.291555  0.479219  1
  Y  Y2  1  0.188697  0.709481  0.897144  1
  Y  Y3  1  0.811303  0.290519  0.102856  1
  Ho  Ho4  1  0.981553  0.790282  0.191272  1
  Ho  Ho5  1  0.018447  0.209718  0.808728  1
  Tm  Tm6  1  0.684889  0.378656  0.692173  1
  Tm  Tm7  1  0.315111  0.621344  0.307827  1
  Tm  Tm8  1  0.684888  0.992715  0.306232  1
  Tm  Tm9  1  0.315112  0.007285  0.693768  1
  Tm  Tm10  1  0.598161  0.790013  0.808148  1
  Tm  Tm11  1  0.401839  0.209987  0.191852  1
  In  In12  1  0.500000  0.500000  0.000000  1
  Co  Co13  1  0.620678  0.999547  0.621128  1
  Co  Co14  1  0.379322  0.000453  0.378872  1
  Co  Co15  1  0.113619  0.613018  0.500602  1
  Co  Co16  1  0.886381  0.386982  0.499398  1
  Co  Co17  1  0.000000  0.000000  0.000000  1
