# generated using pymatgen
data_Sc6Ti2Ga15Rh7
_symmetry_space_group_name_H-M   'P 1'
_cell_length_a   8.84511695
_cell_length_b   8.84511586
_cell_length_c   8.84609081
_cell_angle_alpha   120.30256624
_cell_angle_beta   119.64437451
_cell_angle_gamma   90.04059881
_symmetry_Int_Tables_number   1
_chemical_formula_structural   Sc6Ti2Ga15Rh7
_chemical_formula_sum   'Sc6 Ti2 Ga15 Rh7'
_cell_volume   489.57977096
_cell_formula_units_Z   1
loop_
 _symmetry_equiv_pos_site_id
 _symmetry_equiv_pos_as_xyz
  1  'x, y, z'
loop_
 _atom_site_type_symbol
 _atom_site_label
 _atom_site_symmetry_multiplicity
 _atom_site_fract_x
 _atom_site_fract_y
 _atom_site_fract_z
 _atom_site_occupancy
  Sc  Sc0  1  0.790295  0.279619  0.059766  1
  Sc  Sc1  1  0.219910  0.279673  0.489344  1
  Sc  Sc2  1  0.210847  0.710847  0.500000  1
  Sc  Sc3  1  0.219853  0.730528  0.940234  1
  Sc  Sc4  1  0.790330  0.730566  0.510656  1
  Sc  Sc5  1  0.770536  0.270536  0.500000  1
  Ti  Ti6  1  0.378332  0.126804  0.748430  1
  Ti  Ti7  1  0.378373  0.629901  0.251570  1
  Ga  Ga8  1  0.990835  0.490835  0.500000  1
  Ga  Ga9  1  0.156680  0.347326  0.190630  1
  Ga  Ga10  1  0.156695  0.966049  0.809370  1
  Ga  Ga11  1  0.152073  0.349707  0.802314  1
  Ga  Ga12  1  0.547392  0.349759  0.197686  1
  Ga  Ga13  1  0.845475  0.650118  0.804605  1
  Ga  Ga14  1  0.845514  0.040870  0.195395  1
  Ga  Ga15  1  0.843008  0.653411  0.189577  1
  Ga  Ga16  1  0.463833  0.653431  0.810423  1
  Ga  Ga17  1  0.376577  0.126488  0.250065  1
  Ga  Ga18  1  0.876422  0.126512  0.749935  1
  Ga  Ga19  1  0.619532  0.868114  0.248574  1
  Ga  Ga20  1  0.619540  0.370958  0.751426  1
  Ga  Ga21  1  0.614032  0.874341  0.739688  1
  Ga  Ga22  1  0.134652  0.874344  0.260312  1
  Rh  Rh23  1  0.004976  0.002178  0.503542  1
  Rh  Rh24  1  0.498703  0.002227  0.997241  1
  Rh  Rh25  1  0.495107  0.495107  0.000000  1
  Rh  Rh26  1  0.498636  0.501434  0.496458  1
  Rh  Rh27  1  0.004986  0.501462  0.002759  1
  Rh  Rh28  1  0.999256  0.999256  0.000000  1
  Rh  Rh29  1  0.497597  0.997597  0.500000  1
