# generated using pymatgen
data_Pr3Ho3Pu2O14
_symmetry_space_group_name_H-M   'P 1'
_cell_length_a   6.66581608
_cell_length_b   6.68152702
_cell_length_c   7.83568100
_cell_angle_alpha   106.95675281
_cell_angle_beta   89.86290222
_cell_angle_gamma   99.04885493
_symmetry_Int_Tables_number   1
_chemical_formula_structural   Pr3Ho3Pu2O14
_chemical_formula_sum   'Pr3 Ho3 Pu2 O14'
_cell_volume   329.30841718
_cell_formula_units_Z   1
loop_
 _symmetry_equiv_pos_site_id
 _symmetry_equiv_pos_as_xyz
  1  'x, y, z'
loop_
 _atom_site_type_symbol
 _atom_site_label
 _atom_site_symmetry_multiplicity
 _atom_site_fract_x
 _atom_site_fract_y
 _atom_site_fract_z
 _atom_site_occupancy
  Pr  Pr0  1  0.725852  0.458933  0.115252  1
  Pr  Pr1  1  0.742230  0.482244  0.616892  1
  Pr  Pr2  1  0.255536  0.519543  0.388721  1
  Ho  Ho3  1  0.460156  0.005423  0.255140  1
  Ho  Ho4  1  0.537579  0.992427  0.744275  1
  Ho  Ho5  1  0.275213  0.542382  0.881747  1
  Pu  Pu6  1  0.002028  0.002924  0.502331  1
  Pu  Pu7  1  0.004259  0.999776  0.998049  1
  O  O8  1  0.437932  0.654861  0.159600  1
  O  O9  1  0.539027  0.342128  0.830812  1
  O  O10  1  0.300878  0.926529  0.949767  1
  O  O11  1  0.705233  0.068767  0.051657  1
  O  O12  1  0.298435  0.927985  0.514672  1
  O  O13  1  0.705095  0.071207  0.484012  1
  O  O14  1  0.543186  0.355179  0.343058  1
  O  O15  1  0.450807  0.645289  0.666594  1
  O  O16  1  0.936029  0.677059  0.954271  1
  O  O17  1  0.077403  0.318607  0.030830  1
  O  O18  1  0.072883  0.351708  0.626355  1
  O  O19  1  0.930750  0.653498  0.384784  1
  O  O20  1  0.868631  0.913482  0.724834  1
  O  O21  1  0.130859  0.090046  0.276348  1
