# generated using pymatgen
data_Ta12Al8AgRu3C4
_symmetry_space_group_name_H-M   'P 1'
_cell_length_a   8.35436589
_cell_length_b   8.35436545
_cell_length_c   8.31140925
_cell_angle_alpha   59.82888098
_cell_angle_beta   59.82887991
_cell_angle_gamma   59.99999335
_symmetry_Int_Tables_number   1
_chemical_formula_structural   Ta12Al8AgRu3C4
_chemical_formula_sum   'Ta12 Al8 Ag1 Ru3 C4'
_cell_volume   409.12730244
_cell_formula_units_Z   1
loop_
 _symmetry_equiv_pos_site_id
 _symmetry_equiv_pos_as_xyz
  1  'x, y, z'
loop_
 _atom_site_type_symbol
 _atom_site_label
 _atom_site_symmetry_multiplicity
 _atom_site_fract_x
 _atom_site_fract_y
 _atom_site_fract_z
 _atom_site_occupancy
  Ta  Ta0  1  0.570504  0.935295  0.558904  1
  Ta  Ta1  1  0.314705  0.679496  0.691096  1
  Ta  Ta2  1  0.687772  0.312869  0.311587  1
  Ta  Ta3  1  0.312869  0.687772  0.311587  1
  Ta  Ta4  1  0.687772  0.687772  0.311587  1
  Ta  Ta5  1  0.314705  0.314705  0.691096  1
  Ta  Ta6  1  0.562228  0.562228  0.938413  1
  Ta  Ta7  1  0.935295  0.570504  0.558904  1
  Ta  Ta8  1  0.562228  0.937131  0.938413  1
  Ta  Ta9  1  0.935295  0.935295  0.558904  1
  Ta  Ta10  1  0.679496  0.314705  0.691096  1
  Ta  Ta11  1  0.937131  0.562228  0.938413  1
  Al  Al12  1  0.912257  0.912257  0.922414  1
  Al  Al13  1  0.996928  0.337743  0.327586  1
  Al  Al14  1  0.337743  0.996928  0.327586  1
  Al  Al15  1  0.332044  0.332044  0.003865  1
  Al  Al16  1  0.912257  0.253072  0.922414  1
  Al  Al17  1  0.917956  0.917956  0.246135  1
  Al  Al18  1  0.253072  0.912257  0.922414  1
  Al  Al19  1  0.337743  0.337743  0.327586  1
  Ag  Ag20  1  0.125000  0.125000  0.625000  1
  Ru  Ru21  1  0.125000  0.125000  0.125000  1
  Ru  Ru22  1  0.625000  0.125000  0.125000  1
  Ru  Ru23  1  0.125000  0.625000  0.125000  1
  C  C24  1  0.625000  0.625000  0.625000  1
  C  C25  1  0.125000  0.625000  0.625000  1
  C  C26  1  0.625000  0.125000  0.625000  1
  C  C27  1  0.625000  0.625000  0.125000  1
