# generated using pymatgen
data_K6Ba6ScAlSb8
_symmetry_space_group_name_H-M   'P 1'
_cell_length_a   11.14512400
_cell_length_b   11.14512492
_cell_length_c   8.47997800
_cell_angle_alpha   90.00000000
_cell_angle_beta   90.00000000
_cell_angle_gamma   120.00000320
_symmetry_Int_Tables_number   1
_chemical_formula_structural   K6Ba6ScAlSb8
_chemical_formula_sum   'K6 Ba6 Sc1 Al1 Sb8'
_cell_volume   912.21075596
_cell_formula_units_Z   1
loop_
 _symmetry_equiv_pos_site_id
 _symmetry_equiv_pos_as_xyz
  1  'x, y, z'
loop_
 _atom_site_type_symbol
 _atom_site_label
 _atom_site_symmetry_multiplicity
 _atom_site_fract_x
 _atom_site_fract_y
 _atom_site_fract_z
 _atom_site_occupancy
  K  K0  1  0.861167  0.138833  0.552914  1
  K  K1  1  0.277664  0.138833  0.552914  1
  K  K2  1  0.861167  0.722336  0.552914  1
  K  K3  1  0.134317  0.865683  0.055090  1
  K  K4  1  0.731368  0.865683  0.055090  1
  K  K5  1  0.134317  0.268632  0.055090  1
  Ba  Ba6  1  0.473465  0.526535  0.733518  1
  Ba  Ba7  1  0.053070  0.526535  0.733518  1
  Ba  Ba8  1  0.473465  0.946930  0.733518  1
  Ba  Ba9  1  0.521610  0.478390  0.231519  1
  Ba  Ba10  1  0.956780  0.478390  0.231519  1
  Ba  Ba11  1  0.521610  0.043220  0.231519  1
  Sc  Sc12  1  0.666667  0.333333  0.844592  1
  Al  Al13  1  0.333333  0.666667  0.356274  1
  Sb  Sb14  1  0.805729  0.194271  0.954170  1
  Sb  Sb15  1  0.388542  0.194271  0.954170  1
  Sb  Sb16  1  0.805729  0.611458  0.954170  1
  Sb  Sb17  1  0.197604  0.802396  0.453843  1
  Sb  Sb18  1  0.604791  0.802396  0.453843  1
  Sb  Sb19  1  0.197604  0.395209  0.453843  1
  Sb  Sb20  1  0.666667  0.333333  0.503108  1
  Sb  Sb21  1  0.333333  0.666667  0.023589  1
