# generated using pymatgen
data_U2Zn11In
_symmetry_space_group_name_H-M   'P 1'
_cell_length_a   7.98594398
_cell_length_b   7.98594475
_cell_length_c   7.98594461
_cell_angle_alpha   147.62264869
_cell_angle_beta   111.18281083
_cell_angle_gamma   78.11870683
_symmetry_Int_Tables_number   1
_chemical_formula_structural   U2Zn11In
_chemical_formula_sum   'U2 Zn11 In1'
_cell_volume   249.22393413
_cell_formula_units_Z   1
loop_
 _symmetry_equiv_pos_site_id
 _symmetry_equiv_pos_as_xyz
  1  'x, y, z'
loop_
 _atom_site_type_symbol
 _atom_site_label
 _atom_site_symmetry_multiplicity
 _atom_site_fract_x
 _atom_site_fract_y
 _atom_site_fract_z
 _atom_site_occupancy
  U  U0  1  0.289543  0.289543  0.000000  1
  U  U1  1  0.710457  0.710457  0.000000  1
  Zn  Zn2  1  0.500000  0.000000  0.500000  1
  Zn  Zn3  1  0.668089  0.500000  0.168089  1
  Zn  Zn4  1  0.331911  0.500000  0.831911  1
  Zn  Zn5  1  0.700464  0.342893  0.357570  1
  Zn  Zn6  1  0.299536  0.657107  0.642430  1
  Zn  Zn7  1  0.985324  0.342893  0.642430  1
  Zn  Zn8  1  0.014676  0.657107  0.357570  1
  Zn  Zn9  1  0.417403  0.133795  0.283608  1
  Zn  Zn10  1  0.582597  0.866205  0.716392  1
  Zn  Zn11  1  0.850188  0.133795  0.716392  1
  Zn  Zn12  1  0.149812  0.866205  0.283608  1
  In  In13  1  0.000000  0.000000  0.000000  1
