# generated using pymatgen
data_Tb7SmTi7Si16Mo5
_symmetry_space_group_name_H-M   'P 1'
_cell_length_a   6.82553006
_cell_length_b   7.02843777
_cell_length_c   13.25205975
_cell_angle_alpha   90.06961992
_cell_angle_beta   89.96698823
_cell_angle_gamma   89.92932615
_symmetry_Int_Tables_number   1
_chemical_formula_structural   Tb7SmTi7Si16Mo5
_chemical_formula_sum   'Tb7 Sm1 Ti7 Si16 Mo5'
_cell_volume   635.73752881
_cell_formula_units_Z   1
loop_
 _symmetry_equiv_pos_site_id
 _symmetry_equiv_pos_as_xyz
  1  'x, y, z'
loop_
 _atom_site_type_symbol
 _atom_site_label
 _atom_site_symmetry_multiplicity
 _atom_site_fract_x
 _atom_site_fract_y
 _atom_site_fract_z
 _atom_site_occupancy
  Tb  Tb0  1  0.504150  0.330367  0.097220  1
  Tb  Tb1  1  0.003117  0.170746  0.403151  1
  Tb  Tb2  1  0.496365  0.671882  0.596399  1
  Tb  Tb3  1  0.996424  0.830475  0.902285  1
  Tb  Tb4  1  0.495479  0.669046  0.901129  1
  Tb  Tb5  1  0.997807  0.830662  0.596125  1
  Tb  Tb6  1  0.503656  0.329552  0.405592  1
  Sm  Sm7  1  0.004136  0.169874  0.096868  1
  Ti  Ti8  1  0.836434  0.326631  0.626643  1
  Ti  Ti9  1  0.331892  0.173329  0.872279  1
  Ti  Ti10  1  0.167014  0.672272  0.127104  1
  Ti  Ti11  1  0.666299  0.828507  0.374070  1
  Ti  Ti12  1  0.167117  0.673498  0.374767  1
  Ti  Ti13  1  0.667301  0.827237  0.127724  1
  Ti  Ti14  1  0.832222  0.325743  0.870926  1
  Si  Si15  1  0.655710  0.040261  0.545067  1
  Si  Si16  1  0.157629  0.460026  0.955047  1
  Si  Si17  1  0.344671  0.957169  0.043592  1
  Si  Si18  1  0.841787  0.540079  0.456470  1
  Si  Si19  1  0.339022  0.958756  0.458009  1
  Si  Si20  1  0.841333  0.543074  0.043641  1
  Si  Si21  1  0.656004  0.040202  0.955179  1
  Si  Si22  1  0.161467  0.458009  0.544191  1
  Si  Si23  1  0.534406  0.370127  0.747780  1
  Si  Si24  1  0.037934  0.127082  0.749668  1
  Si  Si25  1  0.463636  0.629168  0.250950  1
  Si  Si26  1  0.963520  0.870823  0.251084  1
  Si  Si27  1  0.798001  0.622015  0.748707  1
  Si  Si28  1  0.300222  0.879305  0.749559  1
  Si  Si29  1  0.203491  0.378735  0.251331  1
  Si  Si30  1  0.700394  0.122328  0.250870  1
  Mo  Mo31  1  0.331342  0.171482  0.626672  1
  Mo  Mo32  1  0.662316  0.011655  0.749332  1
  Mo  Mo33  1  0.159338  0.488153  0.749253  1
  Mo  Mo34  1  0.338692  0.990010  0.250805  1
  Mo  Mo35  1  0.839675  0.511717  0.250513  1
