# generated using pymatgen
data_Ba2Ga6FeTc
_symmetry_space_group_name_H-M   'P 1'
_cell_length_a   6.81100841
_cell_length_b   6.81100810
_cell_length_c   6.81100700
_cell_angle_alpha   119.99998981
_cell_angle_beta   119.99998831
_cell_angle_gamma   59.99999788
_symmetry_Int_Tables_number   1
_chemical_formula_structural   Ba2Ga6FeTc
_chemical_formula_sum   'Ba2 Ga6 Fe1 Tc1'
_cell_volume   223.41853852
_cell_formula_units_Z   1
loop_
 _symmetry_equiv_pos_site_id
 _symmetry_equiv_pos_as_xyz
  1  'x, y, z'
loop_
 _atom_site_type_symbol
 _atom_site_label
 _atom_site_symmetry_multiplicity
 _atom_site_fract_x
 _atom_site_fract_y
 _atom_site_fract_z
 _atom_site_occupancy
  Ba  Ba0  1  0.750001  0.750001  0.250003  1
  Ba  Ba1  1  0.249999  0.249999  0.750000  1
  Ga  Ga2  1  0.257697  0.257697  0.257698  1
  Ga  Ga3  1  0.742303  0.257698  0.257698  1
  Ga  Ga4  1  0.257698  0.742303  0.257698  1
  Ga  Ga5  1  0.742302  0.257697  0.742301  1
  Ga  Ga6  1  0.257697  0.742302  0.742301  1
  Ga  Ga7  1  0.742303  0.742303  0.742303  1
  Fe  Fe8  1  0.500001  0.500001  0.500001  1
  Tc  Tc9  1  0.000000  0.000000  0.000000  1
