# generated using pymatgen
data_Mn3Cr8AgSe16
_symmetry_space_group_name_H-M   'P 1'
_cell_length_a   13.07694646
_cell_length_b   13.07694657
_cell_length_c   13.07694723
_cell_angle_alpha   33.60727010
_cell_angle_beta   33.60727104
_cell_angle_gamma   33.60727201
_symmetry_Int_Tables_number   1
_chemical_formula_structural   Mn3Cr8AgSe16
_chemical_formula_sum   'Mn3 Cr8 Ag1 Se16'
_cell_volume   610.27928916
_cell_formula_units_Z   1
loop_
 _symmetry_equiv_pos_site_id
 _symmetry_equiv_pos_as_xyz
  1  'x, y, z'
loop_
 _atom_site_type_symbol
 _atom_site_label
 _atom_site_symmetry_multiplicity
 _atom_site_fract_x
 _atom_site_fract_y
 _atom_site_fract_z
 _atom_site_occupancy
  Mn  Mn0  1  0.562383  0.562383  0.562383  1
  Mn  Mn1  1  0.437497  0.437497  0.437497  1
  Mn  Mn2  1  0.937670  0.937670  0.937670  1
  Cr  Cr3  1  0.748699  0.748699  0.748699  1
  Cr  Cr4  1  0.250431  0.250431  0.250431  1
  Cr  Cr5  1  0.996851  0.501586  0.501586  1
  Cr  Cr6  1  0.499603  0.000525  0.000525  1
  Cr  Cr7  1  0.501586  0.996851  0.501586  1
  Cr  Cr8  1  0.000525  0.499603  0.000525  1
  Cr  Cr9  1  0.501586  0.501586  0.996851  1
  Cr  Cr10  1  0.000525  0.000525  0.499603  1
  Ag  Ag11  1  0.063015  0.063015  0.063015  1
  Se  Se12  1  0.132804  0.132804  0.132804  1
  Se  Se13  1  0.629438  0.629438  0.629438  1
  Se  Se14  1  0.409565  0.853548  0.853548  1
  Se  Se15  1  0.900865  0.360127  0.360127  1
  Se  Se16  1  0.853548  0.409565  0.853548  1
  Se  Se17  1  0.360127  0.900865  0.360127  1
  Se  Se18  1  0.853548  0.853548  0.409565  1
  Se  Se19  1  0.360127  0.360127  0.900865  1
  Se  Se20  1  0.369766  0.369766  0.369766  1
  Se  Se21  1  0.870099  0.870099  0.870099  1
  Se  Se22  1  0.098425  0.640542  0.640542  1
  Se  Se23  1  0.599931  0.140152  0.140152  1
  Se  Se24  1  0.640542  0.098425  0.640542  1
  Se  Se25  1  0.140152  0.599931  0.140152  1
  Se  Se26  1  0.640542  0.640542  0.098425  1
  Se  Se27  1  0.140152  0.140152  0.599931  1
