# generated using pymatgen
data_DyLu2Mg2ZnGe2Au
_symmetry_space_group_name_H-M   'P 1'
_cell_length_a   7.02729600
_cell_length_b   7.07556735
_cell_length_c   4.33329200
_cell_angle_alpha   90.00000000
_cell_angle_beta   90.00000000
_cell_angle_gamma   119.94569643
_symmetry_Int_Tables_number   1
_chemical_formula_structural   DyLu2Mg2ZnGe2Au
_chemical_formula_sum   'Dy1 Lu2 Mg2 Zn1 Ge2 Au1'
_cell_volume   186.69620434
_cell_formula_units_Z   1
loop_
 _symmetry_equiv_pos_site_id
 _symmetry_equiv_pos_as_xyz
  1  'x, y, z'
loop_
 _atom_site_type_symbol
 _atom_site_label
 _atom_site_symmetry_multiplicity
 _atom_site_fract_x
 _atom_site_fract_y
 _atom_site_fract_z
 _atom_site_occupancy
  Dy  Dy0  1  0.419776  0.418216  0.000000  1
  Lu  Lu1  1  0.572319  0.000805  0.000000  1
  Lu  Lu2  1  0.002524  0.583729  0.000000  1
  Mg  Mg3  1  0.004007  0.240159  0.500000  1
  Mg  Mg4  1  0.763453  0.758943  0.500000  1
  Zn  Zn5  1  0.247912  0.001279  0.500000  1
  Ge  Ge6  1  0.329965  0.672854  0.500000  1
  Ge  Ge7  1  0.663376  0.328409  0.500000  1
  Au  Au8  1  0.996669  0.995608  0.000000  1
