# generated using pymatgen
data_Dy16MgHg3Ir4
_symmetry_space_group_name_H-M   'P 1'
_cell_length_a   9.61001112
_cell_length_b   9.63338864
_cell_length_c   9.63339000
_cell_angle_alpha   60.00000220
_cell_angle_beta   59.91949905
_cell_angle_gamma   59.91949527
_symmetry_Int_Tables_number   1
_chemical_formula_structural   Dy16MgHg3Ir4
_chemical_formula_sum   'Dy16 Mg1 Hg3 Ir4'
_cell_volume   629.85067784
_cell_formula_units_Z   1
loop_
 _symmetry_equiv_pos_site_id
 _symmetry_equiv_pos_as_xyz
  1  'x, y, z'
loop_
 _atom_site_type_symbol
 _atom_site_label
 _atom_site_symmetry_multiplicity
 _atom_site_fract_x
 _atom_site_fract_y
 _atom_site_fract_z
 _atom_site_occupancy
  Dy  Dy0  1  0.350734  0.348303  0.348303  1
  Dy  Dy1  1  0.350734  0.348303  0.952659  1
  Dy  Dy2  1  0.350734  0.952659  0.348303  1
  Dy  Dy3  1  0.944203  0.351932  0.351932  1
  Dy  Dy4  1  0.810016  0.189849  0.189849  1
  Dy  Dy5  1  0.186134  0.812834  0.812834  1
  Dy  Dy6  1  0.186134  0.812834  0.188197  1
  Dy  Dy7  1  0.810016  0.189849  0.810286  1
  Dy  Dy8  1  0.186134  0.188197  0.812834  1
  Dy  Dy9  1  0.810016  0.810286  0.189849  1
  Dy  Dy10  1  0.935382  0.563447  0.563447  1
  Dy  Dy11  1  0.562449  0.937135  0.937135  1
  Dy  Dy12  1  0.562449  0.937135  0.563282  1
  Dy  Dy13  1  0.935382  0.563447  0.937724  1
  Dy  Dy14  1  0.562449  0.563282  0.937135  1
  Dy  Dy15  1  0.935382  0.937724  0.563447  1
  Mg  Mg16  1  0.284118  0.571961  0.571961  1
  Hg  Hg17  1  0.580649  0.586602  0.586602  1
  Hg  Hg18  1  0.580649  0.586602  0.246146  1
  Hg  Hg19  1  0.580649  0.246146  0.586602  1
  Ir  Ir20  1  0.140355  0.143241  0.143241  1
  Ir  Ir21  1  0.140355  0.143241  0.573163  1
  Ir  Ir22  1  0.140355  0.573163  0.143241  1
  Ir  Ir23  1  0.574519  0.141827  0.141827  1
