# generated using pymatgen
data_Y6Er4Si5As
_symmetry_space_group_name_H-M   'P 1'
_cell_length_a   8.42562200
_cell_length_b   8.43807567
_cell_length_c   6.30242500
_cell_angle_alpha   90.00000000
_cell_angle_beta   90.00000000
_cell_angle_gamma   119.95118210
_symmetry_Int_Tables_number   1
_chemical_formula_structural   Y6Er4Si5As
_chemical_formula_sum   'Y6 Er4 Si5 As1'
_cell_volume   388.23718904
_cell_formula_units_Z   1
loop_
 _symmetry_equiv_pos_site_id
 _symmetry_equiv_pos_as_xyz
  1  'x, y, z'
loop_
 _atom_site_type_symbol
 _atom_site_label
 _atom_site_symmetry_multiplicity
 _atom_site_fract_x
 _atom_site_fract_y
 _atom_site_fract_z
 _atom_site_occupancy
  Y  Y0  1  0.996602  0.752961  0.750000  1
  Y  Y1  1  0.000263  0.244691  0.250000  1
  Y  Y2  1  0.755573  0.755309  0.250000  1
  Y  Y3  1  0.757237  0.000000  0.750000  1
  Y  Y4  1  0.243640  0.247039  0.750000  1
  Y  Y5  1  0.244202  0.000000  0.250000  1
  Er  Er6  1  0.333041  0.664025  0.498824  1
  Er  Er7  1  0.669018  0.335975  0.001176  1
  Er  Er8  1  0.669018  0.335975  0.498824  1
  Er  Er9  1  0.333041  0.664025  0.001176  1
  Si  Si10  1  0.393946  0.392760  0.250000  1
  Si  Si11  1  0.001187  0.607240  0.250000  1
  Si  Si12  1  0.999727  0.393901  0.750000  1
  Si  Si13  1  0.605827  0.606099  0.750000  1
  Si  Si14  1  0.607208  0.000000  0.250000  1
  As  As15  1  0.390471  0.000000  0.750000  1
