# generated using pymatgen
data_TbDy9(Sn3S)2
_symmetry_space_group_name_H-M   'P 1'
_cell_length_a   9.05367003
_cell_length_b   9.05366941
_cell_length_c   6.65711700
_cell_angle_alpha   90.00000000
_cell_angle_beta   90.00000000
_cell_angle_gamma   119.99065510
_symmetry_Int_Tables_number   1
_chemical_formula_structural   TbDy9(Sn3S)2
_chemical_formula_sum   'Tb1 Dy9 Sn6 S2'
_cell_volume   472.61445849
_cell_formula_units_Z   1
loop_
 _symmetry_equiv_pos_site_id
 _symmetry_equiv_pos_as_xyz
  1  'x, y, z'
loop_
 _atom_site_type_symbol
 _atom_site_label
 _atom_site_symmetry_multiplicity
 _atom_site_fract_x
 _atom_site_fract_y
 _atom_site_fract_z
 _atom_site_occupancy
  Tb  Tb0  1  0.754672  0.754672  0.750000  1
  Dy  Dy1  1  0.666655  0.333276  0.000031  1
  Dy  Dy2  1  0.333276  0.666655  0.000031  1
  Dy  Dy3  1  0.333276  0.666655  0.499969  1
  Dy  Dy4  1  0.666655  0.333276  0.499969  1
  Dy  Dy5  1  0.245063  0.000036  0.750000  1
  Dy  Dy6  1  0.000036  0.245063  0.750000  1
  Dy  Dy7  1  0.245064  0.245064  0.250000  1
  Dy  Dy8  1  0.754954  0.000029  0.250000  1
  Dy  Dy9  1  0.000029  0.754954  0.250000  1
  Sn  Sn10  1  0.397489  0.397489  0.750000  1
  Sn  Sn11  1  0.602150  0.000147  0.750000  1
  Sn  Sn12  1  0.000147  0.602150  0.750000  1
  Sn  Sn13  1  0.602248  0.602248  0.250000  1
  Sn  Sn14  1  0.397736  0.999994  0.250000  1
  Sn  Sn15  1  0.999994  0.397736  0.250000  1
  S  S16  1  0.000278  0.000278  0.000263  1
  S  S17  1  0.000278  0.000278  0.499737  1
