# generated using pymatgen
data_Sr2Yb3P4
_symmetry_space_group_name_H-M   'P 1'
_cell_length_a   7.66520500
_cell_length_b   7.68241600
_cell_length_c   15.01678000
_cell_angle_alpha   90.00000000
_cell_angle_beta   90.00000000
_cell_angle_gamma   90.00000000
_symmetry_Int_Tables_number   1
_chemical_formula_structural   Sr2Yb3P4
_chemical_formula_sum   'Sr8 Yb12 P16'
_cell_volume   884.29753181
_cell_formula_units_Z   4
loop_
 _symmetry_equiv_pos_site_id
 _symmetry_equiv_pos_as_xyz
  1  'x, y, z'
loop_
 _atom_site_type_symbol
 _atom_site_label
 _atom_site_symmetry_multiplicity
 _atom_site_fract_x
 _atom_site_fract_y
 _atom_site_fract_z
 _atom_site_occupancy
  Sr  Sr0  1  0.028410  0.182787  0.094821  1
  Sr  Sr1  1  0.528410  0.317213  0.405179  1
  Sr  Sr2  1  0.471590  0.682787  0.905179  1
  Sr  Sr3  1  0.971590  0.817213  0.594821  1
  Sr  Sr4  1  0.971590  0.817213  0.905179  1
  Sr  Sr5  1  0.471590  0.682787  0.594821  1
  Sr  Sr6  1  0.528410  0.317213  0.094821  1
  Sr  Sr7  1  0.028410  0.182787  0.405179  1
  Yb  Yb8  1  0.876335  0.649030  0.108836  1
  Yb  Yb9  1  0.376335  0.850970  0.391164  1
  Yb  Yb10  1  0.623665  0.149030  0.891164  1
  Yb  Yb11  1  0.123665  0.350970  0.608836  1
  Yb  Yb12  1  0.123665  0.350970  0.891164  1
  Yb  Yb13  1  0.623665  0.149030  0.608836  1
  Yb  Yb14  1  0.376335  0.850970  0.108836  1
  Yb  Yb15  1  0.876335  0.649030  0.391164  1
  Yb  Yb16  1  0.720343  0.985881  0.250000  1
  Yb  Yb17  1  0.220343  0.514119  0.250000  1
  Yb  Yb18  1  0.779657  0.485881  0.750000  1
  Yb  Yb19  1  0.279657  0.014119  0.750000  1
  P  P20  1  0.107400  0.901616  0.250000  1
  P  P21  1  0.607400  0.598384  0.250000  1
  P  P22  1  0.392600  0.401616  0.750000  1
  P  P23  1  0.892600  0.098384  0.750000  1
  P  P24  1  0.819563  0.386323  0.250000  1
  P  P25  1  0.319563  0.113677  0.250000  1
  P  P26  1  0.680437  0.886323  0.750000  1
  P  P27  1  0.180437  0.613677  0.750000  1
  P  P28  1  0.781830  0.458954  0.948220  1
  P  P29  1  0.281830  0.041046  0.551780  1
  P  P30  1  0.718170  0.958954  0.051780  1
  P  P31  1  0.218170  0.541046  0.448220  1
  P  P32  1  0.218170  0.541046  0.051780  1
  P  P33  1  0.718170  0.958954  0.448220  1
  P  P34  1  0.281830  0.041046  0.948220  1
  P  P35  1  0.781830  0.458954  0.551780  1
