# generated using pymatgen
data_Dy5In2(HgPt)2
_symmetry_space_group_name_H-M   'P 1'
_cell_length_a   3.62121400
_cell_length_b   8.06484900
_cell_length_c   18.30777600
_cell_angle_alpha   90.00000000
_cell_angle_beta   90.00000000
_cell_angle_gamma   90.00000000
_symmetry_Int_Tables_number   1
_chemical_formula_structural   Dy5In2(HgPt)2
_chemical_formula_sum   'Dy10 In4 Hg4 Pt4'
_cell_volume   534.67025169
_cell_formula_units_Z   2
loop_
 _symmetry_equiv_pos_site_id
 _symmetry_equiv_pos_as_xyz
  1  'x, y, z'
loop_
 _atom_site_type_symbol
 _atom_site_label
 _atom_site_symmetry_multiplicity
 _atom_site_fract_x
 _atom_site_fract_y
 _atom_site_fract_z
 _atom_site_occupancy
  Dy  Dy0  1  0.000000  0.109193  0.414631  1
  Dy  Dy1  1  0.000000  0.890807  0.585369  1
  Dy  Dy2  1  0.000000  0.390807  0.914631  1
  Dy  Dy3  1  0.000000  0.609193  0.085369  1
  Dy  Dy4  1  0.000000  0.243344  0.217399  1
  Dy  Dy5  1  0.000000  0.756656  0.782601  1
  Dy  Dy6  1  0.000000  0.256656  0.717399  1
  Dy  Dy7  1  0.000000  0.743344  0.282601  1
  Dy  Dy8  1  0.000000  0.000000  0.000000  1
  Dy  Dy9  1  0.000000  0.500000  0.500000  1
  In  In10  1  0.500000  0.425054  0.352754  1
  In  In11  1  0.500000  0.574946  0.647246  1
  In  In12  1  0.500000  0.074946  0.852754  1
  In  In13  1  0.500000  0.925054  0.147246  1
  Hg  Hg14  1  0.500000  0.287397  0.064216  1
  Hg  Hg15  1  0.500000  0.712603  0.935784  1
  Hg  Hg16  1  0.500000  0.212603  0.564216  1
  Hg  Hg17  1  0.500000  0.787397  0.435784  1
  Pt  Pt18  1  0.500000  0.027758  0.301692  1
  Pt  Pt19  1  0.500000  0.972242  0.698308  1
  Pt  Pt20  1  0.500000  0.472242  0.801692  1
  Pt  Pt21  1  0.500000  0.527758  0.198308  1
