# generated using pymatgen
data_Nd2BeCo25
_symmetry_space_group_name_H-M   'P 1'
_cell_length_a   7.90917211
_cell_length_b   7.90917200
_cell_length_c   7.90917200
_cell_angle_alpha   60.00000000
_cell_angle_beta   60.00000045
_cell_angle_gamma   60.00000227
_symmetry_Int_Tables_number   1
_chemical_formula_structural   Nd2BeCo25
_chemical_formula_sum   'Nd2 Be1 Co25'
_cell_volume   349.84693845
_cell_formula_units_Z   1
loop_
 _symmetry_equiv_pos_site_id
 _symmetry_equiv_pos_as_xyz
  1  'x, y, z'
loop_
 _atom_site_type_symbol
 _atom_site_label
 _atom_site_symmetry_multiplicity
 _atom_site_fract_x
 _atom_site_fract_y
 _atom_site_fract_z
 _atom_site_occupancy
  Nd  Nd0  1  0.750000  0.750000  0.750000  1
  Nd  Nd1  1  0.250000  0.250000  0.250000  1
  Be  Be2  1  0.000000  0.000000  0.000000  1
  Co  Co3  1  0.800378  0.555455  0.444545  1
  Co  Co4  1  0.555455  0.800378  0.199622  1
  Co  Co5  1  0.199622  0.444545  0.555455  1
  Co  Co6  1  0.444545  0.199622  0.800378  1
  Co  Co7  1  0.444545  0.800378  0.555455  1
  Co  Co8  1  0.555455  0.444545  0.800378  1
  Co  Co9  1  0.800378  0.444545  0.199622  1
  Co  Co10  1  0.800378  0.199622  0.555455  1
  Co  Co11  1  0.199622  0.555455  0.800378  1
  Co  Co12  1  0.444545  0.555455  0.199622  1
  Co  Co13  1  0.555455  0.199622  0.444545  1
  Co  Co14  1  0.199622  0.800378  0.444545  1
  Co  Co15  1  0.938003  0.710476  0.061997  1
  Co  Co16  1  0.710476  0.938003  0.289524  1
  Co  Co17  1  0.061997  0.289524  0.938003  1
  Co  Co18  1  0.289524  0.061997  0.710476  1
  Co  Co19  1  0.710476  0.061997  0.938003  1
  Co  Co20  1  0.061997  0.938003  0.710476  1
  Co  Co21  1  0.061997  0.710476  0.289524  1
  Co  Co22  1  0.289524  0.710476  0.938003  1
  Co  Co23  1  0.938003  0.289524  0.710476  1
  Co  Co24  1  0.938003  0.061997  0.289524  1
  Co  Co25  1  0.289524  0.938003  0.061997  1
  Co  Co26  1  0.710476  0.289524  0.061997  1
  Co  Co27  1  0.500000  0.500000  0.500000  1
