# generated using pymatgen
data_Lu10Bi2Ru3Pt
_symmetry_space_group_name_H-M   'P 1'
_cell_length_a   8.69285353
_cell_length_b   8.69285432
_cell_length_c   8.59642509
_cell_angle_alpha   127.63204843
_cell_angle_beta   127.63204332
_cell_angle_gamma   78.01649861
_symmetry_Int_Tables_number   1
_chemical_formula_structural   Lu10Bi2Ru3Pt
_chemical_formula_sum   'Lu10 Bi2 Ru3 Pt1'
_cell_volume   393.02925345
_cell_formula_units_Z   1
loop_
 _symmetry_equiv_pos_site_id
 _symmetry_equiv_pos_as_xyz
  1  'x, y, z'
loop_
 _atom_site_type_symbol
 _atom_site_label
 _atom_site_symmetry_multiplicity
 _atom_site_fract_x
 _atom_site_fract_y
 _atom_site_fract_z
 _atom_site_occupancy
  Lu  Lu0  1  0.999803  0.999304  0.999107  1
  Lu  Lu1  1  0.500696  0.500197  0.000893  1
  Lu  Lu2  1  0.797106  0.287641  0.817617  1
  Lu  Lu3  1  0.212359  0.702894  0.182383  1
  Lu  Lu4  1  0.479489  0.970023  0.182383  1
  Lu  Lu5  1  0.274499  0.483770  0.500000  1
  Lu  Lu6  1  0.016230  0.225501  0.500000  1
  Lu  Lu7  1  0.529977  0.020511  0.817617  1
  Lu  Lu8  1  0.713275  0.525841  0.500000  1
  Lu  Lu9  1  0.974159  0.786725  0.500000  1
  Bi  Bi10  1  0.252405  0.247595  0.000000  1
  Bi  Bi11  1  0.752405  0.747595  0.000000  1
  Ru  Ru12  1  0.142720  0.645082  0.787802  1
  Ru  Ru13  1  0.854918  0.357280  0.212198  1
  Ru  Ru14  1  0.638089  0.861911  0.500000  1
  Pt  Pt15  1  0.361871  0.138129  0.500000  1
