# generated using pymatgen
data_Tb6Y5ErOs4
_symmetry_space_group_name_H-M   'P 1'
_cell_length_a   6.32695946
_cell_length_b   7.41838046
_cell_length_c   9.12413195
_cell_angle_alpha   89.98913957
_cell_angle_beta   90.16819011
_cell_angle_gamma   90.08754517
_symmetry_Int_Tables_number   1
_chemical_formula_structural   Tb6Y5ErOs4
_chemical_formula_sum   'Tb6 Y5 Er1 Os4'
_cell_volume   428.24601079
_cell_formula_units_Z   1
loop_
 _symmetry_equiv_pos_site_id
 _symmetry_equiv_pos_as_xyz
  1  'x, y, z'
loop_
 _atom_site_type_symbol
 _atom_site_label
 _atom_site_symmetry_multiplicity
 _atom_site_fract_x
 _atom_site_fract_y
 _atom_site_fract_z
 _atom_site_occupancy
  Tb  Tb0  1  0.167710  0.176005  0.436290  1
  Tb  Tb1  1  0.667791  0.324079  0.562640  1
  Tb  Tb2  1  0.832350  0.825174  0.937785  1
  Tb  Tb3  1  0.667927  0.324356  0.937724  1
  Tb  Tb4  1  0.832532  0.824380  0.562693  1
  Tb  Tb5  1  0.332211  0.675449  0.436781  1
  Y  Y6  1  0.331962  0.675585  0.062556  1
  Y  Y7  1  0.870276  0.538035  0.249728  1
  Y  Y8  1  0.629260  0.038351  0.249441  1
  Y  Y9  1  0.130697  0.461993  0.750267  1
  Y  Y10  1  0.369599  0.962397  0.750289  1
  Er  Er11  1  0.167483  0.174644  0.063309  1
  Os  Os12  1  0.042438  0.884198  0.249911  1
  Os  Os13  1  0.456775  0.382267  0.250098  1
  Os  Os14  1  0.957906  0.116637  0.751087  1
  Os  Os15  1  0.543081  0.616452  0.749400  1
