# generated using pymatgen
data_Sc5GaRu4
_symmetry_space_group_name_H-M   'P 1'
_cell_length_a   3.24274200
_cell_length_b   3.24274200
_cell_length_c   16.29955400
_cell_angle_alpha   90.00000000
_cell_angle_beta   90.00000000
_cell_angle_gamma   90.00000000
_symmetry_Int_Tables_number   1
_chemical_formula_structural   Sc5GaRu4
_chemical_formula_sum   'Sc5 Ga1 Ru4'
_cell_volume   171.39593370
_cell_formula_units_Z   1
loop_
 _symmetry_equiv_pos_site_id
 _symmetry_equiv_pos_as_xyz
  1  'x, y, z'
loop_
 _atom_site_type_symbol
 _atom_site_label
 _atom_site_symmetry_multiplicity
 _atom_site_fract_x
 _atom_site_fract_y
 _atom_site_fract_z
 _atom_site_occupancy
  Sc  Sc0  1  0.000000  0.000000  0.886344  1
  Sc  Sc1  1  0.000000  0.000000  0.113656  1
  Sc  Sc2  1  0.000000  0.000000  0.304400  1
  Sc  Sc3  1  0.000000  0.000000  0.500000  1
  Sc  Sc4  1  0.000000  0.000000  0.695600  1
  Ga  Ga5  1  0.500000  0.500000  0.000000  1
  Ru  Ru6  1  0.500000  0.500000  0.203243  1
  Ru  Ru7  1  0.500000  0.500000  0.400753  1
  Ru  Ru8  1  0.500000  0.500000  0.599247  1
  Ru  Ru9  1  0.500000  0.500000  0.796757  1
