# generated using pymatgen
data_HoTm5Rh18
_symmetry_space_group_name_H-M   'P 1'
_cell_length_a   5.24190900
_cell_length_b   5.24191017
_cell_length_c   17.51418200
_cell_angle_alpha   90.00000000
_cell_angle_beta   90.00000000
_cell_angle_gamma   119.99998630
_symmetry_Int_Tables_number   1
_chemical_formula_structural   HoTm5Rh18
_chemical_formula_sum   'Ho1 Tm5 Rh18'
_cell_volume   416.77302459
_cell_formula_units_Z   1
loop_
 _symmetry_equiv_pos_site_id
 _symmetry_equiv_pos_as_xyz
  1  'x, y, z'
loop_
 _atom_site_type_symbol
 _atom_site_label
 _atom_site_symmetry_multiplicity
 _atom_site_fract_x
 _atom_site_fract_y
 _atom_site_fract_z
 _atom_site_occupancy
  Ho  Ho0  1  0.666667  0.333333  0.250000  1
  Tm  Tm1  1  0.333333  0.666667  0.958038  1
  Tm  Tm2  1  0.666667  0.333333  0.041693  1
  Tm  Tm3  1  0.666667  0.333333  0.458307  1
  Tm  Tm4  1  0.333333  0.666667  0.541962  1
  Tm  Tm5  1  0.333333  0.666667  0.750000  1
  Rh  Rh6  1  0.167637  0.832363  0.375104  1
  Rh  Rh7  1  0.167637  0.335273  0.375104  1
  Rh  Rh8  1  0.664727  0.832363  0.375104  1
  Rh  Rh9  1  0.832413  0.167587  0.625127  1
  Rh  Rh10  1  0.832413  0.664825  0.625127  1
  Rh  Rh11  1  0.335175  0.167587  0.625127  1
  Rh  Rh12  1  0.832413  0.167587  0.874873  1
  Rh  Rh13  1  0.832413  0.664825  0.874873  1
  Rh  Rh14  1  0.335175  0.167587  0.874873  1
  Rh  Rh15  1  0.167637  0.832363  0.124896  1
  Rh  Rh16  1  0.167637  0.335273  0.124896  1
  Rh  Rh17  1  0.664727  0.832363  0.124896  1
  Rh  Rh18  1  0.333333  0.666667  0.250000  1
  Rh  Rh19  1  0.666667  0.333333  0.750000  1
  Rh  Rh20  1  0.000000  0.000000  0.250000  1
  Rh  Rh21  1  0.000000  0.000000  0.750000  1
  Rh  Rh22  1  0.000000  0.000000  0.500117  1
  Rh  Rh23  1  0.000000  0.000000  0.999883  1
