# generated using pymatgen
data_BeV3Si2Os3
_symmetry_space_group_name_H-M   'P 1'
_cell_length_a   7.31234022
_cell_length_b   7.31233953
_cell_length_c   7.31233916
_cell_angle_alpha   125.60669003
_cell_angle_beta   132.11836495
_cell_angle_gamma   75.35186711
_symmetry_Int_Tables_number   1
_chemical_formula_structural   BeV3Si2Os3
_chemical_formula_sum   'Be2 V6 Si4 Os6'
_cell_volume   229.57967114
_cell_formula_units_Z   2
loop_
 _symmetry_equiv_pos_site_id
 _symmetry_equiv_pos_as_xyz
  1  'x, y, z'
loop_
 _atom_site_type_symbol
 _atom_site_label
 _atom_site_symmetry_multiplicity
 _atom_site_fract_x
 _atom_site_fract_y
 _atom_site_fract_z
 _atom_site_occupancy
  Be  Be0  1  0.250080  0.003676  0.253597  1
  Be  Be1  1  0.749920  0.003517  0.753597  1
  V  V2  1  0.444086  0.391356  0.447270  1
  V  V3  1  0.555914  0.003182  0.947270  1
  V  V4  1  0.055968  0.003153  0.447185  1
  V  V5  1  0.944032  0.391218  0.947185  1
  V  V6  1  0.249958  0.615376  0.865419  1
  V  V7  1  0.750042  0.615461  0.365419  1
  Si  Si8  1  0.167257  0.669869  0.503380  1
  Si  Si9  1  0.832743  0.336123  0.502612  1
  Si  Si10  1  0.666488  0.669869  0.002612  1
  Si  Si11  1  0.333512  0.336123  0.003380  1
  Os  Os12  1  0.000000  0.271735  0.271735  1
  Os  Os13  1  0.500000  0.271735  0.771735  1
  Os  Os14  1  0.366103  0.734835  0.369072  1
  Os  Os15  1  0.633897  0.002969  0.368732  1
  Os  Os16  1  0.865763  0.734835  0.868732  1
  Os  Os17  1  0.134237  0.002969  0.869072  1
