# generated using pymatgen
data_Er16MgIn3Ir4
_symmetry_space_group_name_H-M   'P 1'
_cell_length_a   9.61482766
_cell_length_b   9.60197643
_cell_length_c   9.60197600
_cell_angle_alpha   60.00000148
_cell_angle_beta   60.04420617
_cell_angle_gamma   60.04420643
_symmetry_Int_Tables_number   1
_chemical_formula_structural   Er16MgIn3Ir4
_chemical_formula_sum   'Er16 Mg1 In3 Ir4'
_cell_volume   627.24560327
_cell_formula_units_Z   1
loop_
 _symmetry_equiv_pos_site_id
 _symmetry_equiv_pos_as_xyz
  1  'x, y, z'
loop_
 _atom_site_type_symbol
 _atom_site_label
 _atom_site_symmetry_multiplicity
 _atom_site_fract_x
 _atom_site_fract_y
 _atom_site_fract_z
 _atom_site_occupancy
  Er  Er0  1  0.062555  0.061154  0.438145  1
  Er  Er1  1  0.650719  0.046155  0.651563  1
  Er  Er2  1  0.191141  0.809004  0.190851  1
  Er  Er3  1  0.438149  0.060716  0.440419  1
  Er  Er4  1  0.191141  0.190851  0.809004  1
  Er  Er5  1  0.650719  0.651563  0.651563  1
  Er  Er6  1  0.047630  0.650790  0.650790  1
  Er  Er7  1  0.438149  0.060716  0.060716  1
  Er  Er8  1  0.650719  0.651563  0.046155  1
  Er  Er9  1  0.191141  0.809004  0.809004  1
  Er  Er10  1  0.811811  0.188831  0.810526  1
  Er  Er11  1  0.811811  0.188831  0.188831  1
  Er  Er12  1  0.811811  0.810526  0.188831  1
  Er  Er13  1  0.062555  0.438145  0.438145  1
  Er  Er14  1  0.438149  0.440419  0.060716  1
  Er  Er15  1  0.062555  0.438145  0.061154  1
  Mg  Mg16  1  0.737284  0.420905  0.420905  1
  In  In17  1  0.416937  0.416807  0.749449  1
  In  In18  1  0.416937  0.749449  0.416807  1
  In  In19  1  0.416937  0.416807  0.416807  1
  Ir  Ir20  1  0.859028  0.858480  0.858480  1
  Ir  Ir21  1  0.424068  0.858644  0.858644  1
  Ir  Ir22  1  0.859028  0.858480  0.424013  1
  Ir  Ir23  1  0.859028  0.424013  0.858480  1
