# generated using pymatgen
data_Ho5Tm11(CdRh)4
_symmetry_space_group_name_H-M   'P 1'
_cell_length_a   9.47920770
_cell_length_b   9.47920788
_cell_length_c   9.54968100
_cell_angle_alpha   59.75376613
_cell_angle_beta   59.75376553
_cell_angle_gamma   59.73741989
_symmetry_Int_Tables_number   1
_chemical_formula_structural   Ho5Tm11(CdRh)4
_chemical_formula_sum   'Ho5 Tm11 Cd4 Rh4'
_cell_volume   603.29358922
_cell_formula_units_Z   1
loop_
 _symmetry_equiv_pos_site_id
 _symmetry_equiv_pos_as_xyz
  1  'x, y, z'
loop_
 _atom_site_type_symbol
 _atom_site_label
 _atom_site_symmetry_multiplicity
 _atom_site_fract_x
 _atom_site_fract_y
 _atom_site_fract_z
 _atom_site_occupancy
  Ho  Ho0  1  0.935638  0.563610  0.564143  1
  Ho  Ho1  1  0.935638  0.563610  0.936609  1
  Ho  Ho2  1  0.563610  0.935638  0.564143  1
  Ho  Ho3  1  0.563610  0.935638  0.936609  1
  Ho  Ho4  1  0.312286  0.312286  0.687714  1
  Tm  Tm5  1  0.936895  0.936895  0.563105  1
  Tm  Tm6  1  0.561834  0.561834  0.938166  1
  Tm  Tm7  1  0.687500  0.687500  0.312500  1
  Tm  Tm8  1  0.148496  0.549448  0.151028  1
  Tm  Tm9  1  0.688956  0.312447  0.687695  1
  Tm  Tm10  1  0.149996  0.149996  0.151666  1
  Tm  Tm11  1  0.549448  0.148496  0.151028  1
  Tm  Tm12  1  0.688956  0.312447  0.310902  1
  Tm  Tm13  1  0.149996  0.149996  0.548342  1
  Tm  Tm14  1  0.312447  0.688956  0.310902  1
  Tm  Tm15  1  0.312447  0.688956  0.687695  1
  Cd  Cd16  1  0.920189  0.920189  0.241835  1
  Cd  Cd17  1  0.243246  0.919057  0.918849  1
  Cd  Cd18  1  0.920189  0.920189  0.917786  1
  Cd  Cd19  1  0.919057  0.243246  0.918849  1
  Rh  Rh20  1  0.357873  0.357873  0.928777  1
  Rh  Rh21  1  0.356297  0.927522  0.358090  1
  Rh  Rh22  1  0.927522  0.356297  0.358090  1
  Rh  Rh23  1  0.357873  0.357873  0.355475  1
