# generated using pymatgen
data_Rb6Na4TaAlP6
_symmetry_space_group_name_H-M   'P 1'
_cell_length_a   10.49384025
_cell_length_b   10.49384082
_cell_length_c   15.56913400
_cell_angle_alpha   90.00000000
_cell_angle_beta   90.00000000
_cell_angle_gamma   142.30114653
_symmetry_Int_Tables_number   1
_chemical_formula_structural   Rb6Na4TaAlP6
_chemical_formula_sum   'Rb12 Na8 Ta2 Al2 P12'
_cell_volume   1048.42603711
_cell_formula_units_Z   2
loop_
 _symmetry_equiv_pos_site_id
 _symmetry_equiv_pos_as_xyz
  1  'x, y, z'
loop_
 _atom_site_type_symbol
 _atom_site_label
 _atom_site_symmetry_multiplicity
 _atom_site_fract_x
 _atom_site_fract_y
 _atom_site_fract_z
 _atom_site_occupancy
  Rb  Rb0  1  0.948937  0.607364  0.824301  1
  Rb  Rb1  1  0.551063  0.892636  0.324301  1
  Rb  Rb2  1  0.392636  0.051063  0.175699  1
  Rb  Rb3  1  0.064633  0.394473  0.172723  1
  Rb  Rb4  1  0.894473  0.564633  0.327277  1
  Rb  Rb5  1  0.435367  0.105527  0.672723  1
  Rb  Rb6  1  0.605527  0.935367  0.827277  1
  Rb  Rb7  1  0.278736  0.271264  0.315242  1
  Rb  Rb8  1  0.771264  0.778736  0.184758  1
  Rb  Rb9  1  0.221264  0.228736  0.815242  1
  Rb  Rb10  1  0.728736  0.721264  0.684758  1
  Rb  Rb11  1  0.107364  0.448937  0.675699  1
  Na  Na12  1  0.918771  0.081229  0.000000  1
  Na  Na13  1  0.581229  0.418771  0.500000  1
  Na  Na14  1  0.078993  0.921007  0.000000  1
  Na  Na15  1  0.421007  0.578993  0.500000  1
  Na  Na16  1  0.756284  0.243716  0.000000  1
  Na  Na17  1  0.743716  0.256284  0.500000  1
  Na  Na18  1  0.248084  0.751916  0.000000  1
  Na  Na19  1  0.251916  0.748084  0.500000  1
  Ta  Ta20  1  0.579125  0.420875  0.000000  1
  Ta  Ta21  1  0.920875  0.079125  0.500000  1
  Al  Al22  1  0.414347  0.585653  0.000000  1
  Al  Al23  1  0.085653  0.914347  0.500000  1
  P  P24  1  0.852727  0.552192  0.091438  1
  P  P25  1  0.447808  0.147273  0.908562  1
  P  P26  1  0.647273  0.947808  0.591438  1
  P  P27  1  0.944595  0.637634  0.594790  1
  P  P28  1  0.137634  0.444595  0.905210  1
  P  P29  1  0.555405  0.862366  0.094790  1
  P  P30  1  0.362366  0.055405  0.405210  1
  P  P31  1  0.193872  0.196603  0.585788  1
  P  P32  1  0.696603  0.693872  0.914212  1
  P  P33  1  0.306128  0.303397  0.085788  1
  P  P34  1  0.052192  0.352727  0.408562  1
  P  P35  1  0.803397  0.806128  0.414212  1
