# generated using pymatgen
data_HoEr(Si7Rh3)2
_symmetry_space_group_name_H-M   'P 1'
_cell_length_a   7.97348957
_cell_length_b   7.97348976
_cell_length_c   7.97349055
_cell_angle_alpha   57.10855355
_cell_angle_beta   57.10855008
_cell_angle_gamma   57.10854711
_symmetry_Int_Tables_number   1
_chemical_formula_structural   HoEr(Si7Rh3)2
_chemical_formula_sum   'Ho1 Er1 Si14 Rh6'
_cell_volume   334.56632864
_cell_formula_units_Z   1
loop_
 _symmetry_equiv_pos_site_id
 _symmetry_equiv_pos_as_xyz
  1  'x, y, z'
loop_
 _atom_site_type_symbol
 _atom_site_label
 _atom_site_symmetry_multiplicity
 _atom_site_fract_x
 _atom_site_fract_y
 _atom_site_fract_z
 _atom_site_occupancy
  Ho  Ho0  1  0.000000  0.000000  0.000000  1
  Er  Er1  1  0.500000  0.500000  0.500000  1
  Si  Si2  1  0.750125  0.750125  0.750125  1
  Si  Si3  1  0.249875  0.249875  0.249875  1
  Si  Si4  1  0.851501  0.065578  0.672090  1
  Si  Si5  1  0.672090  0.851501  0.065578  1
  Si  Si6  1  0.065578  0.672090  0.851501  1
  Si  Si7  1  0.648140  0.827833  0.434926  1
  Si  Si8  1  0.434926  0.648140  0.827833  1
  Si  Si9  1  0.827833  0.434926  0.648140  1
  Si  Si10  1  0.172167  0.565074  0.351860  1
  Si  Si11  1  0.565074  0.351860  0.172167  1
  Si  Si12  1  0.351860  0.172167  0.565074  1
  Si  Si13  1  0.934422  0.327910  0.148499  1
  Si  Si14  1  0.327910  0.148499  0.934422  1
  Si  Si15  1  0.148499  0.934422  0.327910  1
  Rh  Rh16  1  0.070117  0.429867  0.749902  1
  Rh  Rh17  1  0.250098  0.929883  0.570133  1
  Rh  Rh18  1  0.570133  0.250098  0.929883  1
  Rh  Rh19  1  0.929883  0.570133  0.250098  1
  Rh  Rh20  1  0.429867  0.749902  0.070117  1
  Rh  Rh21  1  0.749902  0.070117  0.429867  1
