# generated using pymatgen
data_Dy2TeC2
_symmetry_space_group_name_H-M   'P 1'
_cell_length_a   7.41552020
_cell_length_b   7.41551992
_cell_length_c   6.95494837
_cell_angle_alpha   100.89797597
_cell_angle_beta   100.89797643
_cell_angle_gamma   32.76939203
_symmetry_Int_Tables_number   1
_chemical_formula_structural   Dy2TeC2
_chemical_formula_sum   'Dy4 Te2 C4'
_cell_volume   202.94648191
_cell_formula_units_Z   2
loop_
 _symmetry_equiv_pos_site_id
 _symmetry_equiv_pos_as_xyz
  1  'x, y, z'
loop_
 _atom_site_type_symbol
 _atom_site_label
 _atom_site_symmetry_multiplicity
 _atom_site_fract_x
 _atom_site_fract_y
 _atom_site_fract_z
 _atom_site_occupancy
  Dy  Dy0  1  0.467054  0.839046  0.141311  1
  Dy  Dy1  1  0.160954  0.532946  0.358689  1
  Dy  Dy2  1  0.839046  0.467055  0.641311  1
  Dy  Dy3  1  0.532946  0.160954  0.858689  1
  Te  Te4  1  0.789275  0.210724  0.250000  1
  Te  Te5  1  0.210724  0.789275  0.750000  1
  C  C6  1  0.103996  0.355483  0.034744  1
  C  C7  1  0.644517  0.896004  0.465255  1
  C  C8  1  0.355483  0.103996  0.534744  1
  C  C9  1  0.896004  0.644517  0.965256  1
