# generated using pymatgen
data_DyEr5Co17P12Ru
_symmetry_space_group_name_H-M   'P 1'
_cell_length_a   3.68270300
_cell_length_b   10.48528100
_cell_length_c   12.17228900
_cell_angle_alpha   90.00000000
_cell_angle_beta   90.00000000
_cell_angle_gamma   90.00000000
_symmetry_Int_Tables_number   1
_chemical_formula_structural   DyEr5Co17P12Ru
_chemical_formula_sum   'Dy1 Er5 Co17 P12 Ru1'
_cell_volume   470.02290727
_cell_formula_units_Z   1
loop_
 _symmetry_equiv_pos_site_id
 _symmetry_equiv_pos_as_xyz
  1  'x, y, z'
loop_
 _atom_site_type_symbol
 _atom_site_label
 _atom_site_symmetry_multiplicity
 _atom_site_fract_x
 _atom_site_fract_y
 _atom_site_fract_z
 _atom_site_occupancy
  Dy  Dy0  1  0.250000  0.750000  0.522151  1
  Er  Er1  1  0.750000  0.250000  0.474678  1
  Er  Er2  1  0.250000  0.932212  0.793165  1
  Er  Er3  1  0.250000  0.567788  0.793165  1
  Er  Er4  1  0.750000  0.067273  0.206238  1
  Er  Er5  1  0.750000  0.432727  0.206238  1
  Co  Co6  1  0.750000  0.750000  0.160400  1
  Co  Co7  1  0.250000  0.250000  0.296201  1
  Co  Co8  1  0.750000  0.750000  0.704916  1
  Co  Co9  1  0.750000  0.250000  0.012776  1
  Co  Co10  1  0.250000  0.750000  0.985829  1
  Co  Co11  1  0.250000  0.418003  0.008936  1
  Co  Co12  1  0.250000  0.081997  0.008936  1
  Co  Co13  1  0.750000  0.583502  0.994476  1
  Co  Co14  1  0.750000  0.916498  0.994476  1
  Co  Co15  1  0.250000  0.452443  0.569386  1
  Co  Co16  1  0.250000  0.047557  0.569386  1
  Co  Co17  1  0.750000  0.546653  0.431149  1
  Co  Co18  1  0.750000  0.953347  0.431149  1
  Co  Co19  1  0.250000  0.871301  0.290969  1
  Co  Co20  1  0.250000  0.628699  0.290969  1
  Co  Co21  1  0.750000  0.128898  0.707965  1
  Co  Co22  1  0.750000  0.371102  0.707965  1
  P  P23  1  0.250000  0.250000  0.118497  1
  P  P24  1  0.750000  0.750000  0.882907  1
  P  P25  1  0.250000  0.250000  0.648622  1
  P  P26  1  0.750000  0.750000  0.344659  1
  P  P27  1  0.250000  0.438495  0.383265  1
  P  P28  1  0.250000  0.061505  0.383265  1
  P  P29  1  0.750000  0.561975  0.616363  1
  P  P30  1  0.750000  0.938025  0.616363  1
  P  P31  1  0.250000  0.901003  0.108480  1
  P  P32  1  0.250000  0.598997  0.108480  1
  P  P33  1  0.750000  0.094432  0.893785  1
  P  P34  1  0.750000  0.405568  0.893785  1
  Ru  Ru35  1  0.250000  0.250000  0.840013  1
