# generated using pymatgen
data_BiSb5(BrO4)2
_symmetry_space_group_name_H-M   'P 1'
_cell_length_a   5.75027200
_cell_length_b   5.68601800
_cell_length_c   18.94874000
_cell_angle_alpha   90.00000000
_cell_angle_beta   90.00000000
_cell_angle_gamma   90.00000000
_symmetry_Int_Tables_number   1
_chemical_formula_structural   BiSb5(BrO4)2
_chemical_formula_sum   'Bi2 Sb10 Br4 O16'
_cell_volume   619.55084719
_cell_formula_units_Z   2
loop_
 _symmetry_equiv_pos_site_id
 _symmetry_equiv_pos_as_xyz
  1  'x, y, z'
loop_
 _atom_site_type_symbol
 _atom_site_label
 _atom_site_symmetry_multiplicity
 _atom_site_fract_x
 _atom_site_fract_y
 _atom_site_fract_z
 _atom_site_occupancy
  Bi  Bi0  1  0.250000  0.208470  0.500000  1
  Bi  Bi1  1  0.250000  0.291530  0.000000  1
  Sb  Sb2  1  0.330215  0.691576  0.641871  1
  Sb  Sb3  1  0.825785  0.311134  0.643271  1
  Sb  Sb4  1  0.674215  0.188866  0.143271  1
  Sb  Sb5  1  0.825785  0.188866  0.856729  1
  Sb  Sb6  1  0.674215  0.311134  0.356729  1
  Sb  Sb7  1  0.169785  0.691576  0.358129  1
  Sb  Sb8  1  0.330215  0.808424  0.858129  1
  Sb  Sb9  1  0.169785  0.808424  0.141871  1
  Sb  Sb10  1  0.750000  0.834645  0.500000  1
  Sb  Sb11  1  0.750000  0.665355  0.000000  1
  Br  Br12  1  0.698012  0.750000  0.250000  1
  Br  Br13  1  0.301908  0.250000  0.750000  1
  Br  Br14  1  0.801988  0.750000  0.750000  1
  Br  Br15  1  0.198092  0.250000  0.250000  1
  O  O16  1  0.078190  0.916251  0.437864  1
  O  O17  1  0.421810  0.916251  0.562136  1
  O  O18  1  0.078190  0.583749  0.062136  1
  O  O19  1  0.421810  0.583749  0.937864  1
  O  O20  1  0.906734  0.087759  0.561506  1
  O  O21  1  0.593266  0.087759  0.438494  1
  O  O22  1  0.906734  0.412241  0.938494  1
  O  O23  1  0.593266  0.412241  0.061506  1
  O  O24  1  0.951534  0.458161  0.405870  1
  O  O25  1  0.440253  0.975019  0.092916  1
  O  O26  1  0.951534  0.041839  0.094130  1
  O  O27  1  0.548466  0.041839  0.905870  1
  O  O28  1  0.059747  0.524981  0.592916  1
  O  O29  1  0.440253  0.524981  0.407084  1
  O  O30  1  0.059747  0.975019  0.907084  1
  O  O31  1  0.548466  0.458161  0.594130  1
