# generated using pymatgen
data_Ca6Al24IrOs7
_symmetry_space_group_name_H-M   'P 1'
_cell_length_a   8.84716935
_cell_length_b   8.86226350
_cell_length_c   9.69504428
_cell_angle_alpha   90.00000054
_cell_angle_beta   89.88258494
_cell_angle_gamma   120.05644975
_symmetry_Int_Tables_number   1
_chemical_formula_structural   Ca6Al24IrOs7
_chemical_formula_sum   'Ca6 Al24 Ir1 Os7'
_cell_volume   657.93182091
_cell_formula_units_Z   1
loop_
 _symmetry_equiv_pos_site_id
 _symmetry_equiv_pos_as_xyz
  1  'x, y, z'
loop_
 _atom_site_type_symbol
 _atom_site_label
 _atom_site_symmetry_multiplicity
 _atom_site_fract_x
 _atom_site_fract_y
 _atom_site_fract_z
 _atom_site_occupancy
  Ca  Ca0  1  0.194463  0.386939  0.250560  1
  Ca  Ca1  1  0.805537  0.613061  0.749440  1
  Ca  Ca2  1  0.611578  0.805790  0.250227  1
  Ca  Ca3  1  0.388422  0.194210  0.749773  1
  Ca  Ca4  1  0.194463  0.807523  0.250560  1
  Ca  Ca5  1  0.805537  0.192477  0.749440  1
  Al  Al6  1  0.334933  0.667467  0.001473  1
  Al  Al7  1  0.665067  0.332533  0.998527  1
  Al  Al8  1  0.666810  0.333404  0.504316  1
  Al  Al9  1  0.333190  0.666596  0.495684  1
  Al  Al10  1  0.161533  0.324945  0.572434  1
  Al  Al11  1  0.838467  0.675055  0.427566  1
  Al  Al12  1  0.674065  0.837032  0.571301  1
  Al  Al13  1  0.835945  0.675686  0.072558  1
  Al  Al14  1  0.325935  0.162968  0.428699  1
  Al  Al15  1  0.164055  0.324314  0.927442  1
  Al  Al16  1  0.161533  0.836589  0.572434  1
  Al  Al17  1  0.324634  0.162318  0.072110  1
  Al  Al18  1  0.838467  0.163411  0.427566  1
  Al  Al19  1  0.675366  0.837682  0.927890  1
  Al  Al20  1  0.835945  0.160258  0.072558  1
  Al  Al21  1  0.164055  0.839742  0.927442  1
  Al  Al22  1  0.562419  0.122377  0.250031  1
  Al  Al23  1  0.437581  0.877623  0.749969  1
  Al  Al24  1  0.877266  0.438634  0.250357  1
  Al  Al25  1  0.122734  0.561366  0.749643  1
  Al  Al26  1  0.562419  0.440043  0.250031  1
  Al  Al27  1  0.437581  0.559957  0.749969  1
  Al  Al28  1  0.999976  0.999988  0.250056  1
  Al  Al29  1  0.000024  0.000012  0.749944  1
  Ir  Ir30  1  0.000000  0.500000  0.000000  1
  Os  Os31  1  0.500000  0.000000  0.000000  1
  Os  Os32  1  0.500000  0.000000  0.500000  1
  Os  Os33  1  0.500000  0.500000  0.000000  1
  Os  Os34  1  0.000000  0.500000  0.500000  1
  Os  Os35  1  0.500000  0.500000  0.500000  1
  Os  Os36  1  0.000000  0.000000  0.000000  1
  Os  Os37  1  0.000000  0.000000  0.500000  1
