# generated using pymatgen
data_Nd4TaIrO12
_symmetry_space_group_name_H-M   'P 1'
_cell_length_a   5.46174200
_cell_length_b   9.43754379
_cell_length_c   10.28371156
_cell_angle_alpha   88.98001774
_cell_angle_beta   90.00000000
_cell_angle_gamma   90.00000000
_symmetry_Int_Tables_number   1
_chemical_formula_structural   Nd4TaIrO12
_chemical_formula_sum   'Nd8 Ta2 Ir2 O24'
_cell_volume   529.99433539
_cell_formula_units_Z   2
loop_
 _symmetry_equiv_pos_site_id
 _symmetry_equiv_pos_as_xyz
  1  'x, y, z'
loop_
 _atom_site_type_symbol
 _atom_site_label
 _atom_site_symmetry_multiplicity
 _atom_site_fract_x
 _atom_site_fract_y
 _atom_site_fract_z
 _atom_site_occupancy
  Nd  Nd0  1  0.019881  0.102003  0.458298  1
  Nd  Nd1  1  0.519881  0.397997  0.541702  1
  Nd  Nd2  1  0.975029  0.602223  0.034553  1
  Nd  Nd3  1  0.475029  0.897777  0.965447  1
  Nd  Nd4  1  0.033317  0.227882  0.873200  1
  Nd  Nd5  1  0.533317  0.272118  0.126800  1
  Nd  Nd6  1  0.965142  0.710205  0.637378  1
  Nd  Nd7  1  0.465142  0.789795  0.362622  1
  Ta  Ta8  1  0.459966  0.505642  0.853319  1
  Ta  Ta9  1  0.959966  0.994358  0.146681  1
  Ir  Ir10  1  0.541251  0.002614  0.644060  1
  Ir  Ir11  1  0.041251  0.497386  0.355940  1
  O  O12  1  0.249065  0.410057  0.994066  1
  O  O13  1  0.749065  0.089943  0.005934  1
  O  O14  1  0.747792  0.910527  0.508506  1
  O  O15  1  0.247792  0.589473  0.491494  1
  O  O16  1  0.229037  0.111215  0.057667  1
  O  O17  1  0.729037  0.388785  0.942333  1
  O  O18  1  0.776859  0.610569  0.428536  1
  O  O19  1  0.276859  0.889431  0.571464  1
  O  O20  1  0.308282  0.370665  0.321447  1
  O  O21  1  0.808282  0.129335  0.678553  1
  O  O22  1  0.678036  0.863397  0.177839  1
  O  O23  1  0.178036  0.636603  0.822161  1
  O  O24  1  0.172364  0.952751  0.296562  1
  O  O25  1  0.672364  0.547249  0.703438  1
  O  O26  1  0.835819  0.442252  0.220026  1
  O  O27  1  0.335819  0.057748  0.779974  1
  O  O28  1  0.176175  0.638925  0.243492  1
  O  O29  1  0.676175  0.861075  0.756508  1
  O  O30  1  0.813188  0.140497  0.263194  1
  O  O31  1  0.313188  0.359503  0.736806  1
  O  O32  1  0.082798  0.842607  0.031248  1
  O  O33  1  0.582798  0.657393  0.968752  1
  O  O34  1  0.935998  0.351592  0.479258  1
  O  O35  1  0.435998  0.148408  0.520742  1
