# generated using pymatgen
data_LaMnSb12Ru2Pt
_symmetry_space_group_name_H-M   'P 1'
_cell_length_a   8.13820636
_cell_length_b   8.12141164
_cell_length_c   8.10777199
_cell_angle_alpha   109.42852780
_cell_angle_beta   109.52940570
_cell_angle_gamma   109.55377970
_symmetry_Int_Tables_number   1
_chemical_formula_structural   LaMnSb12Ru2Pt
_chemical_formula_sum   'La1 Mn1 Sb12 Ru2 Pt1'
_cell_volume   412.01475785
_cell_formula_units_Z   1
loop_
 _symmetry_equiv_pos_site_id
 _symmetry_equiv_pos_as_xyz
  1  'x, y, z'
loop_
 _atom_site_type_symbol
 _atom_site_label
 _atom_site_symmetry_multiplicity
 _atom_site_fract_x
 _atom_site_fract_y
 _atom_site_fract_z
 _atom_site_occupancy
  La  La0  1  0.000000  0.000000  0.000000  1
  Mn  Mn1  1  0.000000  0.500000  0.000000  1
  Sb  Sb2  1  0.149865  0.810931  0.652693  1
  Sb  Sb3  1  0.850135  0.189069  0.347307  1
  Sb  Sb4  1  0.842768  0.504216  0.670957  1
  Sb  Sb5  1  0.157232  0.495784  0.329043  1
  Sb  Sb6  1  0.828293  0.659960  0.156245  1
  Sb  Sb7  1  0.171707  0.340040  0.843755  1
  Sb  Sb8  1  0.502550  0.652519  0.841599  1
  Sb  Sb9  1  0.497450  0.347481  0.158401  1
  Sb  Sb10  1  0.671487  0.167791  0.818738  1
  Sb  Sb11  1  0.328513  0.832209  0.181262  1
  Sb  Sb12  1  0.661903  0.842038  0.502590  1
  Sb  Sb13  1  0.338097  0.157962  0.497410  1
  Ru  Ru14  1  0.000000  0.000000  0.500000  1
  Ru  Ru15  1  0.500000  0.500000  0.500000  1
  Pt  Pt16  1  0.500000  0.000000  0.000000  1
