# generated using pymatgen
data_TaTi2(CrP)3
_symmetry_space_group_name_H-M   'P 1'
_cell_length_a   6.42410566
_cell_length_b   6.42410662
_cell_length_c   3.26602200
_cell_angle_alpha   90.00000000
_cell_angle_beta   90.00000000
_cell_angle_gamma   119.71647766
_symmetry_Int_Tables_number   1
_chemical_formula_structural   TaTi2(CrP)3
_chemical_formula_sum   'Ta1 Ti2 Cr3 P3'
_cell_volume   117.06008592
_cell_formula_units_Z   1
loop_
 _symmetry_equiv_pos_site_id
 _symmetry_equiv_pos_as_xyz
  1  'x, y, z'
loop_
 _atom_site_type_symbol
 _atom_site_label
 _atom_site_symmetry_multiplicity
 _atom_site_fract_x
 _atom_site_fract_y
 _atom_site_fract_z
 _atom_site_occupancy
  Ta  Ta0  1  0.404846  0.404846  0.500000  1
  Ti  Ti1  1  0.594422  0.998794  0.500000  1
  Ti  Ti2  1  0.998794  0.594422  0.500000  1
  Cr  Cr3  1  0.000666  0.252846  0.000000  1
  Cr  Cr4  1  0.252846  0.000666  0.000000  1
  Cr  Cr5  1  0.747198  0.747198  0.000000  1
  P  P6  1  0.671814  0.331903  0.000000  1
  P  P7  1  0.331903  0.671814  0.000000  1
  P  P8  1  0.997510  0.997510  0.500000  1
