# generated using pymatgen
data_Pr2TeC2
_symmetry_space_group_name_H-M   'P 1'
_cell_length_a   7.73496692
_cell_length_b   7.73496745
_cell_length_c   7.26537965
_cell_angle_alpha   100.51061374
_cell_angle_beta   100.51061526
_cell_angle_gamma   32.89372541
_symmetry_Int_Tables_number   1
_chemical_formula_structural   Pr2TeC2
_chemical_formula_sum   'Pr4 Te2 C4'
_cell_volume   231.76076587
_cell_formula_units_Z   2
loop_
 _symmetry_equiv_pos_site_id
 _symmetry_equiv_pos_as_xyz
  1  'x, y, z'
loop_
 _atom_site_type_symbol
 _atom_site_label
 _atom_site_symmetry_multiplicity
 _atom_site_fract_x
 _atom_site_fract_y
 _atom_site_fract_z
 _atom_site_occupancy
  Pr  Pr0  1  0.844016  0.455906  0.142099  1
  Pr  Pr1  1  0.544094  0.155984  0.357901  1
  Pr  Pr2  1  0.455907  0.844017  0.642100  1
  Pr  Pr3  1  0.155984  0.544093  0.857900  1
  Te  Te4  1  0.206719  0.793281  0.250000  1
  Te  Te5  1  0.793280  0.206719  0.749999  1
  C  C6  1  0.362422  0.098976  0.032501  1
  C  C7  1  0.901024  0.637578  0.467498  1
  C  C8  1  0.098976  0.362423  0.532501  1
  C  C9  1  0.637578  0.901024  0.967499  1
