# generated using pymatgen
data_Sb13Ru3Cl
_symmetry_space_group_name_H-M   'P 1'
_cell_length_a   8.32013092
_cell_length_b   8.32012900
_cell_length_c   8.32012909
_cell_angle_alpha   109.70636059
_cell_angle_beta   109.70638032
_cell_angle_gamma   109.70636757
_symmetry_Int_Tables_number   1
_chemical_formula_structural   Sb13Ru3Cl
_chemical_formula_sum   'Sb13 Ru3 Cl1'
_cell_volume   439.46969558
_cell_formula_units_Z   1
loop_
 _symmetry_equiv_pos_site_id
 _symmetry_equiv_pos_as_xyz
  1  'x, y, z'
loop_
 _atom_site_type_symbol
 _atom_site_label
 _atom_site_symmetry_multiplicity
 _atom_site_fract_x
 _atom_site_fract_y
 _atom_site_fract_z
 _atom_site_occupancy
  Sb  Sb0  1  0.500000  0.500000  0.500000  1
  Sb  Sb1  1  0.148346  0.828726  0.677890  1
  Sb  Sb2  1  0.125916  0.513048  0.338170  1
  Sb  Sb3  1  0.486952  0.661830  0.874084  1
  Sb  Sb4  1  0.322110  0.851654  0.171274  1
  Sb  Sb5  1  0.828726  0.677890  0.148346  1
  Sb  Sb6  1  0.661830  0.874084  0.486952  1
  Sb  Sb7  1  0.171274  0.322110  0.851654  1
  Sb  Sb8  1  0.677890  0.148346  0.828726  1
  Sb  Sb9  1  0.338170  0.125916  0.513048  1
  Sb  Sb10  1  0.513048  0.338170  0.125916  1
  Sb  Sb11  1  0.874084  0.486952  0.661830  1
  Sb  Sb12  1  0.851654  0.171274  0.322110  1
  Ru  Ru13  1  0.000000  0.000000  0.500000  1
  Ru  Ru14  1  0.500000  0.000000  0.000000  1
  Ru  Ru15  1  0.000000  0.500000  0.000000  1
  Cl  Cl16  1  0.000000  0.000000  0.000000  1
