# generated using pymatgen
data_Y2Lu(B3Ir4)2
_symmetry_space_group_name_H-M   'P 1'
_cell_length_a   10.00092558
_cell_length_b   9.17846253
_cell_length_c   5.56524300
_cell_angle_alpha   81.44484014
_cell_angle_beta   65.16886957
_cell_angle_gamma   33.38628453
_symmetry_Int_Tables_number   1
_chemical_formula_structural   Y2Lu(B3Ir4)2
_chemical_formula_sum   'Y2 Lu1 B6 Ir8'
_cell_volume   233.34778689
_cell_formula_units_Z   1
loop_
 _symmetry_equiv_pos_site_id
 _symmetry_equiv_pos_as_xyz
  1  'x, y, z'
loop_
 _atom_site_type_symbol
 _atom_site_label
 _atom_site_symmetry_multiplicity
 _atom_site_fract_x
 _atom_site_fract_y
 _atom_site_fract_z
 _atom_site_occupancy
  Y  Y0  1  0.178377  0.178377  0.821623  1
  Y  Y1  1  0.821623  0.821623  0.178377  1
  Lu  Lu2  1  0.000000  0.000000  0.000000  1
  B  B3  1  0.824919  0.524479  0.475521  1
  B  B4  1  0.175081  0.475521  0.524479  1
  B  B5  1  0.475521  0.175081  0.824919  1
  B  B6  1  0.671539  0.328461  0.671539  1
  B  B7  1  0.524479  0.824919  0.175081  1
  B  B8  1  0.328461  0.671539  0.328461  1
  Ir  Ir9  1  0.414505  0.414505  0.585495  1
  Ir  Ir10  1  0.586920  0.586920  0.913080  1
  Ir  Ir11  1  0.086920  0.086920  0.413080  1
  Ir  Ir12  1  0.913080  0.913080  0.586920  1
  Ir  Ir13  1  0.585495  0.585495  0.414505  1
  Ir  Ir14  1  0.250000  0.250000  0.250000  1
  Ir  Ir15  1  0.413080  0.413080  0.086920  1
  Ir  Ir16  1  0.750000  0.750000  0.750000  1
