# generated using pymatgen
data_Ho8Hf12Si15Sb
_symmetry_space_group_name_H-M   'P 1'
_cell_length_a   7.33407508
_cell_length_b   7.29900816
_cell_length_c   13.40685400
_cell_angle_alpha   90.03336167
_cell_angle_beta   89.69770278
_cell_angle_gamma   89.80830559
_symmetry_Int_Tables_number   1
_chemical_formula_structural   Ho8Hf12Si15Sb
_chemical_formula_sum   'Ho8 Hf12 Si15 Sb1'
_cell_volume   717.67451976
_cell_formula_units_Z   1
loop_
 _symmetry_equiv_pos_site_id
 _symmetry_equiv_pos_as_xyz
  1  'x, y, z'
loop_
 _atom_site_type_symbol
 _atom_site_label
 _atom_site_symmetry_multiplicity
 _atom_site_fract_x
 _atom_site_fract_y
 _atom_site_fract_z
 _atom_site_occupancy
  Ho  Ho0  1  0.346892  0.001383  0.460494  1
  Ho  Ho1  1  0.502566  0.839158  0.717224  1
  Ho  Ho2  1  0.503645  0.155294  0.215453  1
  Ho  Ho3  1  0.844361  0.495251  0.283256  1
  Ho  Ho4  1  0.154228  0.510839  0.787679  1
  Ho  Ho5  1  0.658177  0.993459  0.967981  1
  Ho  Ho6  1  0.992025  0.353729  0.528396  1
  Ho  Ho7  1  0.997330  0.654780  0.035842  1
  Hf  Hf8  1  0.325421  0.325006  0.000771  1
  Hf  Hf9  1  0.175046  0.825013  0.249421  1
  Hf  Hf10  1  0.818352  0.173695  0.751818  1
  Hf  Hf11  1  0.672688  0.674215  0.498894  1
  Hf  Hf12  1  0.149621  0.003705  0.880288  1
  Hf  Hf13  1  0.496970  0.646794  0.125596  1
  Hf  Hf14  1  0.511201  0.358289  0.626760  1
  Hf  Hf15  1  0.651346  0.497816  0.877133  1
  Hf  Hf16  1  0.350302  0.505315  0.373407  1
  Hf  Hf17  1  0.849315  0.997360  0.374602  1
  Hf  Hf18  1  0.004953  0.147589  0.124580  1
  Hf  Hf19  1  0.984561  0.839483  0.620481  1
  Si  Si20  1  0.363021  0.704977  0.933988  1
  Si  Si21  1  0.634748  0.295855  0.431202  1
  Si  Si22  1  0.706528  0.360941  0.069227  1
  Si  Si23  1  0.295271  0.639635  0.567028  1
  Si  Si24  1  0.795021  0.862107  0.182183  1
  Si  Si25  1  0.137238  0.205074  0.317250  1
  Si  Si26  1  0.863630  0.797070  0.818280  1
  Si  Si27  1  0.298314  0.950754  0.066170  1
  Si  Si28  1  0.550547  0.794629  0.312990  1
  Si  Si29  1  0.461265  0.204495  0.821654  1
  Si  Si30  1  0.798298  0.546277  0.687376  1
  Si  Si31  1  0.204515  0.450652  0.185419  1
  Si  Si32  1  0.701121  0.049859  0.564128  1
  Si  Si33  1  0.951847  0.296730  0.935895  1
  Si  Si34  1  0.048247  0.706309  0.432484  1
  Sb  Sb35  1  0.201391  0.136463  0.674650  1
