# generated using pymatgen
data_Ho16Lu4Si15Se
_symmetry_space_group_name_H-M   'P 1'
_cell_length_a   7.45188676
_cell_length_b   7.58501202
_cell_length_c   14.53808483
_cell_angle_alpha   89.67321884
_cell_angle_beta   85.65229500
_cell_angle_gamma   89.87646836
_symmetry_Int_Tables_number   1
_chemical_formula_structural   Ho16Lu4Si15Se
_chemical_formula_sum   'Ho16 Lu4 Si15 Se1'
_cell_volume   819.35189339
_cell_formula_units_Z   1
loop_
 _symmetry_equiv_pos_site_id
 _symmetry_equiv_pos_as_xyz
  1  'x, y, z'
loop_
 _atom_site_type_symbol
 _atom_site_label
 _atom_site_symmetry_multiplicity
 _atom_site_fract_x
 _atom_site_fract_y
 _atom_site_fract_z
 _atom_site_occupancy
  Ho  Ho0  1  0.014138  0.831428  0.104285  1
  Ho  Ho1  1  0.473785  0.685307  0.398201  1
  Ho  Ho2  1  0.484412  0.314452  0.897460  1
  Ho  Ho3  1  0.026756  0.183765  0.602174  1
  Ho  Ho4  1  0.994939  0.171588  0.898361  1
  Ho  Ho5  1  0.525986  0.314315  0.601669  1
  Ho  Ho6  1  0.501980  0.687009  0.102866  1
  Ho  Ho7  1  0.972890  0.814150  0.397961  1
  Ho  Ho8  1  0.639412  0.837904  0.879097  1
  Ho  Ho9  1  0.176857  0.673575  0.623120  1
  Ho  Ho10  1  0.859880  0.335271  0.119045  1
  Ho  Ho11  1  0.324763  0.176175  0.377835  1
  Ho  Ho12  1  0.359548  0.167397  0.120354  1
  Ho  Ho13  1  0.824070  0.325894  0.377628  1
  Ho  Ho14  1  0.143388  0.665491  0.881728  1
  Ho  Ho15  1  0.675982  0.823653  0.623178  1
  Lu  Lu16  1  0.671252  0.996135  0.246652  1
  Lu  Lu17  1  0.169516  0.505946  0.245892  1
  Lu  Lu18  1  0.831222  0.493027  0.747839  1
  Lu  Lu19  1  0.328589  0.004041  0.752805  1
  Si  Si20  1  0.786664  0.632257  0.250329  1
  Si  Si21  1  0.287004  0.869926  0.252050  1
  Si  Si22  1  0.711871  0.132200  0.749350  1
  Si  Si23  1  0.210350  0.366692  0.750117  1
  Si  Si24  1  0.042382  0.111808  0.251813  1
  Si  Si25  1  0.542737  0.392687  0.250129  1
  Si  Si26  1  0.459102  0.607738  0.751065  1
  Si  Si27  1  0.958373  0.887588  0.750352  1
  Si  Si28  1  0.356640  0.972226  0.543755  1
  Si  Si29  1  0.709701  0.031977  0.042484  1
  Si  Si30  1  0.144991  0.473048  0.457105  1
  Si  Si31  1  0.210653  0.470973  0.044404  1
  Si  Si32  1  0.645263  0.026725  0.456760  1
  Si  Si33  1  0.295687  0.966705  0.956590  1
  Si  Si34  1  0.856164  0.525636  0.543793  1
  Se  Se35  1  0.783052  0.525291  0.951753  1
