# generated using pymatgen
data_Zr7Nb(TcOs)4
_symmetry_space_group_name_H-M   'P 1'
_cell_length_a   6.54146600
_cell_length_b   4.64372800
_cell_length_c   9.27269900
_cell_angle_alpha   90.00000000
_cell_angle_beta   89.99929384
_cell_angle_gamma   90.00000000
_symmetry_Int_Tables_number   1
_chemical_formula_structural   Zr7Nb(TcOs)4
_chemical_formula_sum   'Zr7 Nb1 Tc4 Os4'
_cell_volume   281.67481935
_cell_formula_units_Z   1
loop_
 _symmetry_equiv_pos_site_id
 _symmetry_equiv_pos_as_xyz
  1  'x, y, z'
loop_
 _atom_site_type_symbol
 _atom_site_label
 _atom_site_symmetry_multiplicity
 _atom_site_fract_x
 _atom_site_fract_y
 _atom_site_fract_z
 _atom_site_occupancy
  Zr  Zr0  1  0.499712  0.749999  0.125004  1
  Zr  Zr1  1  0.000038  0.249999  0.373802  1
  Zr  Zr2  1  0.499993  0.249999  0.374442  1
  Zr  Zr3  1  0.500394  0.749999  0.624999  1
  Zr  Zr4  1  0.999643  0.749999  0.624997  1
  Zr  Zr5  1  0.499908  0.249999  0.875553  1
  Zr  Zr6  1  0.999960  0.249999  0.876190  1
  Nb  Nb7  1  0.000338  0.749999  0.124993  1
  Tc  Tc8  1  0.756561  0.249999  0.124991  1
  Tc  Tc9  1  0.246468  0.749999  0.369977  1
  Tc  Tc10  1  0.749829  0.249999  0.625012  1
  Tc  Tc11  1  0.246399  0.749999  0.880038  1
  Os  Os12  1  0.245445  0.249999  0.124994  1
  Os  Os13  1  0.752625  0.749999  0.370740  1
  Os  Os14  1  0.250139  0.249999  0.625005  1
  Os  Os15  1  0.752551  0.749999  0.879261  1
