# generated using pymatgen
data_Sm5YC2Br7
_symmetry_space_group_name_H-M   'P 1'
_cell_length_a   10.74983897
_cell_length_b   10.74983797
_cell_length_c   12.22339981
_cell_angle_alpha   57.46195002
_cell_angle_beta   57.46195291
_cell_angle_gamma   20.88828787
_symmetry_Int_Tables_number   1
_chemical_formula_structural   Sm5YC2Br7
_chemical_formula_sum   'Sm5 Y1 C2 Br7'
_cell_volume   421.63221146
_cell_formula_units_Z   1
loop_
 _symmetry_equiv_pos_site_id
 _symmetry_equiv_pos_as_xyz
  1  'x, y, z'
loop_
 _atom_site_type_symbol
 _atom_site_label
 _atom_site_symmetry_multiplicity
 _atom_site_fract_x
 _atom_site_fract_y
 _atom_site_fract_z
 _atom_site_occupancy
  Sm  Sm0  1  0.230140  0.230140  0.836460  1
  Sm  Sm1  1  0.314451  0.314451  0.364857  1
  Sm  Sm2  1  0.129883  0.129883  0.443172  1
  Sm  Sm3  1  0.869576  0.869576  0.557313  1
  Sm  Sm4  1  0.686131  0.686131  0.635253  1
  Y  Y5  1  0.769264  0.769264  0.166909  1
  C  C6  1  0.280263  0.280263  0.606499  1
  C  C7  1  0.720211  0.720211  0.390801  1
  Br  Br8  1  0.167845  0.167845  0.163904  1
  Br  Br9  1  0.836115  0.836115  0.835580  1
  Br  Br10  1  0.057719  0.057719  0.719498  1
  Br  Br11  1  0.942496  0.942496  0.279259  1
  Br  Br12  1  0.500389  0.500389  0.499410  1
  Br  Br13  1  0.385613  0.385613  0.069094  1
  Br  Br14  1  0.609903  0.609903  0.931993  1
