# generated using pymatgen
data_Nd7Bi(MoO6)4
_symmetry_space_group_name_H-M   'P 1'
_cell_length_a   5.61064927
_cell_length_b   10.24455631
_cell_length_c   10.28539700
_cell_angle_alpha   68.49887181
_cell_angle_beta   74.75986818
_cell_angle_gamma   75.15168892
_symmetry_Int_Tables_number   1
_chemical_formula_structural   Nd7Bi(MoO6)4
_chemical_formula_sum   'Nd7 Bi1 Mo4 O24'
_cell_volume   522.21712745
_cell_formula_units_Z   1
loop_
 _symmetry_equiv_pos_site_id
 _symmetry_equiv_pos_as_xyz
  1  'x, y, z'
loop_
 _atom_site_type_symbol
 _atom_site_label
 _atom_site_symmetry_multiplicity
 _atom_site_fract_x
 _atom_site_fract_y
 _atom_site_fract_z
 _atom_site_occupancy
  Nd  Nd0  1  0.250906  0.366924  0.632788  1
  Nd  Nd1  1  0.751807  0.631419  0.368302  1
  Nd  Nd2  1  0.247779  0.889407  0.115000  1
  Nd  Nd3  1  0.748089  0.115982  0.890500  1
  Nd  Nd4  1  0.381403  0.943843  0.708863  1
  Nd  Nd5  1  0.616612  0.054680  0.287576  1
  Nd  Nd6  1  0.118522  0.288782  0.054297  1
  Bi  Bi7  1  0.865517  0.727814  0.946573  1
  Mo  Mo8  1  0.058115  0.797365  0.506373  1
  Mo  Mo9  1  0.941123  0.201956  0.491726  1
  Mo  Mo10  1  0.440413  0.484339  0.204795  1
  Mo  Mo11  1  0.560422  0.509662  0.796145  1
  O  O12  1  0.085147  0.160936  0.687362  1
  O  O13  1  0.912324  0.837620  0.313227  1
  O  O14  1  0.409605  0.309286  0.836122  1
  O  O15  1  0.603375  0.694927  0.158339  1
  O  O16  1  0.358156  0.826325  0.379199  1
  O  O17  1  0.640218  0.172343  0.615188  1
  O  O18  1  0.151717  0.616758  0.178483  1
  O  O19  1  0.859201  0.384297  0.826568  1
  O  O20  1  0.145083  0.791853  0.666784  1
  O  O21  1  0.862089  0.210972  0.326472  1
  O  O22  1  0.353853  0.319251  0.219629  1
  O  O23  1  0.628965  0.680000  0.777275  1
  O  O24  1  0.235406  0.070274  0.473679  1
  O  O25  1  0.763158  0.928757  0.525618  1
  O  O26  1  0.285165  0.517320  0.937600  1
  O  O27  1  0.730229  0.470121  0.074967  1
  O  O28  1  0.017848  0.615522  0.544243  1
  O  O29  1  0.982307  0.383273  0.455686  1
  O  O30  1  0.487169  0.455722  0.382444  1
  O  O31  1  0.514385  0.542006  0.615712  1
  O  O32  1  0.578230  0.923807  0.890067  1
  O  O33  1  0.420820  0.076938  0.108536  1
  O  O34  1  0.921211  0.108942  0.076132  1
  O  O35  1  0.073630  0.890579  0.927733  1
