# generated using pymatgen
data_YEr11Sc8(GaO4)12
_symmetry_space_group_name_H-M   'P 1'
_cell_length_a   10.85228482
_cell_length_b   10.85221579
_cell_length_c   10.85363809
_cell_angle_alpha   109.48110100
_cell_angle_beta   109.48165339
_cell_angle_gamma   109.44593622
_symmetry_Int_Tables_number   1
_chemical_formula_structural   YEr11Sc8(GaO4)12
_chemical_formula_sum   'Y1 Er11 Sc8 Ga12 O48'
_cell_volume   984.05562975
_cell_formula_units_Z   1
loop_
 _symmetry_equiv_pos_site_id
 _symmetry_equiv_pos_as_xyz
  1  'x, y, z'
loop_
 _atom_site_type_symbol
 _atom_site_label
 _atom_site_symmetry_multiplicity
 _atom_site_fract_x
 _atom_site_fract_y
 _atom_site_fract_z
 _atom_site_occupancy
  Y  Y0  1  0.874986  0.624997  0.249998  1
  Er  Er1  1  0.249964  0.374947  0.124983  1
  Er  Er2  1  0.749921  0.625073  0.874728  1
  Er  Er3  1  0.749912  0.124987  0.374995  1
  Er  Er4  1  0.125083  0.250022  0.375016  1
  Er  Er5  1  0.375017  0.750060  0.124993  1
  Er  Er6  1  0.250359  0.875224  0.625305  1
  Er  Er7  1  0.874951  0.750079  0.625280  1
  Er  Er8  1  0.624774  0.249659  0.874696  1
  Er  Er9  1  0.374990  0.124994  0.250011  1
  Er  Er10  1  0.624986  0.874988  0.749991  1
  Er  Er11  1  0.125017  0.375018  0.750025  1
  Sc  Sc12  1  0.000024  0.999991  0.999986  1
  Sc  Sc13  1  0.500004  0.000038  0.500010  1
  Sc  Sc14  1  0.000176  0.499936  0.500451  1
  Sc  Sc15  1  0.499963  0.999992  0.999985  1
  Sc  Sc16  1  0.499490  0.499725  0.999550  1
  Sc  Sc17  1  0.500006  0.499974  0.500016  1
  Sc  Sc18  1  0.000281  0.000513  0.500449  1
  Sc  Sc19  1  0.000071  0.499830  0.999552  1
  Ga  Ga20  1  0.250508  0.625081  0.375188  1
  Ga  Ga21  1  0.749985  0.375011  0.624960  1
  Ga  Ga22  1  0.749896  0.875319  0.124815  1
  Ga  Ga23  1  0.374977  0.249953  0.624959  1
  Ga  Ga24  1  0.624676  0.750106  0.375183  1
  Ga  Ga25  1  0.250046  0.125019  0.875034  1
  Ga  Ga26  1  0.124996  0.750017  0.875046  1
  Ga  Ga27  1  0.874914  0.249494  0.124814  1
  Ga  Ga28  1  0.624473  0.374473  0.249998  1
  Ga  Ga29  1  0.375009  0.625009  0.750001  1
  Ga  Ga30  1  0.874985  0.124984  0.749998  1
  Ga  Ga31  1  0.125521  0.875519  0.249994  1
  O  O32  1  0.467235  0.371915  0.285507  1
  O  O33  1  0.532541  0.628038  0.714498  1
  O  O34  1  0.586403  0.181719  0.214477  1
  O  O35  1  0.913543  0.128154  0.595524  1
  O  O36  1  0.285552  0.467354  0.371963  1
  O  O37  1  0.318278  0.913593  0.285504  1
  O  O38  1  0.413542  0.818042  0.785506  1
  O  O39  1  0.088520  0.874197  0.405879  1
  O  O40  1  0.714427  0.532548  0.628131  1
  O  O41  1  0.681976  0.086464  0.714496  1
  O  O42  1  0.032634  0.318021  0.904478  1
  O  O43  1  0.214468  0.586500  0.181965  1
  O  O44  1  0.128082  0.032766  0.214488  1
  O  O45  1  0.968317  0.682643  0.094125  1
  O  O46  1  0.785460  0.413511  0.818029  1
  O  O47  1  0.871962  0.967470  0.785495  1
  O  O48  1  0.595386  0.913596  0.128046  1
  O  O49  1  0.181972  0.467355  0.595512  1
  O  O50  1  0.404430  0.086290  0.871868  1
  O  O51  1  0.817361  0.531681  0.405879  1
  O  O52  1  0.904549  0.032511  0.318051  1
  O  O53  1  0.371851  0.586460  0.904483  1
  O  O54  1  0.095489  0.967438  0.681980  1
  O  O55  1  0.625798  0.411479  0.094114  1
  O  O56  1  0.371973  0.285485  0.467469  1
  O  O57  1  0.586415  0.904608  0.371952  1
  O  O58  1  0.627867  0.714416  0.532636  1
  O  O59  1  0.413696  0.095568  0.628124  1
  O  O60  1  0.128086  0.595419  0.913406  1
  O  O61  1  0.032669  0.214453  0.128056  1
  O  O62  1  0.871896  0.403295  0.085153  1
  O  O63  1  0.967442  0.785569  0.871875  1
  O  O64  1  0.318023  0.904499  0.032531  1
  O  O65  1  0.913506  0.285540  0.318046  1
  O  O66  1  0.681776  0.095220  0.967362  1
  O  O67  1  0.086486  0.714537  0.681963  1
  O  O68  1  0.182010  0.214677  0.586596  1
  O  O69  1  0.467492  0.595458  0.181958  1
  O  O70  1  0.818121  0.786740  0.414852  1
  O  O71  1  0.532562  0.404509  0.818022  1
  O  O72  1  0.285317  0.317994  0.913405  1
  O  O73  1  0.713245  0.681861  0.085144  1
  O  O74  1  0.214517  0.128019  0.032535  1
  O  O75  1  0.785589  0.872143  0.967361  1
  O  O76  1  0.904582  0.371913  0.586593  1
  O  O77  1  0.096711  0.628091  0.414844  1
  O  O78  1  0.595502  0.181988  0.467474  1
  O  O79  1  0.404780  0.818221  0.532634  1
