# generated using pymatgen
data_Ho2Co9As6Ru
_symmetry_space_group_name_H-M   'P 1'
_cell_length_a   3.79923100
_cell_length_b   10.76034200
_cell_length_c   12.19475600
_cell_angle_alpha   90.00000000
_cell_angle_beta   90.00000000
_cell_angle_gamma   90.00000000
_symmetry_Int_Tables_number   1
_chemical_formula_structural   Ho2Co9As6Ru
_chemical_formula_sum   'Ho4 Co18 As12 Ru2'
_cell_volume   498.53412365
_cell_formula_units_Z   2
loop_
 _symmetry_equiv_pos_site_id
 _symmetry_equiv_pos_as_xyz
  1  'x, y, z'
loop_
 _atom_site_type_symbol
 _atom_site_label
 _atom_site_symmetry_multiplicity
 _atom_site_fract_x
 _atom_site_fract_y
 _atom_site_fract_z
 _atom_site_occupancy
  Ho  Ho0  1  0.250000  0.580744  0.700940  1
  Ho  Ho1  1  0.250000  0.919256  0.200940  1
  Ho  Ho2  1  0.750000  0.415341  0.296060  1
  Ho  Ho3  1  0.750000  0.084659  0.796060  1
  Co  Co4  1  0.750000  0.287755  0.008664  1
  Co  Co5  1  0.750000  0.212245  0.508664  1
  Co  Co6  1  0.250000  0.406230  0.487670  1
  Co  Co7  1  0.250000  0.093770  0.987670  1
  Co  Co8  1  0.750000  0.592140  0.511670  1
  Co  Co9  1  0.750000  0.907860  0.011670  1
  Co  Co10  1  0.250000  0.215321  0.177313  1
  Co  Co11  1  0.250000  0.284679  0.677313  1
  Co  Co12  1  0.750000  0.783803  0.823720  1
  Co  Co13  1  0.750000  0.716197  0.323720  1
  Co  Co14  1  0.250000  0.887857  0.699480  1
  Co  Co15  1  0.250000  0.612143  0.199480  1
  Co  Co16  1  0.750000  0.115754  0.302643  1
  Co  Co17  1  0.750000  0.384246  0.802643  1
  Co  Co18  1  0.250000  0.467064  0.932046  1
  Co  Co19  1  0.250000  0.032936  0.432046  1
  Co  Co20  1  0.750000  0.532180  0.068667  1
  Co  Co21  1  0.750000  0.967820  0.568667  1
  As  As22  1  0.250000  0.414106  0.113374  1
  As  As23  1  0.250000  0.085894  0.613374  1
  As  As24  1  0.750000  0.582634  0.885036  1
  As  As25  1  0.750000  0.917366  0.385036  1
  As  As26  1  0.250000  0.269022  0.869810  1
  As  As27  1  0.250000  0.230978  0.369810  1
  As  As28  1  0.750000  0.731134  0.132732  1
  As  As29  1  0.750000  0.768866  0.632732  1
  As  As30  1  0.250000  0.594166  0.389644  1
  As  As31  1  0.250000  0.905834  0.889644  1
  As  As32  1  0.750000  0.398831  0.608948  1
  As  As33  1  0.750000  0.101169  0.108948  1
  Ru  Ru34  1  0.250000  0.712438  0.991581  1
  Ru  Ru35  1  0.250000  0.787562  0.491581  1
