# generated using pymatgen
data_Yb2IrRh3(PbO7)2
_symmetry_space_group_name_H-M   'P 1'
_cell_length_a   7.27453457
_cell_length_b   7.24159077
_cell_length_c   7.22766031
_cell_angle_alpha   59.59871411
_cell_angle_beta   59.78524084
_cell_angle_gamma   59.84940520
_symmetry_Int_Tables_number   1
_chemical_formula_structural   Yb2IrRh3(PbO7)2
_chemical_formula_sum   'Yb2 Ir1 Rh3 Pb2 O14'
_cell_volume   267.66390136
_cell_formula_units_Z   1
loop_
 _symmetry_equiv_pos_site_id
 _symmetry_equiv_pos_as_xyz
  1  'x, y, z'
loop_
 _atom_site_type_symbol
 _atom_site_label
 _atom_site_symmetry_multiplicity
 _atom_site_fract_x
 _atom_site_fract_y
 _atom_site_fract_z
 _atom_site_occupancy
  Yb  Yb0  1  0.625000  0.125000  0.125000  1
  Yb  Yb1  1  0.125000  0.125000  0.125000  1
  Ir  Ir2  1  0.625000  0.125000  0.625000  1
  Rh  Rh3  1  0.125000  0.625000  0.625000  1
  Rh  Rh4  1  0.625000  0.625000  0.125000  1
  Rh  Rh5  1  0.625000  0.625000  0.625000  1
  Pb  Pb6  1  0.125000  0.625000  0.125000  1
  Pb  Pb7  1  0.125000  0.125000  0.625000  1
  O  O8  1  0.711859  0.703361  0.293001  1
  O  O9  1  0.298345  0.295082  0.694456  1
  O  O10  1  0.712117  0.295082  0.694456  1
  O  O11  1  0.291779  0.703361  0.293001  1
  O  O12  1  0.291825  0.710843  0.705508  1
  O  O13  1  0.704531  0.291819  0.299119  1
  O  O14  1  0.538141  0.546639  0.956999  1
  O  O15  1  0.951655  0.954918  0.555544  1
  O  O16  1  0.537883  0.954918  0.555544  1
  O  O17  1  0.958221  0.546639  0.956999  1
  O  O18  1  0.958175  0.539157  0.544492  1
  O  O19  1  0.545469  0.958181  0.950881  1
  O  O20  1  0.248565  0.249371  0.253498  1
  O  O21  1  0.001435  0.000629  0.996502  1
