# generated using pymatgen
data_Lu4SiI6
_symmetry_space_group_name_H-M   'P 1'
_cell_length_a   4.14994100
_cell_length_b   13.67800200
_cell_length_c   14.48720900
_cell_angle_alpha   90.00000000
_cell_angle_beta   90.00000000
_cell_angle_gamma   90.00000000
_symmetry_Int_Tables_number   1
_chemical_formula_structural   Lu4SiI6
_chemical_formula_sum   'Lu8 Si2 I12'
_cell_volume   822.33601455
_cell_formula_units_Z   2
loop_
 _symmetry_equiv_pos_site_id
 _symmetry_equiv_pos_as_xyz
  1  'x, y, z'
loop_
 _atom_site_type_symbol
 _atom_site_label
 _atom_site_symmetry_multiplicity
 _atom_site_fract_x
 _atom_site_fract_y
 _atom_site_fract_z
 _atom_site_occupancy
  Lu  Lu0  1  0.500000  0.113239  0.347969  1
  Lu  Lu1  1  0.500000  0.886761  0.652031  1
  Lu  Lu2  1  0.500000  0.613239  0.152031  1
  Lu  Lu3  1  0.500000  0.386761  0.847969  1
  Lu  Lu4  1  0.000000  0.109429  0.572784  1
  Lu  Lu5  1  0.000000  0.890571  0.427216  1
  Lu  Lu6  1  0.000000  0.609429  0.927216  1
  Lu  Lu7  1  0.000000  0.390571  0.072784  1
  Si  Si8  1  0.500000  0.000000  0.500000  1
  Si  Si9  1  0.500000  0.500000  0.000000  1
  I  I10  1  0.500000  0.245694  0.161557  1
  I  I11  1  0.500000  0.754306  0.838443  1
  I  I12  1  0.500000  0.745694  0.338443  1
  I  I13  1  0.500000  0.254306  0.661557  1
  I  I14  1  0.000000  0.258851  0.413124  1
  I  I15  1  0.000000  0.741149  0.586876  1
  I  I16  1  0.000000  0.758851  0.086876  1
  I  I17  1  0.000000  0.241149  0.913124  1
  I  I18  1  0.000000  0.999665  0.240093  1
  I  I19  1  0.000000  0.000335  0.759907  1
  I  I20  1  0.000000  0.499665  0.259907  1
  I  I21  1  0.000000  0.500335  0.740093  1
