# generated using pymatgen
data_Y5Er2Ru3
_symmetry_space_group_name_H-M   'P 1'
_cell_length_a   8.68392383
_cell_length_b   8.68392367
_cell_length_c   8.68392500
_cell_angle_alpha   109.47121908
_cell_angle_beta   109.47121870
_cell_angle_gamma   109.47122295
_symmetry_Int_Tables_number   1
_chemical_formula_structural   Y5Er2Ru3
_chemical_formula_sum   'Y10 Er4 Ru6'
_cell_volume   504.11100926
_cell_formula_units_Z   2
loop_
 _symmetry_equiv_pos_site_id
 _symmetry_equiv_pos_as_xyz
  1  'x, y, z'
loop_
 _atom_site_type_symbol
 _atom_site_label
 _atom_site_symmetry_multiplicity
 _atom_site_fract_x
 _atom_site_fract_y
 _atom_site_fract_z
 _atom_site_occupancy
  Y  Y0  1  0.811768  0.000000  0.000000  1
  Y  Y1  1  0.250000  0.356669  0.106669  1
  Y  Y2  1  0.688234  0.688234  0.188234  1
  Y  Y3  1  0.143331  0.893331  0.250000  1
  Y  Y4  1  0.000000  0.500001  0.311767  1
  Y  Y5  1  0.750000  0.143331  0.393331  1
  Y  Y6  1  0.500001  0.811768  0.500001  1
  Y  Y7  1  0.893331  0.750000  0.643331  1
  Y  Y8  1  0.356669  0.606669  0.750000  1
  Y  Y9  1  0.606669  0.250000  0.856668  1
  Er  Er10  1  0.355120  0.000000  0.000000  1
  Er  Er11  1  0.500000  0.355120  0.500000  1
  Er  Er12  1  0.144880  0.144880  0.644880  1
  Er  Er13  1  0.000000  0.500000  0.855120  1
  Ru  Ru14  1  0.377531  0.750000  0.127531  1
  Ru  Ru15  1  0.627531  0.377531  0.250000  1
  Ru  Ru16  1  0.122469  0.250000  0.372469  1
  Ru  Ru17  1  0.250000  0.872469  0.622470  1
  Ru  Ru18  1  0.872468  0.122469  0.750000  1
  Ru  Ru19  1  0.750000  0.627531  0.877531  1
