# generated using pymatgen
data_AcSm(Ge2Ir)2
_symmetry_space_group_name_H-M   'P 1'
_cell_length_a   9.61452450
_cell_length_b   9.61452408
_cell_length_c   9.61452366
_cell_angle_alpha   152.84615494
_cell_angle_beta   123.74334944
_cell_angle_gamma   63.56015180
_symmetry_Int_Tables_number   1
_chemical_formula_structural   AcSm(Ge2Ir)2
_chemical_formula_sum   'Ac2 Sm2 Ge8 Ir4'
_cell_volume   334.45794358
_cell_formula_units_Z   2
loop_
 _symmetry_equiv_pos_site_id
 _symmetry_equiv_pos_as_xyz
  1  'x, y, z'
loop_
 _atom_site_type_symbol
 _atom_site_label
 _atom_site_symmetry_multiplicity
 _atom_site_fract_x
 _atom_site_fract_y
 _atom_site_fract_z
 _atom_site_occupancy
  Ac  Ac0  1  0.257531  0.000000  0.257531  1
  Ac  Ac1  1  0.742469  0.000000  0.742469  1
  Sm  Sm2  1  0.292467  0.792467  0.500000  1
  Sm  Sm3  1  0.707533  0.207533  0.500000  1
  Ge  Ge4  1  0.918561  0.418561  0.500000  1
  Ge  Ge5  1  0.081439  0.581439  0.500000  1
  Ge  Ge6  1  0.417929  0.417929  0.000000  1
  Ge  Ge7  1  0.582071  0.582071  0.000000  1
  Ge  Ge8  1  0.045240  0.198721  0.846518  1
  Ge  Ge9  1  0.954760  0.801279  0.153482  1
  Ge  Ge10  1  0.352202  0.198721  0.153482  1
  Ge  Ge11  1  0.647798  0.801279  0.846518  1
  Ir  Ir12  1  0.096012  0.348826  0.747186  1
  Ir  Ir13  1  0.903988  0.651173  0.252814  1
  Ir  Ir14  1  0.601640  0.348826  0.252814  1
  Ir  Ir15  1  0.398360  0.651174  0.747186  1
