# generated using pymatgen
data_Yb3In3AsPt2
_symmetry_space_group_name_H-M   'P 1'
_cell_length_a   7.51873800
_cell_length_b   7.51873704
_cell_length_c   4.18511400
_cell_angle_alpha   90.00000000
_cell_angle_beta   90.00000000
_cell_angle_gamma   120.00000424
_symmetry_Int_Tables_number   1
_chemical_formula_structural   Yb3In3AsPt2
_chemical_formula_sum   'Yb3 In3 As1 Pt2'
_cell_volume   204.89329801
_cell_formula_units_Z   1
loop_
 _symmetry_equiv_pos_site_id
 _symmetry_equiv_pos_as_xyz
  1  'x, y, z'
loop_
 _atom_site_type_symbol
 _atom_site_label
 _atom_site_symmetry_multiplicity
 _atom_site_fract_x
 _atom_site_fract_y
 _atom_site_fract_z
 _atom_site_occupancy
  Yb  Yb0  1  0.411001  0.004975  0.000000  1
  Yb  Yb1  1  0.995025  0.406025  0.000000  1
  Yb  Yb2  1  0.593975  0.588999  0.000000  1
  In  In3  1  0.757043  0.019080  0.500000  1
  In  In4  1  0.980920  0.737962  0.500000  1
  In  In5  1  0.262038  0.242957  0.500000  1
  As  As6  1  0.333333  0.666667  0.500000  1
  Pt  Pt7  1  0.666667  0.333333  0.500000  1
  Pt  Pt8  1  0.000000  0.000000  0.000000  1
