# generated using pymatgen
data_GaBiTeCl4
_symmetry_space_group_name_H-M   'P 1'
_cell_length_a   10.68491321
_cell_length_b   10.68491292
_cell_length_c   10.68491231
_cell_angle_alpha   107.65673181
_cell_angle_beta   107.65673040
_cell_angle_gamma   113.16453802
_symmetry_Int_Tables_number   1
_chemical_formula_structural   GaBiTeCl4
_chemical_formula_sum   'Ga4 Bi4 Te4 Cl16'
_cell_volume   936.10852645
_cell_formula_units_Z   4
loop_
 _symmetry_equiv_pos_site_id
 _symmetry_equiv_pos_as_xyz
  1  'x, y, z'
loop_
 _atom_site_type_symbol
 _atom_site_label
 _atom_site_symmetry_multiplicity
 _atom_site_fract_x
 _atom_site_fract_y
 _atom_site_fract_z
 _atom_site_occupancy
  Ga  Ga0  1  0.341007  0.113317  0.375256  1
  Ga  Ga1  1  0.886683  0.261939  0.227690  1
  Ga  Ga2  1  0.034249  0.658993  0.772310  1
  Ga  Ga3  1  0.738061  0.965751  0.624744  1
  Bi  Bi4  1  0.536545  0.431141  0.217476  1
  Bi  Bi5  1  0.568859  0.786334  0.105404  1
  Bi  Bi6  1  0.680931  0.463455  0.894596  1
  Bi  Bi7  1  0.213666  0.319069  0.782524  1
  Te  Te8  1  0.790403  0.689349  0.209653  1
  Te  Te9  1  0.419251  0.209597  0.898946  1
  Te  Te10  1  0.479696  0.580749  0.790347  1
  Te  Te11  1  0.310651  0.520304  0.101054  1
  Cl  Cl12  1  0.787510  0.029082  0.457970  1
  Cl  Cl13  1  0.571112  0.329540  0.542030  1
  Cl  Cl14  1  0.919531  0.400875  0.109730  1
  Cl  Cl15  1  0.970918  0.428888  0.758429  1
  Cl  Cl16  1  0.933826  0.743710  0.909179  1
  Cl  Cl17  1  0.190199  0.080469  0.481345  1
  Cl  Cl18  1  0.346581  0.904672  0.288350  1
  Cl  Cl19  1  0.095328  0.383679  0.441910  1
  Cl  Cl20  1  0.599125  0.708854  0.518655  1
  Cl  Cl21  1  0.256290  0.165469  0.190115  1
  Cl  Cl22  1  0.291146  0.809801  0.890270  1
  Cl  Cl23  1  0.941768  0.653419  0.558090  1
  Cl  Cl24  1  0.975353  0.066174  0.809885  1
  Cl  Cl25  1  0.834531  0.024647  0.090821  1
  Cl  Cl26  1  0.670460  0.212490  0.241571  1
  Cl  Cl27  1  0.616321  0.058232  0.711650  1
