# generated using pymatgen
data_Ce2FeCoCuSi3
_symmetry_space_group_name_H-M   'P 1'
_cell_length_a   8.58359609
_cell_length_b   8.58359613
_cell_length_c   4.00119600
_cell_angle_alpha   90.00000000
_cell_angle_beta   90.00000000
_cell_angle_gamma   153.07876841
_symmetry_Int_Tables_number   1
_chemical_formula_structural   Ce2FeCoCuSi3
_chemical_formula_sum   'Ce2 Fe1 Co1 Cu1 Si3'
_cell_volume   133.47543956
_cell_formula_units_Z   1
loop_
 _symmetry_equiv_pos_site_id
 _symmetry_equiv_pos_as_xyz
  1  'x, y, z'
loop_
 _atom_site_type_symbol
 _atom_site_label
 _atom_site_symmetry_multiplicity
 _atom_site_fract_x
 _atom_site_fract_y
 _atom_site_fract_z
 _atom_site_occupancy
  Ce  Ce0  1  0.611360  0.388640  0.250000  1
  Ce  Ce1  1  0.387617  0.612383  0.750000  1
  Fe  Fe2  1  0.250444  0.749556  0.250000  1
  Co  Co3  1  0.749907  0.250093  0.750000  1
  Cu  Cu4  1  0.964372  0.035628  0.250000  1
  Si  Si5  1  0.035650  0.964350  0.750000  1
  Si  Si6  1  0.819445  0.180555  0.250000  1
  Si  Si7  1  0.181204  0.818796  0.750000  1
