# generated using pymatgen
data_LaDyY6(CdNi)2
_symmetry_space_group_name_H-M   'P 1'
_cell_length_a   9.66045647
_cell_length_b   9.66045637
_cell_length_c   9.65864400
_cell_angle_alpha   60.00620579
_cell_angle_beta   60.00620615
_cell_angle_gamma   60.18596596
_symmetry_Int_Tables_number   1
_chemical_formula_structural   LaDyY6(CdNi)2
_chemical_formula_sum   'La2 Dy2 Y12 Cd4 Ni4'
_cell_volume   638.32809245
_cell_formula_units_Z   2
loop_
 _symmetry_equiv_pos_site_id
 _symmetry_equiv_pos_as_xyz
  1  'x, y, z'
loop_
 _atom_site_type_symbol
 _atom_site_label
 _atom_site_symmetry_multiplicity
 _atom_site_fract_x
 _atom_site_fract_y
 _atom_site_fract_z
 _atom_site_occupancy
  La  La0  1  0.595762  0.595762  0.601298  1
  La  La1  1  0.595762  0.595762  0.207177  1
  Dy  Dy2  1  0.601008  0.196609  0.601191  1
  Dy  Dy3  1  0.196609  0.601008  0.601191  1
  Y  Y4  1  0.064035  0.439404  0.435999  1
  Y  Y5  1  0.439404  0.064035  0.060562  1
  Y  Y6  1  0.439404  0.064035  0.435999  1
  Y  Y7  1  0.064035  0.439404  0.060562  1
  Y  Y8  1  0.437499  0.437499  0.062501  1
  Y  Y9  1  0.062454  0.062454  0.437546  1
  Y  Y10  1  0.186813  0.815395  0.814222  1
  Y  Y11  1  0.815395  0.186813  0.183570  1
  Y  Y12  1  0.815395  0.186813  0.814222  1
  Y  Y13  1  0.186813  0.815395  0.183570  1
  Y  Y14  1  0.815329  0.815329  0.184671  1
  Y  Y15  1  0.188261  0.188261  0.811739  1
  Cd  Cd16  1  0.832876  0.832876  0.828199  1
  Cd  Cd17  1  0.832876  0.832876  0.506047  1
  Cd  Cd18  1  0.834267  0.504371  0.830680  1
  Cd  Cd19  1  0.504371  0.834267  0.830680  1
  Ni  Ni20  1  0.389625  0.389625  0.400508  1
  Ni  Ni21  1  0.389625  0.389625  0.820242  1
  Ni  Ni22  1  0.387806  0.824578  0.393809  1
  Ni  Ni23  1  0.824578  0.387806  0.393809  1
