# generated using pymatgen
data_La12Re2I17
_symmetry_space_group_name_H-M   'P 1'
_cell_length_a   10.22714140
_cell_length_b   12.31150497
_cell_length_c   12.32001212
_cell_angle_alpha   73.70369582
_cell_angle_beta   74.62511825
_cell_angle_gamma   65.24161105
_symmetry_Int_Tables_number   1
_chemical_formula_structural   La12Re2I17
_chemical_formula_sum   'La12 Re2 I17'
_cell_volume   1332.51785390
_cell_formula_units_Z   1
loop_
 _symmetry_equiv_pos_site_id
 _symmetry_equiv_pos_as_xyz
  1  'x, y, z'
loop_
 _atom_site_type_symbol
 _atom_site_label
 _atom_site_symmetry_multiplicity
 _atom_site_fract_x
 _atom_site_fract_y
 _atom_site_fract_z
 _atom_site_occupancy
  La  La0  1  0.453533  0.485856  0.324144  1
  La  La1  1  0.558964  0.670422  0.005615  1
  La  La2  1  0.275044  0.992848  0.101069  1
  La  La3  1  0.862113  0.285745  0.850815  1
  La  La4  1  0.402746  0.240278  0.719140  1
  La  La5  1  0.724956  0.007152  0.898931  1
  La  La6  1  0.546467  0.514144  0.675856  1
  La  La7  1  0.441036  0.329578  0.994385  1
  La  La8  1  0.597254  0.759722  0.280860  1
  La  La9  1  0.824097  0.189228  0.580898  1
  La  La10  1  0.175903  0.810772  0.419102  1
  La  La11  1  0.137887  0.714255  0.149185  1
  Re  Re12  1  0.367652  0.739313  0.211801  1
  Re  Re13  1  0.632348  0.260687  0.788199  1
  I  I14  1  0.055037  0.103557  0.323036  1
  I  I15  1  0.466278  0.946576  0.838357  1
  I  I16  1  0.426921  0.817048  0.534160  1
  I  I17  1  0.573079  0.182952  0.465840  1
  I  I18  1  0.847016  0.703021  0.045514  1
  I  I19  1  0.218734  0.421414  0.244401  1
  I  I20  1  0.683539  0.368054  0.102497  1
  I  I21  1  0.533722  0.053424  0.161643  1
  I  I22  1  0.741475  0.471502  0.416781  1
  I  I23  1  0.887884  0.786304  0.369235  1
  I  I24  1  0.944963  0.896443  0.676964  1
  I  I25  1  0.152984  0.296979  0.954486  1
  I  I26  1  0.316461  0.631946  0.897503  1
  I  I27  1  0.000000  0.000000  0.000000  1
  I  I28  1  0.112116  0.213696  0.630765  1
  I  I29  1  0.781266  0.578586  0.755599  1
  I  I30  1  0.258525  0.528498  0.583219  1
