# generated using pymatgen
data_Sr2As4Pd7
_symmetry_space_group_name_H-M   'P 1'
_cell_length_a   4.17914100
_cell_length_b   10.32534000
_cell_length_c   11.53106300
_cell_angle_alpha   90.00000000
_cell_angle_beta   90.00000000
_cell_angle_gamma   90.00000000
_symmetry_Int_Tables_number   1
_chemical_formula_structural   Sr2As4Pd7
_chemical_formula_sum   'Sr4 As8 Pd14'
_cell_volume   497.57749605
_cell_formula_units_Z   2
loop_
 _symmetry_equiv_pos_site_id
 _symmetry_equiv_pos_as_xyz
  1  'x, y, z'
loop_
 _atom_site_type_symbol
 _atom_site_label
 _atom_site_symmetry_multiplicity
 _atom_site_fract_x
 _atom_site_fract_y
 _atom_site_fract_z
 _atom_site_occupancy
  Sr  Sr0  1  0.000000  0.440643  0.519897  1
  Sr  Sr1  1  0.500000  0.559357  0.019897  1
  Sr  Sr2  1  0.000000  0.058963  0.735284  1
  Sr  Sr3  1  0.500000  0.941037  0.235284  1
  As  As4  1  0.000000  0.690926  0.199341  1
  As  As5  1  0.500000  0.309074  0.699341  1
  As  As6  1  0.000000  0.021215  0.456131  1
  As  As7  1  0.500000  0.978785  0.956131  1
  As  As8  1  0.000000  0.319869  0.023833  1
  As  As9  1  0.500000  0.680131  0.523833  1
  As  As10  1  0.000000  0.653455  0.833995  1
  As  As11  1  0.500000  0.346545  0.333995  1
  Pd  Pd12  1  0.000000  0.773457  0.402683  1
  Pd  Pd13  1  0.500000  0.226543  0.902683  1
  Pd  Pd14  1  0.000000  0.754002  0.644004  1
  Pd  Pd15  1  0.500000  0.245998  0.144004  1
  Pd  Pd16  1  0.000000  0.814602  0.002483  1
  Pd  Pd17  1  0.500000  0.185398  0.502483  1
  Pd  Pd18  1  0.000000  0.446163  0.212732  1
  Pd  Pd19  1  0.500000  0.553837  0.712732  1
  Pd  Pd20  1  0.000000  0.401082  0.817140  1
  Pd  Pd21  1  0.500000  0.598918  0.317140  1
  Pd  Pd22  1  0.000000  0.195319  0.313122  1
  Pd  Pd23  1  0.500000  0.804681  0.813122  1
  Pd  Pd24  1  0.000000  0.084769  0.044153  1
  Pd  Pd25  1  0.500000  0.915231  0.544153  1
