# generated using pymatgen
data_Zr24Si3As5
_symmetry_space_group_name_H-M   'P 1'
_cell_length_a   11.04151045
_cell_length_b   11.05998619
_cell_length_c   5.46760371
_cell_angle_alpha   89.91412517
_cell_angle_beta   89.92506151
_cell_angle_gamma   90.01458267
_symmetry_Int_Tables_number   1
_chemical_formula_structural   Zr24Si3As5
_chemical_formula_sum   'Zr24 Si3 As5'
_cell_volume   667.69669777
_cell_formula_units_Z   1
loop_
 _symmetry_equiv_pos_site_id
 _symmetry_equiv_pos_as_xyz
  1  'x, y, z'
loop_
 _atom_site_type_symbol
 _atom_site_label
 _atom_site_symmetry_multiplicity
 _atom_site_fract_x
 _atom_site_fract_y
 _atom_site_fract_z
 _atom_site_occupancy
  Zr  Zr0  1  0.918689  0.607564  0.541060  1
  Zr  Zr1  1  0.082399  0.392856  0.535115  1
  Zr  Zr2  1  0.894497  0.416015  0.030077  1
  Zr  Zr3  1  0.106964  0.582724  0.035764  1
  Zr  Zr4  1  0.582316  0.894356  0.964823  1
  Zr  Zr5  1  0.417270  0.105681  0.963902  1
  Zr  Zr6  1  0.606678  0.082990  0.464997  1
  Zr  Zr7  1  0.393782  0.917384  0.464428  1
  Zr  Zr8  1  0.862365  0.974999  0.719323  1
  Zr  Zr9  1  0.137908  0.025142  0.719724  1
  Zr  Zr10  1  0.523709  0.360787  0.218531  1
  Zr  Zr11  1  0.473243  0.638429  0.219084  1
  Zr  Zr12  1  0.639465  0.524914  0.782836  1
  Zr  Zr13  1  0.359709  0.474230  0.780410  1
  Zr  Zr14  1  0.973821  0.140720  0.280084  1
  Zr  Zr15  1  0.025723  0.859305  0.281849  1
  Zr  Zr16  1  0.818842  0.716111  0.006661  1
  Zr  Zr17  1  0.181010  0.285629  0.007485  1
  Zr  Zr18  1  0.786510  0.318707  0.510423  1
  Zr  Zr19  1  0.213782  0.680447  0.508017  1
  Zr  Zr20  1  0.682265  0.784793  0.492680  1
  Zr  Zr21  1  0.317748  0.216622  0.490929  1
  Zr  Zr22  1  0.716548  0.181507  0.989378  1
  Zr  Zr23  1  0.283390  0.818566  0.989952  1
  Si  Si24  1  0.293908  0.459073  0.286821  1
  Si  Si25  1  0.959827  0.205213  0.786295  1
  Si  Si26  1  0.041183  0.794570  0.788653  1
  As  As27  1  0.794355  0.959764  0.213089  1
  As  As28  1  0.205610  0.040655  0.213624  1
  As  As29  1  0.540230  0.293953  0.713168  1
  As  As30  1  0.459470  0.705926  0.713118  1
  As  As31  1  0.706783  0.540371  0.287698  1
