# generated using pymatgen
data_Sc2CdHg3
_symmetry_space_group_name_H-M   'P 1'
_cell_length_a   4.95853200
_cell_length_b   4.95853005
_cell_length_c   12.30289600
_cell_angle_alpha   90.00000000
_cell_angle_beta   90.00000000
_cell_angle_gamma   119.99999968
_symmetry_Int_Tables_number   1
_chemical_formula_structural   Sc2CdHg3
_chemical_formula_sum   'Sc4 Cd2 Hg6'
_cell_volume   261.96547318
_cell_formula_units_Z   2
loop_
 _symmetry_equiv_pos_site_id
 _symmetry_equiv_pos_as_xyz
  1  'x, y, z'
loop_
 _atom_site_type_symbol
 _atom_site_label
 _atom_site_symmetry_multiplicity
 _atom_site_fract_x
 _atom_site_fract_y
 _atom_site_fract_z
 _atom_site_occupancy
  Sc  Sc0  1  0.000000  0.000000  0.500000  1
  Sc  Sc1  1  0.333333  0.666667  0.174900  1
  Sc  Sc2  1  0.666667  0.333333  0.825100  1
  Sc  Sc3  1  0.000000  0.000000  0.000000  1
  Cd  Cd4  1  0.333333  0.666667  0.669489  1
  Cd  Cd5  1  0.666667  0.333333  0.330511  1
  Hg  Hg6  1  0.333333  0.666667  0.418366  1
  Hg  Hg7  1  0.666667  0.333333  0.074242  1
  Hg  Hg8  1  0.000000  0.000000  0.756974  1
  Hg  Hg9  1  0.000000  0.000000  0.243026  1
  Hg  Hg10  1  0.333333  0.666667  0.925758  1
  Hg  Hg11  1  0.666667  0.333333  0.581634  1
