# generated using pymatgen
data_Ta3CrReSi3Ru
_symmetry_space_group_name_H-M   'P 1'
_cell_length_a   7.46745131
_cell_length_b   7.49304661
_cell_length_c   7.49304701
_cell_angle_alpha   127.71910351
_cell_angle_beta   123.99587644
_cell_angle_gamma   80.23581447
_symmetry_Int_Tables_number   1
_chemical_formula_structural   Ta3CrReSi3Ru
_chemical_formula_sum   'Ta6 Cr2 Re2 Si6 Ru2'
_cell_volume   265.28175717
_cell_formula_units_Z   2
loop_
 _symmetry_equiv_pos_site_id
 _symmetry_equiv_pos_as_xyz
  1  'x, y, z'
loop_
 _atom_site_type_symbol
 _atom_site_label
 _atom_site_symmetry_multiplicity
 _atom_site_fract_x
 _atom_site_fract_y
 _atom_site_fract_z
 _atom_site_occupancy
  Ta  Ta0  1  0.939291  0.902813  0.459766  1
  Ta  Ta1  1  0.060709  0.520475  0.963523  1
  Ta  Ta2  1  0.533647  0.507078  0.467256  1
  Ta  Ta3  1  0.466353  0.933608  0.973429  1
  Ta  Ta4  1  0.751240  0.078104  0.835203  1
  Ta  Ta5  1  0.248760  0.083964  0.326864  1
  Cr  Cr6  1  0.500000  0.753450  0.253450  1
  Cr  Cr7  1  0.000000  0.753759  0.753759  1
  Re  Re8  1  0.903444  0.251101  0.408830  1
  Re  Re9  1  0.096556  0.505386  0.347657  1
  Si  Si10  1  0.719074  0.466654  0.239253  1
  Si  Si11  1  0.280926  0.520178  0.747579  1
  Si  Si12  1  0.670904  0.174596  0.514318  1
  Si  Si13  1  0.329096  0.843413  0.503692  1
  Si  Si14  1  0.163516  0.170701  0.998297  1
  Si  Si15  1  0.836484  0.834780  0.007185  1
  Ru  Ru16  1  0.336390  0.253212  0.840919  1
  Ru  Ru17  1  0.663610  0.504530  0.916822  1
