# generated using pymatgen
data_Er2Tm6CdHgPt2
_symmetry_space_group_name_H-M   'P 1'
_cell_length_a   9.55251737
_cell_length_b   9.55251704
_cell_length_c   9.55500500
_cell_angle_alpha   59.99138053
_cell_angle_beta   59.99138165
_cell_angle_gamma   60.03190711
_symmetry_Int_Tables_number   1
_chemical_formula_structural   Er2Tm6CdHgPt2
_chemical_formula_sum   'Er4 Tm12 Cd2 Hg2 Pt4'
_cell_volume   616.59440004
_cell_formula_units_Z   2
loop_
 _symmetry_equiv_pos_site_id
 _symmetry_equiv_pos_as_xyz
  1  'x, y, z'
loop_
 _atom_site_type_symbol
 _atom_site_label
 _atom_site_symmetry_multiplicity
 _atom_site_fract_x
 _atom_site_fract_y
 _atom_site_fract_z
 _atom_site_occupancy
  Er  Er0  1  0.354013  0.354013  0.350755  1
  Er  Er1  1  0.354013  0.354013  0.941222  1
  Er  Er2  1  0.358415  0.931987  0.354799  1
  Er  Er3  1  0.931987  0.358415  0.354799  1
  Tm  Tm4  1  0.811457  0.188562  0.189400  1
  Tm  Tm5  1  0.188562  0.811457  0.810579  1
  Tm  Tm6  1  0.188562  0.811457  0.189400  1
  Tm  Tm7  1  0.811457  0.188562  0.810579  1
  Tm  Tm8  1  0.189102  0.189102  0.810898  1
  Tm  Tm9  1  0.810869  0.810869  0.189131  1
  Tm  Tm10  1  0.934618  0.564393  0.565052  1
  Tm  Tm11  1  0.564393  0.934618  0.935937  1
  Tm  Tm12  1  0.564393  0.934618  0.565052  1
  Tm  Tm13  1  0.934618  0.564393  0.935937  1
  Tm  Tm14  1  0.565213  0.565213  0.934787  1
  Tm  Tm15  1  0.936012  0.936012  0.563988  1
  Cd  Cd16  1  0.580217  0.253532  0.583126  1
  Cd  Cd17  1  0.253532  0.580217  0.583126  1
  Hg  Hg18  1  0.585369  0.585369  0.589463  1
  Hg  Hg19  1  0.585369  0.585369  0.239799  1
  Pt  Pt20  1  0.143225  0.143225  0.146652  1
  Pt  Pt21  1  0.143225  0.143225  0.566900  1
  Pt  Pt22  1  0.141165  0.570216  0.144310  1
  Pt  Pt23  1  0.570216  0.141165  0.144310  1
