# generated using pymatgen
data_Tb2DyAlSi2Ag3
_symmetry_space_group_name_H-M   'P 1'
_cell_length_a   7.16018235
_cell_length_b   7.16879868
_cell_length_c   4.19195300
_cell_angle_alpha   90.00000000
_cell_angle_beta   90.00000000
_cell_angle_gamma   120.03981263
_symmetry_Int_Tables_number   1
_chemical_formula_structural   Tb2DyAlSi2Ag3
_chemical_formula_sum   'Tb2 Dy1 Al1 Si2 Ag3'
_cell_volume   186.27009411
_cell_formula_units_Z   1
loop_
 _symmetry_equiv_pos_site_id
 _symmetry_equiv_pos_as_xyz
  1  'x, y, z'
loop_
 _atom_site_type_symbol
 _atom_site_label
 _atom_site_symmetry_multiplicity
 _atom_site_fract_x
 _atom_site_fract_y
 _atom_site_fract_z
 _atom_site_occupancy
  Tb  Tb0  1  0.427956  0.428195  0.500000  1
  Tb  Tb1  1  0.572044  0.000238  0.500000  1
  Dy  Dy2  1  0.000000  0.571823  0.500000  1
  Al  Al3  1  0.000000  0.999052  0.500000  1
  Si  Si4  1  0.667215  0.333828  0.000000  1
  Si  Si5  1  0.332785  0.666614  0.000000  1
  Ag  Ag6  1  0.751384  0.751018  0.000000  1
  Ag  Ag7  1  0.248616  0.999635  0.000000  1
  Ag  Ag8  1  0.000000  0.249596  0.000000  1
