# generated using pymatgen
data_U8Ta11Si16Rh
_symmetry_space_group_name_H-M   'P 1'
_cell_length_a   7.00149046
_cell_length_b   7.01144022
_cell_length_c   12.95250828
_cell_angle_alpha   89.89587648
_cell_angle_beta   90.05664576
_cell_angle_gamma   89.89524787
_symmetry_Int_Tables_number   1
_chemical_formula_structural   U8Ta11Si16Rh
_chemical_formula_sum   'U8 Ta11 Si16 Rh1'
_cell_volume   635.84309392
_cell_formula_units_Z   1
loop_
 _symmetry_equiv_pos_site_id
 _symmetry_equiv_pos_as_xyz
  1  'x, y, z'
loop_
 _atom_site_type_symbol
 _atom_site_label
 _atom_site_symmetry_multiplicity
 _atom_site_fract_x
 _atom_site_fract_y
 _atom_site_fract_z
 _atom_site_occupancy
  U  U0  1  0.995315  0.334764  0.220329  1
  U  U1  1  0.007091  0.670997  0.717927  1
  U  U2  1  0.166725  0.498123  0.469667  1
  U  U3  1  0.504635  0.830297  0.033324  1
  U  U4  1  0.829948  0.505940  0.969608  1
  U  U5  1  0.496339  0.167570  0.530205  1
  U  U6  1  0.329033  0.993293  0.779340  1
  U  U7  1  0.671696  0.005532  0.279142  1
  Ta  Ta8  1  0.167357  0.166721  0.000825  1
  Ta  Ta9  1  0.830212  0.832579  0.500787  1
  Ta  Ta10  1  0.329264  0.664490  0.248815  1
  Ta  Ta11  1  0.667952  0.331305  0.749649  1
  Ta  Ta12  1  0.843812  0.001616  0.873870  1
  Ta  Ta13  1  0.495922  0.658950  0.623960  1
  Ta  Ta14  1  0.344311  0.498865  0.876068  1
  Ta  Ta15  1  0.495842  0.338707  0.124689  1
  Ta  Ta16  1  0.658155  0.497502  0.375585  1
  Ta  Ta17  1  0.996168  0.157985  0.628540  1
  Ta  Ta18  1  0.996751  0.838721  0.122225  1
  Si  Si19  1  0.292405  0.035053  0.187271  1
  Si  Si20  1  0.701069  0.959667  0.684375  1
  Si  Si21  1  0.461122  0.796744  0.432708  1
  Si  Si22  1  0.201854  0.537273  0.064716  1
  Si  Si23  1  0.538639  0.200576  0.934337  1
  Si  Si24  1  0.794801  0.461082  0.565471  1
  Si  Si25  1  0.039896  0.299247  0.816592  1
  Si  Si26  1  0.964675  0.715900  0.316226  1
  Si  Si27  1  0.369863  0.293404  0.316101  1
  Si  Si28  1  0.629252  0.706576  0.815696  1
  Si  Si29  1  0.202948  0.873062  0.563319  1
  Si  Si30  1  0.129608  0.793260  0.933155  1
  Si  Si31  1  0.793105  0.129812  0.066628  1
  Si  Si32  1  0.881163  0.200763  0.434602  1
  Si  Si33  1  0.292988  0.370331  0.683545  1
  Si  Si34  1  0.705777  0.624623  0.184974  1
  Rh  Rh35  1  0.174306  0.008670  0.375725  1
