# generated using pymatgen
data_La8Nd12Si15Hg
_symmetry_space_group_name_H-M   'P 1'
_cell_length_a   7.96023629
_cell_length_b   7.95129518
_cell_length_c   15.33195600
_cell_angle_alpha   90.03347835
_cell_angle_beta   89.57665337
_cell_angle_gamma   90.11454339
_symmetry_Int_Tables_number   1
_chemical_formula_structural   La8Nd12Si15Hg
_chemical_formula_sum   'La8 Nd12 Si15 Hg1'
_cell_volume   970.39512600
_cell_formula_units_Z   1
loop_
 _symmetry_equiv_pos_site_id
 _symmetry_equiv_pos_as_xyz
  1  'x, y, z'
loop_
 _atom_site_type_symbol
 _atom_site_label
 _atom_site_symmetry_multiplicity
 _atom_site_fract_x
 _atom_site_fract_y
 _atom_site_fract_z
 _atom_site_occupancy
  La  La0  1  0.989229  0.622393  0.051858  1
  La  La1  1  0.012711  0.367521  0.553856  1
  La  La2  1  0.625626  0.986233  0.949191  1
  La  La3  1  0.126193  0.511960  0.801286  1
  La  La4  1  0.865807  0.479094  0.294270  1
  La  La5  1  0.510970  0.123839  0.197216  1
  La  La6  1  0.492074  0.875864  0.699999  1
  La  La7  1  0.380936  0.018492  0.450829  1
  Nd  Nd8  1  0.379768  0.478716  0.372180  1
  Nd  Nd9  1  0.861942  0.028265  0.370909  1
  Nd  Nd10  1  0.980781  0.128662  0.123821  1
  Nd  Nd11  1  0.018889  0.874738  0.626152  1
  Nd  Nd12  1  0.629500  0.517892  0.873495  1
  Nd  Nd13  1  0.485518  0.370325  0.628852  1
  Nd  Nd14  1  0.516642  0.626510  0.125037  1
  Nd  Nd15  1  0.126578  0.982761  0.878155  1
  Nd  Nd16  1  0.684831  0.695323  0.499417  1
  Nd  Nd17  1  0.810323  0.189499  0.750773  1
  Nd  Nd18  1  0.185926  0.808438  0.247088  1
  Nd  Nd19  1  0.306224  0.309614  0.999841  1
  Si  Si20  1  0.921372  0.286289  0.939335  1
  Si  Si21  1  0.715031  0.078273  0.561175  1
  Si  Si22  1  0.214564  0.421805  0.190224  1
  Si  Si23  1  0.788009  0.579248  0.689140  1
  Si  Si24  1  0.422476  0.213589  0.811911  1
  Si  Si25  1  0.575692  0.786379  0.308837  1
  Si  Si26  1  0.287603  0.921976  0.059534  1
  Si  Si27  1  0.833483  0.804479  0.797762  1
  Si  Si28  1  0.168852  0.195346  0.297820  1
  Si  Si29  1  0.800984  0.832028  0.200616  1
  Si  Si30  1  0.312670  0.666653  0.555140  1
  Si  Si31  1  0.695700  0.332296  0.047065  1
  Si  Si32  1  0.669753  0.308113  0.455432  1
  Si  Si33  1  0.332703  0.695400  0.952009  1
  Si  Si34  1  0.197853  0.167281  0.703874  1
  Hg  Hg35  1  0.072786  0.714708  0.435898  1
