# generated using pymatgen
data_YbY19(Hg3Ru)2
_symmetry_space_group_name_H-M   'P 1'
_cell_length_a   9.65699800
_cell_length_b   9.65699749
_cell_length_c   9.70257600
_cell_angle_alpha   90.00000000
_cell_angle_beta   90.00000000
_cell_angle_gamma   120.00000176
_symmetry_Int_Tables_number   1
_chemical_formula_structural   YbY19(Hg3Ru)2
_chemical_formula_sum   'Yb1 Y19 Hg6 Ru2'
_cell_volume   783.61355006
_cell_formula_units_Z   1
loop_
 _symmetry_equiv_pos_site_id
 _symmetry_equiv_pos_as_xyz
  1  'x, y, z'
loop_
 _atom_site_type_symbol
 _atom_site_label
 _atom_site_symmetry_multiplicity
 _atom_site_fract_x
 _atom_site_fract_y
 _atom_site_fract_z
 _atom_site_occupancy
  Yb  Yb0  1  0.000000  0.000000  0.500000  1
  Y  Y1  1  0.000000  0.000000  0.000000  1
  Y  Y2  1  0.209654  0.790346  0.439045  1
  Y  Y3  1  0.209654  0.419308  0.439045  1
  Y  Y4  1  0.580692  0.790346  0.439045  1
  Y  Y5  1  0.790346  0.209654  0.560955  1
  Y  Y6  1  0.790346  0.580692  0.560955  1
  Y  Y7  1  0.419308  0.209654  0.560955  1
  Y  Y8  1  0.790409  0.209591  0.939986  1
  Y  Y9  1  0.790409  0.580816  0.939986  1
  Y  Y10  1  0.419184  0.209591  0.939986  1
  Y  Y11  1  0.209591  0.790409  0.060014  1
  Y  Y12  1  0.209591  0.419184  0.060014  1
  Y  Y13  1  0.580816  0.790409  0.060014  1
  Y  Y14  1  0.541304  0.458696  0.251153  1
  Y  Y15  1  0.541304  0.082607  0.251153  1
  Y  Y16  1  0.917393  0.458696  0.251153  1
  Y  Y17  1  0.458696  0.541304  0.748847  1
  Y  Y18  1  0.458696  0.917393  0.748847  1
  Y  Y19  1  0.082607  0.541304  0.748847  1
  Hg  Hg20  1  0.880757  0.119243  0.250322  1
  Hg  Hg21  1  0.880757  0.761515  0.250322  1
  Hg  Hg22  1  0.238485  0.119243  0.250322  1
  Hg  Hg23  1  0.119243  0.880757  0.749678  1
  Hg  Hg24  1  0.119243  0.238485  0.749678  1
  Hg  Hg25  1  0.761515  0.880757  0.749678  1
  Ru  Ru26  1  0.333333  0.666667  0.250342  1
  Ru  Ru27  1  0.666667  0.333333  0.749658  1
