# generated using pymatgen
data_Lu2Al9GaOs3
_symmetry_space_group_name_H-M   'P 1'
_cell_length_a   8.87866600
_cell_length_b   8.87866600
_cell_length_c   6.37910800
_cell_angle_alpha   90.00000000
_cell_angle_beta   90.00000000
_cell_angle_gamma   90.00000000
_symmetry_Int_Tables_number   1
_chemical_formula_structural   Lu2Al9GaOs3
_chemical_formula_sum   'Lu4 Al18 Ga2 Os6'
_cell_volume   502.86961242
_cell_formula_units_Z   2
loop_
 _symmetry_equiv_pos_site_id
 _symmetry_equiv_pos_as_xyz
  1  'x, y, z'
loop_
 _atom_site_type_symbol
 _atom_site_label
 _atom_site_symmetry_multiplicity
 _atom_site_fract_x
 _atom_site_fract_y
 _atom_site_fract_z
 _atom_site_occupancy
  Lu  Lu0  1  0.680315  0.180315  0.997951  1
  Lu  Lu1  1  0.319685  0.819685  0.997951  1
  Lu  Lu2  1  0.819685  0.680315  0.002049  1
  Lu  Lu3  1  0.180315  0.319685  0.002049  1
  Al  Al4  1  0.937879  0.204516  0.289896  1
  Al  Al5  1  0.704516  0.437879  0.289896  1
  Al  Al6  1  0.562121  0.704516  0.710104  1
  Al  Al7  1  0.293270  0.561241  0.707089  1
  Al  Al8  1  0.793270  0.938759  0.292911  1
  Al  Al9  1  0.938759  0.206730  0.707089  1
  Al  Al10  1  0.295484  0.562121  0.289896  1
  Al  Al11  1  0.062121  0.795484  0.289896  1
  Al  Al12  1  0.706730  0.438759  0.707089  1
  Al  Al13  1  0.437879  0.295484  0.710104  1
  Al  Al14  1  0.061241  0.793270  0.707089  1
  Al  Al15  1  0.204516  0.062121  0.710104  1
  Al  Al16  1  0.795484  0.937879  0.710104  1
  Al  Al17  1  0.206730  0.061241  0.292911  1
  Al  Al18  1  0.000000  0.500000  0.308995  1
  Al  Al19  1  0.561241  0.706730  0.292911  1
  Al  Al20  1  0.438759  0.293270  0.292911  1
  Al  Al21  1  0.500000  0.000000  0.691005  1
  Ga  Ga22  1  0.500000  0.000000  0.271560  1
  Ga  Ga23  1  0.000000  0.500000  0.728440  1
  Os  Os24  1  0.679658  0.179658  0.502422  1
  Os  Os25  1  0.820342  0.679658  0.497578  1
  Os  Os26  1  0.179658  0.320342  0.497578  1
  Os  Os27  1  0.000000  0.000000  0.000000  1
  Os  Os28  1  0.320342  0.820342  0.502422  1
  Os  Os29  1  0.500000  0.500000  0.000000  1
