# generated using pymatgen
data_TmMgZnNi3
_symmetry_space_group_name_H-M   'P 1'
_cell_length_a   4.92927795
_cell_length_b   4.92927627
_cell_length_c   4.92927704
_cell_angle_alpha   61.76016801
_cell_angle_beta   61.76017896
_cell_angle_gamma   61.76016702
_symmetry_Int_Tables_number   1
_chemical_formula_structural   TmMgZnNi3
_chemical_formula_sum   'Tm1 Mg1 Zn1 Ni3'
_cell_volume   88.03058453
_cell_formula_units_Z   1
loop_
 _symmetry_equiv_pos_site_id
 _symmetry_equiv_pos_as_xyz
  1  'x, y, z'
loop_
 _atom_site_type_symbol
 _atom_site_label
 _atom_site_symmetry_multiplicity
 _atom_site_fract_x
 _atom_site_fract_y
 _atom_site_fract_z
 _atom_site_occupancy
  Tm  Tm0  1  0.002973  0.002973  0.002973  1
  Mg  Mg1  1  0.252527  0.252527  0.252527  1
  Zn  Zn2  1  0.622923  0.622923  0.622923  1
  Ni  Ni3  1  0.623323  0.623323  0.124932  1
  Ni  Ni4  1  0.623323  0.124932  0.623323  1
  Ni  Ni5  1  0.124932  0.623323  0.623323  1
