# generated using pymatgen
data_TbHo5NiI10
_symmetry_space_group_name_H-M   'P 1'
_cell_length_a   7.68131236
_cell_length_b   9.62741653
_cell_length_c   9.65934362
_cell_angle_alpha   106.96384038
_cell_angle_beta   96.93311040
_cell_angle_gamma   104.44993967
_symmetry_Int_Tables_number   1
_chemical_formula_structural   TbHo5NiI10
_chemical_formula_sum   'Tb1 Ho5 Ni1 I10'
_cell_volume   647.02416635
_cell_formula_units_Z   1
loop_
 _symmetry_equiv_pos_site_id
 _symmetry_equiv_pos_as_xyz
  1  'x, y, z'
loop_
 _atom_site_type_symbol
 _atom_site_label
 _atom_site_symmetry_multiplicity
 _atom_site_fract_x
 _atom_site_fract_y
 _atom_site_fract_z
 _atom_site_occupancy
  Tb  Tb0  1  0.340684  0.120660  0.162431  1
  Ho  Ho1  1  0.662498  0.880431  0.839313  1
  Ho  Ho2  1  0.967170  0.277986  0.082393  1
  Ho  Ho3  1  0.031706  0.721617  0.916858  1
  Ho  Ho4  1  0.886688  0.958697  0.234451  1
  Ho  Ho5  1  0.111479  0.040456  0.764947  1
  Ni  Ni6  1  0.000064  0.999965  0.000135  1
  I  I7  1  0.347018  0.451918  0.272432  1
  I  I8  1  0.651280  0.550346  0.726631  1
  I  I9  1  0.776338  0.256579  0.345669  1
  I  I10  1  0.228656  0.745173  0.656984  1
  I  I11  1  0.545593  0.185941  0.905275  1
  I  I12  1  0.454942  0.811603  0.092256  1
  I  I13  1  0.742445  0.912678  0.537157  1
  I  I14  1  0.254713  0.086567  0.464070  1
  I  I15  1  0.913715  0.626311  0.179736  1
  I  I16  1  0.085011  0.373073  0.819262  1
