# generated using pymatgen
data_Sr2Pr2Os6O19
_symmetry_space_group_name_H-M   'P 1'
_cell_length_a   8.00183360
_cell_length_b   7.95024050
_cell_length_c   7.95024120
_cell_angle_alpha   109.07434269
_cell_angle_beta   109.56260543
_cell_angle_gamma   109.51344961
_symmetry_Int_Tables_number   1
_chemical_formula_structural   Sr2Pr2Os6O19
_chemical_formula_sum   'Sr2 Pr2 Os6 O19'
_cell_volume   390.59266409
_cell_formula_units_Z   1
loop_
 _symmetry_equiv_pos_site_id
 _symmetry_equiv_pos_as_xyz
  1  'x, y, z'
loop_
 _atom_site_type_symbol
 _atom_site_label
 _atom_site_symmetry_multiplicity
 _atom_site_fract_x
 _atom_site_fract_y
 _atom_site_fract_z
 _atom_site_occupancy
  Sr  Sr0  1  0.001220  0.000357  0.314453  1
  Sr  Sr1  1  0.998780  0.313233  0.999138  1
  Pr  Pr2  1  0.701481  0.699794  0.700967  1
  Pr  Pr3  1  0.298519  0.999487  0.998313  1
  Os  Os4  1  0.364065  0.500487  0.862860  1
  Os  Os5  1  0.864249  0.362467  0.500605  1
  Os  Os6  1  0.500000  0.137757  0.637757  1
  Os  Os7  1  0.135751  0.636355  0.498218  1
  Os  Os8  1  0.500000  0.864175  0.364175  1
  Os  Os9  1  0.635935  0.498795  0.136422  1
  O  O10  1  0.332309  0.004383  0.327371  1
  O  O11  1  0.330033  0.326700  0.001843  1
  O  O12  1  0.000000  0.671811  0.671811  1
  O  O13  1  0.669967  0.671811  0.996668  1
  O  O14  1  0.000000  0.329442  0.329442  1
  O  O15  1  0.667691  0.995062  0.672074  1
  O  O16  1  0.000000  0.979962  0.979962  1
  O  O17  1  0.357840  0.293536  0.638413  1
  O  O18  1  0.067027  0.349340  0.710630  1
  O  O19  1  0.718567  0.368374  0.656759  1
  O  O20  1  0.369866  0.656367  0.715252  1
  O  O21  1  0.281433  0.938192  0.649808  1
  O  O22  1  0.630134  0.345385  0.286500  1
  O  O23  1  0.288675  0.639300  0.352657  1
  O  O24  1  0.711325  0.063981  0.350625  1
  O  O25  1  0.932973  0.643602  0.282313  1
  O  O26  1  0.651766  0.712771  0.368263  1
  O  O27  1  0.642160  0.280572  0.935698  1
  O  O28  1  0.348234  0.716497  0.061005  1
