# generated using pymatgen
data_Zn12FeAu
_symmetry_space_group_name_H-M   'P 1'
_cell_length_a   6.68010221
_cell_length_b   6.68010225
_cell_length_c   5.08119404
_cell_angle_alpha   80.99567692
_cell_angle_beta   80.99567126
_cell_angle_gamma   71.25985350
_symmetry_Int_Tables_number   1
_chemical_formula_structural   Zn12FeAu
_chemical_formula_sum   'Zn12 Fe1 Au1'
_cell_volume   210.70306687
_cell_formula_units_Z   1
loop_
 _symmetry_equiv_pos_site_id
 _symmetry_equiv_pos_as_xyz
  1  'x, y, z'
loop_
 _atom_site_type_symbol
 _atom_site_label
 _atom_site_symmetry_multiplicity
 _atom_site_fract_x
 _atom_site_fract_y
 _atom_site_fract_z
 _atom_site_occupancy
  Zn  Zn0  1  0.999888  0.999888  0.999164  1
  Zn  Zn1  1  0.618429  0.618429  0.061419  1
  Zn  Zn2  1  0.776324  0.776324  0.376954  1
  Zn  Zn3  1  0.220271  0.220271  0.623263  1
  Zn  Zn4  1  0.210942  0.640954  0.315755  1
  Zn  Zn5  1  0.363658  0.787306  0.686146  1
  Zn  Zn6  1  0.787306  0.363658  0.686146  1
  Zn  Zn7  1  0.640954  0.210942  0.315755  1
  Zn  Zn8  1  0.000854  0.646492  0.799056  1
  Zn  Zn9  1  0.355189  0.994102  0.199630  1
  Zn  Zn10  1  0.994102  0.355189  0.199630  1
  Zn  Zn11  1  0.646492  0.000854  0.799056  1
  Fe  Fe12  1  0.000124  0.000124  0.498279  1
  Au  Au13  1  0.385468  0.385468  0.939746  1
