# generated using pymatgen
data_TbSmSn5Pd3
_symmetry_space_group_name_H-M   'P 1'
_cell_length_a   13.61973426
_cell_length_b   13.61973533
_cell_length_c   7.40909700
_cell_angle_alpha   90.00000000
_cell_angle_beta   90.00000000
_cell_angle_gamma   160.65781796
_symmetry_Int_Tables_number   1
_chemical_formula_structural   TbSmSn5Pd3
_chemical_formula_sum   'Tb2 Sm2 Sn10 Pd6'
_cell_volume   455.20277495
_cell_formula_units_Z   2
loop_
 _symmetry_equiv_pos_site_id
 _symmetry_equiv_pos_as_xyz
  1  'x, y, z'
loop_
 _atom_site_type_symbol
 _atom_site_label
 _atom_site_symmetry_multiplicity
 _atom_site_fract_x
 _atom_site_fract_y
 _atom_site_fract_z
 _atom_site_occupancy
  Tb  Tb0  1  0.478415  0.521585  0.741556  1
  Tb  Tb1  1  0.521585  0.478415  0.241556  1
  Sm  Sm2  1  0.173019  0.826981  0.748094  1
  Sm  Sm3  1  0.826981  0.173019  0.248094  1
  Sn  Sn4  1  0.880966  0.119034  0.734927  1
  Sn  Sn5  1  0.119034  0.880966  0.234927  1
  Sn  Sn6  1  0.702368  0.297632  0.048457  1
  Sn  Sn7  1  0.297632  0.702368  0.548457  1
  Sn  Sn8  1  0.598085  0.401915  0.604080  1
  Sn  Sn9  1  0.401915  0.598085  0.104080  1
  Sn  Sn10  1  0.953173  0.046827  0.401885  1
  Sn  Sn11  1  0.046827  0.953173  0.901885  1
  Sn  Sn12  1  0.288454  0.711546  0.976269  1
  Sn  Sn13  1  0.711546  0.288454  0.476269  1
  Pd  Pd14  1  0.050429  0.949571  0.519053  1
  Pd  Pd15  1  0.949571  0.050429  0.019053  1
  Pd  Pd16  1  0.777340  0.222660  0.773881  1
  Pd  Pd17  1  0.222660  0.777340  0.273881  1
  Pd  Pd18  1  0.397811  0.602189  0.479797  1
  Pd  Pd19  1  0.602189  0.397811  0.979797  1
