# generated using pymatgen
data_Tb2BeSi13Ir6
_symmetry_space_group_name_H-M   'P 1'
_cell_length_a   8.06406996
_cell_length_b   7.98071264
_cell_length_c   7.97661710
_cell_angle_alpha   57.16487359
_cell_angle_beta   56.66507214
_cell_angle_gamma   56.75923895
_symmetry_Int_Tables_number   1
_chemical_formula_structural   Tb2BeSi13Ir6
_chemical_formula_sum   'Tb2 Be1 Si13 Ir6'
_cell_volume   336.70493556
_cell_formula_units_Z   1
loop_
 _symmetry_equiv_pos_site_id
 _symmetry_equiv_pos_as_xyz
  1  'x, y, z'
loop_
 _atom_site_type_symbol
 _atom_site_label
 _atom_site_symmetry_multiplicity
 _atom_site_fract_x
 _atom_site_fract_y
 _atom_site_fract_z
 _atom_site_occupancy
  Tb  Tb0  1  0.503398  0.497364  0.502085  1
  Tb  Tb1  1  0.998954  0.000223  0.996393  1
  Be  Be2  1  0.851005  0.053912  0.679472  1
  Si  Si3  1  0.673957  0.857028  0.058499  1
  Si  Si4  1  0.058910  0.683296  0.843936  1
  Si  Si5  1  0.651595  0.820934  0.444266  1
  Si  Si6  1  0.248376  0.248724  0.250405  1
  Si  Si7  1  0.750694  0.757658  0.749374  1
  Si  Si8  1  0.168638  0.569403  0.351372  1
  Si  Si9  1  0.563198  0.353085  0.171199  1
  Si  Si10  1  0.351591  0.174789  0.560066  1
  Si  Si11  1  0.935670  0.328124  0.148755  1
  Si  Si12  1  0.331643  0.149208  0.929468  1
  Si  Si13  1  0.138738  0.941678  0.338167  1
  Si  Si14  1  0.837454  0.412185  0.648633  1
  Si  Si15  1  0.440897  0.647593  0.826580  1
  Ir  Ir16  1  0.748416  0.074769  0.425298  1
  Ir  Ir17  1  0.424797  0.751582  0.075894  1
  Ir  Ir18  1  0.068899  0.429142  0.749566  1
  Ir  Ir19  1  0.254714  0.925796  0.572737  1
  Ir  Ir20  1  0.569295  0.250748  0.928782  1
  Ir  Ir21  1  0.929161  0.572761  0.249054  1
