# generated using pymatgen
data_ZnFe4Pt11
_symmetry_space_group_name_H-M   'P 1'
_cell_length_a   3.90569700
_cell_length_b   5.51554923
_cell_length_c   11.05563465
_cell_angle_alpha   89.73722830
_cell_angle_beta   90.00000000
_cell_angle_gamma   90.00000000
_symmetry_Int_Tables_number   1
_chemical_formula_structural   ZnFe4Pt11
_chemical_formula_sum   'Zn1 Fe4 Pt11'
_cell_volume   238.15868524
_cell_formula_units_Z   1
loop_
 _symmetry_equiv_pos_site_id
 _symmetry_equiv_pos_as_xyz
  1  'x, y, z'
loop_
 _atom_site_type_symbol
 _atom_site_label
 _atom_site_symmetry_multiplicity
 _atom_site_fract_x
 _atom_site_fract_y
 _atom_site_fract_z
 _atom_site_occupancy
  Zn  Zn0  1  0.500000  0.751842  0.372797  1
  Fe  Fe1  1  0.500000  0.747924  0.876780  1
  Fe  Fe2  1  0.500000  0.254010  0.125619  1
  Fe  Fe3  1  0.500000  0.248837  0.624702  1
  Fe  Fe4  1  0.000000  0.997652  0.998095  1
  Pt  Pt5  1  0.000000  0.009872  0.240300  1
  Pt  Pt6  1  0.000000  0.993585  0.757799  1
  Pt  Pt7  1  0.000000  0.499154  0.999437  1
  Pt  Pt8  1  0.000000  0.497851  0.502021  1
  Pt  Pt9  1  0.000000  0.503906  0.247753  1
  Pt  Pt10  1  0.000000  0.494032  0.751324  1
  Pt  Pt11  1  0.500000  0.246355  0.373851  1
  Pt  Pt12  1  0.500000  0.236457  0.883267  1
  Pt  Pt13  1  0.500000  0.763581  0.113781  1
  Pt  Pt14  1  0.500000  0.751775  0.629530  1
  Pt  Pt15  1  0.000000  0.003167  0.502945  1
