# generated using pymatgen
data_La3Ge6N11
_symmetry_space_group_name_H-M   'P 1'
_cell_length_a   10.61498000
_cell_length_b   10.61498000
_cell_length_c   5.17078500
_cell_angle_alpha   90.00000000
_cell_angle_beta   90.00000000
_cell_angle_gamma   90.00000000
_symmetry_Int_Tables_number   1
_chemical_formula_structural   La3Ge6N11
_chemical_formula_sum   'La6 Ge12 N22'
_cell_volume   582.63268014
_cell_formula_units_Z   2
loop_
 _symmetry_equiv_pos_site_id
 _symmetry_equiv_pos_as_xyz
  1  'x, y, z'
loop_
 _atom_site_type_symbol
 _atom_site_label
 _atom_site_symmetry_multiplicity
 _atom_site_fract_x
 _atom_site_fract_y
 _atom_site_fract_z
 _atom_site_occupancy
  La  La0  1  0.319989  0.819989  0.985272  1
  La  La1  1  0.680011  0.180011  0.985272  1
  La  La2  1  0.180011  0.319989  0.985272  1
  La  La3  1  0.819989  0.680011  0.985272  1
  La  La4  1  0.500000  0.500000  0.979064  1
  La  La5  1  0.000000  0.000000  0.979064  1
  Ge  Ge6  1  0.420263  0.292491  0.528628  1
  Ge  Ge7  1  0.579737  0.707509  0.528628  1
  Ge  Ge8  1  0.079737  0.792491  0.528628  1
  Ge  Ge9  1  0.920263  0.207509  0.528628  1
  Ge  Ge10  1  0.292491  0.579737  0.528628  1
  Ge  Ge11  1  0.707509  0.420263  0.528628  1
  Ge  Ge12  1  0.792491  0.920263  0.528628  1
  Ge  Ge13  1  0.207509  0.079737  0.528628  1
  Ge  Ge14  1  0.880704  0.380704  0.046244  1
  Ge  Ge15  1  0.119296  0.619296  0.046244  1
  Ge  Ge16  1  0.619296  0.880704  0.046244  1
  Ge  Ge17  1  0.380704  0.119296  0.046244  1
  N  N18  1  0.317504  0.420494  0.662879  1
  N  N19  1  0.682496  0.579506  0.662879  1
  N  N20  1  0.182496  0.920494  0.662879  1
  N  N21  1  0.817504  0.079506  0.662879  1
  N  N22  1  0.420494  0.682496  0.662879  1
  N  N23  1  0.579506  0.317504  0.662879  1
  N  N24  1  0.920494  0.817504  0.662879  1
  N  N25  1  0.079506  0.182496  0.662879  1
  N  N26  1  0.420087  0.280298  0.169547  1
  N  N27  1  0.579913  0.719702  0.169547  1
  N  N28  1  0.079913  0.780298  0.169547  1
  N  N29  1  0.920087  0.219702  0.169547  1
  N  N30  1  0.280298  0.579913  0.169547  1
  N  N31  1  0.719702  0.420087  0.169547  1
  N  N32  1  0.780298  0.920087  0.169547  1
  N  N33  1  0.219702  0.079913  0.169547  1
  N  N34  1  0.847002  0.347002  0.694898  1
  N  N35  1  0.152998  0.652998  0.694898  1
  N  N36  1  0.652998  0.847002  0.694898  1
  N  N37  1  0.347002  0.152998  0.694898  1
  N  N38  1  0.500000  0.000000  0.092435  1
  N  N39  1  0.000000  0.500000  0.092435  1
