# generated using pymatgen
data_TbHo8ThRu4
_symmetry_space_group_name_H-M   'P 1'
_cell_length_a   6.35856519
_cell_length_b   7.25419317
_cell_length_c   8.53205227
_cell_angle_alpha   96.33587878
_cell_angle_beta   112.23704589
_cell_angle_gamma   90.67685233
_symmetry_Int_Tables_number   1
_chemical_formula_structural   TbHo8ThRu4
_chemical_formula_sum   'Tb1 Ho8 Th1 Ru4'
_cell_volume   361.44218474
_cell_formula_units_Z   1
loop_
 _symmetry_equiv_pos_site_id
 _symmetry_equiv_pos_as_xyz
  1  'x, y, z'
loop_
 _atom_site_type_symbol
 _atom_site_label
 _atom_site_symmetry_multiplicity
 _atom_site_fract_x
 _atom_site_fract_y
 _atom_site_fract_z
 _atom_site_occupancy
  Tb  Tb0  1  0.789990  0.582826  0.809298  1
  Ho  Ho1  1  0.022247  0.085422  0.812234  1
  Ho  Ho2  1  0.209020  0.415597  0.185485  1
  Ho  Ho3  1  0.639838  0.816020  0.436172  1
  Ho  Ho4  1  0.208460  0.684635  0.567897  1
  Ho  Ho5  1  0.358141  0.186859  0.568429  1
  Ho  Ho6  1  0.792923  0.313852  0.434984  1
  Ho  Ho7  1  0.420191  0.747921  0.997711  1
  Ho  Ho8  1  0.578555  0.250166  0.999908  1
  Th  Th9  1  0.986673  0.908182  0.188134  1
  Ru  Ru10  1  0.829354  0.587595  0.220785  1
  Ru  Ru11  1  0.607652  0.926097  0.782945  1
  Ru  Ru12  1  0.176878  0.423615  0.777361  1
  Ru  Ru13  1  0.380079  0.071211  0.218657  1
