# generated using pymatgen
data_ReTc3(TeS)4
_symmetry_space_group_name_H-M   'P 1'
_cell_length_a   7.20729786
_cell_length_b   7.18591920
_cell_length_c   7.20729800
_cell_angle_alpha   59.90153573
_cell_angle_beta   59.99999936
_cell_angle_gamma   59.90153329
_symmetry_Int_Tables_number   1
_chemical_formula_structural   ReTc3(TeS)4
_chemical_formula_sum   'Re1 Tc3 Te4 S4'
_cell_volume   263.55078323
_cell_formula_units_Z   1
loop_
 _symmetry_equiv_pos_site_id
 _symmetry_equiv_pos_as_xyz
  1  'x, y, z'
loop_
 _atom_site_type_symbol
 _atom_site_label
 _atom_site_symmetry_multiplicity
 _atom_site_fract_x
 _atom_site_fract_y
 _atom_site_fract_z
 _atom_site_occupancy
  Re  Re0  1  0.152845  0.541466  0.152845  1
  Tc  Tc1  1  0.152671  0.151867  0.152671  1
  Tc  Tc2  1  0.542790  0.151867  0.152671  1
  Tc  Tc3  1  0.152671  0.151867  0.542790  1
  Te  Te4  1  0.878829  0.363514  0.878829  1
  Te  Te5  1  0.878200  0.878605  0.364995  1
  Te  Te6  1  0.364995  0.878605  0.878200  1
  Te  Te7  1  0.878200  0.878605  0.878200  1
  S  S8  1  0.377262  0.379375  0.377262  1
  S  S9  1  0.866102  0.379375  0.377262  1
  S  S10  1  0.377262  0.379375  0.866102  1
  S  S11  1  0.378174  0.865480  0.378174  1
