# generated using pymatgen
data_La12Pr3Er(CdCo)4
_symmetry_space_group_name_H-M   'P 1'
_cell_length_a   9.87532001
_cell_length_b   9.89062887
_cell_length_c   9.92680300
_cell_angle_alpha   59.87894312
_cell_angle_beta   59.82739848
_cell_angle_gamma   60.81458803
_symmetry_Int_Tables_number   1
_chemical_formula_structural   La12Pr3Er(CdCo)4
_chemical_formula_sum   'La12 Pr3 Er1 Cd4 Co4'
_cell_volume   688.16446370
_cell_formula_units_Z   1
loop_
 _symmetry_equiv_pos_site_id
 _symmetry_equiv_pos_as_xyz
  1  'x, y, z'
loop_
 _atom_site_type_symbol
 _atom_site_label
 _atom_site_symmetry_multiplicity
 _atom_site_fract_x
 _atom_site_fract_y
 _atom_site_fract_z
 _atom_site_occupancy
  La  La0  1  0.155963  0.154252  0.537243  1
  La  La1  1  0.315923  0.691812  0.682810  1
  La  La2  1  0.155963  0.154252  0.152541  1
  La  La3  1  0.537782  0.146560  0.157828  1
  La  La4  1  0.315923  0.691812  0.309455  1
  La  La5  1  0.312649  0.310671  0.688339  1
  La  La6  1  0.690309  0.316044  0.683328  1
  La  La7  1  0.938792  0.560712  0.559268  1
  La  La8  1  0.556705  0.557325  0.942985  1
  La  La9  1  0.147243  0.537226  0.157764  1
  La  La10  1  0.690309  0.316044  0.310318  1
  La  La11  1  0.938792  0.560712  0.941228  1
  Pr  Pr12  1  0.937294  0.939081  0.561813  1
  Pr  Pr13  1  0.562598  0.937394  0.561081  1
  Pr  Pr14  1  0.562598  0.937394  0.938927  1
  Er  Er15  1  0.690909  0.693916  0.307588  1
  Cd  Cd16  1  0.238636  0.919821  0.920771  1
  Cd  Cd17  1  0.919064  0.920045  0.923347  1
  Cd  Cd18  1  0.919064  0.920045  0.237543  1
  Cd  Cd19  1  0.919596  0.237560  0.921421  1
  Co  Co20  1  0.917049  0.359051  0.361950  1
  Co  Co21  1  0.359795  0.360002  0.919297  1
  Co  Co22  1  0.357248  0.918265  0.362244  1
  Co  Co23  1  0.359795  0.360002  0.360907  1
