# generated using pymatgen
data_CeRe3Si2Os
_symmetry_space_group_name_H-M   'P 1'
_cell_length_a   7.33193829
_cell_length_b   7.33193907
_cell_length_c   4.06524500
_cell_angle_alpha   90.00000000
_cell_angle_beta   90.00000000
_cell_angle_gamma   147.61707800
_symmetry_Int_Tables_number   1
_chemical_formula_structural   CeRe3Si2Os
_chemical_formula_sum   'Ce1 Re3 Si2 Os1'
_cell_volume   117.04281381
_cell_formula_units_Z   1
loop_
 _symmetry_equiv_pos_site_id
 _symmetry_equiv_pos_as_xyz
  1  'x, y, z'
loop_
 _atom_site_type_symbol
 _atom_site_label
 _atom_site_symmetry_multiplicity
 _atom_site_fract_x
 _atom_site_fract_y
 _atom_site_fract_z
 _atom_site_occupancy
  Ce  Ce0  1  0.999798  0.000202  0.000000  1
  Re  Re1  1  0.307414  0.692586  0.000000  1
  Re  Re2  1  0.813391  0.186609  0.500000  1
  Re  Re3  1  0.694663  0.305337  0.000000  1
  Si  Si4  1  0.413952  0.586048  0.500000  1
  Si  Si5  1  0.587686  0.412314  0.500000  1
  Os  Os6  1  0.183097  0.816903  0.500000  1
