# generated using pymatgen
data_Mg3Ta6B20Mo
_symmetry_space_group_name_H-M   'P 1'
_cell_length_a   6.14027163
_cell_length_b   7.00253261
_cell_length_c   7.41419616
_cell_angle_alpha   94.31329339
_cell_angle_beta   101.97483276
_cell_angle_gamma   115.99669853
_symmetry_Int_Tables_number   1
_chemical_formula_structural   Mg3Ta6B20Mo
_chemical_formula_sum   'Mg3 Ta6 B20 Mo1'
_cell_volume   275.25043942
_cell_formula_units_Z   1
loop_
 _symmetry_equiv_pos_site_id
 _symmetry_equiv_pos_as_xyz
  1  'x, y, z'
loop_
 _atom_site_type_symbol
 _atom_site_label
 _atom_site_symmetry_multiplicity
 _atom_site_fract_x
 _atom_site_fract_y
 _atom_site_fract_z
 _atom_site_occupancy
  Mg  Mg0  1  0.497174  0.998060  0.996755  1
  Mg  Mg1  1  0.999332  0.203089  0.602943  1
  Mg  Mg2  1  0.003667  0.601669  0.800605  1
  Ta  Ta3  1  0.500813  0.797745  0.399570  1
  Ta  Ta4  1  0.000018  0.401008  0.199997  1
  Ta  Ta5  1  0.500178  0.203846  0.598066  1
  Ta  Ta6  1  0.999470  0.804355  0.399620  1
  Ta  Ta7  1  0.499956  0.601216  0.798870  1
  Ta  Ta8  1  0.500418  0.396373  0.199659  1
  B  B9  1  0.332455  0.233159  0.867752  1
  B  B10  1  0.333342  0.634524  0.065421  1
  B  B11  1  0.164009  0.366295  0.929918  1
  B  B12  1  0.332700  0.033467  0.262775  1
  B  B13  1  0.166677  0.764636  0.132174  1
  B  B14  1  0.836183  0.234968  0.866439  1
  B  B15  1  0.164657  0.165854  0.335745  1
  B  B16  1  0.832433  0.630724  0.065105  1
  B  B17  1  0.331711  0.431686  0.468378  1
  B  B18  1  0.665937  0.363859  0.934586  1
  B  B19  1  0.832639  0.032426  0.267755  1
  B  B20  1  0.665542  0.766021  0.131898  1
  B  B21  1  0.333597  0.835102  0.669435  1
  B  B22  1  0.166245  0.566275  0.535333  1
  B  B23  1  0.665254  0.165469  0.331981  1
  B  B24  1  0.835689  0.433713  0.468738  1
  B  B25  1  0.167873  0.967429  0.731560  1
  B  B26  1  0.835335  0.836645  0.667078  1
  B  B27  1  0.670435  0.569010  0.534483  1
  B  B28  1  0.668133  0.967994  0.733249  1
  Mo  Mo29  1  0.998128  0.993383  0.004114  1
