# generated using pymatgen
data_Li3Tb2DyPt3
_symmetry_space_group_name_H-M   'P 1'
_cell_length_a   7.09502415
_cell_length_b   7.09589712
_cell_length_c   4.08479000
_cell_angle_alpha   90.00000000
_cell_angle_beta   90.00000000
_cell_angle_gamma   120.00405036
_symmetry_Int_Tables_number   1
_chemical_formula_structural   Li3Tb2DyPt3
_chemical_formula_sum   'Li3 Tb2 Dy1 Pt3'
_cell_volume   178.09176063
_cell_formula_units_Z   1
loop_
 _symmetry_equiv_pos_site_id
 _symmetry_equiv_pos_as_xyz
  1  'x, y, z'
loop_
 _atom_site_type_symbol
 _atom_site_label
 _atom_site_symmetry_multiplicity
 _atom_site_fract_x
 _atom_site_fract_y
 _atom_site_fract_z
 _atom_site_occupancy
  Li  Li0  1  0.767813  0.767500  0.500000  1
  Li  Li1  1  0.232187  0.999687  0.500000  1
  Li  Li2  1  0.000000  0.231692  0.500000  1
  Tb  Tb3  1  0.411087  0.410417  0.000000  1
  Tb  Tb4  1  0.588913  0.999330  0.000000  1
  Dy  Dy5  1  0.000000  0.591302  0.000000  1
  Pt  Pt6  1  0.000000  0.000074  0.000000  1
  Pt  Pt7  1  0.667834  0.333915  0.500000  1
  Pt  Pt8  1  0.332166  0.666082  0.500000  1
