# generated using pymatgen
data_Ba3CdCu17P6
_symmetry_space_group_name_H-M   'P 1'
_cell_length_a   9.18258568
_cell_length_b   9.18258586
_cell_length_c   10.60717491
_cell_angle_alpha   58.77989696
_cell_angle_beta   58.77989542
_cell_angle_gamma   36.67847562
_symmetry_Int_Tables_number   1
_chemical_formula_structural   Ba3CdCu17P6
_chemical_formula_sum   'Ba3 Cd1 Cu17 P6'
_cell_volume   447.56026367
_cell_formula_units_Z   1
loop_
 _symmetry_equiv_pos_site_id
 _symmetry_equiv_pos_as_xyz
  1  'x, y, z'
loop_
 _atom_site_type_symbol
 _atom_site_label
 _atom_site_symmetry_multiplicity
 _atom_site_fract_x
 _atom_site_fract_y
 _atom_site_fract_z
 _atom_site_occupancy
  Ba  Ba0  1  0.500000  0.500000  0.000000  1
  Ba  Ba1  1  0.835670  0.835670  0.995265  1
  Ba  Ba2  1  0.164330  0.164330  0.004735  1
  Cd  Cd3  1  0.000000  0.000000  0.500000  1
  Cu  Cu4  1  0.442230  0.942533  0.673247  1
  Cu  Cu5  1  0.763728  0.295433  0.678970  1
  Cu  Cu6  1  0.116734  0.585165  0.679795  1
  Cu  Cu7  1  0.942533  0.442230  0.673247  1
  Cu  Cu8  1  0.295433  0.763728  0.678970  1
  Cu  Cu9  1  0.585165  0.116734  0.679795  1
  Cu  Cu10  1  0.557770  0.057467  0.326753  1
  Cu  Cu11  1  0.883266  0.414835  0.320205  1
  Cu  Cu12  1  0.236272  0.704567  0.321030  1
  Cu  Cu13  1  0.057467  0.557770  0.326753  1
  Cu  Cu14  1  0.414835  0.883266  0.320205  1
  Cu  Cu15  1  0.704567  0.236272  0.321030  1
  Cu  Cu16  1  0.167455  0.167455  0.499643  1
  Cu  Cu17  1  0.500000  0.500000  0.500000  1
  Cu  Cu18  1  0.832545  0.832545  0.500357  1
  Cu  Cu19  1  0.669604  0.669604  0.499991  1
  Cu  Cu20  1  0.330396  0.330396  0.500009  1
  P  P21  1  0.069067  0.069067  0.794746  1
  P  P22  1  0.401770  0.401770  0.795234  1
  P  P23  1  0.734661  0.734661  0.795172  1
  P  P24  1  0.265339  0.265339  0.204828  1
  P  P25  1  0.598230  0.598230  0.204766  1
  P  P26  1  0.930933  0.930933  0.205254  1
