# generated using pymatgen
data_LuUInRu2
_symmetry_space_group_name_H-M   'P 1'
_cell_length_a   7.76624800
_cell_length_b   7.44976900
_cell_length_c   3.51712800
_cell_angle_alpha   90.00000000
_cell_angle_beta   90.00000000
_cell_angle_gamma   90.00000000
_symmetry_Int_Tables_number   1
_chemical_formula_structural   LuUInRu2
_chemical_formula_sum   'Lu2 U2 In2 Ru4'
_cell_volume   203.48960806
_cell_formula_units_Z   2
loop_
 _symmetry_equiv_pos_site_id
 _symmetry_equiv_pos_as_xyz
  1  'x, y, z'
loop_
 _atom_site_type_symbol
 _atom_site_label
 _atom_site_symmetry_multiplicity
 _atom_site_fract_x
 _atom_site_fract_y
 _atom_site_fract_z
 _atom_site_occupancy
  Lu  Lu0  1  0.334168  0.838458  0.500000  1
  Lu  Lu1  1  0.834168  0.661542  0.500000  1
  U  U2  1  0.177746  0.338830  0.500000  1
  U  U3  1  0.677746  0.161170  0.500000  1
  In  In4  1  0.009263  0.983165  0.000000  1
  In  In5  1  0.509263  0.516835  0.000000  1
  Ru  Ru6  1  0.343459  0.158642  0.000000  1
  Ru  Ru7  1  0.843459  0.341358  0.000000  1
  Ru  Ru8  1  0.135364  0.588658  0.000000  1
  Ru  Ru9  1  0.635364  0.911342  0.000000  1
