# generated using pymatgen
data_Ti9Nb(Sn3Ge)2
_symmetry_space_group_name_H-M   'P 1'
_cell_length_a   8.28776300
_cell_length_b   8.28776336
_cell_length_c   5.59029600
_cell_angle_alpha   90.00000000
_cell_angle_beta   90.00000000
_cell_angle_gamma   119.99999458
_symmetry_Int_Tables_number   1
_chemical_formula_structural   Ti9Nb(Sn3Ge)2
_chemical_formula_sum   'Ti9 Nb1 Sn6 Ge2'
_cell_volume   332.53711505
_cell_formula_units_Z   1
loop_
 _symmetry_equiv_pos_site_id
 _symmetry_equiv_pos_as_xyz
  1  'x, y, z'
loop_
 _atom_site_type_symbol
 _atom_site_label
 _atom_site_symmetry_multiplicity
 _atom_site_fract_x
 _atom_site_fract_y
 _atom_site_fract_z
 _atom_site_occupancy
  Ti  Ti0  1  0.264674  0.999763  0.750010  1
  Ti  Ti1  1  0.735090  0.999763  0.249990  1
  Ti  Ti2  1  0.000237  0.264910  0.750010  1
  Ti  Ti3  1  0.000237  0.735326  0.249990  1
  Ti  Ti4  1  0.735090  0.735326  0.750010  1
  Ti  Ti5  1  0.264674  0.264910  0.249990  1
  Ti  Ti6  1  0.666667  0.333333  0.500000  1
  Ti  Ti7  1  0.666667  0.333333  0.000000  1
  Ti  Ti8  1  0.333333  0.666667  0.000000  1
  Nb  Nb9  1  0.333333  0.666667  0.500000  1
  Sn  Sn10  1  0.608933  0.001529  0.751342  1
  Sn  Sn11  1  0.392596  0.001529  0.248658  1
  Sn  Sn12  1  0.998471  0.607404  0.751342  1
  Sn  Sn13  1  0.998471  0.391067  0.248658  1
  Sn  Sn14  1  0.392596  0.391067  0.751342  1
  Sn  Sn15  1  0.608933  0.607404  0.248658  1
  Ge  Ge16  1  0.000000  0.000000  0.500000  1
  Ge  Ge17  1  0.000000  0.000000  0.000000  1
