# generated using pymatgen
data_Pr3SiI3
_symmetry_space_group_name_H-M   'P 1'
_cell_length_a   10.90360875
_cell_length_b   10.90360952
_cell_length_c   10.90360900
_cell_angle_alpha   109.47121780
_cell_angle_beta   109.47121925
_cell_angle_gamma   109.47122321
_symmetry_Int_Tables_number   1
_chemical_formula_structural   Pr3SiI3
_chemical_formula_sum   'Pr12 Si4 I12'
_cell_volume   997.90439906
_cell_formula_units_Z   4
loop_
 _symmetry_equiv_pos_site_id
 _symmetry_equiv_pos_as_xyz
  1  'x, y, z'
loop_
 _atom_site_type_symbol
 _atom_site_label
 _atom_site_symmetry_multiplicity
 _atom_site_fract_x
 _atom_site_fract_y
 _atom_site_fract_z
 _atom_site_occupancy
  Pr  Pr0  1  0.465645  0.482823  0.232823  1
  Pr  Pr1  1  0.750000  0.232823  0.267177  1
  Pr  Pr2  1  0.750000  0.017177  0.482823  1
  Pr  Pr3  1  0.232823  0.465645  0.482823  1
  Pr  Pr4  1  0.267177  0.750000  0.232823  1
  Pr  Pr5  1  0.034355  0.267177  0.017177  1
  Pr  Pr6  1  0.017177  0.034355  0.267177  1
  Pr  Pr7  1  0.482823  0.750000  0.017177  1
  Pr  Pr8  1  0.482823  0.232823  0.465645  1
  Pr  Pr9  1  0.017177  0.482823  0.750000  1
  Pr  Pr10  1  0.267177  0.017177  0.034355  1
  Pr  Pr11  1  0.232823  0.267177  0.750000  1
  Si  Si12  1  0.250000  0.250000  0.250000  1
  Si  Si13  1  0.500000  0.000000  0.250000  1
  Si  Si14  1  0.000000  0.250000  0.500000  1
  Si  Si15  1  0.250000  0.500000  0.000000  1
  I  I16  1  0.250000  0.758025  0.741975  1
  I  I17  1  0.516049  0.508025  0.758025  1
  I  I18  1  0.983951  0.741975  0.991975  1
  I  I19  1  0.741975  0.250000  0.758025  1
  I  I20  1  0.991975  0.983951  0.741975  1
  I  I21  1  0.250000  0.991975  0.508025  1
  I  I22  1  0.758025  0.516049  0.508025  1
  I  I23  1  0.508025  0.250000  0.991975  1
  I  I24  1  0.758025  0.741975  0.250000  1
  I  I25  1  0.741975  0.991975  0.983951  1
  I  I26  1  0.991975  0.508025  0.250000  1
  I  I27  1  0.508025  0.758025  0.516049  1
