# generated using pymatgen
data_Pr5Th5(HgPb3)2
_symmetry_space_group_name_H-M   'P 1'
_cell_length_a   9.77086464
_cell_length_b   9.79201820
_cell_length_c   6.70794700
_cell_angle_alpha   90.00000000
_cell_angle_beta   90.00000000
_cell_angle_gamma   120.07164586
_symmetry_Int_Tables_number   1
_chemical_formula_structural   Pr5Th5(HgPb3)2
_chemical_formula_sum   'Pr5 Th5 Hg2 Pb6'
_cell_volume   555.40715574
_cell_formula_units_Z   1
loop_
 _symmetry_equiv_pos_site_id
 _symmetry_equiv_pos_as_xyz
  1  'x, y, z'
loop_
 _atom_site_type_symbol
 _atom_site_label
 _atom_site_symmetry_multiplicity
 _atom_site_fract_x
 _atom_site_fract_y
 _atom_site_fract_z
 _atom_site_occupancy
  Pr  Pr0  1  0.712822  0.712692  0.250000  1
  Pr  Pr1  1  0.287178  0.999870  0.250000  1
  Pr  Pr2  1  0.000000  0.287586  0.250000  1
  Pr  Pr3  1  0.286327  0.286340  0.750000  1
  Pr  Pr4  1  0.713673  0.000013  0.750000  1
  Th  Th5  1  0.668251  0.336171  0.501488  1
  Th  Th6  1  0.331749  0.667921  0.501488  1
  Th  Th7  1  0.331749  0.667921  0.998512  1
  Th  Th8  1  0.668251  0.336171  0.998512  1
  Th  Th9  1  0.000000  0.708161  0.750000  1
  Hg  Hg10  1  0.000000  0.999287  0.499316  1
  Hg  Hg11  1  0.000000  0.999287  0.000684  1
  Pb  Pb12  1  0.370442  0.370858  0.250000  1
  Pb  Pb13  1  0.629558  0.000416  0.250000  1
  Pb  Pb14  1  0.000000  0.629429  0.250000  1
  Pb  Pb15  1  0.628595  0.628965  0.750000  1
  Pb  Pb16  1  0.371405  0.000371  0.750000  1
  Pb  Pb17  1  0.000000  0.368541  0.750000  1
