# generated using pymatgen
data_Lu4InPt
_symmetry_space_group_name_H-M   'P 1'
_cell_length_a   9.50960294
_cell_length_b   9.50960250
_cell_length_c   9.50960300
_cell_angle_alpha   60.00000173
_cell_angle_beta   60.00000328
_cell_angle_gamma   60.00000064
_symmetry_Int_Tables_number   1
_chemical_formula_structural   Lu4InPt
_chemical_formula_sum   'Lu16 In4 Pt4'
_cell_volume   608.09601198
_cell_formula_units_Z   4
loop_
 _symmetry_equiv_pos_site_id
 _symmetry_equiv_pos_as_xyz
  1  'x, y, z'
loop_
 _atom_site_type_symbol
 _atom_site_label
 _atom_site_symmetry_multiplicity
 _atom_site_fract_x
 _atom_site_fract_y
 _atom_site_fract_z
 _atom_site_occupancy
  Lu  Lu0  1  0.601445  0.601445  0.601445  1
  Lu  Lu1  1  0.601445  0.601445  0.195666  1
  Lu  Lu2  1  0.601445  0.195666  0.601445  1
  Lu  Lu3  1  0.195666  0.601445  0.601445  1
  Lu  Lu4  1  0.060663  0.439337  0.439337  1
  Lu  Lu5  1  0.439337  0.060663  0.060663  1
  Lu  Lu6  1  0.439337  0.060663  0.439337  1
  Lu  Lu7  1  0.060663  0.439337  0.060663  1
  Lu  Lu8  1  0.439337  0.439337  0.060663  1
  Lu  Lu9  1  0.060663  0.060663  0.439337  1
  Lu  Lu10  1  0.186909  0.813091  0.813091  1
  Lu  Lu11  1  0.813091  0.186909  0.186909  1
  Lu  Lu12  1  0.813091  0.186909  0.813091  1
  Lu  Lu13  1  0.186909  0.813091  0.186909  1
  Lu  Lu14  1  0.813091  0.813091  0.186909  1
  Lu  Lu15  1  0.186909  0.186909  0.813091  1
  In  In16  1  0.833650  0.833650  0.833650  1
  In  In17  1  0.833650  0.833650  0.499050  1
  In  In18  1  0.833650  0.499050  0.833650  1
  In  In19  1  0.499050  0.833650  0.833650  1
  Pt  Pt20  1  0.392940  0.392940  0.392940  1
  Pt  Pt21  1  0.392940  0.392940  0.821179  1
  Pt  Pt22  1  0.392940  0.821179  0.392940  1
  Pt  Pt23  1  0.821179  0.392940  0.392940  1
