# generated using pymatgen
data_Zr6Al12Cu11S
_symmetry_space_group_name_H-M   'P 1'
_cell_length_a   8.58532939
_cell_length_b   8.57338390
_cell_length_c   8.55285600
_cell_angle_alpha   60.07917373
_cell_angle_beta   60.12504302
_cell_angle_gamma   60.06898188
_symmetry_Int_Tables_number   1
_chemical_formula_structural   Zr6Al12Cu11S
_chemical_formula_sum   'Zr6 Al12 Cu11 S1'
_cell_volume   446.06732060
_cell_formula_units_Z   1
loop_
 _symmetry_equiv_pos_site_id
 _symmetry_equiv_pos_as_xyz
  1  'x, y, z'
loop_
 _atom_site_type_symbol
 _atom_site_label
 _atom_site_symmetry_multiplicity
 _atom_site_fract_x
 _atom_site_fract_y
 _atom_site_fract_z
 _atom_site_occupancy
  Zr  Zr0  1  0.706160  0.293450  0.293715  1
  Zr  Zr1  1  0.288320  0.710600  0.713739  1
  Zr  Zr2  1  0.288320  0.710600  0.287340  1
  Zr  Zr3  1  0.706160  0.293450  0.706677  1
  Zr  Zr4  1  0.300287  0.299216  0.700248  1
  Zr  Zr5  1  0.711390  0.709383  0.289614  1
  Al  Al6  1  0.889911  0.352876  0.878606  1
  Al  Al7  1  0.634213  0.119576  0.123105  1
  Al  Al8  1  0.365469  0.886687  0.873921  1
  Al  Al9  1  0.324851  0.334031  0.335186  1
  Al  Al10  1  0.671666  0.670999  0.662274  1
  Al  Al11  1  0.324851  0.334031  0.005934  1
  Al  Al12  1  0.323116  0.007002  0.334941  1
  Al  Al13  1  0.671666  0.670999  0.995058  1
  Al  Al14  1  0.675610  0.996049  0.664170  1
  Al  Al15  1  0.007038  0.330052  0.331455  1
  Al  Al16  1  0.995238  0.675867  0.664447  1
  Al  Al17  1  0.002940  0.970304  0.013378  1
  Cu  Cu18  1  0.118344  0.119550  0.116844  1
  Cu  Cu19  1  0.877237  0.879668  0.878250  1
  Cu  Cu20  1  0.118344  0.119550  0.645262  1
  Cu  Cu21  1  0.124658  0.623470  0.125937  1
  Cu  Cu22  1  0.877237  0.879668  0.364844  1
  Cu  Cu23  1  0.497755  0.003049  0.999396  1
  Cu  Cu24  1  0.998535  0.497857  0.505542  1
  Cu  Cu25  1  0.998535  0.497857  0.998068  1
  Cu  Cu26  1  0.497755  0.003049  0.499802  1
  Cu  Cu27  1  0.999456  0.003139  0.498702  1
  Cu  Cu28  1  0.505647  0.497792  0.998280  1
  S  S29  1  0.499282  0.510182  0.495268  1
