# generated using pymatgen
data_Er17Lu3(SnPb)8
_symmetry_space_group_name_H-M   'P 1'
_cell_length_a   8.06014313
_cell_length_b   8.12677713
_cell_length_c   15.43274200
_cell_angle_alpha   90.00000000
_cell_angle_beta   90.00000000
_cell_angle_gamma   89.97918695
_symmetry_Int_Tables_number   1
_chemical_formula_structural   Er17Lu3(SnPb)8
_chemical_formula_sum   'Er17 Lu3 Sn8 Pb8'
_cell_volume   1010.89063051
_cell_formula_units_Z   1
loop_
 _symmetry_equiv_pos_site_id
 _symmetry_equiv_pos_as_xyz
  1  'x, y, z'
loop_
 _atom_site_type_symbol
 _atom_site_label
 _atom_site_symmetry_multiplicity
 _atom_site_fract_x
 _atom_site_fract_y
 _atom_site_fract_z
 _atom_site_occupancy
  Er  Er0  1  0.378285  0.839792  0.876833  1
  Er  Er1  1  0.878254  0.660221  0.623123  1
  Er  Er2  1  0.621950  0.160340  0.376933  1
  Er  Er3  1  0.121595  0.339891  0.123070  1
  Er  Er4  1  0.621950  0.160340  0.123067  1
  Er  Er5  1  0.121595  0.339891  0.376930  1
  Er  Er6  1  0.378285  0.839792  0.623167  1
  Er  Er7  1  0.878254  0.660221  0.876877  1
  Er  Er8  1  0.535234  0.323480  0.897402  1
  Er  Er9  1  0.035256  0.176501  0.602629  1
  Er  Er10  1  0.464853  0.676417  0.397451  1
  Er  Er11  1  0.964679  0.823399  0.102541  1
  Er  Er12  1  0.464853  0.676417  0.102549  1
  Er  Er13  1  0.964679  0.823399  0.397459  1
  Er  Er14  1  0.535234  0.323480  0.602598  1
  Er  Er15  1  0.035256  0.176501  0.897371  1
  Er  Er16  1  0.290854  0.003880  0.250000  1
  Lu  Lu17  1  0.209247  0.503928  0.750000  1
  Lu  Lu18  1  0.709215  0.996030  0.750000  1
  Lu  Lu19  1  0.790703  0.496019  0.250000  1
  Sn  Sn20  1  0.573940  0.623196  0.750000  1
  Sn  Sn21  1  0.073895  0.876752  0.750000  1
  Sn  Sn22  1  0.426137  0.377113  0.250000  1
  Sn  Sn23  1  0.925549  0.123335  0.250000  1
  Sn  Sn24  1  0.343917  0.149920  0.750000  1
  Sn  Sn25  1  0.843872  0.350166  0.750000  1
  Sn  Sn26  1  0.656293  0.850135  0.250000  1
  Sn  Sn27  1  0.156121  0.649439  0.250000  1
  Pb  Pb28  1  0.281740  0.033306  0.041755  1
  Pb  Pb29  1  0.781759  0.466694  0.458137  1
  Pb  Pb30  1  0.718246  0.966692  0.541887  1
  Pb  Pb31  1  0.218277  0.533311  0.958113  1
  Pb  Pb32  1  0.718246  0.966692  0.958113  1
  Pb  Pb33  1  0.218277  0.533311  0.541887  1
  Pb  Pb34  1  0.281740  0.033306  0.458245  1
  Pb  Pb35  1  0.781759  0.466694  0.041863  1
