# generated using pymatgen
data_Yb2Y18Cd5InNi2
_symmetry_space_group_name_H-M   'P 1'
_cell_length_a   9.76239575
_cell_length_b   9.76239613
_cell_length_c   9.69606800
_cell_angle_alpha   90.00000000
_cell_angle_beta   90.00000000
_cell_angle_gamma   120.23591720
_symmetry_Int_Tables_number   1
_chemical_formula_structural   Yb2Y18Cd5InNi2
_chemical_formula_sum   'Yb2 Y18 Cd5 In1 Ni2'
_cell_volume   798.36552134
_cell_formula_units_Z   1
loop_
 _symmetry_equiv_pos_site_id
 _symmetry_equiv_pos_as_xyz
  1  'x, y, z'
loop_
 _atom_site_type_symbol
 _atom_site_label
 _atom_site_symmetry_multiplicity
 _atom_site_fract_x
 _atom_site_fract_y
 _atom_site_fract_z
 _atom_site_occupancy
  Yb  Yb0  1  0.002137  0.997863  0.502492  1
  Yb  Yb1  1  0.002137  0.997863  0.997508  1
  Y  Y2  1  0.542603  0.457397  0.250000  1
  Y  Y3  1  0.540072  0.087671  0.250000  1
  Y  Y4  1  0.912329  0.459928  0.250000  1
  Y  Y5  1  0.455693  0.544307  0.750000  1
  Y  Y6  1  0.456770  0.912994  0.750000  1
  Y  Y7  1  0.087006  0.543230  0.750000  1
  Y  Y8  1  0.211006  0.788994  0.435807  1
  Y  Y9  1  0.209867  0.420211  0.434770  1
  Y  Y10  1  0.579789  0.790133  0.434770  1
  Y  Y11  1  0.789846  0.210154  0.564264  1
  Y  Y12  1  0.789037  0.578996  0.565965  1
  Y  Y13  1  0.421004  0.210963  0.565965  1
  Y  Y14  1  0.789846  0.210154  0.935736  1
  Y  Y15  1  0.789037  0.578996  0.934035  1
  Y  Y16  1  0.421004  0.210963  0.934035  1
  Y  Y17  1  0.211006  0.788994  0.064193  1
  Y  Y18  1  0.209867  0.420211  0.065230  1
  Y  Y19  1  0.579789  0.790133  0.065230  1
  Cd  Cd20  1  0.883927  0.767469  0.250000  1
  Cd  Cd21  1  0.232531  0.116073  0.250000  1
  Cd  Cd22  1  0.117841  0.882159  0.750000  1
  Cd  Cd23  1  0.115838  0.232726  0.750000  1
  Cd  Cd24  1  0.767274  0.884162  0.750000  1
  In  In25  1  0.882771  0.117229  0.250000  1
  Ni  Ni26  1  0.332842  0.667158  0.250000  1
  Ni  Ni27  1  0.667129  0.332871  0.750000  1
