# generated using pymatgen
data_La2TbIn5
_symmetry_space_group_name_H-M   'P 1'
_cell_length_a   6.64405952
_cell_length_b   6.64405966
_cell_length_c   10.63775800
_cell_angle_alpha   90.00000000
_cell_angle_beta   90.00000000
_cell_angle_gamma   102.50164456
_symmetry_Int_Tables_number   1
_chemical_formula_structural   La2TbIn5
_chemical_formula_sum   'La4 Tb2 In10'
_cell_volume   458.45413444
_cell_formula_units_Z   2
loop_
 _symmetry_equiv_pos_site_id
 _symmetry_equiv_pos_as_xyz
  1  'x, y, z'
loop_
 _atom_site_type_symbol
 _atom_site_label
 _atom_site_symmetry_multiplicity
 _atom_site_fract_x
 _atom_site_fract_y
 _atom_site_fract_z
 _atom_site_occupancy
  La  La0  1  0.203575  0.796425  0.500000  1
  La  La1  1  0.203575  0.796425  0.000000  1
  La  La2  1  0.796425  0.203575  0.500000  1
  La  La3  1  0.796425  0.203575  0.000000  1
  Tb  Tb4  1  0.630470  0.630470  0.250000  1
  Tb  Tb5  1  0.369530  0.369530  0.750000  1
  In  In6  1  0.010301  0.010301  0.250000  1
  In  In7  1  0.989699  0.989699  0.750000  1
  In  In8  1  0.312785  0.312785  0.049403  1
  In  In9  1  0.687215  0.687215  0.950597  1
  In  In10  1  0.312785  0.312785  0.450597  1
  In  In11  1  0.687215  0.687215  0.549403  1
  In  In12  1  0.498138  0.070949  0.250000  1
  In  In13  1  0.929051  0.501862  0.750000  1
  In  In14  1  0.501862  0.929051  0.750000  1
  In  In15  1  0.070949  0.498138  0.250000  1
