# generated using pymatgen
data_Ca12Pd7RhPb8
_symmetry_space_group_name_H-M   'P 1'
_cell_length_a   5.95275973
_cell_length_b   8.68787060
_cell_length_c   14.13024035
_cell_angle_alpha   89.97760636
_cell_angle_beta   89.92451274
_cell_angle_gamma   90.13972143
_symmetry_Int_Tables_number   1
_chemical_formula_structural   Ca12Pd7RhPb8
_chemical_formula_sum   'Ca12 Pd7 Rh1 Pb8'
_cell_volume   730.76803855
_cell_formula_units_Z   1
loop_
 _symmetry_equiv_pos_site_id
 _symmetry_equiv_pos_as_xyz
  1  'x, y, z'
loop_
 _atom_site_type_symbol
 _atom_site_label
 _atom_site_symmetry_multiplicity
 _atom_site_fract_x
 _atom_site_fract_y
 _atom_site_fract_z
 _atom_site_occupancy
  Ca  Ca0  1  0.166135  0.600463  0.097078  1
  Ca  Ca1  1  0.161753  0.896670  0.903747  1
  Ca  Ca2  1  0.839243  0.103992  0.403243  1
  Ca  Ca3  1  0.838533  0.396806  0.596274  1
  Ca  Ca4  1  0.837056  0.396549  0.906565  1
  Ca  Ca5  1  0.836674  0.107088  0.096170  1
  Ca  Ca6  1  0.161107  0.896459  0.596303  1
  Ca  Ca7  1  0.161005  0.602892  0.403253  1
  Ca  Ca8  1  0.368731  0.244616  0.248549  1
  Ca  Ca9  1  0.368488  0.258495  0.750586  1
  Ca  Ca10  1  0.630348  0.739248  0.248103  1
  Ca  Ca11  1  0.631382  0.757856  0.750332  1
  Pd  Pd12  1  0.622727  0.038680  0.909650  1
  Pd  Pd13  1  0.378657  0.958942  0.410021  1
  Pd  Pd14  1  0.378099  0.540536  0.590310  1
  Pd  Pd15  1  0.377544  0.540953  0.908565  1
  Pd  Pd16  1  0.376692  0.959539  0.090023  1
  Pd  Pd17  1  0.621669  0.041120  0.590254  1
  Pd  Pd18  1  0.622410  0.459080  0.410057  1
  Rh  Rh19  1  0.622710  0.460287  0.089543  1
  Pb  Pb20  1  0.334327  0.252746  0.001654  1
  Pb  Pb21  1  0.671301  0.750107  0.499705  1
  Pb  Pb22  1  0.670308  0.745844  0.001729  1
  Pb  Pb23  1  0.328468  0.249833  0.500173  1
  Pb  Pb24  1  0.873788  0.398046  0.248152  1
  Pb  Pb25  1  0.878107  0.102634  0.749926  1
  Pb  Pb26  1  0.121584  0.897543  0.250165  1
  Pb  Pb27  1  0.121155  0.602977  0.749870  1
