# generated using pymatgen
data_HOsPb2F10
_symmetry_space_group_name_H-M   'P 1'
_cell_length_a   4.73341356
_cell_length_b   4.94609516
_cell_length_c   9.42143770
_cell_angle_alpha   86.95816262
_cell_angle_beta   76.28083491
_cell_angle_gamma   84.38275443
_symmetry_Int_Tables_number   1
_chemical_formula_structural   HOsPb2F10
_chemical_formula_sum   'H1 Os1 Pb2 F10'
_cell_volume   213.15022688
_cell_formula_units_Z   1
loop_
 _symmetry_equiv_pos_site_id
 _symmetry_equiv_pos_as_xyz
  1  'x, y, z'
loop_
 _atom_site_type_symbol
 _atom_site_label
 _atom_site_symmetry_multiplicity
 _atom_site_fract_x
 _atom_site_fract_y
 _atom_site_fract_z
 _atom_site_occupancy
  H  H0  1  0.500000  0.500000  0.500000  1
  Os  Os1  1  0.000000  0.500000  0.000000  1
  Pb  Pb2  1  0.335068  0.006942  0.324871  1
  Pb  Pb3  1  0.664932  0.993058  0.675129  1
  F  F4  1  0.641218  0.725635  0.043277  1
  F  F5  1  0.820545  0.205823  0.116267  1
  F  F6  1  0.083845  0.612891  0.176017  1
  F  F7  1  0.400397  0.523373  0.399048  1
  F  F8  1  0.787997  0.987539  0.419696  1
  F  F9  1  0.212003  0.012461  0.580304  1
  F  F10  1  0.599603  0.476627  0.600952  1
  F  F11  1  0.916155  0.387109  0.823983  1
  F  F12  1  0.179455  0.794177  0.883733  1
  F  F13  1  0.358782  0.274365  0.956723  1
