# generated using pymatgen
data_Ho20Ir5Pd3Rh4
_symmetry_space_group_name_H-M   'P 1'
_cell_length_a   10.92911705
_cell_length_b   10.92907019
_cell_length_c   6.32176907
_cell_angle_alpha   89.98077937
_cell_angle_beta   89.98062261
_cell_angle_gamma   90.32936278
_symmetry_Int_Tables_number   1
_chemical_formula_structural   Ho20Ir5Pd3Rh4
_chemical_formula_sum   'Ho20 Ir5 Pd3 Rh4'
_cell_volume   755.09169612
_cell_formula_units_Z   1
loop_
 _symmetry_equiv_pos_site_id
 _symmetry_equiv_pos_as_xyz
  1  'x, y, z'
loop_
 _atom_site_type_symbol
 _atom_site_label
 _atom_site_symmetry_multiplicity
 _atom_site_fract_x
 _atom_site_fract_y
 _atom_site_fract_z
 _atom_site_occupancy
  Ho  Ho0  1  0.293751  0.086635  0.370045  1
  Ho  Ho1  1  0.292473  0.905764  0.879032  1
  Ho  Ho2  1  0.704612  0.092177  0.873169  1
  Ho  Ho3  1  0.703367  0.907707  0.372136  1
  Ho  Ho4  1  0.583655  0.788991  0.879926  1
  Ho  Ho5  1  0.584140  0.210766  0.379807  1
  Ho  Ho6  1  0.409357  0.789728  0.380344  1
  Ho  Ho7  1  0.414963  0.210671  0.879771  1
  Ho  Ho8  1  0.211011  0.416343  0.620074  1
  Ho  Ho9  1  0.210276  0.590643  0.119657  1
  Ho  Ho10  1  0.789232  0.415859  0.120194  1
  Ho  Ho11  1  0.789326  0.585037  0.620226  1
  Ho  Ho12  1  0.913365  0.706250  0.129958  1
  Ho  Ho13  1  0.907822  0.295385  0.626830  1
  Ho  Ho14  1  0.094237  0.707529  0.620968  1
  Ho  Ho15  1  0.092293  0.296631  0.127866  1
  Ho  Ho16  1  0.001670  0.997441  0.499886  1
  Ho  Ho17  1  0.002559  0.998331  0.000114  1
  Ho  Ho18  1  0.499514  0.499664  0.000938  1
  Ho  Ho19  1  0.500336  0.500486  0.499062  1
  Ir  Ir20  1  0.152257  0.847745  0.249998  1
  Ir  Ir21  1  0.655230  0.344771  0.750001  1
  Ir  Ir22  1  0.656467  0.655336  0.248943  1
  Ir  Ir23  1  0.344663  0.343532  0.251058  1
  Ir  Ir24  1  0.346238  0.653762  0.749999  1
  Pd  Pd25  1  0.846688  0.153312  0.249998  1
  Pd  Pd26  1  0.844473  0.845235  0.749632  1
  Pd  Pd27  1  0.154767  0.155526  0.750367  1
  Rh  Rh28  1  0.501109  0.000078  0.122880  1
  Rh  Rh29  1  0.500725  0.000501  0.624369  1
  Rh  Rh30  1  0.999500  0.499276  0.875639  1
  Rh  Rh31  1  0.999921  0.498889  0.377114  1
