# generated using pymatgen
data_NaSr3(PAu)4
_symmetry_space_group_name_H-M   'P 1'
_cell_length_a   8.73670823
_cell_length_b   4.25166000
_cell_length_c   7.50666405
_cell_angle_alpha   90.00000000
_cell_angle_beta   90.06075927
_cell_angle_gamma   90.00000000
_symmetry_Int_Tables_number   1
_chemical_formula_structural   NaSr3(PAu)4
_chemical_formula_sum   'Na1 Sr3 P4 Au4'
_cell_volume   278.83872975
_cell_formula_units_Z   1
loop_
 _symmetry_equiv_pos_site_id
 _symmetry_equiv_pos_as_xyz
  1  'x, y, z'
loop_
 _atom_site_type_symbol
 _atom_site_label
 _atom_site_symmetry_multiplicity
 _atom_site_fract_x
 _atom_site_fract_y
 _atom_site_fract_z
 _atom_site_occupancy
  Na  Na0  1  0.500314  0.249999  0.249529  1
  Sr  Sr1  1  0.000132  0.249999  0.250301  1
  Sr  Sr2  1  0.999856  0.749999  0.749704  1
  Sr  Sr3  1  0.499873  0.749999  0.750509  1
  P  P4  1  0.244896  0.749999  0.085227  1
  P  P5  1  0.754699  0.749999  0.414740  1
  P  P6  1  0.249715  0.249999  0.585686  1
  P  P7  1  0.750605  0.249999  0.914306  1
  Au  Au8  1  0.743833  0.749999  0.088212  1
  Au  Au9  1  0.256643  0.749999  0.411775  1
  Au  Au10  1  0.748634  0.249999  0.582293  1
  Au  Au11  1  0.250802  0.249999  0.917717  1
