# generated using pymatgen
data_La5AsPtO12
_symmetry_space_group_name_H-M   'P 1'
_cell_length_a   7.17033480
_cell_length_b   7.17033480
_cell_length_c   7.74226110
_cell_angle_alpha   74.38520273
_cell_angle_beta   74.38520434
_cell_angle_gamma   50.12515489
_symmetry_Int_Tables_number   1
_chemical_formula_structural   La5AsPtO12
_chemical_formula_sum   'La5 As1 Pt1 O12'
_cell_volume   291.69022450
_cell_formula_units_Z   1
loop_
 _symmetry_equiv_pos_site_id
 _symmetry_equiv_pos_as_xyz
  1  'x, y, z'
loop_
 _atom_site_type_symbol
 _atom_site_label
 _atom_site_symmetry_multiplicity
 _atom_site_fract_x
 _atom_site_fract_y
 _atom_site_fract_z
 _atom_site_occupancy
  La  La0  1  0.689135  0.698974  0.643382  1
  La  La1  1  0.691918  0.698928  0.163538  1
  La  La2  1  0.993330  0.006670  0.500000  1
  La  La3  1  0.301072  0.308082  0.836462  1
  La  La4  1  0.301026  0.310865  0.356618  1
  As  As5  1  0.762796  0.237204  0.000000  1
  Pt  Pt6  1  0.251248  0.748752  0.000000  1
  O  O7  1  0.987549  0.011798  0.166545  1
  O  O8  1  0.892942  0.404833  0.925138  1
  O  O9  1  0.424459  0.905052  0.920561  1
  O  O10  1  0.901712  0.403611  0.425182  1
  O  O11  1  0.399146  0.909575  0.421135  1
  O  O12  1  0.518554  0.480017  0.834854  1
  O  O13  1  0.519983  0.481446  0.165146  1
  O  O14  1  0.090425  0.600854  0.578865  1
  O  O15  1  0.596389  0.098288  0.574818  1
  O  O16  1  0.094948  0.575541  0.079439  1
  O  O17  1  0.595167  0.107058  0.074862  1
  O  O18  1  0.988202  0.012451  0.833455  1
