# generated using pymatgen
data_Pr16Mg3CdOs3Pt
_symmetry_space_group_name_H-M   'P 1'
_cell_length_a   10.03564345
_cell_length_b   10.15350764
_cell_length_c   10.15350700
_cell_angle_alpha   59.99999883
_cell_angle_beta   59.61072551
_cell_angle_gamma   59.61072417
_symmetry_Int_Tables_number   1
_chemical_formula_structural   Pr16Mg3CdOs3Pt
_chemical_formula_sum   'Pr16 Mg3 Cd1 Os3 Pt1'
_cell_volume   727.24682611
_cell_formula_units_Z   1
loop_
 _symmetry_equiv_pos_site_id
 _symmetry_equiv_pos_as_xyz
  1  'x, y, z'
loop_
 _atom_site_type_symbol
 _atom_site_label
 _atom_site_symmetry_multiplicity
 _atom_site_fract_x
 _atom_site_fract_y
 _atom_site_fract_z
 _atom_site_occupancy
  Pr  Pr0  1  0.341572  0.347819  0.347819  1
  Pr  Pr1  1  0.341572  0.347819  0.962791  1
  Pr  Pr2  1  0.341572  0.962791  0.347819  1
  Pr  Pr3  1  0.972601  0.342466  0.342466  1
  Pr  Pr4  1  0.815534  0.189492  0.189492  1
  Pr  Pr5  1  0.189773  0.810354  0.810354  1
  Pr  Pr6  1  0.189773  0.810354  0.189518  1
  Pr  Pr7  1  0.815534  0.189492  0.805482  1
  Pr  Pr8  1  0.189773  0.189518  0.810354  1
  Pr  Pr9  1  0.815534  0.805482  0.189492  1
  Pr  Pr10  1  0.938253  0.561741  0.561741  1
  Pr  Pr11  1  0.558141  0.938280  0.938280  1
  Pr  Pr12  1  0.558141  0.938280  0.565301  1
  Pr  Pr13  1  0.938253  0.561741  0.938265  1
  Pr  Pr14  1  0.558141  0.565301  0.938280  1
  Pr  Pr15  1  0.938253  0.938265  0.561741  1
  Mg  Mg16  1  0.575098  0.578491  0.578491  1
  Mg  Mg17  1  0.575098  0.578491  0.267920  1
  Mg  Mg18  1  0.575098  0.267920  0.578491  1
  Cd  Cd19  1  0.259226  0.580258  0.580258  1
  Os  Os20  1  0.144370  0.136698  0.136698  1
  Os  Os21  1  0.144370  0.136698  0.582234  1
  Os  Os22  1  0.144370  0.582234  0.136698  1
  Pt  Pt23  1  0.579949  0.140017  0.140017  1
