# generated using pymatgen
data_Ce3Sm3Cd23Sb
_symmetry_space_group_name_H-M   'P 1'
_cell_length_a   10.10011075
_cell_length_b   10.10011074
_cell_length_c   10.10006600
_cell_angle_alpha   59.99985830
_cell_angle_beta   59.99985833
_cell_angle_gamma   60.00000007
_symmetry_Int_Tables_number   1
_chemical_formula_structural   Ce3Sm3Cd23Sb
_chemical_formula_sum   'Ce3 Sm3 Cd23 Sb1'
_cell_volume   728.55200079
_cell_formula_units_Z   1
loop_
 _symmetry_equiv_pos_site_id
 _symmetry_equiv_pos_as_xyz
  1  'x, y, z'
loop_
 _atom_site_type_symbol
 _atom_site_label
 _atom_site_symmetry_multiplicity
 _atom_site_fract_x
 _atom_site_fract_y
 _atom_site_fract_z
 _atom_site_occupancy
  Ce  Ce0  1  0.782415  0.782415  0.217516  1
  Ce  Ce1  1  0.217656  0.782415  0.217516  1
  Ce  Ce2  1  0.782415  0.217656  0.217516  1
  Sm  Sm3  1  0.216953  0.216953  0.783183  1
  Sm  Sm4  1  0.782911  0.216953  0.783183  1
  Sm  Sm5  1  0.216953  0.782911  0.783183  1
  Cd  Cd6  1  0.835443  0.835443  0.493673  1
  Cd  Cd7  1  0.835842  0.492806  0.835511  1
  Cd  Cd8  1  0.492806  0.835842  0.835511  1
  Cd  Cd9  1  0.835842  0.835842  0.835511  1
  Cd  Cd10  1  0.164281  0.164281  0.507156  1
  Cd  Cd11  1  0.164448  0.506936  0.164166  1
  Cd  Cd12  1  0.506936  0.164448  0.164166  1
  Cd  Cd13  1  0.164448  0.164448  0.164166  1
  Cd  Cd14  1  0.622686  0.622686  0.131945  1
  Cd  Cd15  1  0.622267  0.132550  0.622916  1
  Cd  Cd16  1  0.132550  0.622267  0.622916  1
  Cd  Cd17  1  0.622267  0.622267  0.622916  1
  Cd  Cd18  1  0.377577  0.377577  0.867267  1
  Cd  Cd19  1  0.377233  0.867733  0.377799  1
  Cd  Cd20  1  0.867733  0.377233  0.377799  1
  Cd  Cd21  1  0.377233  0.377233  0.377799  1
  Cd  Cd22  1  0.000143  0.000143  0.499624  1
  Cd  Cd23  1  0.500091  0.000143  0.499624  1
  Cd  Cd24  1  0.000143  0.500091  0.499624  1
  Cd  Cd25  1  0.500144  0.500144  0.999767  1
  Cd  Cd26  1  0.999944  0.500144  0.999767  1
  Cd  Cd27  1  0.500144  0.999944  0.999767  1
  Cd  Cd28  1  0.500161  0.500161  0.499519  1
  Sb  Sb29  1  0.000336  0.000336  0.998994  1
