# generated using pymatgen
data_TbY11ZnCo4Bi
_symmetry_space_group_name_H-M   'P 1'
_cell_length_a   8.39651017
_cell_length_b   8.39651075
_cell_length_c   8.40856850
_cell_angle_alpha   109.90954747
_cell_angle_beta   111.25498563
_cell_angle_gamma   107.21360685
_symmetry_Int_Tables_number   1
_chemical_formula_structural   TbY11ZnCo4Bi
_chemical_formula_sum   'Tb1 Y11 Zn1 Co4 Bi1'
_cell_volume   456.11022777
_cell_formula_units_Z   1
loop_
 _symmetry_equiv_pos_site_id
 _symmetry_equiv_pos_as_xyz
  1  'x, y, z'
loop_
 _atom_site_type_symbol
 _atom_site_label
 _atom_site_symmetry_multiplicity
 _atom_site_fract_x
 _atom_site_fract_y
 _atom_site_fract_z
 _atom_site_occupancy
  Tb  Tb0  1  0.286442  0.183089  0.469531  1
  Y  Y1  1  0.713855  0.816613  0.530468  1
  Y  Y2  1  0.286173  0.816605  0.102780  1
  Y  Y3  1  0.713887  0.183343  0.897228  1
  Y  Y4  1  0.619537  0.312542  0.306933  1
  Y  Y5  1  0.380495  0.687471  0.693026  1
  Y  Y6  1  0.005555  0.312530  0.693026  1
  Y  Y7  1  0.994391  0.687396  0.306933  1
  Y  Y8  1  0.217866  0.423965  0.206126  1
  Y  Y9  1  0.782185  0.576053  0.793865  1
  Y  Y10  1  0.217812  0.011680  0.793865  1
  Y  Y11  1  0.782162  0.988261  0.206126  1
  Zn  Zn12  1  0.999911  0.999974  0.999886  1
  Co  Co13  1  0.999666  0.379332  0.378998  1
  Co  Co14  1  0.000224  0.620686  0.620910  1
  Co  Co15  1  0.389380  0.889682  0.500103  1
  Co  Co16  1  0.610421  0.110723  0.500103  1
  Bi  Bi17  1  0.500039  0.500054  0.000093  1
