# generated using pymatgen
data_Bi3(Ir2O7)2
_symmetry_space_group_name_H-M   'P 1'
_cell_length_a   7.20874016
_cell_length_b   7.20873998
_cell_length_c   7.20874001
_cell_angle_alpha   61.33528654
_cell_angle_beta   61.33528861
_cell_angle_gamma   61.33529199
_symmetry_Int_Tables_number   1
_chemical_formula_structural   Bi3(Ir2O7)2
_chemical_formula_sum   'Bi3 Ir4 O14'
_cell_volume   272.83733180
_cell_formula_units_Z   1
loop_
 _symmetry_equiv_pos_site_id
 _symmetry_equiv_pos_as_xyz
  1  'x, y, z'
loop_
 _atom_site_type_symbol
 _atom_site_label
 _atom_site_symmetry_multiplicity
 _atom_site_fract_x
 _atom_site_fract_y
 _atom_site_fract_z
 _atom_site_occupancy
  Bi  Bi0  1  0.000000  0.500000  0.500000  1
  Bi  Bi1  1  0.500000  0.500000  0.000000  1
  Bi  Bi2  1  0.500000  0.000000  0.500000  1
  Ir  Ir3  1  0.000000  0.000000  0.000000  1
  Ir  Ir4  1  0.500000  0.000000  0.000000  1
  Ir  Ir5  1  0.000000  0.000000  0.500000  1
  Ir  Ir6  1  0.000000  0.500000  0.000000  1
  O  O7  1  0.941149  0.322381  0.322381  1
  O  O8  1  0.328667  0.918244  0.918244  1
  O  O9  1  0.322381  0.322381  0.941149  1
  O  O10  1  0.918244  0.918244  0.328667  1
  O  O11  1  0.918244  0.328667  0.918244  1
  O  O12  1  0.322381  0.941149  0.322381  1
  O  O13  1  0.058851  0.677619  0.677619  1
  O  O14  1  0.671333  0.081756  0.081756  1
  O  O15  1  0.677619  0.677619  0.058851  1
  O  O16  1  0.081756  0.081756  0.671333  1
  O  O17  1  0.081756  0.671333  0.081756  1
  O  O18  1  0.677619  0.058851  0.677619  1
  O  O19  1  0.373557  0.373557  0.373557  1
  O  O20  1  0.626443  0.626443  0.626443  1
