# generated using pymatgen
data_ScCo5As3
_symmetry_space_group_name_H-M   'P 1'
_cell_length_a   3.70963400
_cell_length_b   12.08678900
_cell_length_c   10.56902100
_cell_angle_alpha   90.00000000
_cell_angle_beta   90.00000000
_cell_angle_gamma   90.00000000
_symmetry_Int_Tables_number   1
_chemical_formula_structural   ScCo5As3
_chemical_formula_sum   'Sc4 Co20 As12'
_cell_volume   473.88914943
_cell_formula_units_Z   4
loop_
 _symmetry_equiv_pos_site_id
 _symmetry_equiv_pos_as_xyz
  1  'x, y, z'
loop_
 _atom_site_type_symbol
 _atom_site_label
 _atom_site_symmetry_multiplicity
 _atom_site_fract_x
 _atom_site_fract_y
 _atom_site_fract_z
 _atom_site_occupancy
  Sc  Sc0  1  0.750000  0.701445  0.080005  1
  Sc  Sc1  1  0.250000  0.298555  0.919995  1
  Sc  Sc2  1  0.250000  0.798555  0.580005  1
  Sc  Sc3  1  0.750000  0.201445  0.419995  1
  Co  Co4  1  0.750000  0.697830  0.384263  1
  Co  Co5  1  0.250000  0.302170  0.615737  1
  Co  Co6  1  0.250000  0.802170  0.884263  1
  Co  Co7  1  0.750000  0.197830  0.115737  1
  Co  Co8  1  0.750000  0.990866  0.213464  1
  Co  Co9  1  0.250000  0.009134  0.786536  1
  Co  Co10  1  0.250000  0.509134  0.713464  1
  Co  Co11  1  0.750000  0.490866  0.286536  1
  Co  Co12  1  0.750000  0.677636  0.784213  1
  Co  Co13  1  0.250000  0.322364  0.215787  1
  Co  Co14  1  0.250000  0.822364  0.284213  1
  Co  Co15  1  0.750000  0.177636  0.715787  1
  Co  Co16  1  0.750000  0.931695  0.967633  1
  Co  Co17  1  0.250000  0.068305  0.032367  1
  Co  Co18  1  0.250000  0.568305  0.467633  1
  Co  Co19  1  0.750000  0.431695  0.532367  1
  Co  Co20  1  0.750000  0.986300  0.592197  1
  Co  Co21  1  0.250000  0.013700  0.407803  1
  Co  Co22  1  0.250000  0.513700  0.092197  1
  Co  Co23  1  0.750000  0.486299  0.907803  1
  As  As24  1  0.750000  0.616891  0.584640  1
  As  As25  1  0.250000  0.383109  0.415360  1
  As  As26  1  0.250000  0.883109  0.084640  1
  As  As27  1  0.750000  0.116891  0.915360  1
  As  As28  1  0.750000  0.888844  0.402865  1
  As  As29  1  0.250000  0.111156  0.597135  1
  As  As30  1  0.250000  0.611156  0.902865  1
  As  As31  1  0.750000  0.388844  0.097135  1
  As  As32  1  0.750000  0.868830  0.764511  1
  As  As33  1  0.250000  0.131170  0.235489  1
  As  As34  1  0.250000  0.631170  0.264511  1
  As  As35  1  0.750000  0.368830  0.735489  1
