# generated using pymatgen
data_Tm6CrFeB14
_symmetry_space_group_name_H-M   'P 1'
_cell_length_a   7.93725005
_cell_length_b   7.93724948
_cell_length_c   9.20651900
_cell_angle_alpha   90.00000000
_cell_angle_beta   90.00000000
_cell_angle_gamma   155.32254178
_symmetry_Int_Tables_number   1
_chemical_formula_structural   Tm6CrFeB14
_chemical_formula_sum   'Tm6 Cr1 Fe1 B14'
_cell_volume   242.15978471
_cell_formula_units_Z   1
loop_
 _symmetry_equiv_pos_site_id
 _symmetry_equiv_pos_as_xyz
  1  'x, y, z'
loop_
 _atom_site_type_symbol
 _atom_site_label
 _atom_site_symmetry_multiplicity
 _atom_site_fract_x
 _atom_site_fract_y
 _atom_site_fract_z
 _atom_site_occupancy
  Tm  Tm0  1  0.894391  0.105609  0.440458  1
  Tm  Tm1  1  0.105229  0.894771  0.560568  1
  Tm  Tm2  1  0.894391  0.105609  0.059542  1
  Tm  Tm3  1  0.105229  0.894771  0.939432  1
  Tm  Tm4  1  0.242858  0.757142  0.250000  1
  Tm  Tm5  1  0.758014  0.241986  0.750000  1
  Cr  Cr6  1  0.052272  0.947728  0.250000  1
  Fe  Fe7  1  0.946184  0.053816  0.750000  1
  B  B8  1  0.728365  0.271635  0.467364  1
  B  B9  1  0.272669  0.727331  0.534882  1
  B  B10  1  0.728365  0.271635  0.032636  1
  B  B11  1  0.272669  0.727331  0.965118  1
  B  B12  1  0.631521  0.368479  0.150863  1
  B  B13  1  0.370218  0.629782  0.847317  1
  B  B14  1  0.631521  0.368479  0.349137  1
  B  B15  1  0.370218  0.629782  0.652683  1
  B  B16  1  0.520209  0.479791  0.095063  1
  B  B17  1  0.479099  0.520901  0.902822  1
  B  B18  1  0.520209  0.479791  0.404937  1
  B  B19  1  0.479099  0.520901  0.597178  1
  B  B20  1  0.455685  0.544315  0.250000  1
  B  B21  1  0.541581  0.458419  0.750000  1
