# generated using pymatgen
data_Zr2AlRe3
_symmetry_space_group_name_H-M   'P 1'
_cell_length_a   5.28417418
_cell_length_b   5.28413473
_cell_length_c   8.68206700
_cell_angle_alpha   90.00000000
_cell_angle_beta   90.00000000
_cell_angle_gamma   60.00024359
_symmetry_Int_Tables_number   1
_chemical_formula_structural   Zr2AlRe3
_chemical_formula_sum   'Zr4 Al2 Re6'
_cell_volume   209.94514565
_cell_formula_units_Z   2
loop_
 _symmetry_equiv_pos_site_id
 _symmetry_equiv_pos_as_xyz
  1  'x, y, z'
loop_
 _atom_site_type_symbol
 _atom_site_label
 _atom_site_symmetry_multiplicity
 _atom_site_fract_x
 _atom_site_fract_y
 _atom_site_fract_z
 _atom_site_occupancy
  Zr  Zr0  1  0.333343  0.333329  0.565190  1
  Zr  Zr1  1  0.666657  0.666671  0.434810  1
  Zr  Zr2  1  0.666657  0.666671  0.065190  1
  Zr  Zr3  1  0.333343  0.333329  0.934810  1
  Al  Al4  1  0.000000  0.000000  0.500000  1
  Al  Al5  1  0.000000  0.000000  0.000000  1
  Re  Re6  1  0.829697  0.340617  0.750000  1
  Re  Re7  1  0.340624  0.829688  0.750000  1
  Re  Re8  1  0.829697  0.829686  0.750000  1
  Re  Re9  1  0.170303  0.659383  0.250000  1
  Re  Re10  1  0.659376  0.170312  0.250000  1
  Re  Re11  1  0.170303  0.170314  0.250000  1
