# generated using pymatgen
data_CaCdInAg3
_symmetry_space_group_name_H-M   'P 1'
_cell_length_a   5.71854629
_cell_length_b   5.71854516
_cell_length_c   5.69144995
_cell_angle_alpha   59.84238468
_cell_angle_beta   59.84238044
_cell_angle_gamma   59.99999780
_symmetry_Int_Tables_number   1
_chemical_formula_structural   CaCdInAg3
_chemical_formula_sum   'Ca1 Cd1 In1 Ag3'
_cell_volume   131.29262646
_cell_formula_units_Z   1
loop_
 _symmetry_equiv_pos_site_id
 _symmetry_equiv_pos_as_xyz
  1  'x, y, z'
loop_
 _atom_site_type_symbol
 _atom_site_label
 _atom_site_symmetry_multiplicity
 _atom_site_fract_x
 _atom_site_fract_y
 _atom_site_fract_z
 _atom_site_occupancy
  Ca  Ca0  1  0.001081  0.001081  0.996757  1
  Cd  Cd1  1  0.624595  0.624595  0.126215  1
  In  In2  1  0.250172  0.250172  0.249485  1
  Ag  Ag3  1  0.125533  0.624309  0.625848  1
  Ag  Ag4  1  0.624309  0.125533  0.625848  1
  Ag  Ag5  1  0.624309  0.624309  0.625848  1
