# generated using pymatgen
data_V11TcP7
_symmetry_space_group_name_H-M   'P 1'
_cell_length_a   9.32813250
_cell_length_b   9.39161677
_cell_length_c   3.22448000
_cell_angle_alpha   90.00000000
_cell_angle_beta   90.00000000
_cell_angle_gamma   120.11725425
_symmetry_Int_Tables_number   1
_chemical_formula_structural   V11TcP7
_chemical_formula_sum   'V11 Tc1 P7'
_cell_volume   244.34926784
_cell_formula_units_Z   1
loop_
 _symmetry_equiv_pos_site_id
 _symmetry_equiv_pos_as_xyz
  1  'x, y, z'
loop_
 _atom_site_type_symbol
 _atom_site_label
 _atom_site_symmetry_multiplicity
 _atom_site_fract_x
 _atom_site_fract_y
 _atom_site_fract_z
 _atom_site_occupancy
  V  V0  1  0.204174  0.975707  0.000000  1
  V  V1  1  0.129167  0.616023  0.000000  1
  V  V2  1  0.995788  0.211476  0.000000  1
  V  V3  1  0.486930  0.869331  0.000000  1
  V  V4  1  0.387417  0.524618  0.000000  1
  V  V5  1  0.799126  0.804706  0.000000  1
  V  V6  1  0.622884  0.495123  0.500000  1
  V  V7  1  0.499217  0.128308  0.500000  1
  V  V8  1  0.985886  0.734883  0.500000  1
  V  V9  1  0.871544  0.373138  0.500000  1
  V  V10  1  0.750378  0.017318  0.500000  1
  Tc  Tc11  1  0.261512  0.248127  0.500000  1
  P  P12  1  0.281504  0.832017  0.500000  1
  P  P13  1  0.163489  0.445500  0.500000  1
  P  P14  1  0.561196  0.722496  0.500000  1
  P  P15  1  0.464592  0.291980  0.000000  1
  P  P16  1  0.001221  0.000371  0.500000  1
  P  P17  1  0.828418  0.537513  0.000000  1
  P  P18  1  0.705554  0.171367  0.000000  1
