# generated using pymatgen
data_Tb5Y2Co3Sn23Rh3
_symmetry_space_group_name_H-M   'P 1'
_cell_length_a   9.79860248
_cell_length_b   9.79971861
_cell_length_c   10.05953003
_cell_angle_alpha   90.00202480
_cell_angle_beta   90.02120758
_cell_angle_gamma   120.00660981
_symmetry_Int_Tables_number   1
_chemical_formula_structural   Tb5Y2Co3Sn23Rh3
_chemical_formula_sum   'Tb5 Y2 Co3 Sn23 Rh3'
_cell_volume   836.48295091
_cell_formula_units_Z   1
loop_
 _symmetry_equiv_pos_site_id
 _symmetry_equiv_pos_as_xyz
  1  'x, y, z'
loop_
 _atom_site_type_symbol
 _atom_site_label
 _atom_site_symmetry_multiplicity
 _atom_site_fract_x
 _atom_site_fract_y
 _atom_site_fract_z
 _atom_site_occupancy
  Tb  Tb0  1  0.520823  0.478027  0.693552  1
  Tb  Tb1  1  0.478470  0.957021  0.306924  1
  Tb  Tb2  1  0.521864  0.043577  0.693412  1
  Tb  Tb3  1  0.043793  0.521337  0.306966  1
  Tb  Tb4  1  0.957033  0.477943  0.693680  1
  Y  Y5  1  0.999387  0.998703  0.000615  1
  Y  Y6  1  0.477526  0.521150  0.307243  1
  Co  Co7  1  0.168574  0.335573  0.802927  1
  Co  Co8  1  0.336399  0.169621  0.196885  1
  Co  Co9  1  0.664472  0.832879  0.801267  1
  Sn  Sn10  1  0.350463  0.004473  0.004613  1
  Sn  Sn11  1  0.649472  0.995586  0.994988  1
  Sn  Sn12  1  0.004944  0.349708  0.995085  1
  Sn  Sn13  1  0.000405  0.648531  0.999956  1
  Sn  Sn14  1  0.648830  0.653487  0.995260  1
  Sn  Sn15  1  0.345328  0.345633  0.000054  1
  Sn  Sn16  1  0.335691  0.664309  0.817728  1
  Sn  Sn17  1  0.661335  0.330729  0.180868  1
  Sn  Sn18  1  0.999529  0.999112  0.500292  1
  Sn  Sn19  1  0.779036  0.220671  0.455793  1
  Sn  Sn20  1  0.220628  0.779012  0.544267  1
  Sn  Sn21  1  0.778906  0.557873  0.456346  1
  Sn  Sn22  1  0.218971  0.437879  0.549649  1
  Sn  Sn23  1  0.438363  0.219160  0.451067  1
  Sn  Sn24  1  0.561750  0.780755  0.549499  1
  Sn  Sn25  1  0.333492  0.666957  0.116814  1
  Sn  Sn26  1  0.666853  0.333670  0.883034  1
  Sn  Sn27  1  0.123635  0.887335  0.276757  1
  Sn  Sn28  1  0.883167  0.117705  0.725644  1
  Sn  Sn29  1  0.123500  0.236767  0.277003  1
  Sn  Sn30  1  0.876600  0.763170  0.722585  1
  Sn  Sn31  1  0.760275  0.880710  0.281300  1
  Sn  Sn32  1  0.237223  0.124221  0.722281  1
  Rh  Rh33  1  0.832805  0.168893  0.195820  1
  Rh  Rh34  1  0.169215  0.833884  0.802115  1
  Rh  Rh35  1  0.831241  0.663939  0.197710  1
