# generated using pymatgen
data_La16Tb4Sn13Sb3
_symmetry_space_group_name_H-M   'P 1'
_cell_length_a   8.43319601
_cell_length_b   8.52238599
_cell_length_c   16.27036500
_cell_angle_alpha   90.17021251
_cell_angle_beta   89.71407010
_cell_angle_gamma   90.15382898
_symmetry_Int_Tables_number   1
_chemical_formula_structural   La16Tb4Sn13Sb3
_chemical_formula_sum   'La16 Tb4 Sn13 Sb3'
_cell_volume   1169.34272443
_cell_formula_units_Z   1
loop_
 _symmetry_equiv_pos_site_id
 _symmetry_equiv_pos_as_xyz
  1  'x, y, z'
loop_
 _atom_site_type_symbol
 _atom_site_label
 _atom_site_symmetry_multiplicity
 _atom_site_fract_x
 _atom_site_fract_y
 _atom_site_fract_z
 _atom_site_occupancy
  La  La0  1  0.377670  0.842206  0.882653  1
  La  La1  1  0.880734  0.658487  0.617057  1
  La  La2  1  0.620341  0.157651  0.382479  1
  La  La3  1  0.122457  0.341551  0.118374  1
  La  La4  1  0.623672  0.157999  0.117743  1
  La  La5  1  0.121565  0.341116  0.382702  1
  La  La6  1  0.378924  0.841294  0.616986  1
  La  La7  1  0.877174  0.658281  0.881401  1
  La  La8  1  0.532742  0.324121  0.897385  1
  La  La9  1  0.038167  0.177176  0.603406  1
  La  La10  1  0.461927  0.676813  0.396382  1
  La  La11  1  0.967127  0.820167  0.101313  1
  La  La12  1  0.469056  0.678762  0.101211  1
  La  La13  1  0.967876  0.820344  0.397853  1
  La  La14  1  0.531181  0.319930  0.602183  1
  La  La15  1  0.029046  0.182028  0.898469  1
  Tb  Tb16  1  0.212203  0.501851  0.750934  1
  Tb  Tb17  1  0.712473  0.999225  0.753258  1
  Tb  Tb18  1  0.787513  0.498804  0.246828  1
  Tb  Tb19  1  0.287379  0.000437  0.251292  1
  Sn  Sn20  1  0.219680  0.529418  0.952987  1
  Sn  Sn21  1  0.720621  0.971438  0.952139  1
  Sn  Sn22  1  0.221696  0.526543  0.548618  1
  Sn  Sn23  1  0.278409  0.026866  0.451476  1
  Sn  Sn24  1  0.781772  0.470442  0.047855  1
  Sn  Sn25  1  0.574839  0.622171  0.747893  1
  Sn  Sn26  1  0.075392  0.879016  0.749642  1
  Sn  Sn27  1  0.425682  0.377801  0.250142  1
  Sn  Sn28  1  0.925285  0.120732  0.250762  1
  Sn  Sn29  1  0.336138  0.144690  0.750184  1
  Sn  Sn30  1  0.836115  0.355434  0.748848  1
  Sn  Sn31  1  0.663473  0.854406  0.250402  1
  Sn  Sn32  1  0.162708  0.644997  0.249659  1
  Sb  Sb33  1  0.279206  0.027196  0.049686  1
  Sb  Sb34  1  0.775731  0.475122  0.450193  1
  Sb  Sb35  1  0.724029  0.975482  0.549604  1
