# generated using pymatgen
data_Tm12Th4MgCd3Co4
_symmetry_space_group_name_H-M   'P 1'
_cell_length_a   9.53125413
_cell_length_b   9.46683232
_cell_length_c   9.46683200
_cell_angle_alpha   60.00000112
_cell_angle_beta   60.22333652
_cell_angle_gamma   60.22333196
_symmetry_Int_Tables_number   1
_chemical_formula_structural   Tm12Th4MgCd3Co4
_chemical_formula_sum   'Tm12 Th4 Mg1 Cd3 Co4'
_cell_volume   606.04132292
_cell_formula_units_Z   1
loop_
 _symmetry_equiv_pos_site_id
 _symmetry_equiv_pos_as_xyz
  1  'x, y, z'
loop_
 _atom_site_type_symbol
 _atom_site_label
 _atom_site_symmetry_multiplicity
 _atom_site_fract_x
 _atom_site_fract_y
 _atom_site_fract_z
 _atom_site_occupancy
  Tm  Tm0  1  0.812075  0.187404  0.187404  1
  Tm  Tm1  1  0.185555  0.813861  0.813861  1
  Tm  Tm2  1  0.185555  0.813861  0.186723  1
  Tm  Tm3  1  0.812075  0.187404  0.813116  1
  Tm  Tm4  1  0.185555  0.186723  0.813861  1
  Tm  Tm5  1  0.812075  0.813116  0.187404  1
  Tm  Tm6  1  0.931880  0.566291  0.566291  1
  Tm  Tm7  1  0.564418  0.935272  0.935272  1
  Tm  Tm8  1  0.564418  0.935272  0.565037  1
  Tm  Tm9  1  0.931880  0.566291  0.935537  1
  Tm  Tm10  1  0.564418  0.565037  0.935272  1
  Tm  Tm11  1  0.931880  0.935537  0.566291  1
  Th  Th12  1  0.346053  0.346248  0.346248  1
  Th  Th13  1  0.346053  0.346248  0.961452  1
  Th  Th14  1  0.346053  0.961452  0.346248  1
  Th  Th15  1  0.960852  0.346383  0.346383  1
  Mg  Mg16  1  0.264766  0.578411  0.578411  1
  Cd  Cd17  1  0.583986  0.583077  0.583077  1
  Cd  Cd18  1  0.583986  0.583077  0.249859  1
  Cd  Cd19  1  0.583986  0.249859  0.583077  1
  Co  Co20  1  0.144609  0.142763  0.142763  1
  Co  Co21  1  0.144609  0.142763  0.569866  1
  Co  Co22  1  0.144609  0.569866  0.142763  1
  Co  Co23  1  0.568655  0.143782  0.143782  1
