# generated using pymatgen
data_ZnRh4Pb3O14
_symmetry_space_group_name_H-M   'P 1'
_cell_length_a   7.29266015
_cell_length_b   7.17363650
_cell_length_c   7.29266200
_cell_angle_alpha   59.44961316
_cell_angle_beta   60.00000070
_cell_angle_gamma   59.44961828
_symmetry_Int_Tables_number   1
_chemical_formula_structural   ZnRh4Pb3O14
_chemical_formula_sum   'Zn1 Rh4 Pb3 O14'
_cell_volume   267.50565497
_cell_formula_units_Z   1
loop_
 _symmetry_equiv_pos_site_id
 _symmetry_equiv_pos_as_xyz
  1  'x, y, z'
loop_
 _atom_site_type_symbol
 _atom_site_label
 _atom_site_symmetry_multiplicity
 _atom_site_fract_x
 _atom_site_fract_y
 _atom_site_fract_z
 _atom_site_occupancy
  Zn  Zn0  1  0.125000  0.625000  0.125000  1
  Rh  Rh1  1  0.625000  0.625000  0.625000  1
  Rh  Rh2  1  0.625000  0.625000  0.125000  1
  Rh  Rh3  1  0.125000  0.625000  0.625000  1
  Rh  Rh4  1  0.625000  0.125000  0.625000  1
  Pb  Pb5  1  0.125000  0.125000  0.125000  1
  Pb  Pb6  1  0.625000  0.125000  0.125000  1
  Pb  Pb7  1  0.125000  0.125000  0.625000  1
  O  O8  1  0.234924  0.295229  0.234924  1
  O  O9  1  0.298335  0.708403  0.298335  1
  O  O10  1  0.958307  0.962687  0.539503  1
  O  O11  1  0.539503  0.962687  0.539503  1
  O  O12  1  0.694927  0.708403  0.298335  1
  O  O13  1  0.951665  0.541597  0.555073  1
  O  O14  1  0.710497  0.287313  0.710497  1
  O  O15  1  0.291693  0.287313  0.710497  1
  O  O16  1  0.710497  0.287313  0.291693  1
  O  O17  1  0.298335  0.708403  0.694927  1
  O  O18  1  0.951665  0.541597  0.951665  1
  O  O19  1  0.555073  0.541597  0.951665  1
  O  O20  1  0.015076  0.954771  0.015076  1
  O  O21  1  0.539503  0.962687  0.958307  1
