# generated using pymatgen
data_Li30Si7Se
_symmetry_space_group_name_H-M   'P 1'
_cell_length_a   9.17392610
_cell_length_b   9.17348045
_cell_length_c   9.17247320
_cell_angle_alpha   109.47661115
_cell_angle_beta   109.43810030
_cell_angle_gamma   109.39423116
_symmetry_Int_Tables_number   1
_chemical_formula_structural   Li30Si7Se
_chemical_formula_sum   'Li30 Si7 Se1'
_cell_volume   594.99562788
_cell_formula_units_Z   1
loop_
 _symmetry_equiv_pos_site_id
 _symmetry_equiv_pos_as_xyz
  1  'x, y, z'
loop_
 _atom_site_type_symbol
 _atom_site_label
 _atom_site_symmetry_multiplicity
 _atom_site_fract_x
 _atom_site_fract_y
 _atom_site_fract_z
 _atom_site_occupancy
  Li  Li0  1  0.062600  0.537488  0.284196  1
  Li  Li1  1  0.259122  0.786575  0.718570  1
  Li  Li2  1  0.185688  0.963789  0.972512  1
  Li  Li3  1  0.978505  0.195470  0.018384  1
  Li  Li4  1  0.034676  0.012973  0.222236  1
  Li  Li5  1  0.790652  0.812712  0.777608  1
  Li  Li6  1  0.468814  0.751370  0.538880  1
  Li  Li7  1  0.210396  0.939280  0.475402  1
  Li  Li8  1  0.713748  0.346810  0.060373  1
  Li  Li9  1  0.945498  0.394360  0.854908  1
  Li  Li10  1  0.287801  0.659986  0.937841  1
  Li  Li11  1  0.536314  0.092641  0.133707  1
  Li  Li12  1  0.690339  0.850957  0.086060  1
  Li  Li13  1  0.501518  0.913402  0.344302  1
  Li  Li14  1  0.561564  0.152883  0.665326  1
  Li  Li15  1  0.763019  0.598206  0.909063  1
  Li  Li16  1  0.843771  0.508871  0.410897  1
  Li  Li17  1  0.409343  0.311437  0.162301  1
  Li  Li18  1  0.143257  0.229312  0.821608  1
  Li  Li19  1  0.097595  0.436683  0.589123  1
  Li  Li20  1  0.903582  0.040720  0.437848  1
  Li  Li21  1  0.346381  0.284217  0.637332  1
  Li  Li22  1  0.600077  0.460643  0.564144  1
  Li  Li23  1  0.664776  0.719010  0.377202  1
  Li  Li24  1  0.004050  0.873512  0.626259  1
  Li  Li25  1  0.245251  0.367335  0.382353  1
  Li  Li26  1  0.117461  0.758152  0.120632  1
  Li  Li27  1  0.623034  0.000527  0.878016  1
  Li  Li28  1  0.507994  0.495228  0.992176  1
  Li  Li29  1  0.750792  0.253338  0.498423  1
  Si  Si30  1  0.374975  0.126861  0.837999  1
  Si  Si31  1  0.963114  0.625705  0.751757  1
  Si  Si32  1  0.877355  0.213361  0.250728  1
  Si  Si33  1  0.372956  0.123323  0.333109  1
  Si  Si34  1  0.786864  0.037391  0.662250  1
  Si  Si35  1  0.458197  0.623266  0.748998  1
  Si  Si36  1  0.873971  0.707908  0.247523  1
  Se  Se37  1  0.294953  0.544291  0.169955  1
