# generated using pymatgen
data_Tm12InCo4Ir
_symmetry_space_group_name_H-M   'P 1'
_cell_length_a   8.18293594
_cell_length_b   8.18293588
_cell_length_c   8.18293571
_cell_angle_alpha   111.23303945
_cell_angle_beta   111.01496463
_cell_angle_gamma   106.21401940
_symmetry_Int_Tables_number   1
_chemical_formula_structural   Tm12InCo4Ir
_chemical_formula_sum   'Tm12 In1 Co4 Ir1'
_cell_volume   420.78244668
_cell_formula_units_Z   1
loop_
 _symmetry_equiv_pos_site_id
 _symmetry_equiv_pos_as_xyz
  1  'x, y, z'
loop_
 _atom_site_type_symbol
 _atom_site_label
 _atom_site_symmetry_multiplicity
 _atom_site_fract_x
 _atom_site_fract_y
 _atom_site_fract_z
 _atom_site_occupancy
  Tm  Tm0  1  0.414991  0.220573  0.194418  1
  Tm  Tm1  1  0.585009  0.779427  0.805582  1
  Tm  Tm2  1  0.026156  0.220573  0.805582  1
  Tm  Tm3  1  0.973844  0.779427  0.194418  1
  Tm  Tm4  1  0.182833  0.282461  0.465293  1
  Tm  Tm5  1  0.817167  0.717539  0.534707  1
  Tm  Tm6  1  0.182833  0.717539  0.900372  1
  Tm  Tm7  1  0.817167  0.282461  0.099628  1
  Tm  Tm8  1  0.315708  0.622012  0.306304  1
  Tm  Tm9  1  0.684292  0.377988  0.693696  1
  Tm  Tm10  1  0.315708  0.009405  0.693696  1
  Tm  Tm11  1  0.684292  0.990595  0.306304  1
  In  In12  1  0.500000  0.500000  0.000000  1
  Co  Co13  1  0.375152  0.000000  0.375152  1
  Co  Co14  1  0.624848  0.000000  0.624848  1
  Co  Co15  1  0.112253  0.612253  0.500000  1
  Co  Co16  1  0.887747  0.387747  0.500000  1
  Ir  Ir17  1  0.000000  0.000000  0.000000  1
