# generated using pymatgen
data_Te16Os
_symmetry_space_group_name_H-M   'P 1'
_cell_length_a   7.80159116
_cell_length_b   7.80159058
_cell_length_c   14.02836695
_cell_angle_alpha   54.58797258
_cell_angle_beta   54.58797513
_cell_angle_gamma   64.63544846
_symmetry_Int_Tables_number   1
_chemical_formula_structural   Te16Os
_chemical_formula_sum   'Te16 Os1'
_cell_volume   561.60696133
_cell_formula_units_Z   1
loop_
 _symmetry_equiv_pos_site_id
 _symmetry_equiv_pos_as_xyz
  1  'x, y, z'
loop_
 _atom_site_type_symbol
 _atom_site_label
 _atom_site_symmetry_multiplicity
 _atom_site_fract_x
 _atom_site_fract_y
 _atom_site_fract_z
 _atom_site_occupancy
  Te  Te0  1  0.811091  0.811091  0.897994  1
  Te  Te1  1  0.352829  0.352829  0.875037  1
  Te  Te2  1  0.664368  0.159191  0.123389  1
  Te  Te3  1  0.159191  0.664368  0.123389  1
  Te  Te4  1  0.028867  0.028867  0.328549  1
  Te  Te5  1  0.442518  0.442518  0.395412  1
  Te  Te6  1  0.551513  0.027443  0.617158  1
  Te  Te7  1  0.027443  0.551513  0.617158  1
  Te  Te8  1  0.239683  0.239683  0.376403  1
  Te  Te9  1  0.734718  0.734718  0.342637  1
  Te  Te10  1  0.330168  0.757100  0.636995  1
  Te  Te11  1  0.757100  0.330168  0.636995  1
  Te  Te12  1  0.040719  0.040719  0.924239  1
  Te  Te13  1  0.599243  0.599243  0.885264  1
  Te  Te14  1  0.408311  0.907747  0.120502  1
  Te  Te15  1  0.907747  0.408311  0.120502  1
  Os  Os16  1  0.755787  0.755787  0.512776  1
