# generated using pymatgen
data_Be4Nb2Ru5
_symmetry_space_group_name_H-M   'P 1'
_cell_length_a   3.15119300
_cell_length_b   8.57294504
_cell_length_c   10.09316106
_cell_angle_alpha   89.99927506
_cell_angle_beta   90.00000000
_cell_angle_gamma   90.00000000
_symmetry_Int_Tables_number   1
_chemical_formula_structural   Be4Nb2Ru5
_chemical_formula_sum   'Be8 Nb4 Ru10'
_cell_volume   272.66679040
_cell_formula_units_Z   2
loop_
 _symmetry_equiv_pos_site_id
 _symmetry_equiv_pos_as_xyz
  1  'x, y, z'
loop_
 _atom_site_type_symbol
 _atom_site_label
 _atom_site_symmetry_multiplicity
 _atom_site_fract_x
 _atom_site_fract_y
 _atom_site_fract_z
 _atom_site_occupancy
  Be  Be0  1  0.500000  0.964243  0.594610  1
  Be  Be1  1  0.500000  0.035757  0.405390  1
  Be  Be2  1  0.500000  0.844805  0.903852  1
  Be  Be3  1  0.500000  0.155195  0.096148  1
  Be  Be4  1  0.500000  0.655209  0.403863  1
  Be  Be5  1  0.500000  0.344791  0.596137  1
  Be  Be6  1  0.500000  0.464283  0.905366  1
  Be  Be7  1  0.500000  0.535717  0.094634  1
  Nb  Nb8  1  0.500000  0.841141  0.181527  1
  Nb  Nb9  1  0.500000  0.158859  0.818473  1
  Nb  Nb10  1  0.500000  0.658861  0.681530  1
  Nb  Nb11  1  0.500000  0.341139  0.318470  1
  Ru  Ru12  1  0.000000  0.660671  0.952234  1
  Ru  Ru13  1  0.000000  0.339329  0.047766  1
  Ru  Ru14  1  0.000000  0.839304  0.452221  1
  Ru  Ru15  1  0.000000  0.160696  0.547779  1
  Ru  Ru16  1  0.000000  0.000000  0.000000  1
  Ru  Ru17  1  0.000000  0.402912  0.758031  1
  Ru  Ru18  1  0.000000  0.597088  0.241969  1
  Ru  Ru19  1  0.000000  0.500000  0.500000  1
  Ru  Ru20  1  0.000000  0.902916  0.741971  1
  Ru  Ru21  1  0.000000  0.097084  0.258029  1
