# generated using pymatgen
data_Er3Mg2CdGa2Ag
_symmetry_space_group_name_H-M   'P 1'
_cell_length_a   4.33069800
_cell_length_b   7.32287716
_cell_length_c   7.32287703
_cell_angle_alpha   120.01071324
_cell_angle_beta   90.00000000
_cell_angle_gamma   90.00000000
_symmetry_Int_Tables_number   1
_chemical_formula_structural   Er3Mg2CdGa2Ag
_chemical_formula_sum   'Er3 Mg2 Cd1 Ga2 Ag1'
_cell_volume   201.09678505
_cell_formula_units_Z   1
loop_
 _symmetry_equiv_pos_site_id
 _symmetry_equiv_pos_as_xyz
  1  'x, y, z'
loop_
 _atom_site_type_symbol
 _atom_site_label
 _atom_site_symmetry_multiplicity
 _atom_site_fract_x
 _atom_site_fract_y
 _atom_site_fract_z
 _atom_site_occupancy
  Er  Er0  1  0.000000  0.426314  0.426314  1
  Er  Er1  1  0.000000  0.999726  0.577877  1
  Er  Er2  1  0.000000  0.577877  0.999726  1
  Mg  Mg3  1  0.500000  0.998897  0.243835  1
  Mg  Mg4  1  0.500000  0.243835  0.998897  1
  Cd  Cd5  1  0.500000  0.749079  0.749079  1
  Ga  Ga6  1  0.500000  0.666490  0.329479  1
  Ga  Ga7  1  0.500000  0.329479  0.666490  1
  Ag  Ag8  1  0.000000  0.008303  0.008303  1
