# generated using pymatgen
data_Na2CrH8
_symmetry_space_group_name_H-M   'P 1'
_cell_length_a   6.51234952
_cell_length_b   3.40331744
_cell_length_c   5.65818434
_cell_angle_alpha   92.90923640
_cell_angle_beta   84.89881976
_cell_angle_gamma   120.78895237
_symmetry_Int_Tables_number   1
_chemical_formula_structural   Na2CrH8
_chemical_formula_sum   'Na2 Cr1 H8'
_cell_volume   107.30213168
_cell_formula_units_Z   1
loop_
 _symmetry_equiv_pos_site_id
 _symmetry_equiv_pos_as_xyz
  1  'x, y, z'
loop_
 _atom_site_type_symbol
 _atom_site_label
 _atom_site_symmetry_multiplicity
 _atom_site_fract_x
 _atom_site_fract_y
 _atom_site_fract_z
 _atom_site_occupancy
  Na  Na0  1  0.006763  0.652065  0.577222  1
  Na  Na1  1  0.556644  0.152943  0.136219  1
  Cr  Cr2  1  0.053746  0.165070  0.090456  1
  H  H3  1  0.061417  0.677340  0.144869  1
  H  H4  1  0.834570  0.968804  0.316262  1
  H  H5  1  0.205635  0.331373  0.333997  1
  H  H6  1  0.800395  0.866798  0.951312  1
  H  H7  1  0.118216  0.271648  0.807176  1
  H  H8  1  0.338467  0.424143  0.005834  1
  H  H9  1  0.491609  0.185783  0.647897  1
  H  H10  1  0.513306  0.998504  0.598444  1
