# generated using pymatgen
data_Tb3Mg2CdSn2Pd
_symmetry_space_group_name_H-M   'P 1'
_cell_length_a   7.47947900
_cell_length_b   7.43500580
_cell_length_c   4.53928500
_cell_angle_alpha   90.00000000
_cell_angle_beta   90.00000000
_cell_angle_gamma   120.19807212
_symmetry_Int_Tables_number   1
_chemical_formula_structural   Tb3Mg2CdSn2Pd
_chemical_formula_sum   'Tb3 Mg2 Cd1 Sn2 Pd1'
_cell_volume   218.17272971
_cell_formula_units_Z   1
loop_
 _symmetry_equiv_pos_site_id
 _symmetry_equiv_pos_as_xyz
  1  'x, y, z'
loop_
 _atom_site_type_symbol
 _atom_site_label
 _atom_site_symmetry_multiplicity
 _atom_site_fract_x
 _atom_site_fract_y
 _atom_site_fract_z
 _atom_site_occupancy
  Tb  Tb0  1  0.594204  0.000000  0.000000  1
  Tb  Tb1  1  0.000847  0.598148  0.000000  1
  Tb  Tb2  1  0.402699  0.401852  0.000000  1
  Mg  Mg3  1  0.000856  0.229611  0.500000  1
  Mg  Mg4  1  0.771246  0.770389  0.500000  1
  Cd  Cd5  1  0.234007  0.000000  0.500000  1
  Sn  Sn6  1  0.334459  0.663755  0.500000  1
  Sn  Sn7  1  0.670704  0.336245  0.500000  1
  Pd  Pd8  1  0.990978  0.000000  0.000000  1
