# generated using pymatgen
data_Hf5Sc3Ta11VSi16
_symmetry_space_group_name_H-M   'P 1'
_cell_length_a   6.84437140
_cell_length_b   6.84978138
_cell_length_c   12.65522751
_cell_angle_alpha   90.14671828
_cell_angle_beta   89.89424932
_cell_angle_gamma   89.88072944
_symmetry_Int_Tables_number   1
_chemical_formula_structural   Hf5Sc3Ta11VSi16
_chemical_formula_sum   'Hf5 Sc3 Ta11 V1 Si16'
_cell_volume   593.30379569
_cell_formula_units_Z   1
loop_
 _symmetry_equiv_pos_site_id
 _symmetry_equiv_pos_as_xyz
  1  'x, y, z'
loop_
 _atom_site_type_symbol
 _atom_site_label
 _atom_site_symmetry_multiplicity
 _atom_site_fract_x
 _atom_site_fract_y
 _atom_site_fract_z
 _atom_site_occupancy
  Hf  Hf0  1  0.002833  0.660445  0.031618  1
  Hf  Hf1  1  0.837913  0.503821  0.280862  1
  Hf  Hf2  1  0.161232  0.497864  0.780692  1
  Hf  Hf3  1  0.502881  0.838655  0.717674  1
  Hf  Hf4  1  0.496089  0.161563  0.219450  1
  Sc  Sc5  1  0.998924  0.340588  0.529252  1
  Sc  Sc6  1  0.661733  0.001098  0.970571  1
  Sc  Sc7  1  0.338764  0.999060  0.470177  1
  Ta  Ta8  1  0.329430  0.332333  0.999997  1
  Ta  Ta9  1  0.168828  0.831807  0.250594  1
  Ta  Ta10  1  0.830703  0.169204  0.749302  1
  Ta  Ta11  1  0.670045  0.667813  0.499383  1
  Ta  Ta12  1  0.003402  0.154221  0.126786  1
  Ta  Ta13  1  0.347851  0.504402  0.374890  1
  Ta  Ta14  1  0.652401  0.495917  0.875748  1
  Ta  Ta15  1  0.507185  0.346274  0.623999  1
  Ta  Ta16  1  0.495868  0.654593  0.125094  1
  Ta  Ta17  1  0.996778  0.845082  0.627949  1
  Ta  Ta18  1  0.152910  0.003816  0.873720  1
  V  V19  1  0.844688  0.992279  0.372089  1
  Si  Si20  1  0.301710  0.958262  0.063566  1
  Si  Si21  1  0.545413  0.805491  0.316492  1
  Si  Si22  1  0.458956  0.196889  0.814025  1
  Si  Si23  1  0.803001  0.541149  0.685149  1
  Si  Si24  1  0.198964  0.457333  0.187226  1
  Si  Si25  1  0.703096  0.040540  0.559073  1
  Si  Si26  1  0.956133  0.300494  0.936474  1
  Si  Si27  1  0.039368  0.705812  0.435968  1
  Si  Si28  1  0.706250  0.364079  0.073411  1
  Si  Si29  1  0.126723  0.202906  0.324630  1
  Si  Si30  1  0.862672  0.793049  0.822939  1
  Si  Si31  1  0.206917  0.137011  0.676617  1
  Si  Si32  1  0.793458  0.866783  0.181001  1
  Si  Si33  1  0.293318  0.635259  0.571528  1
  Si  Si34  1  0.364010  0.707639  0.927342  1
  Si  Si35  1  0.639553  0.286467  0.424716  1
