# generated using pymatgen
data_Ho3Sn2Pt2RhPb
_symmetry_space_group_name_H-M   'P 1'
_cell_length_a   7.67608204
_cell_length_b   7.67608106
_cell_length_c   3.82919200
_cell_angle_alpha   90.00000000
_cell_angle_beta   90.00000000
_cell_angle_gamma   119.78178979
_symmetry_Int_Tables_number   1
_chemical_formula_structural   Ho3Sn2Pt2RhPb
_chemical_formula_sum   'Ho3 Sn2 Pt2 Rh1 Pb1'
_cell_volume   195.82479518
_cell_formula_units_Z   1
loop_
 _symmetry_equiv_pos_site_id
 _symmetry_equiv_pos_as_xyz
  1  'x, y, z'
loop_
 _atom_site_type_symbol
 _atom_site_label
 _atom_site_symmetry_multiplicity
 _atom_site_fract_x
 _atom_site_fract_y
 _atom_site_fract_z
 _atom_site_occupancy
  Ho  Ho0  1  0.997451  0.401209  0.000000  1
  Ho  Ho1  1  0.600527  0.600527  0.000000  1
  Ho  Ho2  1  0.401209  0.997451  0.000000  1
  Sn  Sn3  1  0.999476  0.739673  0.500000  1
  Sn  Sn4  1  0.739673  0.999476  0.500000  1
  Pt  Pt5  1  0.676015  0.335697  0.500000  1
  Pt  Pt6  1  0.335697  0.676015  0.500000  1
  Rh  Rh7  1  0.989211  0.989211  0.000000  1
  Pb  Pb8  1  0.260740  0.260740  0.500000  1
