# generated using pymatgen
data_ErCd(NiPt)2
_symmetry_space_group_name_H-M   'P 1'
_cell_length_a   5.03269463
_cell_length_b   5.15721801
_cell_length_c   5.15721788
_cell_angle_alpha   63.15380303
_cell_angle_beta   60.79555416
_cell_angle_gamma   60.79555400
_symmetry_Int_Tables_number   1
_chemical_formula_structural   ErCd(NiPt)2
_chemical_formula_sum   'Er1 Cd1 Ni2 Pt2'
_cell_volume   97.90032049
_cell_formula_units_Z   1
loop_
 _symmetry_equiv_pos_site_id
 _symmetry_equiv_pos_as_xyz
  1  'x, y, z'
loop_
 _atom_site_type_symbol
 _atom_site_label
 _atom_site_symmetry_multiplicity
 _atom_site_fract_x
 _atom_site_fract_y
 _atom_site_fract_z
 _atom_site_occupancy
  Er  Er0  1  0.247818  0.252182  0.252182  1
  Cd  Cd1  1  0.006004  0.993996  0.993996  1
  Ni  Ni2  1  0.122556  0.626810  0.626810  1
  Ni  Ni3  1  0.623823  0.626810  0.626810  1
  Pt  Pt4  1  0.624899  0.625956  0.124245  1
  Pt  Pt5  1  0.624899  0.124245  0.625956  1
