# generated using pymatgen
data_Ca6Pr13HoSn16
_symmetry_space_group_name_H-M   'P 1'
_cell_length_a   8.09782428
_cell_length_b   8.54615054
_cell_length_c   16.15234700
_cell_angle_alpha   90.06934908
_cell_angle_beta   90.11837242
_cell_angle_gamma   90.03120587
_symmetry_Int_Tables_number   1
_chemical_formula_structural   Ca6Pr13HoSn16
_chemical_formula_sum   'Ca6 Pr13 Ho1 Sn16'
_cell_volume   1117.82344240
_cell_formula_units_Z   1
loop_
 _symmetry_equiv_pos_site_id
 _symmetry_equiv_pos_as_xyz
  1  'x, y, z'
loop_
 _atom_site_type_symbol
 _atom_site_label
 _atom_site_symmetry_multiplicity
 _atom_site_fract_x
 _atom_site_fract_y
 _atom_site_fract_z
 _atom_site_occupancy
  Ca  Ca0  1  0.830224  0.670117  0.623363  1
  Ca  Ca1  1  0.669922  0.169407  0.377050  1
  Ca  Ca2  1  0.162612  0.496973  0.749447  1
  Ca  Ca3  1  0.663224  0.002571  0.749349  1
  Ca  Ca4  1  0.836648  0.502543  0.251467  1
  Ca  Ca5  1  0.337979  0.994785  0.250732  1
  Pr  Pr6  1  0.165383  0.326294  0.122457  1
  Pr  Pr7  1  0.665680  0.172475  0.124271  1
  Pr  Pr8  1  0.165652  0.326578  0.375800  1
  Pr  Pr9  1  0.335417  0.827763  0.625322  1
  Pr  Pr10  1  0.835487  0.674554  0.875361  1
  Pr  Pr11  1  0.491367  0.317695  0.904582  1
  Pr  Pr12  1  0.989732  0.185847  0.596406  1
  Pr  Pr13  1  0.511136  0.685097  0.404597  1
  Pr  Pr14  1  0.008733  0.815258  0.095125  1
  Pr  Pr15  1  0.508710  0.682239  0.095242  1
  Pr  Pr16  1  0.006786  0.817147  0.405222  1
  Pr  Pr17  1  0.493277  0.317300  0.595502  1
  Pr  Pr18  1  0.990199  0.184079  0.903340  1
  Ho  Ho19  1  0.332165  0.828213  0.875404  1
  Sn  Sn20  1  0.324441  0.032978  0.035206  1
  Sn  Sn21  1  0.828191  0.465751  0.460966  1
  Sn  Sn22  1  0.673492  0.965900  0.539463  1
  Sn  Sn23  1  0.179928  0.540476  0.960834  1
  Sn  Sn24  1  0.668072  0.962331  0.961134  1
  Sn  Sn25  1  0.173004  0.538064  0.537709  1
  Sn  Sn26  1  0.328541  0.036864  0.462644  1
  Sn  Sn27  1  0.823692  0.462765  0.036514  1
  Sn  Sn28  1  0.529718  0.607816  0.751785  1
  Sn  Sn29  1  0.033659  0.897906  0.752202  1
  Sn  Sn30  1  0.468630  0.397287  0.249758  1
  Sn  Sn31  1  0.968586  0.102732  0.250197  1
  Sn  Sn32  1  0.291349  0.138094  0.751284  1
  Sn  Sn33  1  0.789119  0.358852  0.751065  1
  Sn  Sn34  1  0.709579  0.857088  0.249367  1
  Sn  Sn35  1  0.209666  0.638160  0.249830  1
