# generated using pymatgen
data_Ca2Co9As7Ru3
_symmetry_space_group_name_H-M   'P 1'
_cell_length_a   3.80416200
_cell_length_b   9.41145242
_cell_length_c   9.41145200
_cell_angle_alpha   119.99999853
_cell_angle_beta   90.00000000
_cell_angle_gamma   90.00000000
_symmetry_Int_Tables_number   1
_chemical_formula_structural   Ca2Co9As7Ru3
_chemical_formula_sum   'Ca2 Co9 As7 Ru3'
_cell_volume   291.81184981
_cell_formula_units_Z   1
loop_
 _symmetry_equiv_pos_site_id
 _symmetry_equiv_pos_as_xyz
  1  'x, y, z'
loop_
 _atom_site_type_symbol
 _atom_site_label
 _atom_site_symmetry_multiplicity
 _atom_site_fract_x
 _atom_site_fract_y
 _atom_site_fract_z
 _atom_site_occupancy
  Ca  Ca0  1  0.000000  0.666667  0.333333  1
  Ca  Ca1  1  0.500000  0.333333  0.666667  1
  Co  Co2  1  0.000000  0.569811  0.942791  1
  Co  Co3  1  0.000000  0.372980  0.430189  1
  Co  Co4  1  0.000000  0.057209  0.627020  1
  Co  Co5  1  0.000000  0.876441  0.157737  1
  Co  Co6  1  0.000000  0.281296  0.123559  1
  Co  Co7  1  0.000000  0.842263  0.718704  1
  Co  Co8  1  0.500000  0.948330  0.382859  1
  Co  Co9  1  0.500000  0.434528  0.051670  1
  Co  Co10  1  0.500000  0.617141  0.565472  1
  As  As11  1  0.000000  0.000000  0.000000  1
  As  As12  1  0.500000  0.707729  0.117278  1
  As  As13  1  0.500000  0.409548  0.292271  1
  As  As14  1  0.500000  0.882722  0.590452  1
  As  As15  1  0.000000  0.588030  0.702023  1
  As  As16  1  0.000000  0.113994  0.411970  1
  As  As17  1  0.000000  0.297977  0.886006  1
  Ru  Ru18  1  0.500000  0.779599  0.900073  1
  Ru  Ru19  1  0.500000  0.120474  0.220401  1
  Ru  Ru20  1  0.500000  0.099927  0.879526  1
