# generated using pymatgen
data_BaAcMn2O5
_symmetry_space_group_name_H-M   'P 1'
_cell_length_a   5.75456324
_cell_length_b   5.75456307
_cell_length_c   8.99527200
_cell_angle_alpha   71.34951944
_cell_angle_beta   71.34948850
_cell_angle_gamma   90.00347206
_symmetry_Int_Tables_number   1
_chemical_formula_structural   BaAcMn2O5
_chemical_formula_sum   'Ba2 Ac2 Mn4 O10'
_cell_volume   265.67190257
_cell_formula_units_Z   2
loop_
 _symmetry_equiv_pos_site_id
 _symmetry_equiv_pos_as_xyz
  1  'x, y, z'
loop_
 _atom_site_type_symbol
 _atom_site_label
 _atom_site_symmetry_multiplicity
 _atom_site_fract_x
 _atom_site_fract_y
 _atom_site_fract_z
 _atom_site_occupancy
  Ba  Ba0  1  0.750012  0.249995  0.999993  1
  Ba  Ba1  1  0.249995  0.750010  0.999994  1
  Ac  Ac2  1  0.500002  0.000008  0.499989  1
  Ac  Ac3  1  0.000007  0.500001  0.499989  1
  Mn  Mn4  1  0.878993  0.878990  0.742031  1
  Mn  Mn5  1  0.120999  0.121003  0.257985  1
  Mn  Mn6  1  0.373375  0.373376  0.753247  1
  Mn  Mn7  1  0.626616  0.626621  0.246777  1
  O  O8  1  0.247970  0.247969  0.003920  1
  O  O9  1  0.752034  0.752031  0.996079  1
  O  O10  1  0.343746  0.343749  0.299335  1
  O  O11  1  0.856905  0.856907  0.299341  1
  O  O12  1  0.343733  0.856934  0.299318  1
  O  O13  1  0.856929  0.343736  0.299318  1
  O  O14  1  0.656253  0.656248  0.700667  1
  O  O15  1  0.143094  0.143091  0.700658  1
  O  O16  1  0.143072  0.656263  0.700679  1
  O  O17  1  0.656266  0.143067  0.700678  1
