# generated using pymatgen
data_TbYb2Hf(Al8Pt3)3
_symmetry_space_group_name_H-M   'P 1'
_cell_length_a   7.50963306
_cell_length_b   7.52830964
_cell_length_c   13.17174144
_cell_angle_alpha   84.60876804
_cell_angle_beta   79.12822795
_cell_angle_gamma   59.93998151
_symmetry_Int_Tables_number   1
_chemical_formula_structural   TbYb2Hf(Al8Pt3)3
_chemical_formula_sum   'Tb1 Yb2 Hf1 Al24 Pt9'
_cell_volume   632.93824819
_cell_formula_units_Z   1
loop_
 _symmetry_equiv_pos_site_id
 _symmetry_equiv_pos_as_xyz
  1  'x, y, z'
loop_
 _atom_site_type_symbol
 _atom_site_label
 _atom_site_symmetry_multiplicity
 _atom_site_fract_x
 _atom_site_fract_y
 _atom_site_fract_z
 _atom_site_occupancy
  Tb  Tb0  1  0.266977  0.501871  0.190763  1
  Yb  Yb1  1  0.606652  0.830806  0.191675  1
  Yb  Yb2  1  0.733990  0.499104  0.807576  1
  Hf  Hf3  1  0.394923  0.167520  0.807720  1
  Al  Al4  1  0.681321  0.836196  0.941937  1
  Al  Al5  1  0.316685  0.165786  0.052143  1
  Al  Al6  1  0.146465  0.832242  0.562999  1
  Al  Al7  1  0.852467  0.167740  0.439647  1
  Al  Al8  1  0.479685  0.166084  0.560718  1
  Al  Al9  1  0.520133  0.833162  0.441445  1
  Al  Al10  1  0.217125  0.164283  0.330709  1
  Al  Al11  1  0.779346  0.835066  0.674664  1
  Al  Al12  1  0.437252  0.505044  0.674820  1
  Al  Al13  1  0.562713  0.494901  0.330192  1
  Al  Al14  1  0.109064  0.161397  0.673490  1
  Al  Al15  1  0.888866  0.839867  0.331735  1
  Al  Al16  1  0.355961  0.494843  0.940147  1
  Al  Al17  1  0.649745  0.499622  0.052364  1
  Al  Al18  1  0.019789  0.169608  0.948540  1
  Al  Al19  1  0.984762  0.833191  0.043567  1
  Al  Al20  1  0.186178  0.499743  0.441997  1
  Al  Al21  1  0.812606  0.500904  0.560835  1
  Al  Al22  1  0.733017  0.166991  0.183133  1
  Al  Al23  1  0.264964  0.844046  0.816700  1
  Al  Al24  1  0.068794  0.624185  0.815392  1
  Al  Al25  1  0.941379  0.366988  0.183836  1
  Al  Al26  1  0.846974  0.041201  0.815871  1
  Al  Al27  1  0.142942  0.958029  0.183274  1
  Pt  Pt28  1  0.121438  0.490501  0.639469  1
  Pt  Pt29  1  0.879809  0.507131  0.362587  1
  Pt  Pt30  1  0.658183  0.171101  0.998671  1
  Pt  Pt31  1  0.343100  0.828069  0.998993  1
  Pt  Pt32  1  0.537573  0.167215  0.362446  1
  Pt  Pt33  1  0.461829  0.834410  0.639312  1
  Pt  Pt34  1  0.777627  0.175005  0.638100  1
  Pt  Pt35  1  0.219498  0.825744  0.363932  1
  Pt  Pt36  1  0.000168  0.500408  0.998603  1
