# generated using pymatgen
data_Tb5Bi(SbO7)2
_symmetry_space_group_name_H-M   'P 1'
_cell_length_a   6.53361949
_cell_length_b   6.53361939
_cell_length_c   7.59093150
_cell_angle_alpha   90.14761863
_cell_angle_beta   89.85238068
_cell_angle_gamma   109.02987679
_symmetry_Int_Tables_number   1
_chemical_formula_structural   Tb5Bi(SbO7)2
_chemical_formula_sum   'Tb5 Bi1 Sb2 O14'
_cell_volume   306.33215779
_cell_formula_units_Z   1
loop_
 _symmetry_equiv_pos_site_id
 _symmetry_equiv_pos_as_xyz
  1  'x, y, z'
loop_
 _atom_site_type_symbol
 _atom_site_label
 _atom_site_symmetry_multiplicity
 _atom_site_fract_x
 _atom_site_fract_y
 _atom_site_fract_z
 _atom_site_occupancy
  Tb  Tb0  1  0.500000  0.500000  0.000000  1
  Tb  Tb1  1  0.532579  0.999833  0.751292  1
  Tb  Tb2  1  0.999833  0.532579  0.248708  1
  Tb  Tb3  1  0.467421  0.000167  0.248708  1
  Tb  Tb4  1  0.000167  0.467421  0.751292  1
  Bi  Bi5  1  0.500000  0.500000  0.500000  1
  Sb  Sb6  1  0.000000  0.000000  0.500000  1
  Sb  Sb7  1  0.000000  0.000000  0.000000  1
  O  O8  1  0.681475  0.934888  0.469702  1
  O  O9  1  0.934888  0.681475  0.530298  1
  O  O10  1  0.680183  0.928732  0.029382  1
  O  O11  1  0.928732  0.680183  0.970618  1
  O  O12  1  0.318525  0.065112  0.530298  1
  O  O13  1  0.065112  0.318525  0.469702  1
  O  O14  1  0.319817  0.071268  0.970618  1
  O  O15  1  0.071268  0.319817  0.029382  1
  O  O16  1  0.931121  0.068879  0.750040  1
  O  O17  1  0.068879  0.931121  0.249960  1
  O  O18  1  0.366587  0.633413  0.758367  1
  O  O19  1  0.633413  0.366587  0.241633  1
  O  O20  1  0.639210  0.360790  0.756915  1
  O  O21  1  0.360790  0.639210  0.243085  1
