# generated using pymatgen
data_Pr7Pa(ZnIr)8
_symmetry_space_group_name_H-M   'P 1'
_cell_length_a   4.03299200
_cell_length_b   7.37491972
_cell_length_c   16.68579770
_cell_angle_alpha   89.61161327
_cell_angle_beta   90.00000000
_cell_angle_gamma   90.00000000
_symmetry_Int_Tables_number   1
_chemical_formula_structural   Pr7Pa(ZnIr)8
_chemical_formula_sum   'Pr7 Pa1 Zn8 Ir8'
_cell_volume   496.27414937
_cell_formula_units_Z   1
loop_
 _symmetry_equiv_pos_site_id
 _symmetry_equiv_pos_as_xyz
  1  'x, y, z'
loop_
 _atom_site_type_symbol
 _atom_site_label
 _atom_site_symmetry_multiplicity
 _atom_site_fract_x
 _atom_site_fract_y
 _atom_site_fract_z
 _atom_site_occupancy
  Pr  Pr0  1  0.750000  0.948870  0.281919  1
  Pr  Pr1  1  0.750000  0.825212  0.060759  1
  Pr  Pr2  1  0.250000  0.049228  0.716463  1
  Pr  Pr3  1  0.250000  0.166791  0.940656  1
  Pr  Pr4  1  0.250000  0.547409  0.783548  1
  Pr  Pr5  1  0.750000  0.336283  0.439670  1
  Pr  Pr6  1  0.250000  0.670553  0.560542  1
  Pa  Pa7  1  0.750000  0.445857  0.215501  1
  Zn  Zn8  1  0.250000  0.003783  0.439161  1
  Zn  Zn9  1  0.750000  0.501704  0.939627  1
  Zn  Zn10  1  0.750000  0.004366  0.560462  1
  Zn  Zn11  1  0.250000  0.624509  0.351372  1
  Zn  Zn12  1  0.750000  0.378013  0.650100  1
  Zn  Zn13  1  0.750000  0.879541  0.850018  1
  Zn  Zn14  1  0.250000  0.496690  0.058586  1
  Zn  Zn15  1  0.250000  0.121904  0.150934  1
  Ir  Ir16  1  0.250000  0.245430  0.564215  1
  Ir  Ir17  1  0.750000  0.264977  0.072483  1
  Ir  Ir18  1  0.250000  0.264126  0.300570  1
  Ir  Ir19  1  0.750000  0.253111  0.816198  1
  Ir  Ir20  1  0.250000  0.745259  0.935498  1
  Ir  Ir21  1  0.750000  0.754864  0.686801  1
  Ir  Ir22  1  0.750000  0.765605  0.434396  1
  Ir  Ir23  1  0.250000  0.705913  0.190520  1
