# generated using pymatgen
data_Y2Lu10Co4BiRh
_symmetry_space_group_name_H-M   'P 1'
_cell_length_a   8.19420031
_cell_length_b   8.19307816
_cell_length_c   8.15740386
_cell_angle_alpha   111.01301078
_cell_angle_beta   111.01487351
_cell_angle_gamma   106.62047576
_symmetry_Int_Tables_number   1
_chemical_formula_structural   Y2Lu10Co4BiRh
_chemical_formula_sum   'Y2 Lu10 Co4 Bi1 Rh1'
_cell_volume   419.74815586
_cell_formula_units_Z   1
loop_
 _symmetry_equiv_pos_site_id
 _symmetry_equiv_pos_as_xyz
  1  'x, y, z'
loop_
 _atom_site_type_symbol
 _atom_site_label
 _atom_site_symmetry_multiplicity
 _atom_site_fract_x
 _atom_site_fract_y
 _atom_site_fract_z
 _atom_site_occupancy
  Y  Y0  1  0.287293  0.186878  0.474175  1
  Y  Y1  1  0.712707  0.813122  0.525825  1
  Lu  Lu2  1  0.287669  0.815010  0.102670  1
  Lu  Lu3  1  0.712331  0.184990  0.897330  1
  Lu  Lu4  1  0.620723  0.309268  0.308616  1
  Lu  Lu5  1  0.379277  0.690732  0.691384  1
  Lu  Lu6  1  0.000671  0.312093  0.691387  1
  Lu  Lu7  1  0.999329  0.687907  0.308613  1
  Lu  Lu8  1  0.208879  0.408606  0.195634  1
  Lu  Lu9  1  0.791121  0.591394  0.804366  1
  Lu  Lu10  1  0.212936  0.013211  0.804332  1
  Lu  Lu11  1  0.787064  0.986789  0.195668  1
  Co  Co12  1  0.998882  0.376543  0.375461  1
  Co  Co13  1  0.001118  0.623457  0.624539  1
  Co  Co14  1  0.387819  0.887894  0.500052  1
  Co  Co15  1  0.612181  0.112106  0.499948  1
  Bi  Bi16  1  0.500000  0.500000  0.000000  1
  Rh  Rh17  1  0.000000  0.000000  0.000000  1
