# generated using pymatgen
data_Sm2FeSi4Ir
_symmetry_space_group_name_H-M   'P 1'
_cell_length_a   4.06048900
_cell_length_b   4.39041677
_cell_length_c   8.10703725
_cell_angle_alpha   77.96228443
_cell_angle_beta   90.00000000
_cell_angle_gamma   90.00000000
_symmetry_Int_Tables_number   1
_chemical_formula_structural   Sm2FeSi4Ir
_chemical_formula_sum   'Sm2 Fe1 Si4 Ir1'
_cell_volume   141.34803828
_cell_formula_units_Z   1
loop_
 _symmetry_equiv_pos_site_id
 _symmetry_equiv_pos_as_xyz
  1  'x, y, z'
loop_
 _atom_site_type_symbol
 _atom_site_label
 _atom_site_symmetry_multiplicity
 _atom_site_fract_x
 _atom_site_fract_y
 _atom_site_fract_z
 _atom_site_occupancy
  Sm  Sm0  1  0.250000  0.595087  0.800039  1
  Sm  Sm1  1  0.750000  0.417669  0.201115  1
  Fe  Fe2  1  0.750000  0.119131  0.607881  1
  Si  Si3  1  0.250000  0.970401  0.083005  1
  Si  Si4  1  0.750000  0.043943  0.900392  1
  Si  Si5  1  0.250000  0.319706  0.503072  1
  Si  Si6  1  0.750000  0.655326  0.520218  1
  Ir  Ir7  1  0.250000  0.878737  0.384278  1
