# generated using pymatgen
data_Y8Er2InPb5
_symmetry_space_group_name_H-M   'P 1'
_cell_length_a   9.05022105
_cell_length_b   9.05022100
_cell_length_c   6.66839301
_cell_angle_alpha   89.99670414
_cell_angle_beta   89.99669766
_cell_angle_gamma   120.03560778
_symmetry_Int_Tables_number   1
_chemical_formula_structural   Y8Er2InPb5
_chemical_formula_sum   'Y8 Er2 In1 Pb5'
_cell_volume   472.84004251
_cell_formula_units_Z   1
loop_
 _symmetry_equiv_pos_site_id
 _symmetry_equiv_pos_as_xyz
  1  'x, y, z'
loop_
 _atom_site_type_symbol
 _atom_site_label
 _atom_site_symmetry_multiplicity
 _atom_site_fract_x
 _atom_site_fract_y
 _atom_site_fract_z
 _atom_site_occupancy
  Y  Y0  1  0.663882  0.333702  0.998316  1
  Y  Y1  1  0.333702  0.663882  0.998316  1
  Y  Y2  1  0.760166  0.760166  0.749662  1
  Y  Y3  1  0.239647  0.004633  0.749708  1
  Y  Y4  1  0.004633  0.239647  0.749708  1
  Y  Y5  1  0.238254  0.238254  0.250355  1
  Y  Y6  1  0.761715  0.999609  0.250311  1
  Y  Y7  1  0.999609  0.761715  0.250311  1
  Er  Er8  1  0.333654  0.663690  0.501734  1
  Er  Er9  1  0.663690  0.333654  0.501734  1
  In  In10  1  0.396996  0.396996  0.748660  1
  Pb  Pb11  1  0.606026  0.000505  0.748703  1
  Pb  Pb12  1  0.000505  0.606026  0.748703  1
  Pb  Pb13  1  0.604248  0.604248  0.251344  1
  Pb  Pb14  1  0.394754  0.998518  0.251219  1
  Pb  Pb15  1  0.998518  0.394754  0.251219  1
