# generated using pymatgen
data_Gd3Dy2(ReO6)2
_symmetry_space_group_name_H-M   'P 1'
_cell_length_a   6.91615582
_cell_length_b   6.91615649
_cell_length_c   7.64159050
_cell_angle_alpha   73.46270610
_cell_angle_beta   73.46271099
_cell_angle_gamma   48.58153124
_symmetry_Int_Tables_number   1
_chemical_formula_structural   Gd3Dy2(ReO6)2
_chemical_formula_sum   'Gd3 Dy2 Re2 O12'
_cell_volume   260.39558310
_cell_formula_units_Z   1
loop_
 _symmetry_equiv_pos_site_id
 _symmetry_equiv_pos_as_xyz
  1  'x, y, z'
loop_
 _atom_site_type_symbol
 _atom_site_label
 _atom_site_symmetry_multiplicity
 _atom_site_fract_x
 _atom_site_fract_y
 _atom_site_fract_z
 _atom_site_occupancy
  Gd  Gd0  1  0.685868  0.685868  0.174989  1
  Gd  Gd1  1  0.314132  0.314132  0.825011  1
  Gd  Gd2  1  0.000000  0.000000  0.500000  1
  Dy  Dy3  1  0.696284  0.696284  0.641242  1
  Dy  Dy4  1  0.303716  0.303716  0.358758  1
  Re  Re5  1  0.785701  0.214299  0.000000  1
  Re  Re6  1  0.214299  0.785701  0.000000  1
  O  O7  1  0.001439  0.001439  0.203600  1
  O  O8  1  0.998561  0.998561  0.796400  1
  O  O9  1  0.583753  0.089209  0.085278  1
  O  O10  1  0.416247  0.910791  0.914722  1
  O  O11  1  0.910791  0.416247  0.914722  1
  O  O12  1  0.089209  0.583753  0.085278  1
  O  O13  1  0.497422  0.497422  0.175881  1
  O  O14  1  0.502578  0.502578  0.824119  1
  O  O15  1  0.407794  0.904137  0.427603  1
  O  O16  1  0.592206  0.095863  0.572397  1
  O  O17  1  0.095863  0.592206  0.572397  1
  O  O18  1  0.904137  0.407794  0.427603  1
