# generated using pymatgen
data_MnPb4W3O13
_symmetry_space_group_name_H-M   'P 1'
_cell_length_a   7.54582438
_cell_length_b   7.54582359
_cell_length_c   7.54582372
_cell_angle_alpha   60.47027002
_cell_angle_beta   60.47027425
_cell_angle_gamma   60.47027700
_symmetry_Int_Tables_number   1
_chemical_formula_structural   MnPb4W3O13
_chemical_formula_sum   'Mn1 Pb4 W3 O13'
_cell_volume   307.04163434
_cell_formula_units_Z   1
loop_
 _symmetry_equiv_pos_site_id
 _symmetry_equiv_pos_as_xyz
  1  'x, y, z'
loop_
 _atom_site_type_symbol
 _atom_site_label
 _atom_site_symmetry_multiplicity
 _atom_site_fract_x
 _atom_site_fract_y
 _atom_site_fract_z
 _atom_site_occupancy
  Mn  Mn0  1  0.500187  0.500187  0.500187  1
  Pb  Pb1  1  0.999196  0.999196  0.999196  1
  Pb  Pb2  1  0.499824  0.004421  0.004421  1
  Pb  Pb3  1  0.004421  0.004421  0.499824  1
  Pb  Pb4  1  0.004421  0.499824  0.004421  1
  W  W5  1  0.001301  0.500379  0.500379  1
  W  W6  1  0.500379  0.500379  0.001301  1
  W  W7  1  0.500379  0.001301  0.500379  1
  O  O8  1  0.852766  0.416733  0.416733  1
  O  O9  1  0.418107  0.813791  0.813791  1
  O  O10  1  0.416733  0.416733  0.852766  1
  O  O11  1  0.813791  0.813791  0.418107  1
  O  O12  1  0.813791  0.418107  0.813791  1
  O  O13  1  0.416733  0.852766  0.416733  1
  O  O14  1  0.155136  0.576731  0.576731  1
  O  O15  1  0.575061  0.188182  0.188182  1
  O  O16  1  0.576731  0.576731  0.155136  1
  O  O17  1  0.188182  0.188182  0.575061  1
  O  O18  1  0.188182  0.575061  0.188182  1
  O  O19  1  0.576731  0.155136  0.576731  1
  O  O20  1  0.122953  0.122953  0.122953  1
