# generated using pymatgen
data_Al2Ni9(PtSe2)2
_symmetry_space_group_name_H-M   'P 1'
_cell_length_a   3.65330900
_cell_length_b   3.65330900
_cell_length_c   18.91342800
_cell_angle_alpha   90.00000000
_cell_angle_beta   90.00000000
_cell_angle_gamma   90.00000000
_symmetry_Int_Tables_number   1
_chemical_formula_structural   Al2Ni9(PtSe2)2
_chemical_formula_sum   'Al2 Ni9 Pt2 Se4'
_cell_volume   252.43121871
_cell_formula_units_Z   1
loop_
 _symmetry_equiv_pos_site_id
 _symmetry_equiv_pos_as_xyz
  1  'x, y, z'
loop_
 _atom_site_type_symbol
 _atom_site_label
 _atom_site_symmetry_multiplicity
 _atom_site_fract_x
 _atom_site_fract_y
 _atom_site_fract_z
 _atom_site_occupancy
  Al  Al0  1  0.000000  0.000000  0.000474  1
  Al  Al1  1  0.500000  0.500000  0.499997  1
  Ni  Ni2  1  0.000000  0.500000  0.399878  1
  Ni  Ni3  1  0.500000  0.000000  0.900010  1
  Ni  Ni4  1  0.500000  0.000000  0.399878  1
  Ni  Ni5  1  0.000000  0.500000  0.900010  1
  Ni  Ni6  1  0.500000  0.000000  0.101644  1
  Ni  Ni7  1  0.000000  0.500000  0.601434  1
  Ni  Ni8  1  0.000000  0.500000  0.101644  1
  Ni  Ni9  1  0.500000  0.000000  0.601434  1
  Ni  Ni10  1  0.500000  0.500000  0.298520  1
  Pt  Pt11  1  0.000000  0.000000  0.500984  1
  Pt  Pt12  1  0.500000  0.500000  0.001009  1
  Se  Se13  1  0.000000  0.000000  0.315928  1
  Se  Se14  1  0.500000  0.500000  0.823115  1
  Se  Se15  1  0.500000  0.500000  0.177874  1
  Se  Se16  1  0.000000  0.000000  0.677665  1
