# generated using pymatgen
data_LaNd9(Ga3Co2)2
_symmetry_space_group_name_H-M   'P 1'
_cell_length_a   7.69117941
_cell_length_b   7.69117980
_cell_length_c   10.42394700
_cell_angle_alpha   90.00000000
_cell_angle_beta   90.00000000
_cell_angle_gamma   128.69981885
_symmetry_Int_Tables_number   1
_chemical_formula_structural   LaNd9(Ga3Co2)2
_chemical_formula_sum   'La1 Nd9 Ga6 Co4'
_cell_volume   481.23076419
_cell_formula_units_Z   1
loop_
 _symmetry_equiv_pos_site_id
 _symmetry_equiv_pos_as_xyz
  1  'x, y, z'
loop_
 _atom_site_type_symbol
 _atom_site_label
 _atom_site_symmetry_multiplicity
 _atom_site_fract_x
 _atom_site_fract_y
 _atom_site_fract_z
 _atom_site_occupancy
  La  La0  1  0.602458  0.602458  0.250000  1
  Nd  Nd1  1  0.880234  0.125234  0.999658  1
  Nd  Nd2  1  0.486718  0.064236  0.250000  1
  Nd  Nd3  1  0.125234  0.880234  0.500342  1
  Nd  Nd4  1  0.125234  0.880234  0.999658  1
  Nd  Nd5  1  0.513524  0.936419  0.750000  1
  Nd  Nd6  1  0.880234  0.125234  0.500342  1
  Nd  Nd7  1  0.386579  0.386579  0.750000  1
  Nd  Nd8  1  0.936419  0.513524  0.750000  1
  Nd  Nd9  1  0.064236  0.486718  0.250000  1
  Ga  Ga10  1  0.890159  0.890159  0.750000  1
  Ga  Ga11  1  0.346320  0.650268  0.997363  1
  Ga  Ga12  1  0.346320  0.650268  0.502637  1
  Ga  Ga13  1  0.104440  0.104440  0.250000  1
  Ga  Ga14  1  0.650268  0.346320  0.997363  1
  Ga  Ga15  1  0.650268  0.346320  0.502637  1
  Co  Co16  1  0.668487  0.668487  0.562224  1
  Co  Co17  1  0.668487  0.668487  0.937776  1
  Co  Co18  1  0.337190  0.337190  0.065458  1
  Co  Co19  1  0.337190  0.337190  0.434542  1
