# generated using pymatgen
data_Ba2H12PdPt2
_symmetry_space_group_name_H-M   'P 1'
_cell_length_a   5.13754100
_cell_length_b   5.13754123
_cell_length_c   9.14470500
_cell_angle_alpha   90.00000000
_cell_angle_beta   90.00000000
_cell_angle_gamma   120.00000493
_symmetry_Int_Tables_number   1
_chemical_formula_structural   Ba2H12PdPt2
_chemical_formula_sum   'Ba2 H12 Pd1 Pt2'
_cell_volume   209.03111227
_cell_formula_units_Z   1
loop_
 _symmetry_equiv_pos_site_id
 _symmetry_equiv_pos_as_xyz
  1  'x, y, z'
loop_
 _atom_site_type_symbol
 _atom_site_label
 _atom_site_symmetry_multiplicity
 _atom_site_fract_x
 _atom_site_fract_y
 _atom_site_fract_z
 _atom_site_occupancy
  Ba  Ba0  1  0.000000  0.000000  0.033053  1
  Ba  Ba1  1  0.333333  0.666667  0.600849  1
  H  H2  1  0.176006  0.823994  0.341060  1
  H  H3  1  0.647987  0.823994  0.341060  1
  H  H4  1  0.176006  0.352013  0.341060  1
  H  H5  1  0.822190  0.177810  0.676387  1
  H  H6  1  0.355621  0.177810  0.676387  1
  H  H7  1  0.822190  0.644379  0.676387  1
  H  H8  1  0.515628  0.031257  0.879403  1
  H  H9  1  0.515628  0.484372  0.879403  1
  H  H10  1  0.968743  0.484372  0.879403  1
  H  H11  1  0.493075  0.986149  0.137406  1
  H  H12  1  0.493075  0.506925  0.137406  1
  H  H13  1  0.013851  0.506925  0.137406  1
  Pd  Pd14  1  0.666667  0.333333  0.241088  1
  Pt  Pt15  1  0.666667  0.333333  0.776195  1
  Pt  Pt16  1  0.333333  0.666667  0.246047  1
