# generated using pymatgen
data_K8Sr4HfZrAs8
_symmetry_space_group_name_H-M   'P 1'
_cell_length_a   10.48544276
_cell_length_b   10.48453595
_cell_length_c   7.89880113
_cell_angle_alpha   88.21447185
_cell_angle_beta   88.20027169
_cell_angle_gamma   119.63977552
_symmetry_Int_Tables_number   1
_chemical_formula_structural   K8Sr4HfZrAs8
_chemical_formula_sum   'K8 Sr4 Hf1 Zr1 As8'
_cell_volume   753.26947342
_cell_formula_units_Z   1
loop_
 _symmetry_equiv_pos_site_id
 _symmetry_equiv_pos_as_xyz
  1  'x, y, z'
loop_
 _atom_site_type_symbol
 _atom_site_label
 _atom_site_symmetry_multiplicity
 _atom_site_fract_x
 _atom_site_fract_y
 _atom_site_fract_z
 _atom_site_occupancy
  K  K0  1  0.474302  0.941335  0.383629  1
  K  K1  1  0.941374  0.474323  0.883683  1
  K  K2  1  0.866014  0.721569  0.172029  1
  K  K3  1  0.268725  0.127244  0.235894  1
  K  K4  1  0.855802  0.138757  0.199843  1
  K  K5  1  0.127258  0.268748  0.735930  1
  K  K6  1  0.721546  0.866002  0.672068  1
  K  K7  1  0.138773  0.855789  0.699887  1
  Sr  Sr8  1  0.069673  0.532177  0.391744  1
  Sr  Sr9  1  0.474548  0.530860  0.376403  1
  Sr  Sr10  1  0.532086  0.069512  0.891929  1
  Sr  Sr11  1  0.530806  0.474595  0.876522  1
  Hf  Hf12  1  0.334922  0.664741  0.989667  1
  Zr  Zr13  1  0.664795  0.334816  0.489442  1
  As  As14  1  0.642564  0.329584  0.156480  1
  As  As15  1  0.329621  0.642714  0.658233  1
  As  As16  1  0.208877  0.398870  0.131163  1
  As  As17  1  0.607827  0.798355  0.076396  1
  As  As18  1  0.206914  0.806359  0.098946  1
  As  As19  1  0.799002  0.609155  0.576835  1
  As  As20  1  0.397632  0.208307  0.631835  1
  As  As21  1  0.807056  0.206304  0.599504  1
