# generated using pymatgen
data_Cs10Ba2TaVAs8
_symmetry_space_group_name_H-M   'P 1'
_cell_length_a   11.19747212
_cell_length_b   11.18045934
_cell_length_c   8.56508696
_cell_angle_alpha   88.03691389
_cell_angle_beta   87.70666624
_cell_angle_gamma   121.27550445
_symmetry_Int_Tables_number   1
_chemical_formula_structural   Cs10Ba2TaVAs8
_chemical_formula_sum   'Cs10 Ba2 Ta1 V1 As8'
_cell_volume   913.82677580
_cell_formula_units_Z   1
loop_
 _symmetry_equiv_pos_site_id
 _symmetry_equiv_pos_as_xyz
  1  'x, y, z'
loop_
 _atom_site_type_symbol
 _atom_site_label
 _atom_site_symmetry_multiplicity
 _atom_site_fract_x
 _atom_site_fract_y
 _atom_site_fract_z
 _atom_site_occupancy
  Cs  Cs0  1  0.465101  0.525162  0.493101  1
  Cs  Cs1  1  0.061372  0.527528  0.498921  1
  Cs  Cs2  1  0.527431  0.462412  0.994686  1
  Cs  Cs3  1  0.530689  0.067136  0.999157  1
  Cs  Cs4  1  0.865337  0.142555  0.678103  1
  Cs  Cs5  1  0.293513  0.151875  0.718828  1
  Cs  Cs6  1  0.854626  0.713200  0.653072  1
  Cs  Cs7  1  0.140730  0.866148  0.182228  1
  Cs  Cs8  1  0.715914  0.856400  0.155511  1
  Cs  Cs9  1  0.149886  0.290687  0.222208  1
  Ba  Ba10  1  0.470451  0.944682  0.496311  1
  Ba  Ba11  1  0.936248  0.464395  0.999725  1
  Ta  Ta12  1  0.328548  0.670919  0.893044  1
  V  V13  1  0.670749  0.328381  0.392689  1
  As  As14  1  0.682001  0.333518  0.673055  1
  As  As15  1  0.336858  0.686062  0.184758  1
  As  As16  1  0.783612  0.207585  0.293793  1
  As  As17  1  0.428129  0.199448  0.332399  1
  As  As18  1  0.791202  0.562836  0.274078  1
  As  As19  1  0.202063  0.787018  0.791780  1
  As  As20  1  0.573197  0.795731  0.768469  1
  As  As21  1  0.192341  0.416318  0.832659  1
