# generated using pymatgen
data_Dy2(HoIn)3
_symmetry_space_group_name_H-M   'P 1'
_cell_length_a   6.01597825
_cell_length_b   9.15468782
_cell_length_c   9.15468806
_cell_angle_alpha   83.92744909
_cell_angle_beta   70.81777531
_cell_angle_gamma   70.81777442
_symmetry_Int_Tables_number   1
_chemical_formula_structural   Dy2(HoIn)3
_chemical_formula_sum   'Dy4 Ho6 In6'
_cell_volume   449.75507485
_cell_formula_units_Z   2
loop_
 _symmetry_equiv_pos_site_id
 _symmetry_equiv_pos_as_xyz
  1  'x, y, z'
loop_
 _atom_site_type_symbol
 _atom_site_label
 _atom_site_symmetry_multiplicity
 _atom_site_fract_x
 _atom_site_fract_y
 _atom_site_fract_z
 _atom_site_occupancy
  Dy  Dy0  1  0.719658  0.862323  0.698362  1
  Dy  Dy1  1  0.280342  0.137677  0.301638  1
  Dy  Dy2  1  0.780342  0.301638  0.137677  1
  Dy  Dy3  1  0.219658  0.698362  0.862323  1
  Ho  Ho4  1  0.581342  0.699403  0.137913  1
  Ho  Ho5  1  0.418658  0.300597  0.862087  1
  Ho  Ho6  1  0.081342  0.137913  0.699403  1
  Ho  Ho7  1  0.918658  0.862087  0.300597  1
  Ho  Ho8  1  0.750000  0.500000  0.500000  1
  Ho  Ho9  1  0.250000  0.500000  0.500000  1
  In  In10  1  0.162081  0.500266  0.175571  1
  In  In11  1  0.837919  0.499734  0.824429  1
  In  In12  1  0.337919  0.824429  0.499734  1
  In  In13  1  0.662081  0.175571  0.500266  1
  In  In14  1  0.250000  0.000000  0.000000  1
  In  In15  1  0.750000  0.000000  0.000000  1
