# generated using pymatgen
data_K5Pu3Cl12
_symmetry_space_group_name_H-M   'P 1'
_cell_length_a   13.46857800
_cell_length_b   13.46857689
_cell_length_c   4.41557400
_cell_angle_alpha   90.00000000
_cell_angle_beta   90.00000000
_cell_angle_gamma   119.99999781
_symmetry_Int_Tables_number   1
_chemical_formula_structural   K5Pu3Cl12
_chemical_formula_sum   'K5 Pu3 Cl12'
_cell_volume   693.68334035
_cell_formula_units_Z   1
loop_
 _symmetry_equiv_pos_site_id
 _symmetry_equiv_pos_as_xyz
  1  'x, y, z'
loop_
 _atom_site_type_symbol
 _atom_site_label
 _atom_site_symmetry_multiplicity
 _atom_site_fract_x
 _atom_site_fract_y
 _atom_site_fract_z
 _atom_site_occupancy
  K  K0  1  0.333333  0.666667  0.000000  1
  K  K1  1  0.666667  0.333333  0.000000  1
  K  K2  1  0.709439  0.000000  0.000000  1
  K  K3  1  0.000000  0.709439  0.000000  1
  K  K4  1  0.290561  0.290561  0.000000  1
  Pu  Pu5  1  0.329127  0.000000  0.500000  1
  Pu  Pu6  1  0.000000  0.329127  0.500000  1
  Pu  Pu7  1  0.670873  0.670873  0.500000  1
  Cl  Cl8  1  0.191358  0.000000  0.000000  1
  Cl  Cl9  1  0.000000  0.191358  0.000000  1
  Cl  Cl10  1  0.808642  0.808642  0.000000  1
  Cl  Cl11  1  0.463588  0.000000  0.000000  1
  Cl  Cl12  1  0.000000  0.463588  0.000000  1
  Cl  Cl13  1  0.536412  0.536412  0.000000  1
  Cl  Cl14  1  0.241688  0.444029  0.500000  1
  Cl  Cl15  1  0.555971  0.797658  0.500000  1
  Cl  Cl16  1  0.444029  0.241688  0.500000  1
  Cl  Cl17  1  0.202342  0.758312  0.500000  1
  Cl  Cl18  1  0.797658  0.555971  0.500000  1
  Cl  Cl19  1  0.758312  0.202342  0.500000  1
