# generated using pymatgen
data_KNb9Se16
_symmetry_space_group_name_H-M   'P 1'
_cell_length_a   7.00482300
_cell_length_b   7.00482354
_cell_length_c   15.29900300
_cell_angle_alpha   90.00000000
_cell_angle_beta   90.00000000
_cell_angle_gamma   120.00000218
_symmetry_Int_Tables_number   1
_chemical_formula_structural   KNb9Se16
_chemical_formula_sum   'K1 Nb9 Se16'
_cell_volume   650.11190210
_cell_formula_units_Z   1
loop_
 _symmetry_equiv_pos_site_id
 _symmetry_equiv_pos_as_xyz
  1  'x, y, z'
loop_
 _atom_site_type_symbol
 _atom_site_label
 _atom_site_symmetry_multiplicity
 _atom_site_fract_x
 _atom_site_fract_y
 _atom_site_fract_z
 _atom_site_occupancy
  K  K0  1  0.000000  0.000000  0.000000  1
  Nb  Nb1  1  0.000000  0.000000  0.285589  1
  Nb  Nb2  1  0.000000  0.000000  0.714411  1
  Nb  Nb3  1  0.505391  0.010782  0.285146  1
  Nb  Nb4  1  0.494609  0.989218  0.714854  1
  Nb  Nb5  1  0.989218  0.494609  0.285146  1
  Nb  Nb6  1  0.010782  0.505391  0.714854  1
  Nb  Nb7  1  0.505391  0.494609  0.285146  1
  Nb  Nb8  1  0.494609  0.505391  0.714854  1
  Nb  Nb9  1  0.000000  0.000000  0.500000  1
  Se  Se10  1  0.333333  0.666667  0.603659  1
  Se  Se11  1  0.666667  0.333333  0.396341  1
  Se  Se12  1  0.666667  0.333333  0.172868  1
  Se  Se13  1  0.333333  0.666667  0.827132  1
  Se  Se14  1  0.167008  0.334015  0.176549  1
  Se  Se15  1  0.832992  0.665985  0.823451  1
  Se  Se16  1  0.665985  0.832992  0.176549  1
  Se  Se17  1  0.831307  0.662614  0.605350  1
  Se  Se18  1  0.334015  0.167008  0.823451  1
  Se  Se19  1  0.168693  0.337386  0.394650  1
  Se  Se20  1  0.167008  0.832992  0.176549  1
  Se  Se21  1  0.337386  0.168693  0.605350  1
  Se  Se22  1  0.832992  0.167008  0.823451  1
  Se  Se23  1  0.662614  0.831307  0.394650  1
  Se  Se24  1  0.831307  0.168693  0.605350  1
  Se  Se25  1  0.168693  0.831307  0.394650  1
