# generated using pymatgen
data_Er5MnRuO12
_symmetry_space_group_name_H-M   'P 1'
_cell_length_a   6.78647015
_cell_length_b   6.78647138
_cell_length_c   7.17675518
_cell_angle_alpha   74.57811903
_cell_angle_beta   74.57811616
_cell_angle_gamma   50.62290351
_symmetry_Int_Tables_number   1
_chemical_formula_structural   Er5MnRuO12
_chemical_formula_sum   'Er5 Mn1 Ru1 O12'
_cell_volume   244.19391727
_cell_formula_units_Z   1
loop_
 _symmetry_equiv_pos_site_id
 _symmetry_equiv_pos_as_xyz
  1  'x, y, z'
loop_
 _atom_site_type_symbol
 _atom_site_label
 _atom_site_symmetry_multiplicity
 _atom_site_fract_x
 _atom_site_fract_y
 _atom_site_fract_z
 _atom_site_occupancy
  Er  Er0  1  0.693136  0.693515  0.667189  1
  Er  Er1  1  0.692951  0.704522  0.139973  1
  Er  Er2  1  0.002422  0.997578  0.000000  1
  Er  Er3  1  0.295478  0.307049  0.860027  1
  Er  Er4  1  0.306485  0.306864  0.332811  1
  Mn  Mn5  1  0.250859  0.749141  0.500000  1
  Ru  Ru6  1  0.760012  0.239988  0.500000  1
  O  O7  1  0.401637  0.905125  0.924977  1
  O  O8  1  0.572863  0.095947  0.583574  1
  O  O9  1  0.904053  0.427137  0.416426  1
  O  O10  1  0.094875  0.598363  0.075023  1
  O  O11  1  0.005401  0.994619  0.316889  1
  O  O12  1  0.496526  0.503516  0.685101  1
  O  O13  1  0.900735  0.402141  0.926037  1
  O  O14  1  0.099180  0.576338  0.582146  1
  O  O15  1  0.423662  0.900820  0.417854  1
  O  O16  1  0.597859  0.099265  0.073963  1
  O  O17  1  0.496484  0.503474  0.314899  1
  O  O18  1  0.005381  0.994599  0.683111  1
