# generated using pymatgen
data_Er20CoPt7Rh4
_symmetry_space_group_name_H-M   'P 1'
_cell_length_a   10.93317005
_cell_length_b   10.93317036
_cell_length_c   6.31120900
_cell_angle_alpha   90.00528247
_cell_angle_beta   90.00528247
_cell_angle_gamma   90.16496164
_symmetry_Int_Tables_number   1
_chemical_formula_structural   Er20CoPt7Rh4
_chemical_formula_sum   'Er20 Co1 Pt7 Rh4'
_cell_volume   754.40225322
_cell_formula_units_Z   1
loop_
 _symmetry_equiv_pos_site_id
 _symmetry_equiv_pos_as_xyz
  1  'x, y, z'
loop_
 _atom_site_type_symbol
 _atom_site_label
 _atom_site_symmetry_multiplicity
 _atom_site_fract_x
 _atom_site_fract_y
 _atom_site_fract_z
 _atom_site_occupancy
  Er  Er0  1  0.293268  0.085980  0.374086  1
  Er  Er1  1  0.294636  0.904322  0.874553  1
  Er  Er2  1  0.705249  0.087980  0.874056  1
  Er  Er3  1  0.705079  0.911344  0.372559  1
  Er  Er4  1  0.584875  0.790615  0.872592  1
  Er  Er5  1  0.587246  0.207494  0.375017  1
  Er  Er6  1  0.409086  0.789118  0.382686  1
  Er  Er7  1  0.410441  0.204327  0.874647  1
  Er  Er8  1  0.209385  0.415125  0.627408  1
  Er  Er9  1  0.210882  0.590914  0.117314  1
  Er  Er10  1  0.792506  0.412754  0.124983  1
  Er  Er11  1  0.795673  0.589559  0.625353  1
  Er  Er12  1  0.914020  0.706732  0.125914  1
  Er  Er13  1  0.912020  0.294751  0.625944  1
  Er  Er14  1  0.095678  0.705364  0.625447  1
  Er  Er15  1  0.088656  0.294921  0.127441  1
  Er  Er16  1  0.998598  0.999678  0.500465  1
  Er  Er17  1  0.000322  0.001402  0.999535  1
  Er  Er18  1  0.495915  0.502277  0.997574  1
  Er  Er19  1  0.497723  0.504085  0.502426  1
  Co  Co20  1  0.347929  0.652071  0.750000  1
  Pt  Pt21  1  0.844882  0.155118  0.250000  1
  Pt  Pt22  1  0.843591  0.846778  0.751461  1
  Pt  Pt23  1  0.153222  0.156409  0.748539  1
  Pt  Pt24  1  0.153896  0.846104  0.250000  1
  Pt  Pt25  1  0.653264  0.346736  0.750000  1
  Pt  Pt26  1  0.655869  0.654736  0.249999  1
  Pt  Pt27  1  0.345264  0.344131  0.250001  1
  Rh  Rh28  1  0.499137  0.998590  0.123355  1
  Rh  Rh29  1  0.498968  0.998689  0.621930  1
  Rh  Rh30  1  0.001311  0.501032  0.878070  1
  Rh  Rh31  1  0.001410  0.500863  0.376645  1
