# generated using pymatgen
data_Er6AuO12
_symmetry_space_group_name_H-M   'P 1'
_cell_length_a   6.43677262
_cell_length_b   6.43677137
_cell_length_c   6.43677149
_cell_angle_alpha   98.90075491
_cell_angle_beta   98.90075521
_cell_angle_gamma   98.90076112
_symmetry_Int_Tables_number   1
_chemical_formula_structural   Er6AuO12
_chemical_formula_sum   'Er6 Au1 O12'
_cell_volume   255.90623691
_cell_formula_units_Z   1
loop_
 _symmetry_equiv_pos_site_id
 _symmetry_equiv_pos_as_xyz
  1  'x, y, z'
loop_
 _atom_site_type_symbol
 _atom_site_label
 _atom_site_symmetry_multiplicity
 _atom_site_fract_x
 _atom_site_fract_y
 _atom_site_fract_z
 _atom_site_occupancy
  Er  Er0  1  0.859032  0.389838  0.696441  1
  Er  Er1  1  0.610162  0.303559  0.140968  1
  Er  Er2  1  0.303559  0.140968  0.610162  1
  Er  Er3  1  0.696441  0.859032  0.389838  1
  Er  Er4  1  0.389838  0.696441  0.859032  1
  Er  Er5  1  0.140968  0.610162  0.303559  1
  Au  Au6  1  0.000000  0.000000  0.000000  1
  O  O7  1  0.938849  0.047324  0.689513  1
  O  O8  1  0.952676  0.310487  0.061151  1
  O  O9  1  0.588615  0.177993  0.437745  1
  O  O10  1  0.822007  0.562255  0.411385  1
  O  O11  1  0.310487  0.061151  0.952676  1
  O  O12  1  0.562255  0.411385  0.822007  1
  O  O13  1  0.437745  0.588615  0.177993  1
  O  O14  1  0.689513  0.938849  0.047324  1
  O  O15  1  0.177993  0.437745  0.588615  1
  O  O16  1  0.411385  0.822007  0.562255  1
  O  O17  1  0.047324  0.689513  0.938849  1
  O  O18  1  0.061151  0.952676  0.310487  1
