# generated using pymatgen
data_TbThInGa2
_symmetry_space_group_name_H-M   'P 1'
_cell_length_a   7.36395722
_cell_length_b   7.36395722
_cell_length_c   4.49144600
_cell_angle_alpha   90.00000000
_cell_angle_beta   90.00000000
_cell_angle_gamma   89.04036449
_symmetry_Int_Tables_number   1
_chemical_formula_structural   TbThInGa2
_chemical_formula_sum   'Tb2 Th2 In2 Ga4'
_cell_volume   243.52736999
_cell_formula_units_Z   2
loop_
 _symmetry_equiv_pos_site_id
 _symmetry_equiv_pos_as_xyz
  1  'x, y, z'
loop_
 _atom_site_type_symbol
 _atom_site_label
 _atom_site_symmetry_multiplicity
 _atom_site_fract_x
 _atom_site_fract_y
 _atom_site_fract_z
 _atom_site_occupancy
  Tb  Tb0  1  0.172187  0.327813  0.500000  1
  Tb  Tb1  1  0.827813  0.672187  0.500000  1
  Th  Th2  1  0.326981  0.826981  0.500000  1
  Th  Th3  1  0.673019  0.173019  0.500000  1
  In  In4  1  0.000000  0.000000  0.000000  1
  In  In5  1  0.500000  0.500000  0.000000  1
  Ga  Ga6  1  0.625632  0.874368  0.000000  1
  Ga  Ga7  1  0.374368  0.125632  0.000000  1
  Ga  Ga8  1  0.877005  0.377005  0.000000  1
  Ga  Ga9  1  0.122995  0.622995  0.000000  1
