# generated using pymatgen
data_Ba2ErAlSe5
_symmetry_space_group_name_H-M   'P 1'
_cell_length_a   7.40337585
_cell_length_b   8.74778602
_cell_length_c   9.56715280
_cell_angle_alpha   103.51632151
_cell_angle_beta   102.78071690
_cell_angle_gamma   107.41625305
_symmetry_Int_Tables_number   1
_chemical_formula_structural   Ba2ErAlSe5
_chemical_formula_sum   'Ba4 Er2 Al2 Se10'
_cell_volume   545.77374979
_cell_formula_units_Z   2
loop_
 _symmetry_equiv_pos_site_id
 _symmetry_equiv_pos_as_xyz
  1  'x, y, z'
loop_
 _atom_site_type_symbol
 _atom_site_label
 _atom_site_symmetry_multiplicity
 _atom_site_fract_x
 _atom_site_fract_y
 _atom_site_fract_z
 _atom_site_occupancy
  Ba  Ba0  1  0.628591  0.975040  0.286704  1
  Ba  Ba1  1  0.371409  0.024960  0.713296  1
  Ba  Ba2  1  0.338952  0.510445  0.706546  1
  Ba  Ba3  1  0.661048  0.489555  0.293454  1
  Er  Er4  1  0.997428  0.727836  0.998044  1
  Er  Er5  1  0.002572  0.272164  0.001956  1
  Al  Al6  1  0.810074  0.874207  0.694395  1
  Al  Al7  1  0.189926  0.125793  0.305605  1
  Se  Se8  1  0.993168  0.689084  0.691391  1
  Se  Se9  1  0.006832  0.310916  0.308609  1
  Se  Se10  1  0.989626  0.153097  0.695111  1
  Se  Se11  1  0.010374  0.846903  0.304889  1
  Se  Se12  1  0.715627  0.908663  0.926091  1
  Se  Se13  1  0.284373  0.091337  0.073909  1
  Se  Se14  1  0.709033  0.411882  0.947562  1
  Se  Se15  1  0.290967  0.588118  0.052438  1
  Se  Se16  1  0.500831  0.745516  0.497918  1
  Se  Se17  1  0.499169  0.254484  0.502082  1
