# generated using pymatgen
data_Pr3Pa5Zn8(Ir3Rh)2
_symmetry_space_group_name_H-M   'P 1'
_cell_length_a   3.91768600
_cell_length_b   7.39840373
_cell_length_c   16.51229234
_cell_angle_alpha   90.03731862
_cell_angle_beta   90.00000000
_cell_angle_gamma   90.00000000
_symmetry_Int_Tables_number   1
_chemical_formula_structural   Pr3Pa5Zn8(Ir3Rh)2
_chemical_formula_sum   'Pr3 Pa5 Zn8 Ir6 Rh2'
_cell_volume   478.60246188
_cell_formula_units_Z   1
loop_
 _symmetry_equiv_pos_site_id
 _symmetry_equiv_pos_as_xyz
  1  'x, y, z'
loop_
 _atom_site_type_symbol
 _atom_site_label
 _atom_site_symmetry_multiplicity
 _atom_site_fract_x
 _atom_site_fract_y
 _atom_site_fract_z
 _atom_site_occupancy
  Pr  Pr0  1  0.250000  0.555290  0.787620  1
  Pr  Pr1  1  0.750000  0.336060  0.441138  1
  Pr  Pr2  1  0.250000  0.678025  0.560103  1
  Pa  Pa3  1  0.750000  0.438376  0.215680  1
  Pa  Pa4  1  0.750000  0.943735  0.283182  1
  Pa  Pa5  1  0.750000  0.825266  0.062047  1
  Pa  Pa6  1  0.250000  0.054284  0.716130  1
  Pa  Pa7  1  0.250000  0.167570  0.940752  1
  Zn  Zn8  1  0.250000  0.011622  0.439474  1
  Zn  Zn9  1  0.750000  0.501055  0.940034  1
  Zn  Zn10  1  0.750000  0.004428  0.555853  1
  Zn  Zn11  1  0.250000  0.609155  0.343847  1
  Zn  Zn12  1  0.750000  0.389800  0.657471  1
  Zn  Zn13  1  0.750000  0.876528  0.849352  1
  Zn  Zn14  1  0.250000  0.488453  0.061857  1
  Zn  Zn15  1  0.250000  0.107657  0.151411  1
  Ir  Ir16  1  0.250000  0.242221  0.577087  1
  Ir  Ir17  1  0.750000  0.232827  0.058333  1
  Ir  Ir18  1  0.250000  0.237182  0.302050  1
  Ir  Ir19  1  0.750000  0.228535  0.819164  1
  Ir  Ir20  1  0.250000  0.766530  0.948225  1
  Ir  Ir21  1  0.250000  0.733515  0.184286  1
  Rh  Rh22  1  0.750000  0.793745  0.687202  1
  Rh  Rh23  1  0.750000  0.778142  0.417703  1
