# generated using pymatgen
data_CsTb2NdTe4
_symmetry_space_group_name_H-M   'P 1'
_cell_length_a   4.45158500
_cell_length_b   4.45158451
_cell_length_c   16.38357300
_cell_angle_alpha   90.00000000
_cell_angle_beta   90.00000000
_cell_angle_gamma   119.99998133
_symmetry_Int_Tables_number   1
_chemical_formula_structural   CsTb2NdTe4
_chemical_formula_sum   'Cs1 Tb2 Nd1 Te4'
_cell_volume   281.16977093
_cell_formula_units_Z   1
loop_
 _symmetry_equiv_pos_site_id
 _symmetry_equiv_pos_as_xyz
  1  'x, y, z'
loop_
 _atom_site_type_symbol
 _atom_site_label
 _atom_site_symmetry_multiplicity
 _atom_site_fract_x
 _atom_site_fract_y
 _atom_site_fract_z
 _atom_site_occupancy
  Cs  Cs0  1  0.666667  0.333333  0.750000  1
  Tb  Tb1  1  0.000000  0.000000  0.026053  1
  Tb  Tb2  1  0.000000  0.000000  0.473947  1
  Nd  Nd3  1  0.333333  0.666667  0.250000  1
  Te  Te4  1  0.333333  0.666667  0.579968  1
  Te  Te5  1  0.666667  0.333333  0.132501  1
  Te  Te6  1  0.666667  0.333333  0.367499  1
  Te  Te7  1  0.333333  0.666667  0.920032  1
