# generated using pymatgen
data_Y12Ho4Cd4Ir3Pd
_symmetry_space_group_name_H-M   'P 1'
_cell_length_a   9.65530294
_cell_length_b   9.65530240
_cell_length_c   9.65530118
_cell_angle_alpha   60.17887404
_cell_angle_beta   60.17887714
_cell_angle_gamma   60.17887256
_symmetry_Int_Tables_number   1
_chemical_formula_structural   Y12Ho4Cd4Ir3Pd
_chemical_formula_sum   'Y12 Ho4 Cd4 Ir3 Pd1'
_cell_volume   639.05517757
_cell_formula_units_Z   1
loop_
 _symmetry_equiv_pos_site_id
 _symmetry_equiv_pos_as_xyz
  1  'x, y, z'
loop_
 _atom_site_type_symbol
 _atom_site_label
 _atom_site_symmetry_multiplicity
 _atom_site_fract_x
 _atom_site_fract_y
 _atom_site_fract_z
 _atom_site_occupancy
  Y  Y0  1  0.803894  0.191087  0.191087  1
  Y  Y1  1  0.188960  0.809938  0.809938  1
  Y  Y2  1  0.191087  0.803894  0.191087  1
  Y  Y3  1  0.809938  0.188960  0.809938  1
  Y  Y4  1  0.191087  0.191087  0.803894  1
  Y  Y5  1  0.809938  0.809938  0.188960  1
  Y  Y6  1  0.939047  0.562585  0.562585  1
  Y  Y7  1  0.564140  0.937755  0.937755  1
  Y  Y8  1  0.562585  0.939047  0.562585  1
  Y  Y9  1  0.937755  0.564140  0.937755  1
  Y  Y10  1  0.562585  0.562585  0.939047  1
  Y  Y11  1  0.937755  0.937755  0.564140  1
  Ho  Ho12  1  0.347127  0.347127  0.347127  1
  Ho  Ho13  1  0.353387  0.353387  0.948574  1
  Ho  Ho14  1  0.353387  0.948574  0.353387  1
  Ho  Ho15  1  0.948574  0.353387  0.353387  1
  Cd  Cd16  1  0.580570  0.580570  0.580570  1
  Cd  Cd17  1  0.580598  0.580598  0.256517  1
  Cd  Cd18  1  0.580598  0.256517  0.580598  1
  Cd  Cd19  1  0.256517  0.580598  0.580598  1
  Ir  Ir20  1  0.142393  0.142393  0.571525  1
  Ir  Ir21  1  0.142393  0.571525  0.142393  1
  Ir  Ir22  1  0.571525  0.142393  0.142393  1
  Pd  Pd23  1  0.144165  0.144165  0.144165  1
