# generated using pymatgen
data_Y4TmZn2Sb
_symmetry_space_group_name_H-M   'P 1'
_cell_length_a   8.59052444
_cell_length_b   8.59052545
_cell_length_c   8.59052409
_cell_angle_alpha   123.81263380
_cell_angle_beta   123.81264868
_cell_angle_gamma   83.51414794
_symmetry_Int_Tables_number   1
_chemical_formula_structural   Y4TmZn2Sb
_chemical_formula_sum   'Y8 Tm2 Zn4 Sb2'
_cell_volume   419.49585113
_cell_formula_units_Z   2
loop_
 _symmetry_equiv_pos_site_id
 _symmetry_equiv_pos_as_xyz
  1  'x, y, z'
loop_
 _atom_site_type_symbol
 _atom_site_label
 _atom_site_symmetry_multiplicity
 _atom_site_fract_x
 _atom_site_fract_y
 _atom_site_fract_z
 _atom_site_occupancy
  Y  Y0  1  0.799977  0.299977  0.811726  1
  Y  Y1  1  0.200023  0.700023  0.188274  1
  Y  Y2  1  0.488251  0.988251  0.188274  1
  Y  Y3  1  0.299977  0.488251  0.500000  1
  Y  Y4  1  0.011749  0.200023  0.500000  1
  Y  Y5  1  0.511749  0.011749  0.811726  1
  Y  Y6  1  0.700023  0.511749  0.500000  1
  Y  Y7  1  0.988251  0.799977  0.500000  1
  Tm  Tm8  1  0.000000  0.000000  0.000000  1
  Tm  Tm9  1  0.500000  0.500000  0.000000  1
  Zn  Zn10  1  0.136998  0.636998  0.773994  1
  Zn  Zn11  1  0.863002  0.363002  0.226006  1
  Zn  Zn12  1  0.636998  0.863002  0.500000  1
  Zn  Zn13  1  0.363002  0.136998  0.500000  1
  Sb  Sb14  1  0.250000  0.250000  0.000000  1
  Sb  Sb15  1  0.750000  0.750000  0.000000  1
