# generated using pymatgen
data_K(FeSe)3
_symmetry_space_group_name_H-M   'P 1'
_cell_length_a   8.89850700
_cell_length_b   8.89850715
_cell_length_c   4.27750600
_cell_angle_alpha   90.00000000
_cell_angle_beta   90.00000000
_cell_angle_gamma   120.00000317
_symmetry_Int_Tables_number   1
_chemical_formula_structural   K(FeSe)3
_chemical_formula_sum   'K2 Fe6 Se6'
_cell_volume   293.32936716
_cell_formula_units_Z   2
loop_
 _symmetry_equiv_pos_site_id
 _symmetry_equiv_pos_as_xyz
  1  'x, y, z'
loop_
 _atom_site_type_symbol
 _atom_site_label
 _atom_site_symmetry_multiplicity
 _atom_site_fract_x
 _atom_site_fract_y
 _atom_site_fract_z
 _atom_site_occupancy
  K  K0  1  0.333333  0.666667  0.250000  1
  K  K1  1  0.666667  0.333333  0.750000  1
  Fe  Fe2  1  0.823094  0.972318  0.250000  1
  Fe  Fe3  1  0.149224  0.176906  0.250000  1
  Fe  Fe4  1  0.027682  0.850776  0.250000  1
  Fe  Fe5  1  0.176906  0.027682  0.750000  1
  Fe  Fe6  1  0.972318  0.149224  0.750000  1
  Fe  Fe7  1  0.850776  0.823094  0.750000  1
  Se  Se8  1  0.337458  0.053332  0.250000  1
  Se  Se9  1  0.946668  0.284125  0.250000  1
  Se  Se10  1  0.715875  0.662542  0.250000  1
  Se  Se11  1  0.662542  0.946668  0.750000  1
  Se  Se12  1  0.284125  0.337458  0.750000  1
  Se  Se13  1  0.053332  0.715875  0.750000  1
