# generated using pymatgen
data_KMn(MoO4)2
_symmetry_space_group_name_H-M   'P 1'
_cell_length_a   5.65365701
_cell_length_b   5.73963427
_cell_length_c   14.97839439
_cell_angle_alpha   90.82355412
_cell_angle_beta   90.00411743
_cell_angle_gamma   119.50989646
_symmetry_Int_Tables_number   1
_chemical_formula_structural   KMn(MoO4)2
_chemical_formula_sum   'K2 Mn2 Mo4 O16'
_cell_volume   422.93510324
_cell_formula_units_Z   2
loop_
 _symmetry_equiv_pos_site_id
 _symmetry_equiv_pos_as_xyz
  1  'x, y, z'
loop_
 _atom_site_type_symbol
 _atom_site_label
 _atom_site_symmetry_multiplicity
 _atom_site_fract_x
 _atom_site_fract_y
 _atom_site_fract_z
 _atom_site_occupancy
  K  K0  1  0.076583  0.999801  0.250015  1
  K  K1  1  0.923416  0.000199  0.749985  1
  Mn  Mn2  1  0.000000  0.000000  0.000000  1
  Mn  Mn3  1  0.000000  0.000000  0.500000  1
  Mo  Mo4  1  0.730149  0.360232  0.109626  1
  Mo  Mo5  1  0.369781  0.639776  0.390393  1
  Mo  Mo6  1  0.630219  0.360225  0.609607  1
  Mo  Mo7  1  0.269851  0.639768  0.890375  1
  O  O8  1  0.427213  0.217679  0.045679  1
  O  O9  1  0.953100  0.710441  0.078768  1
  O  O10  1  0.902725  0.159111  0.099126  1
  O  O11  1  0.643525  0.356121  0.221965  1
  O  O12  1  0.287396  0.643948  0.278043  1
  O  O13  1  0.743521  0.840751  0.400897  1
  O  O14  1  0.242498  0.289557  0.421210  1
  O  O15  1  0.209453  0.782352  0.454336  1
  O  O16  1  0.790547  0.217648  0.545664  1
  O  O17  1  0.757503  0.710443  0.578790  1
  O  O18  1  0.256480  0.159249  0.599104  1
  O  O19  1  0.712604  0.356052  0.721957  1
  O  O20  1  0.356475  0.643879  0.778035  1
  O  O21  1  0.097275  0.840889  0.900873  1
  O  O22  1  0.046900  0.289560  0.921232  1
  O  O23  1  0.572787  0.782321  0.954321  1
