# generated using pymatgen
data_Ta3Ti17Si15P
_symmetry_space_group_name_H-M   'P 1'
_cell_length_a   6.69216515
_cell_length_b   6.70442303
_cell_length_c   12.24426188
_cell_angle_alpha   89.95828269
_cell_angle_beta   90.03782741
_cell_angle_gamma   90.03101480
_symmetry_Int_Tables_number   1
_chemical_formula_structural   Ta3Ti17Si15P
_chemical_formula_sum   'Ta3 Ti17 Si15 P1'
_cell_volume   549.36425121
_cell_formula_units_Z   1
loop_
 _symmetry_equiv_pos_site_id
 _symmetry_equiv_pos_as_xyz
  1  'x, y, z'
loop_
 _atom_site_type_symbol
 _atom_site_label
 _atom_site_symmetry_multiplicity
 _atom_site_fract_x
 _atom_site_fract_y
 _atom_site_fract_z
 _atom_site_occupancy
  Ta  Ta0  1  0.168841  0.171672  0.998272  1
  Ta  Ta1  1  0.329112  0.670893  0.250431  1
  Ta  Ta2  1  0.672714  0.329258  0.750346  1
  Ti  Ti3  1  0.996007  0.150430  0.623540  1
  Ti  Ti4  1  0.345306  0.492348  0.870111  1
  Ti  Ti5  1  0.649578  0.504765  0.371603  1
  Ti  Ti6  1  0.494645  0.350401  0.128409  1
  Ti  Ti7  1  0.505259  0.649875  0.629236  1
  Ti  Ti8  1  0.005295  0.850032  0.121450  1
  Ti  Ti9  1  0.150195  0.995123  0.378998  1
  Ti  Ti10  1  0.851556  0.008103  0.876907  1
  Ti  Ti11  1  0.004436  0.345159  0.219567  1
  Ti  Ti12  1  0.156982  0.504546  0.469660  1
  Ti  Ti13  1  0.843402  0.494531  0.968932  1
  Ti  Ti14  1  0.505016  0.155763  0.530878  1
  Ti  Ti15  1  0.494588  0.842579  0.030492  1
  Ti  Ti16  1  0.996041  0.653622  0.720700  1
  Ti  Ti17  1  0.344155  0.004609  0.779707  1
  Ti  Ti18  1  0.656853  0.995326  0.280634  1
  Ti  Ti19  1  0.830239  0.830163  0.500255  1
  Si  Si20  1  0.197714  0.545996  0.062135  1
  Si  Si21  1  0.803106  0.457577  0.561171  1
  Si  Si22  1  0.545209  0.197630  0.938135  1
  Si  Si23  1  0.457465  0.802989  0.438914  1
  Si  Si24  1  0.953154  0.699655  0.314214  1
  Si  Si25  1  0.301408  0.045883  0.187773  1
  Si  Si26  1  0.699690  0.952441  0.685899  1
  Si  Si27  1  0.295313  0.359082  0.669407  1
  Si  Si28  1  0.140625  0.793297  0.921794  1
  Si  Si29  1  0.858636  0.205344  0.423237  1
  Si  Si30  1  0.792560  0.140430  0.078525  1
  Si  Si31  1  0.204329  0.857782  0.577732  1
  Si  Si32  1  0.707364  0.640889  0.171983  1
  Si  Si33  1  0.358896  0.292686  0.328401  1
  Si  Si34  1  0.639141  0.708063  0.829039  1
  P  P35  1  0.045162  0.301051  0.811513  1
