# generated using pymatgen
data_TbEr9Ga3CoBi2
_symmetry_space_group_name_H-M   'P 1'
_cell_length_a   8.55956812
_cell_length_b   8.71431330
_cell_length_c   7.96981329
_cell_angle_alpha   61.51055612
_cell_angle_beta   63.51534592
_cell_angle_gamma   54.94346303
_symmetry_Int_Tables_number   1
_chemical_formula_structural   TbEr9Ga3CoBi2
_chemical_formula_sum   'Tb1 Er9 Ga3 Co1 Bi2'
_cell_volume   415.30099318
_cell_formula_units_Z   1
loop_
 _symmetry_equiv_pos_site_id
 _symmetry_equiv_pos_as_xyz
  1  'x, y, z'
loop_
 _atom_site_type_symbol
 _atom_site_label
 _atom_site_symmetry_multiplicity
 _atom_site_fract_x
 _atom_site_fract_y
 _atom_site_fract_z
 _atom_site_occupancy
  Tb  Tb0  1  0.798432  0.484314  0.515686  1
  Er  Er1  1  0.452393  0.808250  0.191750  1
  Er  Er2  1  0.296016  0.981428  0.722732  1
  Er  Er3  1  0.000177  0.277268  0.018572  1
  Er  Er4  1  0.192892  0.547015  0.452985  1
  Er  Er5  1  0.516053  0.202976  0.797024  1
  Er  Er6  1  0.722626  0.000508  0.295780  1
  Er  Er7  1  0.018914  0.704220  0.999492  1
  Er  Er8  1  0.500277  0.499274  0.999987  1
  Er  Er9  1  0.999537  0.000013  0.500726  1
  Ga  Ga10  1  0.867253  0.132239  0.867761  1
  Ga  Ga11  1  0.641481  0.357429  0.359477  1
  Ga  Ga12  1  0.358386  0.640523  0.642571  1
  Co  Co13  1  0.122253  0.877541  0.122459  1
  Bi  Bi14  1  0.756308  0.743849  0.756844  1
  Bi  Bi15  1  0.257001  0.243156  0.256151  1
