# generated using pymatgen
data_Ac2AsS
_symmetry_space_group_name_H-M   'P 1'
_cell_length_a   7.58750236
_cell_length_b   7.58750256
_cell_length_c   7.58750286
_cell_angle_alpha   34.22733285
_cell_angle_beta   34.22733477
_cell_angle_gamma   34.22732786
_symmetry_Int_Tables_number   1
_chemical_formula_structural   Ac2AsS
_chemical_formula_sum   'Ac2 As1 S1'
_cell_volume   123.23476151
_cell_formula_units_Z   1
loop_
 _symmetry_equiv_pos_site_id
 _symmetry_equiv_pos_as_xyz
  1  'x, y, z'
loop_
 _atom_site_type_symbol
 _atom_site_label
 _atom_site_symmetry_multiplicity
 _atom_site_fract_x
 _atom_site_fract_y
 _atom_site_fract_z
 _atom_site_occupancy
  Ac  Ac0  1  0.249373  0.249373  0.249373  1
  Ac  Ac1  1  0.750627  0.750627  0.750627  1
  As  As2  1  0.000000  0.000000  0.000000  1
  S  S3  1  0.500000  0.500000  0.500000  1
