# generated using pymatgen
data_Ti16Pd7PtO4
_symmetry_space_group_name_H-M   'P 1'
_cell_length_a   8.28371031
_cell_length_b   8.31126259
_cell_length_c   8.31126300
_cell_angle_alpha   59.99999438
_cell_angle_beta   59.88990741
_cell_angle_gamma   59.88990429
_symmetry_Int_Tables_number   1
_chemical_formula_structural   Ti16Pd7PtO4
_chemical_formula_sum   'Ti16 Pd7 Pt1 O4'
_cell_volume   403.94218481
_cell_formula_units_Z   1
loop_
 _symmetry_equiv_pos_site_id
 _symmetry_equiv_pos_as_xyz
  1  'x, y, z'
loop_
 _atom_site_type_symbol
 _atom_site_label
 _atom_site_symmetry_multiplicity
 _atom_site_fract_x
 _atom_site_fract_y
 _atom_site_fract_z
 _atom_site_occupancy
  Ti  Ti0  1  0.123003  0.625666  0.625666  1
  Ti  Ti1  1  0.623236  0.126229  0.625268  1
  Ti  Ti2  1  0.623236  0.625268  0.126229  1
  Ti  Ti3  1  0.623236  0.625268  0.625268  1
  Ti  Ti4  1  0.821192  0.820392  0.179208  1
  Ti  Ti5  1  0.177800  0.178858  0.821671  1
  Ti  Ti6  1  0.821192  0.179208  0.820392  1
  Ti  Ti7  1  0.177800  0.821671  0.178858  1
  Ti  Ti8  1  0.177800  0.821671  0.821671  1
  Ti  Ti9  1  0.821192  0.179208  0.179208  1
  Ti  Ti10  1  0.427563  0.428392  0.072022  1
  Ti  Ti11  1  0.072032  0.068046  0.429961  1
  Ti  Ti12  1  0.427563  0.072022  0.428392  1
  Ti  Ti13  1  0.072032  0.429961  0.068046  1
  Ti  Ti14  1  0.072032  0.429961  0.429961  1
  Ti  Ti15  1  0.427563  0.072022  0.072022  1
  Pd  Pd16  1  0.410967  0.764207  0.412414  1
  Pd  Pd17  1  0.410967  0.412414  0.764207  1
  Pd  Pd18  1  0.410967  0.412414  0.412414  1
  Pd  Pd19  1  0.483368  0.838877  0.838877  1
  Pd  Pd20  1  0.837508  0.484397  0.839047  1
  Pd  Pd21  1  0.837508  0.839047  0.484397  1
  Pd  Pd22  1  0.837508  0.839047  0.839047  1
  Pt  Pt23  1  0.780983  0.406339  0.406339  1
  O  O24  1  0.625384  0.124872  0.124872  1
  O  O25  1  0.125456  0.625596  0.124474  1
  O  O26  1  0.125456  0.124474  0.625596  1
  O  O27  1  0.125456  0.124474  0.124474  1
