# generated using pymatgen
data_Sr2Sb4IrPt3
_symmetry_space_group_name_H-M   'P 1'
_cell_length_a   4.76034200
_cell_length_b   4.76034200
_cell_length_c   10.40694800
_cell_angle_alpha   90.00000000
_cell_angle_beta   90.00000000
_cell_angle_gamma   90.00000000
_symmetry_Int_Tables_number   1
_chemical_formula_structural   Sr2Sb4IrPt3
_chemical_formula_sum   'Sr2 Sb4 Ir1 Pt3'
_cell_volume   235.83034958
_cell_formula_units_Z   1
loop_
 _symmetry_equiv_pos_site_id
 _symmetry_equiv_pos_as_xyz
  1  'x, y, z'
loop_
 _atom_site_type_symbol
 _atom_site_label
 _atom_site_symmetry_multiplicity
 _atom_site_fract_x
 _atom_site_fract_y
 _atom_site_fract_z
 _atom_site_occupancy
  Sr  Sr0  1  0.000000  0.500001  0.241182  1
  Sr  Sr1  1  0.500001  0.000000  0.755687  1
  Sb  Sb2  1  0.500001  0.000000  0.131516  1
  Sb  Sb3  1  0.000000  0.000000  0.496155  1
  Sb  Sb4  1  0.500001  0.500001  0.496155  1
  Sb  Sb5  1  0.000000  0.500001  0.875555  1
  Ir  Ir6  1  0.500001  0.000000  0.381926  1
  Pt  Pt7  1  0.000000  0.000000  0.000685  1
  Pt  Pt8  1  0.500001  0.500001  0.000685  1
  Pt  Pt9  1  0.000000  0.500001  0.620454  1
