# generated using pymatgen
data_BaAl6Ag7
_symmetry_space_group_name_H-M   'P 1'
_cell_length_a   9.12129156
_cell_length_b   9.15545490
_cell_length_c   9.13983923
_cell_angle_alpha   59.80846576
_cell_angle_beta   60.10536957
_cell_angle_gamma   60.01179115
_symmetry_Int_Tables_number   1
_chemical_formula_structural   BaAl6Ag7
_chemical_formula_sum   'Ba2 Al12 Ag14'
_cell_volume   539.39822827
_cell_formula_units_Z   2
loop_
 _symmetry_equiv_pos_site_id
 _symmetry_equiv_pos_as_xyz
  1  'x, y, z'
loop_
 _atom_site_type_symbol
 _atom_site_label
 _atom_site_symmetry_multiplicity
 _atom_site_fract_x
 _atom_site_fract_y
 _atom_site_fract_z
 _atom_site_occupancy
  Ba  Ba0  1  0.749877  0.751786  0.748226  1
  Ba  Ba1  1  0.251767  0.249887  0.250129  1
  Al  Al2  1  0.997325  0.998824  0.002675  1
  Al  Al3  1  0.203057  0.796858  0.438081  1
  Al  Al4  1  0.798382  0.561337  0.436351  1
  Al  Al5  1  0.561919  0.437995  0.796945  1
  Al  Al6  1  0.563649  0.796071  0.201616  1
  Al  Al7  1  0.796691  0.204944  0.560959  1
  Al  Al8  1  0.436420  0.205287  0.792123  1
  Al  Al9  1  0.439042  0.562594  0.203307  1
  Al  Al10  1  0.207878  0.433828  0.563580  1
  Al  Al11  1  0.793366  0.433257  0.206633  1
  Al  Al12  1  0.437469  0.803152  0.562531  1
  Al  Al13  1  0.203188  0.563241  0.796813  1
  Ag  Ag14  1  0.498394  0.510956  0.501606  1
  Ag  Ag15  1  0.557930  0.209851  0.442070  1
  Ag  Ag16  1  0.061080  0.934142  0.695134  1
  Ag  Ag17  1  0.698223  0.931976  0.301777  1
  Ag  Ag18  1  0.304861  0.690358  0.938916  1
  Ag  Ag19  1  0.294854  0.058753  0.705145  1
  Ag  Ag20  1  0.943801  0.063224  0.300860  1
  Ag  Ag21  1  0.065982  0.306490  0.934016  1
  Ag  Ag22  1  0.064780  0.691680  0.308250  1
  Ag  Ag23  1  0.691752  0.064711  0.935218  1
  Ag  Ag24  1  0.935874  0.306105  0.691930  1
  Ag  Ag25  1  0.308064  0.933913  0.064127  1
  Ag  Ag26  1  0.699146  0.307880  0.056202  1
  Ag  Ag27  1  0.935226  0.690899  0.064776  1
