# generated using pymatgen
data_Ho8Ti11ReSi15As
_symmetry_space_group_name_H-M   'P 1'
_cell_length_a   7.01506670
_cell_length_b   7.01287556
_cell_length_c   12.88635191
_cell_angle_alpha   89.96424534
_cell_angle_beta   89.89564961
_cell_angle_gamma   89.96624921
_symmetry_Int_Tables_number   1
_chemical_formula_structural   Ho8Ti11ReSi15As
_chemical_formula_sum   'Ho8 Ti11 Re1 Si15 As1'
_cell_volume   633.95297519
_cell_formula_units_Z   1
loop_
 _symmetry_equiv_pos_site_id
 _symmetry_equiv_pos_as_xyz
  1  'x, y, z'
loop_
 _atom_site_type_symbol
 _atom_site_label
 _atom_site_symmetry_multiplicity
 _atom_site_fract_x
 _atom_site_fract_y
 _atom_site_fract_z
 _atom_site_occupancy
  Ho  Ho0  1  0.341795  0.001951  0.466295  1
  Ho  Ho1  1  0.497441  0.842257  0.718078  1
  Ho  Ho2  1  0.500385  0.159464  0.215201  1
  Ho  Ho3  1  0.840559  0.497232  0.282467  1
  Ho  Ho4  1  0.159724  0.499750  0.784642  1
  Ho  Ho5  1  0.659426  0.996706  0.968374  1
  Ho  Ho6  1  0.000245  0.343518  0.531739  1
  Ho  Ho7  1  0.998983  0.658082  0.032548  1
  Ti  Ti8  1  0.174120  0.827593  0.249241  1
  Ti  Ti9  1  0.824383  0.174458  0.750970  1
  Ti  Ti10  1  0.673184  0.672781  0.500048  1
  Ti  Ti11  1  0.154874  0.008577  0.876181  1
  Ti  Ti12  1  0.491937  0.651989  0.124263  1
  Ti  Ti13  1  0.507648  0.347901  0.627457  1
  Ti  Ti14  1  0.654156  0.494825  0.875961  1
  Ti  Ti15  1  0.347648  0.506634  0.373555  1
  Ti  Ti16  1  0.847607  0.993277  0.375539  1
  Ti  Ti17  1  0.007700  0.153186  0.123650  1
  Ti  Ti18  1  0.990728  0.844397  0.623552  1
  Re  Re19  1  0.326243  0.326417  0.999948  1
  Si  Si20  1  0.369636  0.700642  0.933734  1
  Si  Si21  1  0.630124  0.297512  0.434260  1
  Si  Si22  1  0.700300  0.370075  0.066189  1
  Si  Si23  1  0.297163  0.630911  0.566164  1
  Si  Si24  1  0.797155  0.868886  0.184128  1
  Si  Si25  1  0.131036  0.202543  0.316096  1
  Si  Si26  1  0.869868  0.797453  0.815889  1
  Si  Si27  1  0.290346  0.954304  0.064765  1
  Si  Si28  1  0.547068  0.791191  0.314919  1
  Si  Si29  1  0.459653  0.210794  0.820659  1
  Si  Si30  1  0.791110  0.546891  0.684928  1
  Si  Si31  1  0.208898  0.451443  0.183687  1
  Si  Si32  1  0.708039  0.047138  0.564765  1
  Si  Si33  1  0.954589  0.290236  0.935352  1
  Si  Si34  1  0.047499  0.708848  0.434520  1
  As  As35  1  0.198728  0.130135  0.680237  1
