# generated using pymatgen
data_TbErMn12P7
_symmetry_space_group_name_H-M   'P 1'
_cell_length_a   9.29586200
_cell_length_b   9.29586281
_cell_length_c   3.59052100
_cell_angle_alpha   90.00000000
_cell_angle_beta   90.00000000
_cell_angle_gamma   120.00000423
_symmetry_Int_Tables_number   1
_chemical_formula_structural   TbErMn12P7
_chemical_formula_sum   'Tb1 Er1 Mn12 P7'
_cell_volume   268.69987095
_cell_formula_units_Z   1
loop_
 _symmetry_equiv_pos_site_id
 _symmetry_equiv_pos_as_xyz
  1  'x, y, z'
loop_
 _atom_site_type_symbol
 _atom_site_label
 _atom_site_symmetry_multiplicity
 _atom_site_fract_x
 _atom_site_fract_y
 _atom_site_fract_z
 _atom_site_occupancy
  Tb  Tb0  1  0.000000  0.000000  0.500000  1
  Er  Er1  1  0.333333  0.666667  0.000000  1
  Mn  Mn2  1  0.043432  0.284923  0.000000  1
  Mn  Mn3  1  0.715077  0.758510  0.000000  1
  Mn  Mn4  1  0.241490  0.956568  0.000000  1
  Mn  Mn5  1  0.546961  0.056789  0.000000  1
  Mn  Mn6  1  0.943211  0.490172  0.000000  1
  Mn  Mn7  1  0.509828  0.453039  0.000000  1
  Mn  Mn8  1  0.621221  0.896251  0.500000  1
  Mn  Mn9  1  0.103749  0.724971  0.500000  1
  Mn  Mn10  1  0.275029  0.378779  0.500000  1
  Mn  Mn11  1  0.791525  0.229855  0.500000  1
  Mn  Mn12  1  0.770145  0.561670  0.500000  1
  Mn  Mn13  1  0.438330  0.208475  0.500000  1
  P  P14  1  0.786365  0.042488  0.000000  1
  P  P15  1  0.957512  0.743877  0.000000  1
  P  P16  1  0.256123  0.213635  0.000000  1
  P  P17  1  0.385184  0.924199  0.500000  1
  P  P18  1  0.075801  0.460987  0.500000  1
  P  P19  1  0.539013  0.614816  0.500000  1
  P  P20  1  0.666667  0.333333  0.000000  1
