# generated using pymatgen
data_La3TbIn2Ir3
_symmetry_space_group_name_H-M   'P 1'
_cell_length_a   7.58997800
_cell_length_b   7.75510591
_cell_length_c   4.27845000
_cell_angle_alpha   90.00000000
_cell_angle_beta   90.00000000
_cell_angle_gamma   119.29812141
_symmetry_Int_Tables_number   1
_chemical_formula_structural   La3TbIn2Ir3
_chemical_formula_sum   'La3 Tb1 In2 Ir3'
_cell_volume   219.62090967
_cell_formula_units_Z   1
loop_
 _symmetry_equiv_pos_site_id
 _symmetry_equiv_pos_as_xyz
  1  'x, y, z'
loop_
 _atom_site_type_symbol
 _atom_site_label
 _atom_site_symmetry_multiplicity
 _atom_site_fract_x
 _atom_site_fract_y
 _atom_site_fract_z
 _atom_site_occupancy
  La  La0  1  0.608937  0.000000  0.000000  1
  La  La1  1  0.981886  0.563811  0.000000  1
  La  La2  1  0.418076  0.436189  0.000000  1
  Tb  Tb3  1  0.240143  0.000000  0.500000  1
  In  In4  1  0.004041  0.250231  0.500000  1
  In  In5  1  0.753810  0.749769  0.500000  1
  Ir  Ir6  1  0.333009  0.668479  0.500000  1
  Ir  Ir7  1  0.664530  0.331521  0.500000  1
  Ir  Ir8  1  0.995569  0.000000  0.000000  1
