# generated using pymatgen
data_Sm2TmCoSn6
_symmetry_space_group_name_H-M   'P 1'
_cell_length_a   8.45462104
_cell_length_b   8.45462103
_cell_length_c   13.27275700
_cell_angle_alpha   90.00000000
_cell_angle_beta   90.00000000
_cell_angle_gamma   148.54621941
_symmetry_Int_Tables_number   1
_chemical_formula_structural   Sm2TmCoSn6
_chemical_formula_sum   'Sm4 Tm2 Co2 Sn12'
_cell_volume   495.06510991
_cell_formula_units_Z   2
loop_
 _symmetry_equiv_pos_site_id
 _symmetry_equiv_pos_as_xyz
  1  'x, y, z'
loop_
 _atom_site_type_symbol
 _atom_site_label
 _atom_site_symmetry_multiplicity
 _atom_site_fract_x
 _atom_site_fract_y
 _atom_site_fract_z
 _atom_site_occupancy
  Sm  Sm0  1  0.900550  0.099450  0.093171  1
  Sm  Sm1  1  0.099450  0.900550  0.593171  1
  Sm  Sm2  1  0.099450  0.900550  0.906829  1
  Sm  Sm3  1  0.900550  0.099450  0.406829  1
  Tm  Tm4  1  0.899638  0.100362  0.750000  1
  Tm  Tm5  1  0.100362  0.899638  0.250000  1
  Co  Co6  1  0.296574  0.703426  0.250000  1
  Co  Co7  1  0.703426  0.296574  0.750000  1
  Sn  Sn8  1  0.755310  0.244690  0.571477  1
  Sn  Sn9  1  0.426867  0.573133  0.578468  1
  Sn  Sn10  1  0.573133  0.426867  0.421532  1
  Sn  Sn11  1  0.731801  0.268199  0.250000  1
  Sn  Sn12  1  0.268199  0.731801  0.750000  1
  Sn  Sn13  1  0.244690  0.755310  0.071477  1
  Sn  Sn14  1  0.244690  0.755310  0.428523  1
  Sn  Sn15  1  0.573133  0.426867  0.078468  1
  Sn  Sn16  1  0.453326  0.546674  0.250000  1
  Sn  Sn17  1  0.546674  0.453326  0.750000  1
  Sn  Sn18  1  0.755310  0.244690  0.928523  1
  Sn  Sn19  1  0.426867  0.573133  0.921532  1
