# generated using pymatgen
data_CeMn3Sb12Os
_symmetry_space_group_name_H-M   'P 1'
_cell_length_a   8.13866522
_cell_length_b   8.14016092
_cell_length_c   8.13866500
_cell_angle_alpha   109.47496116
_cell_angle_beta   109.46750654
_cell_angle_gamma   109.47495170
_symmetry_Int_Tables_number   1
_chemical_formula_structural   CeMn3Sb12Os
_chemical_formula_sum   'Ce1 Mn3 Sb12 Os1'
_cell_volume   415.04703322
_cell_formula_units_Z   1
loop_
 _symmetry_equiv_pos_site_id
 _symmetry_equiv_pos_as_xyz
  1  'x, y, z'
loop_
 _atom_site_type_symbol
 _atom_site_label
 _atom_site_symmetry_multiplicity
 _atom_site_fract_x
 _atom_site_fract_y
 _atom_site_fract_z
 _atom_site_occupancy
  Ce  Ce0  1  0.000000  0.000000  0.000000  1
  Mn  Mn1  1  0.500000  0.500000  0.500000  1
  Mn  Mn2  1  0.500000  0.000000  0.000000  1
  Mn  Mn3  1  0.000000  0.000000  0.500000  1
  Sb  Sb4  1  0.161790  0.493671  0.338426  1
  Sb  Sb5  1  0.505966  0.666160  0.840596  1
  Sb  Sb6  1  0.338426  0.844754  0.176637  1
  Sb  Sb7  1  0.823363  0.668118  0.161790  1
  Sb  Sb8  1  0.665370  0.839805  0.505966  1
  Sb  Sb9  1  0.176637  0.331882  0.838210  1
  Sb  Sb10  1  0.661574  0.155246  0.823363  1
  Sb  Sb11  1  0.334630  0.160195  0.494034  1
  Sb  Sb12  1  0.494034  0.333840  0.159404  1
  Sb  Sb13  1  0.838210  0.506329  0.661574  1
  Sb  Sb14  1  0.840596  0.174437  0.334630  1
  Sb  Sb15  1  0.159404  0.825563  0.665370  1
  Os  Os16  1  0.000000  0.500000  0.000000  1
