# generated using pymatgen
data_Sc4Cr3Fe9(Co2P3)4
_symmetry_space_group_name_H-M   'P 1'
_cell_length_a   3.59387300
_cell_length_b   10.12234540
_cell_length_c   11.69581873
_cell_angle_alpha   90.09346694
_cell_angle_beta   90.00000000
_cell_angle_gamma   90.00000000
_symmetry_Int_Tables_number   1
_chemical_formula_structural   Sc4Cr3Fe9(Co2P3)4
_chemical_formula_sum   'Sc4 Cr3 Fe9 Co8 P12'
_cell_volume   425.47488475
_cell_formula_units_Z   1
loop_
 _symmetry_equiv_pos_site_id
 _symmetry_equiv_pos_as_xyz
  1  'x, y, z'
loop_
 _atom_site_type_symbol
 _atom_site_label
 _atom_site_symmetry_multiplicity
 _atom_site_fract_x
 _atom_site_fract_y
 _atom_site_fract_z
 _atom_site_occupancy
  Sc  Sc0  1  0.250000  0.579703  0.704585  1
  Sc  Sc1  1  0.250000  0.919553  0.205038  1
  Sc  Sc2  1  0.750000  0.419780  0.294243  1
  Sc  Sc3  1  0.750000  0.080286  0.795064  1
  Cr  Cr4  1  0.250000  0.705058  0.989589  1
  Cr  Cr5  1  0.250000  0.794160  0.489490  1
  Cr  Cr6  1  0.750000  0.295246  0.009101  1
  Fe  Fe7  1  0.750000  0.208685  0.508584  1
  Fe  Fe8  1  0.250000  0.406119  0.487423  1
  Fe  Fe9  1  0.250000  0.093226  0.988248  1
  Fe  Fe10  1  0.250000  0.220080  0.176429  1
  Fe  Fe11  1  0.250000  0.278538  0.673318  1
  Fe  Fe12  1  0.250000  0.880133  0.699548  1
  Fe  Fe13  1  0.250000  0.620213  0.199690  1
  Fe  Fe14  1  0.250000  0.464456  0.932152  1
  Fe  Fe15  1  0.250000  0.037115  0.433993  1
  Co  Co16  1  0.750000  0.594724  0.515064  1
  Co  Co17  1  0.750000  0.904811  0.016025  1
  Co  Co18  1  0.750000  0.779079  0.826651  1
  Co  Co19  1  0.750000  0.722199  0.326546  1
  Co  Co20  1  0.750000  0.116765  0.299799  1
  Co  Co21  1  0.750000  0.382056  0.797006  1
  Co  Co22  1  0.750000  0.536680  0.066077  1
  Co  Co23  1  0.750000  0.964887  0.566402  1
  P  P24  1  0.250000  0.421060  0.116831  1
  P  P25  1  0.250000  0.079183  0.616653  1
  P  P26  1  0.750000  0.577847  0.882865  1
  P  P27  1  0.750000  0.922494  0.383853  1
  P  P28  1  0.250000  0.262580  0.863940  1
  P  P29  1  0.250000  0.237397  0.366921  1
  P  P30  1  0.750000  0.734598  0.136923  1
  P  P31  1  0.750000  0.765786  0.637066  1
  P  P32  1  0.250000  0.593603  0.388527  1
  P  P33  1  0.250000  0.905684  0.889142  1
  P  P34  1  0.750000  0.398022  0.606691  1
  P  P35  1  0.750000  0.098194  0.110520  1
