# generated using pymatgen
data_Tb2Dy2ReTcC4
_symmetry_space_group_name_H-M   'P 1'
_cell_length_a   5.11518100
_cell_length_b   6.59777300
_cell_length_c   9.90320700
_cell_angle_alpha   90.00000000
_cell_angle_beta   90.00000000
_cell_angle_gamma   90.00000000
_symmetry_Int_Tables_number   1
_chemical_formula_structural   Tb2Dy2ReTcC4
_chemical_formula_sum   'Tb4 Dy4 Re2 Tc2 C8'
_cell_volume   334.22138302
_cell_formula_units_Z   2
loop_
 _symmetry_equiv_pos_site_id
 _symmetry_equiv_pos_as_xyz
  1  'x, y, z'
loop_
 _atom_site_type_symbol
 _atom_site_label
 _atom_site_symmetry_multiplicity
 _atom_site_fract_x
 _atom_site_fract_y
 _atom_site_fract_z
 _atom_site_occupancy
  Tb  Tb0  1  0.750000  0.467654  0.784196  1
  Tb  Tb1  1  0.250000  0.032346  0.284196  1
  Tb  Tb2  1  0.750000  0.968338  0.714970  1
  Tb  Tb3  1  0.250000  0.531662  0.214970  1
  Dy  Dy4  1  0.750000  0.821964  0.056025  1
  Dy  Dy5  1  0.250000  0.678036  0.556025  1
  Dy  Dy6  1  0.750000  0.320873  0.442781  1
  Dy  Dy7  1  0.250000  0.179127  0.942781  1
  Re  Re8  1  0.750000  0.778993  0.364758  1
  Re  Re9  1  0.250000  0.721007  0.864758  1
  Tc  Tc10  1  0.750000  0.278180  0.134996  1
  Tc  Tc11  1  0.250000  0.221820  0.634996  1
  C  C12  1  0.750000  0.177369  0.953078  1
  C  C13  1  0.250000  0.821839  0.047938  1
  C  C14  1  0.750000  0.678161  0.547938  1
  C  C15  1  0.250000  0.322631  0.453078  1
  C  C16  1  0.750000  0.044551  0.259675  1
  C  C17  1  0.250000  0.455449  0.759675  1
  C  C18  1  0.750000  0.546490  0.241582  1
  C  C19  1  0.250000  0.953510  0.741582  1
