# generated using pymatgen
data_Er(NbCl3)6
_symmetry_space_group_name_H-M   'P 1'
_cell_length_a   10.15984105
_cell_length_b   10.15984168
_cell_length_c   10.15984133
_cell_angle_alpha   55.96190466
_cell_angle_beta   55.96190427
_cell_angle_gamma   55.96190218
_symmetry_Int_Tables_number   1
_chemical_formula_structural   Er(NbCl3)6
_chemical_formula_sum   'Er1 Nb6 Cl18'
_cell_volume   672.17372952
_cell_formula_units_Z   1
loop_
 _symmetry_equiv_pos_site_id
 _symmetry_equiv_pos_as_xyz
  1  'x, y, z'
loop_
 _atom_site_type_symbol
 _atom_site_label
 _atom_site_symmetry_multiplicity
 _atom_site_fract_x
 _atom_site_fract_y
 _atom_site_fract_z
 _atom_site_occupancy
  Er  Er0  1  0.000000  0.000000  0.000000  1
  Nb  Nb1  1  0.407709  0.299007  0.650855  1
  Nb  Nb2  1  0.349145  0.592291  0.700993  1
  Nb  Nb3  1  0.700993  0.349145  0.592291  1
  Nb  Nb4  1  0.299007  0.650855  0.407709  1
  Nb  Nb5  1  0.650855  0.407709  0.299007  1
  Nb  Nb6  1  0.592291  0.700993  0.349145  1
  Cl  Cl7  1  0.568894  0.160674  0.441715  1
  Cl  Cl8  1  0.223609  0.369978  0.909502  1
  Cl  Cl9  1  0.909502  0.223609  0.369978  1
  Cl  Cl10  1  0.369978  0.909502  0.223609  1
  Cl  Cl11  1  0.776391  0.630022  0.090498  1
  Cl  Cl12  1  0.090498  0.776391  0.630022  1
  Cl  Cl13  1  0.705302  0.958410  0.158815  1
  Cl  Cl14  1  0.958410  0.158815  0.705302  1
  Cl  Cl15  1  0.158815  0.705302  0.958410  1
  Cl  Cl16  1  0.294698  0.041590  0.841185  1
  Cl  Cl17  1  0.041590  0.841185  0.294698  1
  Cl  Cl18  1  0.841185  0.294698  0.041590  1
  Cl  Cl19  1  0.558285  0.431106  0.839326  1
  Cl  Cl20  1  0.160674  0.441715  0.568894  1
  Cl  Cl21  1  0.441715  0.568894  0.160674  1
  Cl  Cl22  1  0.431106  0.839326  0.558285  1
  Cl  Cl23  1  0.839326  0.558285  0.431106  1
  Cl  Cl24  1  0.630022  0.090498  0.776391  1
