# generated using pymatgen
data_Ce4Ga6Ir7
_symmetry_space_group_name_H-M   'P 1'
_cell_length_a   7.33433328
_cell_length_b   7.33433305
_cell_length_c   7.33433400
_cell_angle_alpha   109.47121497
_cell_angle_beta   109.47121433
_cell_angle_gamma   109.47122757
_symmetry_Int_Tables_number   1
_chemical_formula_structural   Ce4Ga6Ir7
_chemical_formula_sum   'Ce4 Ga6 Ir7'
_cell_volume   303.71069673
_cell_formula_units_Z   1
loop_
 _symmetry_equiv_pos_site_id
 _symmetry_equiv_pos_as_xyz
  1  'x, y, z'
loop_
 _atom_site_type_symbol
 _atom_site_label
 _atom_site_symmetry_multiplicity
 _atom_site_fract_x
 _atom_site_fract_y
 _atom_site_fract_z
 _atom_site_occupancy
  Ce  Ce0  1  0.000000  0.000000  0.500000  1
  Ce  Ce1  1  0.000000  0.500000  0.000000  1
  Ce  Ce2  1  0.500000  0.000000  0.000000  1
  Ce  Ce3  1  0.500000  0.500000  0.500000  1
  Ga  Ga4  1  0.685931  0.685931  0.000000  1
  Ga  Ga5  1  0.314069  0.000000  0.314069  1
  Ga  Ga6  1  0.000000  0.314069  0.314069  1
  Ga  Ga7  1  0.314069  0.314069  0.000000  1
  Ga  Ga8  1  0.685931  0.000000  0.685931  1
  Ga  Ga9  1  0.000000  0.685931  0.685931  1
  Ir  Ir10  1  0.750000  0.250000  0.500000  1
  Ir  Ir11  1  0.750000  0.500000  0.250000  1
  Ir  Ir12  1  0.500000  0.250000  0.750000  1
  Ir  Ir13  1  0.250000  0.500000  0.750000  1
  Ir  Ir14  1  0.250000  0.750000  0.500000  1
  Ir  Ir15  1  0.500000  0.750000  0.250000  1
  Ir  Ir16  1  0.000000  0.000000  0.000000  1
