# generated using pymatgen
data_La8Nd9Lu3Sn16
_symmetry_space_group_name_H-M   'P 1'
_cell_length_a   8.21125800
_cell_length_b   8.42919279
_cell_length_c   16.00350200
_cell_angle_alpha   90.00000000
_cell_angle_beta   90.00000000
_cell_angle_gamma   89.86104939
_symmetry_Int_Tables_number   1
_chemical_formula_structural   La8Nd9Lu3Sn16
_chemical_formula_sum   'La8 Nd9 Lu3 Sn16'
_cell_volume   1107.66755846
_cell_formula_units_Z   1
loop_
 _symmetry_equiv_pos_site_id
 _symmetry_equiv_pos_as_xyz
  1  'x, y, z'
loop_
 _atom_site_type_symbol
 _atom_site_label
 _atom_site_symmetry_multiplicity
 _atom_site_fract_x
 _atom_site_fract_y
 _atom_site_fract_z
 _atom_site_occupancy
  La  La0  1  0.507685  0.319389  0.903231  1
  La  La1  1  0.005865  0.179043  0.597013  1
  La  La2  1  0.493236  0.679363  0.402290  1
  La  La3  1  0.993860  0.820313  0.097424  1
  La  La4  1  0.493236  0.679363  0.097710  1
  La  La5  1  0.993860  0.820313  0.402576  1
  La  La6  1  0.507685  0.319389  0.596769  1
  La  La7  1  0.005865  0.179043  0.902987  1
  Nd  Nd8  1  0.350697  0.836410  0.877512  1
  Nd  Nd9  1  0.848716  0.664970  0.622624  1
  Nd  Nd10  1  0.650448  0.164131  0.376664  1
  Nd  Nd11  1  0.151100  0.336442  0.124130  1
  Nd  Nd12  1  0.650448  0.164131  0.123336  1
  Nd  Nd13  1  0.151100  0.336442  0.375870  1
  Nd  Nd14  1  0.350697  0.836410  0.622488  1
  Nd  Nd15  1  0.848716  0.664970  0.877376  1
  Nd  Nd16  1  0.181035  0.499609  0.750000  1
  Lu  Lu17  1  0.683224  0.999197  0.750000  1
  Lu  Lu18  1  0.816039  0.499941  0.250000  1
  Lu  Lu19  1  0.316114  0.999751  0.250000  1
  Sn  Sn20  1  0.309569  0.037058  0.044504  1
  Sn  Sn21  1  0.810145  0.462859  0.455712  1
  Sn  Sn22  1  0.689968  0.963382  0.543658  1
  Sn  Sn23  1  0.190389  0.538902  0.958986  1
  Sn  Sn24  1  0.689968  0.963382  0.956342  1
  Sn  Sn25  1  0.190389  0.538902  0.541014  1
  Sn  Sn26  1  0.309569  0.037058  0.455496  1
  Sn  Sn27  1  0.810145  0.462859  0.044288  1
  Sn  Sn28  1  0.549659  0.617872  0.750000  1
  Sn  Sn29  1  0.044020  0.885114  0.750000  1
  Sn  Sn30  1  0.455827  0.383513  0.250000  1
  Sn  Sn31  1  0.954947  0.116522  0.250000  1
  Sn  Sn32  1  0.312857  0.141436  0.750000  1
  Sn  Sn33  1  0.808436  0.351734  0.750000  1
  Sn  Sn34  1  0.687538  0.852891  0.250000  1
  Sn  Sn35  1  0.186949  0.647898  0.250000  1
