# generated using pymatgen
data_HoTm11Co5Sn
_symmetry_space_group_name_H-M   'P 1'
_cell_length_a   8.15982231
_cell_length_b   8.15982260
_cell_length_c   8.15743353
_cell_angle_alpha   110.89353013
_cell_angle_beta   110.77815656
_cell_angle_gamma   106.78763179
_symmetry_Int_Tables_number   1
_chemical_formula_structural   HoTm11Co5Sn
_chemical_formula_sum   'Ho1 Tm11 Co5 Sn1'
_cell_volume   417.36067244
_cell_formula_units_Z   1
loop_
 _symmetry_equiv_pos_site_id
 _symmetry_equiv_pos_as_xyz
  1  'x, y, z'
loop_
 _atom_site_type_symbol
 _atom_site_label
 _atom_site_symmetry_multiplicity
 _atom_site_fract_x
 _atom_site_fract_y
 _atom_site_fract_z
 _atom_site_occupancy
  Ho  Ho0  1  0.288430  0.185564  0.473994  1
  Tm  Tm1  1  0.711735  0.815087  0.526822  1
  Tm  Tm2  1  0.288021  0.813800  0.101821  1
  Tm  Tm3  1  0.712291  0.185415  0.897706  1
  Tm  Tm4  1  0.620082  0.313922  0.305240  1
  Tm  Tm5  1  0.380407  0.686940  0.694793  1
  Tm  Tm6  1  0.007853  0.314387  0.694793  1
  Tm  Tm7  1  0.991318  0.685156  0.305240  1
  Tm  Tm8  1  0.211750  0.405935  0.192973  1
  Tm  Tm9  1  0.788745  0.595035  0.806975  1
  Tm  Tm10  1  0.211941  0.018230  0.806975  1
  Tm  Tm11  1  0.787036  0.981222  0.192973  1
  Co  Co12  1  0.999687  0.375025  0.374711  1
  Co  Co13  1  0.999781  0.625173  0.624954  1
  Co  Co14  1  0.387577  0.886493  0.500239  1
  Co  Co15  1  0.613746  0.112662  0.500239  1
  Co  Co16  1  0.999534  0.999855  0.999389  1
  Sn  Sn17  1  0.500067  0.500099  0.000166  1
