# generated using pymatgen
data_Ca3Y4HoHg8
_symmetry_space_group_name_H-M   'P 1'
_cell_length_a   7.46836000
_cell_length_b   7.49610800
_cell_length_c   7.50023800
_cell_angle_alpha   90.00000000
_cell_angle_beta   90.00405745
_cell_angle_gamma   90.00000000
_symmetry_Int_Tables_number   1
_chemical_formula_structural   Ca3Y4HoHg8
_chemical_formula_sum   'Ca3 Y4 Ho1 Hg8'
_cell_volume   419.89057215
_cell_formula_units_Z   1
loop_
 _symmetry_equiv_pos_site_id
 _symmetry_equiv_pos_as_xyz
  1  'x, y, z'
loop_
 _atom_site_type_symbol
 _atom_site_label
 _atom_site_symmetry_multiplicity
 _atom_site_fract_x
 _atom_site_fract_y
 _atom_site_fract_z
 _atom_site_occupancy
  Ca  Ca0  1  0.249465  0.750000  0.499908  1
  Ca  Ca1  1  0.750603  0.250000  0.500087  1
  Ca  Ca2  1  0.250551  0.750000  0.999912  1
  Y  Y3  1  0.250865  0.250000  0.000010  1
  Y  Y4  1  0.749193  0.750000  0.999990  1
  Y  Y5  1  0.750807  0.750000  0.499994  1
  Y  Y6  1  0.249214  0.250000  0.500011  1
  Ho  Ho7  1  0.749408  0.250000  0.000094  1
  Hg  Hg8  1  0.997685  0.497630  0.247012  1
  Hg  Hg9  1  0.997685  0.002372  0.247012  1
  Hg  Hg10  1  0.502603  0.002552  0.249431  1
  Hg  Hg11  1  0.502603  0.497448  0.249431  1
  Hg  Hg12  1  0.502281  0.497673  0.750557  1
  Hg  Hg13  1  0.502281  0.002329  0.750557  1
  Hg  Hg14  1  0.997378  0.002566  0.752997  1
  Hg  Hg15  1  0.997378  0.497434  0.752997  1
