# generated using pymatgen
data_Y19HoPb16
_symmetry_space_group_name_H-M   'P 1'
_cell_length_a   8.23553708
_cell_length_b   15.70469300
_cell_length_c   8.30832508
_cell_angle_alpha   90.00000000
_cell_angle_beta   90.01548766
_cell_angle_gamma   90.00000000
_symmetry_Int_Tables_number   1
_chemical_formula_structural   Y19HoPb16
_chemical_formula_sum   'Y19 Ho1 Pb16'
_cell_volume   1074.57032369
_cell_formula_units_Z   1
loop_
 _symmetry_equiv_pos_site_id
 _symmetry_equiv_pos_as_xyz
  1  'x, y, z'
loop_
 _atom_site_type_symbol
 _atom_site_label
 _atom_site_symmetry_multiplicity
 _atom_site_fract_x
 _atom_site_fract_y
 _atom_site_fract_z
 _atom_site_occupancy
  Y  Y0  1  0.623054  0.620629  0.158742  1
  Y  Y1  1  0.123023  0.879271  0.341166  1
  Y  Y2  1  0.377163  0.120822  0.841385  1
  Y  Y3  1  0.876840  0.379184  0.658921  1
  Y  Y4  1  0.377163  0.379178  0.841385  1
  Y  Y5  1  0.876840  0.120816  0.658921  1
  Y  Y6  1  0.623054  0.879371  0.158742  1
  Y  Y7  1  0.123023  0.620729  0.341166  1
  Y  Y8  1  0.465237  0.600084  0.675950  1
  Y  Y9  1  0.965176  0.899927  0.824048  1
  Y  Y10  1  0.534950  0.100167  0.323864  1
  Y  Y11  1  0.034684  0.399811  0.175824  1
  Y  Y12  1  0.534950  0.399833  0.323864  1
  Y  Y13  1  0.034684  0.100189  0.175824  1
  Y  Y14  1  0.465237  0.899916  0.675950  1
  Y  Y15  1  0.965176  0.600073  0.824048  1
  Y  Y16  1  0.790921  0.750000  0.496416  1
  Y  Y17  1  0.290938  0.750000  0.003598  1
  Y  Y18  1  0.209068  0.250000  0.503523  1
  Ho  Ho19  1  0.709038  0.250000  0.996281  1
  Pb  Pb20  1  0.718976  0.457035  0.967172  1
  Pb  Pb21  1  0.218881  0.042619  0.533114  1
  Pb  Pb22  1  0.281071  0.957469  0.032987  1
  Pb  Pb23  1  0.781156  0.542523  0.466916  1
  Pb  Pb24  1  0.281071  0.542531  0.032987  1
  Pb  Pb25  1  0.781156  0.957477  0.466916  1
  Pb  Pb26  1  0.718976  0.042965  0.967172  1
  Pb  Pb27  1  0.218881  0.457381  0.533114  1
  Pb  Pb28  1  0.427675  0.750000  0.373758  1
  Pb  Pb29  1  0.927701  0.750000  0.126173  1
  Pb  Pb30  1  0.572511  0.250000  0.626672  1
  Pb  Pb31  1  0.071769  0.250000  0.874057  1
  Pb  Pb32  1  0.653456  0.750000  0.848023  1
  Pb  Pb33  1  0.153392  0.750000  0.651905  1
  Pb  Pb34  1  0.346853  0.250000  0.151973  1
  Pb  Pb35  1  0.846254  0.250000  0.347442  1
