# generated using pymatgen
data_Ac6SnGeI6
_symmetry_space_group_name_H-M   'P 1'
_cell_length_a   11.63626392
_cell_length_b   11.63626359
_cell_length_c   11.57760200
_cell_angle_alpha   109.46691451
_cell_angle_beta   109.46691916
_cell_angle_gamma   109.68416257
_symmetry_Int_Tables_number   1
_chemical_formula_structural   Ac6SnGeI6
_chemical_formula_sum   'Ac12 Sn2 Ge2 I12'
_cell_volume   1203.71102664
_cell_formula_units_Z   2
loop_
 _symmetry_equiv_pos_site_id
 _symmetry_equiv_pos_as_xyz
  1  'x, y, z'
loop_
 _atom_site_type_symbol
 _atom_site_label
 _atom_site_symmetry_multiplicity
 _atom_site_fract_x
 _atom_site_fract_y
 _atom_site_fract_z
 _atom_site_occupancy
  Ac  Ac0  1  0.471724  0.492700  0.230218  1
  Ac  Ac1  1  0.762482  0.241506  0.269782  1
  Ac  Ac2  1  0.761040  0.019334  0.492958  1
  Ac  Ac3  1  0.231918  0.473623  0.492958  1
  Ac  Ac4  1  0.258494  0.737518  0.230218  1
  Ac  Ac5  1  0.026377  0.268082  0.007042  1
  Ac  Ac6  1  0.007300  0.028276  0.269782  1
  Ac  Ac7  1  0.480666  0.738960  0.007042  1
  Ac  Ac8  1  0.491222  0.241222  0.482443  1
  Ac  Ac9  1  0.017007  0.482993  0.750000  1
  Ac  Ac10  1  0.258778  0.008778  0.017557  1
  Ac  Ac11  1  0.232993  0.267007  0.750000  1
  Sn  Sn12  1  0.249928  0.250072  0.250000  1
  Sn  Sn13  1  0.500072  0.999928  0.250000  1
  Ge  Ge14  1  0.000961  0.250961  0.501923  1
  Ge  Ge15  1  0.249039  0.499039  0.998077  1
  I  I16  1  0.249274  0.755380  0.743058  1
  I  I17  1  0.512320  0.506216  0.756942  1
  I  I18  1  0.988974  0.743715  0.994437  1
  I  I19  1  0.744620  0.250726  0.756942  1
  I  I20  1  0.993784  0.987680  0.743058  1
  I  I21  1  0.249278  0.994535  0.505563  1
  I  I22  1  0.756285  0.511026  0.505563  1
  I  I23  1  0.505465  0.250722  0.994437  1
  I  I24  1  0.756496  0.743504  0.250000  1
  I  I25  1  0.744518  0.994518  0.989039  1
  I  I26  1  0.993504  0.506496  0.250000  1
  I  I27  1  0.505482  0.755482  0.510961  1
