# generated using pymatgen
data_Tb4UGa15
_symmetry_space_group_name_H-M   'P 1'
_cell_length_a   12.37435641
_cell_length_b   12.37435586
_cell_length_c   12.37435503
_cell_angle_alpha   28.82245311
_cell_angle_beta   28.82245937
_cell_angle_gamma   28.82245711
_symmetry_Int_Tables_number   1
_chemical_formula_structural   Tb4UGa15
_chemical_formula_sum   'Tb4 U1 Ga15'
_cell_volume   389.42114315
_cell_formula_units_Z   1
loop_
 _symmetry_equiv_pos_site_id
 _symmetry_equiv_pos_as_xyz
  1  'x, y, z'
loop_
 _atom_site_type_symbol
 _atom_site_label
 _atom_site_symmetry_multiplicity
 _atom_site_fract_x
 _atom_site_fract_y
 _atom_site_fract_z
 _atom_site_occupancy
  Tb  Tb0  1  0.000473  0.000473  0.000473  1
  Tb  Tb1  1  0.130118  0.130118  0.130118  1
  Tb  Tb2  1  0.599314  0.599314  0.599314  1
  Tb  Tb3  1  0.400778  0.400778  0.400778  1
  U  U4  1  0.870264  0.870264  0.870264  1
  Ga  Ga5  1  0.499367  0.499367  0.000415  1
  Ga  Ga6  1  0.000415  0.499367  0.499367  1
  Ga  Ga7  1  0.499367  0.000415  0.499367  1
  Ga  Ga8  1  0.363816  0.869440  0.363816  1
  Ga  Ga9  1  0.363816  0.363816  0.869440  1
  Ga  Ga10  1  0.869440  0.363816  0.363816  1
  Ga  Ga11  1  0.640351  0.123051  0.640351  1
  Ga  Ga12  1  0.640351  0.640351  0.123051  1
  Ga  Ga13  1  0.123051  0.640351  0.640351  1
  Ga  Ga14  1  0.117164  0.566898  0.117164  1
  Ga  Ga15  1  0.117164  0.117164  0.566898  1
  Ga  Ga16  1  0.566898  0.117164  0.117164  1
  Ga  Ga17  1  0.879910  0.438039  0.879910  1
  Ga  Ga18  1  0.879910  0.879910  0.438039  1
  Ga  Ga19  1  0.438039  0.879910  0.879910  1
