# generated using pymatgen
data_Er4Al18CuIr4Pd
_symmetry_space_group_name_H-M   'P 1'
_cell_length_a   7.56314372
_cell_length_b   7.56315140
_cell_length_c   9.37870334
_cell_angle_alpha   90.10391179
_cell_angle_beta   90.10390578
_cell_angle_gamma   119.74596963
_symmetry_Int_Tables_number   1
_chemical_formula_structural   Er4Al18CuIr4Pd
_chemical_formula_sum   'Er4 Al18 Cu1 Ir4 Pd1'
_cell_volume   465.78098889
_cell_formula_units_Z   1
loop_
 _symmetry_equiv_pos_site_id
 _symmetry_equiv_pos_as_xyz
  1  'x, y, z'
loop_
 _atom_site_type_symbol
 _atom_site_label
 _atom_site_symmetry_multiplicity
 _atom_site_fract_x
 _atom_site_fract_y
 _atom_site_fract_z
 _atom_site_occupancy
  Er  Er0  1  0.995392  0.671056  0.249540  1
  Er  Er1  1  0.004608  0.328944  0.750460  1
  Er  Er2  1  0.671060  0.995391  0.249540  1
  Er  Er3  1  0.328940  0.004609  0.750460  1
  Al  Al4  1  0.128279  0.128279  0.248668  1
  Al  Al5  1  0.871721  0.871721  0.751332  1
  Al  Al6  1  0.000355  0.337707  0.076413  1
  Al  Al7  1  0.999645  0.662293  0.923587  1
  Al  Al8  1  0.999954  0.662226  0.575725  1
  Al  Al9  1  0.337774  0.000046  0.424274  1
  Al  Al10  1  0.000046  0.337774  0.424275  1
  Al  Al11  1  0.662226  0.999954  0.575726  1
  Al  Al12  1  0.662293  0.999645  0.923586  1
  Al  Al13  1  0.337707  0.000355  0.076414  1
  Al  Al14  1  0.335843  0.335843  0.555961  1
  Al  Al15  1  0.664157  0.664157  0.444039  1
  Al  Al16  1  0.664684  0.664684  0.056004  1
  Al  Al17  1  0.335316  0.335316  0.943996  1
  Al  Al18  1  0.338134  0.548831  0.249930  1
  Al  Al19  1  0.661866  0.451169  0.750070  1
  Al  Al20  1  0.548831  0.338134  0.249930  1
  Al  Al21  1  0.451169  0.661866  0.750070  1
  Cu  Cu22  1  0.000000  0.000000  0.000000  1
  Ir  Ir23  1  0.671971  0.328031  0.000000  1
  Ir  Ir24  1  0.328029  0.671969  0.000000  1
  Ir  Ir25  1  0.328126  0.671872  0.500000  1
  Ir  Ir26  1  0.671874  0.328128  0.500000  1
  Pd  Pd27  1  0.000000  0.000000  0.500000  1
