# generated using pymatgen
data_Dy5Y(Ir7Rh2)2
_symmetry_space_group_name_H-M   'P 1'
_cell_length_a   5.30580900
_cell_length_b   5.30580929
_cell_length_c   17.46196100
_cell_angle_alpha   90.00000000
_cell_angle_beta   90.00000000
_cell_angle_gamma   119.99999199
_symmetry_Int_Tables_number   1
_chemical_formula_structural   Dy5Y(Ir7Rh2)2
_chemical_formula_sum   'Dy5 Y1 Ir14 Rh4'
_cell_volume   425.72281798
_cell_formula_units_Z   1
loop_
 _symmetry_equiv_pos_site_id
 _symmetry_equiv_pos_as_xyz
  1  'x, y, z'
loop_
 _atom_site_type_symbol
 _atom_site_label
 _atom_site_symmetry_multiplicity
 _atom_site_fract_x
 _atom_site_fract_y
 _atom_site_fract_z
 _atom_site_occupancy
  Dy  Dy0  1  0.333333  0.666667  0.958902  1
  Dy  Dy1  1  0.666667  0.333333  0.041095  1
  Dy  Dy2  1  0.666667  0.333333  0.458905  1
  Dy  Dy3  1  0.333333  0.666667  0.541098  1
  Dy  Dy4  1  0.333333  0.666667  0.750000  1
  Y  Y5  1  0.666667  0.333333  0.250000  1
  Ir  Ir6  1  0.167516  0.832484  0.374183  1
  Ir  Ir7  1  0.167516  0.335031  0.374183  1
  Ir  Ir8  1  0.664969  0.832484  0.374183  1
  Ir  Ir9  1  0.832480  0.167520  0.625815  1
  Ir  Ir10  1  0.832480  0.664960  0.625815  1
  Ir  Ir11  1  0.335040  0.167520  0.625815  1
  Ir  Ir12  1  0.832480  0.167520  0.874185  1
  Ir  Ir13  1  0.832480  0.664960  0.874185  1
  Ir  Ir14  1  0.335040  0.167520  0.874185  1
  Ir  Ir15  1  0.167516  0.832484  0.125817  1
  Ir  Ir16  1  0.167516  0.335031  0.125817  1
  Ir  Ir17  1  0.664969  0.832484  0.125817  1
  Ir  Ir18  1  0.000000  0.000000  0.500003  1
  Ir  Ir19  1  0.000000  0.000000  0.999997  1
  Rh  Rh20  1  0.333333  0.666667  0.250000  1
  Rh  Rh21  1  0.666667  0.333333  0.750000  1
  Rh  Rh22  1  0.000000  0.000000  0.250000  1
  Rh  Rh23  1  0.000000  0.000000  0.750000  1
