# generated using pymatgen
data_TaVNiF12
_symmetry_space_group_name_H-M   'P 1'
_cell_length_a   5.47306568
_cell_length_b   11.09593310
_cell_length_c   5.49547000
_cell_angle_alpha   58.53815244
_cell_angle_beta   57.98811075
_cell_angle_gamma   58.45996313
_symmetry_Int_Tables_number   1
_chemical_formula_structural   TaVNiF12
_chemical_formula_sum   'Ta1 V1 Ni1 F12'
_cell_volume   226.94145154
_cell_formula_units_Z   1
loop_
 _symmetry_equiv_pos_site_id
 _symmetry_equiv_pos_as_xyz
  1  'x, y, z'
loop_
 _atom_site_type_symbol
 _atom_site_label
 _atom_site_symmetry_multiplicity
 _atom_site_fract_x
 _atom_site_fract_y
 _atom_site_fract_z
 _atom_site_occupancy
  Ta  Ta0  1  0.004686  0.007188  0.986545  1
  V  V1  1  0.991533  0.496255  0.012275  1
  Ni  Ni2  1  0.503397  0.742134  0.506423  1
  F  F3  1  0.356011  0.060633  0.772221  1
  F  F4  1  0.307288  0.580017  0.766366  1
  F  F5  1  0.127528  0.395399  0.315342  1
  F  F6  1  0.163358  0.872151  0.330744  1
  F  F7  1  0.215832  0.352165  0.855605  1
  F  F8  1  0.244748  0.829290  0.845518  1
  F  F9  1  0.877357  0.112281  0.652160  1
  F  F10  1  0.840085  0.622050  0.686353  1
  F  F11  1  0.666548  0.441849  0.224434  1
  F  F12  1  0.682226  0.912132  0.246889  1
  F  F13  1  0.756709  0.163746  0.145213  1
  F  F14  1  0.762694  0.662710  0.153914  1
