# generated using pymatgen
data_Th10Sn5BiP2
_symmetry_space_group_name_H-M   'P 1'
_cell_length_a   9.49500561
_cell_length_b   9.49500552
_cell_length_c   6.66797000
_cell_angle_alpha   90.00000000
_cell_angle_beta   90.00000000
_cell_angle_gamma   120.14510578
_symmetry_Int_Tables_number   1
_chemical_formula_structural   Th10Sn5BiP2
_chemical_formula_sum   'Th10 Sn5 Bi1 P2'
_cell_volume   519.84975046
_cell_formula_units_Z   1
loop_
 _symmetry_equiv_pos_site_id
 _symmetry_equiv_pos_as_xyz
  1  'x, y, z'
loop_
 _atom_site_type_symbol
 _atom_site_label
 _atom_site_symmetry_multiplicity
 _atom_site_fract_x
 _atom_site_fract_y
 _atom_site_fract_z
 _atom_site_occupancy
  Th  Th0  1  0.668639  0.332986  0.001435  1
  Th  Th1  1  0.332986  0.668639  0.001435  1
  Th  Th2  1  0.332986  0.668639  0.498565  1
  Th  Th3  1  0.668639  0.332986  0.498565  1
  Th  Th4  1  0.751426  0.751426  0.750000  1
  Th  Th5  1  0.249609  0.996702  0.750000  1
  Th  Th6  1  0.996702  0.249609  0.750000  1
  Th  Th7  1  0.249038  0.249038  0.250000  1
  Th  Th8  1  0.749264  0.000114  0.250000  1
  Th  Th9  1  0.000114  0.749264  0.250000  1
  Sn  Sn10  1  0.606523  0.999678  0.750000  1
  Sn  Sn11  1  0.999678  0.606523  0.750000  1
  Sn  Sn12  1  0.607406  0.607406  0.250000  1
  Sn  Sn13  1  0.392889  0.999730  0.250000  1
  Sn  Sn14  1  0.999730  0.392889  0.250000  1
  Bi  Bi15  1  0.393342  0.393342  0.750000  1
  P  P16  1  0.000516  0.000516  0.999817  1
  P  P17  1  0.000516  0.000516  0.500183  1
