# generated using pymatgen
data_HoMn4CrP3
_symmetry_space_group_name_H-M   'P 1'
_cell_length_a   3.60866100
_cell_length_b   10.66359900
_cell_length_c   12.19565600
_cell_angle_alpha   90.00000000
_cell_angle_beta   90.00000000
_cell_angle_gamma   90.00000000
_symmetry_Int_Tables_number   1
_chemical_formula_structural   HoMn4CrP3
_chemical_formula_sum   'Ho4 Mn16 Cr4 P12'
_cell_volume   469.30486591
_cell_formula_units_Z   4
loop_
 _symmetry_equiv_pos_site_id
 _symmetry_equiv_pos_as_xyz
  1  'x, y, z'
loop_
 _atom_site_type_symbol
 _atom_site_label
 _atom_site_symmetry_multiplicity
 _atom_site_fract_x
 _atom_site_fract_y
 _atom_site_fract_z
 _atom_site_occupancy
  Ho  Ho0  1  0.250000  0.585792  0.705873  1
  Ho  Ho1  1  0.250000  0.914208  0.205873  1
  Ho  Ho2  1  0.750000  0.414208  0.294127  1
  Ho  Ho3  1  0.750000  0.085792  0.794127  1
  Mn  Mn4  1  0.250000  0.410526  0.493462  1
  Mn  Mn5  1  0.250000  0.089474  0.993462  1
  Mn  Mn6  1  0.750000  0.589474  0.506538  1
  Mn  Mn7  1  0.750000  0.910526  0.006538  1
  Mn  Mn8  1  0.250000  0.212762  0.181003  1
  Mn  Mn9  1  0.250000  0.287238  0.681003  1
  Mn  Mn10  1  0.750000  0.787238  0.818997  1
  Mn  Mn11  1  0.750000  0.712762  0.318997  1
  Mn  Mn12  1  0.250000  0.882543  0.692974  1
  Mn  Mn13  1  0.250000  0.617457  0.192974  1
  Mn  Mn14  1  0.750000  0.117457  0.307026  1
  Mn  Mn15  1  0.750000  0.382543  0.807026  1
  Mn  Mn16  1  0.250000  0.465504  0.935433  1
  Mn  Mn17  1  0.250000  0.034496  0.435433  1
  Mn  Mn18  1  0.750000  0.534496  0.064567  1
  Mn  Mn19  1  0.750000  0.965504  0.564567  1
  Cr  Cr20  1  0.250000  0.709435  0.982527  1
  Cr  Cr21  1  0.250000  0.790565  0.482527  1
  Cr  Cr22  1  0.750000  0.290565  0.017473  1
  Cr  Cr23  1  0.750000  0.209435  0.517473  1
  P  P24  1  0.250000  0.411752  0.115570  1
  P  P25  1  0.250000  0.088248  0.615570  1
  P  P26  1  0.750000  0.588248  0.884430  1
  P  P27  1  0.750000  0.911752  0.384430  1
  P  P28  1  0.250000  0.264279  0.875699  1
  P  P29  1  0.250000  0.235721  0.375699  1
  P  P30  1  0.750000  0.735721  0.124301  1
  P  P31  1  0.750000  0.764279  0.624301  1
  P  P32  1  0.250000  0.593971  0.384708  1
  P  P33  1  0.250000  0.906029  0.884708  1
  P  P34  1  0.750000  0.406029  0.615292  1
  P  P35  1  0.750000  0.093971  0.115292  1
