# generated using pymatgen
data_Dy11Er8TmSn16
_symmetry_space_group_name_H-M   'P 1'
_cell_length_a   7.99678108
_cell_length_b   8.13153654
_cell_length_c   15.37943589
_cell_angle_alpha   90.01188558
_cell_angle_beta   89.99056327
_cell_angle_gamma   90.03026837
_symmetry_Int_Tables_number   1
_chemical_formula_structural   Dy11Er8TmSn16
_chemical_formula_sum   'Dy11 Er8 Tm1 Sn16'
_cell_volume   1000.06483172
_cell_formula_units_Z   1
loop_
 _symmetry_equiv_pos_site_id
 _symmetry_equiv_pos_as_xyz
  1  'x, y, z'
loop_
 _atom_site_type_symbol
 _atom_site_label
 _atom_site_symmetry_multiplicity
 _atom_site_fract_x
 _atom_site_fract_y
 _atom_site_fract_z
 _atom_site_occupancy
  Dy  Dy0  1  0.132359  0.336783  0.377298  1
  Dy  Dy1  1  0.367995  0.836966  0.622301  1
  Dy  Dy2  1  0.867503  0.663271  0.878303  1
  Dy  Dy3  1  0.521095  0.320395  0.903502  1
  Dy  Dy4  1  0.021307  0.179185  0.597201  1
  Dy  Dy5  1  0.478754  0.679244  0.402584  1
  Dy  Dy6  1  0.978803  0.821117  0.097227  1
  Dy  Dy7  1  0.479608  0.679214  0.096824  1
  Dy  Dy8  1  0.979295  0.821283  0.402817  1
  Dy  Dy9  1  0.520410  0.321015  0.596909  1
  Dy  Dy10  1  0.020865  0.179098  0.903063  1
  Er  Er11  1  0.366443  0.837372  0.877208  1
  Er  Er12  1  0.866469  0.662642  0.622715  1
  Er  Er13  1  0.633369  0.162484  0.377129  1
  Er  Er14  1  0.133304  0.337616  0.122506  1
  Er  Er15  1  0.632450  0.162447  0.123008  1
  Er  Er16  1  0.198196  0.503392  0.750411  1
  Er  Er17  1  0.698405  0.996621  0.749850  1
  Er  Er18  1  0.801486  0.496472  0.250177  1
  Tm  Tm19  1  0.301588  0.003653  0.249333  1
  Sn  Sn20  1  0.294087  0.037714  0.041454  1
  Sn  Sn21  1  0.792060  0.462965  0.458563  1
  Sn  Sn22  1  0.708069  0.963010  0.541370  1
  Sn  Sn23  1  0.207996  0.537118  0.958581  1
  Sn  Sn24  1  0.704358  0.963836  0.958571  1
  Sn  Sn25  1  0.204643  0.536806  0.542302  1
  Sn  Sn26  1  0.295086  0.036895  0.457414  1
  Sn  Sn27  1  0.794091  0.461401  0.042564  1
  Sn  Sn28  1  0.564459  0.618701  0.750275  1
  Sn  Sn29  1  0.064548  0.880920  0.750006  1
  Sn  Sn30  1  0.435986  0.380317  0.249570  1
  Sn  Sn31  1  0.935330  0.119097  0.249293  1
  Sn  Sn32  1  0.330435  0.148592  0.750331  1
  Sn  Sn33  1  0.830354  0.351759  0.749860  1
  Sn  Sn34  1  0.669245  0.851789  0.249856  1
  Sn  Sn35  1  0.169552  0.648813  0.249625  1
