# generated using pymatgen
data_SmZn2CuAgRh
_symmetry_space_group_name_H-M   'P 1'
_cell_length_a   5.15535886
_cell_length_b   5.15535871
_cell_length_c   5.29098445
_cell_angle_alpha   60.48796750
_cell_angle_beta   60.48794860
_cell_angle_gamma   61.56065114
_symmetry_Int_Tables_number   1
_chemical_formula_structural   SmZn2CuAgRh
_chemical_formula_sum   'Sm1 Zn2 Cu1 Ag1 Rh1'
_cell_volume   101.30748692
_cell_formula_units_Z   1
loop_
 _symmetry_equiv_pos_site_id
 _symmetry_equiv_pos_as_xyz
  1  'x, y, z'
loop_
 _atom_site_type_symbol
 _atom_site_label
 _atom_site_symmetry_multiplicity
 _atom_site_fract_x
 _atom_site_fract_y
 _atom_site_fract_z
 _atom_site_occupancy
  Sm  Sm0  1  0.004958  0.004958  0.992618  1
  Zn  Zn1  1  0.868203  0.373112  0.380243  1
  Zn  Zn2  1  0.373112  0.868203  0.380243  1
  Cu  Cu3  1  0.376616  0.376616  0.873155  1
  Ag  Ag4  1  0.753627  0.753627  0.747639  1
  Rh  Rh5  1  0.373483  0.373483  0.376102  1
