# generated using pymatgen
data_La4Nd12Cd4Co3Ni
_symmetry_space_group_name_H-M   'P 1'
_cell_length_a   9.87388478
_cell_length_b   9.89907127
_cell_length_c   9.89907000
_cell_angle_alpha   59.99999755
_cell_angle_beta   59.91558122
_cell_angle_gamma   59.91558526
_symmetry_Int_Tables_number   1
_chemical_formula_structural   La4Nd12Cd4Co3Ni
_chemical_formula_sum   'La4 Nd12 Cd4 Co3 Ni1'
_cell_volume   683.29237373
_cell_formula_units_Z   1
loop_
 _symmetry_equiv_pos_site_id
 _symmetry_equiv_pos_as_xyz
  1  'x, y, z'
loop_
 _atom_site_type_symbol
 _atom_site_label
 _atom_site_symmetry_multiplicity
 _atom_site_fract_x
 _atom_site_fract_y
 _atom_site_fract_z
 _atom_site_occupancy
  La  La0  1  0.593215  0.598063  0.598063  1
  La  La1  1  0.593215  0.598063  0.210659  1
  La  La2  1  0.593215  0.210659  0.598063  1
  La  La3  1  0.215161  0.594946  0.594946  1
  Nd  Nd4  1  0.064943  0.438882  0.438882  1
  Nd  Nd5  1  0.438479  0.061708  0.061708  1
  Nd  Nd6  1  0.438479  0.061708  0.438107  1
  Nd  Nd7  1  0.064943  0.438882  0.057293  1
  Nd  Nd8  1  0.438479  0.438107  0.061708  1
  Nd  Nd9  1  0.064943  0.057293  0.438882  1
  Nd  Nd10  1  0.185625  0.813089  0.813089  1
  Nd  Nd11  1  0.810651  0.187732  0.187732  1
  Nd  Nd12  1  0.810651  0.187732  0.813886  1
  Nd  Nd13  1  0.185625  0.813089  0.188198  1
  Nd  Nd14  1  0.810651  0.813886  0.187732  1
  Nd  Nd15  1  0.185625  0.188198  0.813089  1
  Cd  Cd16  1  0.829431  0.829340  0.829340  1
  Cd  Cd17  1  0.829431  0.829340  0.511887  1
  Cd  Cd18  1  0.829431  0.511887  0.829340  1
  Cd  Cd19  1  0.511229  0.829590  0.829590  1
  Co  Co20  1  0.393095  0.391041  0.391041  1
  Co  Co21  1  0.393095  0.391041  0.824823  1
  Co  Co22  1  0.393095  0.824823  0.391041  1
  Ni  Ni23  1  0.827293  0.390902  0.390902  1
