# generated using pymatgen
data_Dy2Lu2Fe5Si10Rh
_symmetry_space_group_name_H-M   'P 1'
_cell_length_a   8.00062666
_cell_length_b   7.99756157
_cell_length_c   7.99756146
_cell_angle_alpha   140.50090204
_cell_angle_beta   108.21325745
_cell_angle_gamma   85.16556540
_symmetry_Int_Tables_number   1
_chemical_formula_structural   Dy2Lu2Fe5Si10Rh
_chemical_formula_sum   'Dy2 Lu2 Fe5 Si10 Rh1'
_cell_volume   298.57845359
_cell_formula_units_Z   1
loop_
 _symmetry_equiv_pos_site_id
 _symmetry_equiv_pos_as_xyz
  1  'x, y, z'
loop_
 _atom_site_type_symbol
 _atom_site_label
 _atom_site_symmetry_multiplicity
 _atom_site_fract_x
 _atom_site_fract_y
 _atom_site_fract_z
 _atom_site_occupancy
  Dy  Dy0  1  0.872363  0.140171  0.732190  1
  Dy  Dy1  1  0.135438  0.862610  0.272827  1
  Lu  Lu2  1  0.592483  0.361319  0.231163  1
  Lu  Lu3  1  0.406537  0.638488  0.768051  1
  Fe  Fe4  1  0.995766  0.746930  0.744313  1
  Fe  Fe5  1  0.448240  0.856281  0.591960  1
  Fe  Fe6  1  0.265160  0.353845  0.911315  1
  Fe  Fe7  1  0.735616  0.645288  0.090328  1
  Fe  Fe8  1  0.995766  0.251453  0.248836  1
  Si  Si9  1  0.248425  0.090316  0.158111  1
  Si  Si10  1  0.734796  0.906982  0.827814  1
  Si  Si11  1  0.077896  0.407077  0.670819  1
  Si  Si12  1  0.921607  0.593116  0.328491  1
  Si  Si13  1  0.797244  0.037820  0.247585  1
  Si  Si14  1  0.210898  0.463176  0.253525  1
  Si  Si15  1  0.210898  0.957371  0.747720  1
  Si  Si16  1  0.502943  0.734669  0.243636  1
  Si  Si17  1  0.502943  0.259307  0.768274  1
  Si  Si18  1  0.797244  0.549660  0.759425  1
  Rh  Rh19  1  0.547736  0.144120  0.403615  1
