# generated using pymatgen
data_Hf6CBr14
_symmetry_space_group_name_H-M   'P 1'
_cell_length_a   10.19269700
_cell_length_b   10.19269696
_cell_length_c   12.15639900
_cell_angle_alpha   90.00000000
_cell_angle_beta   90.00000000
_cell_angle_gamma   92.95075017
_symmetry_Int_Tables_number   1
_chemical_formula_structural   Hf6CBr14
_chemical_formula_sum   'Hf12 C2 Br28'
_cell_volume   1261.26685307
_cell_formula_units_Z   2
loop_
 _symmetry_equiv_pos_site_id
 _symmetry_equiv_pos_as_xyz
  1  'x, y, z'
loop_
 _atom_site_type_symbol
 _atom_site_label
 _atom_site_symmetry_multiplicity
 _atom_site_fract_x
 _atom_site_fract_y
 _atom_site_fract_z
 _atom_site_occupancy
  Hf  Hf0  1  0.632706  0.632706  0.096817  1
  Hf  Hf1  1  0.867294  0.867294  0.596817  1
  Hf  Hf2  1  0.132706  0.132706  0.403183  1
  Hf  Hf3  1  0.367294  0.367294  0.903183  1
  Hf  Hf4  1  0.451161  0.672221  0.886869  1
  Hf  Hf5  1  0.048839  0.827779  0.386869  1
  Hf  Hf6  1  0.172221  0.951161  0.613131  1
  Hf  Hf7  1  0.327779  0.548839  0.113131  1
  Hf  Hf8  1  0.548839  0.327779  0.113131  1
  Hf  Hf9  1  0.951161  0.172221  0.613131  1
  Hf  Hf10  1  0.827779  0.048839  0.386869  1
  Hf  Hf11  1  0.672221  0.451161  0.886869  1
  C  C12  1  0.500000  0.500000  0.000000  1
  C  C13  1  0.000000  0.000000  0.500000  1
  Br  Br14  1  0.106048  0.354126  0.511467  1
  Br  Br15  1  0.393952  0.145874  0.011467  1
  Br  Br16  1  0.108650  0.608650  0.250000  1
  Br  Br17  1  0.391350  0.891350  0.750000  1
  Br  Br18  1  0.891350  0.391350  0.750000  1
  Br  Br19  1  0.608650  0.108650  0.250000  1
  Br  Br20  1  0.143590  0.143590  0.761924  1
  Br  Br21  1  0.356410  0.356410  0.261924  1
  Br  Br22  1  0.643590  0.643590  0.738076  1
  Br  Br23  1  0.856410  0.856410  0.238076  1
  Br  Br24  1  0.751369  0.248631  0.000000  1
  Br  Br25  1  0.748631  0.251369  0.500000  1
  Br  Br26  1  0.248631  0.751369  0.000000  1
  Br  Br27  1  0.251369  0.748631  0.500000  1
  Br  Br28  1  0.645874  0.893952  0.488533  1
  Br  Br29  1  0.854126  0.606048  0.988533  1
  Br  Br30  1  0.606048  0.854126  0.988533  1
  Br  Br31  1  0.893952  0.645874  0.488533  1
  Br  Br32  1  0.354126  0.106048  0.511467  1
  Br  Br33  1  0.145874  0.393952  0.011467  1
  Br  Br34  1  0.212684  0.966097  0.254807  1
  Br  Br35  1  0.287316  0.533903  0.754807  1
  Br  Br36  1  0.466097  0.712684  0.245193  1
  Br  Br37  1  0.033903  0.787316  0.745193  1
  Br  Br38  1  0.787316  0.033903  0.745193  1
  Br  Br39  1  0.712684  0.466097  0.245193  1
  Br  Br40  1  0.533903  0.287316  0.754807  1
  Br  Br41  1  0.966097  0.212684  0.254807  1
