# generated using pymatgen
data_PrTl(PS3)2
_symmetry_space_group_name_H-M   'P 1'
_cell_length_a   12.06204352
_cell_length_b   7.60780700
_cell_length_c   11.42567900
_cell_angle_alpha   90.00000000
_cell_angle_beta   109.72016429
_cell_angle_gamma   90.00000000
_symmetry_Int_Tables_number   1
_chemical_formula_structural   PrTl(PS3)2
_chemical_formula_sum   'Pr4 Tl4 P8 S24'
_cell_volume   986.99369269
_cell_formula_units_Z   4
loop_
 _symmetry_equiv_pos_site_id
 _symmetry_equiv_pos_as_xyz
  1  'x, y, z'
loop_
 _atom_site_type_symbol
 _atom_site_label
 _atom_site_symmetry_multiplicity
 _atom_site_fract_x
 _atom_site_fract_y
 _atom_site_fract_z
 _atom_site_occupancy
  Pr  Pr0  1  0.351800  0.892915  0.096164  1
  Pr  Pr1  1  0.648200  0.392915  0.403837  1
  Pr  Pr2  1  0.351800  0.607085  0.596163  1
  Pr  Pr3  1  0.648200  0.107084  0.903836  1
  Tl  Tl4  1  0.870323  0.596189  0.125685  1
  Tl  Tl5  1  0.129677  0.096190  0.374314  1
  Tl  Tl6  1  0.870323  0.903811  0.625686  1
  Tl  Tl7  1  0.129677  0.403810  0.874315  1
  P  P8  1  0.788640  0.119368  0.232489  1
  P  P9  1  0.669837  0.900123  0.245987  1
  P  P10  1  0.330163  0.400122  0.254013  1
  P  P11  1  0.211360  0.619368  0.267511  1
  P  P12  1  0.788641  0.380633  0.732489  1
  P  P13  1  0.669837  0.599877  0.745987  1
  P  P14  1  0.330163  0.099877  0.754013  1
  P  P15  1  0.211360  0.880632  0.767511  1
  S  S16  1  0.588746  0.816792  0.067528  1
  S  S17  1  0.131962  0.705735  0.091472  1
  S  S18  1  0.882575  0.024458  0.130573  1
  S  S19  1  0.672782  0.305966  0.136382  1
  S  S20  1  0.226807  0.212646  0.143327  1
  S  S21  1  0.447762  0.519544  0.185418  1
  S  S22  1  0.552237  0.019545  0.314582  1
  S  S23  1  0.773193  0.712647  0.356672  1
  S  S24  1  0.327218  0.805965  0.363618  1
  S  S25  1  0.117426  0.524457  0.369428  1
  S  S26  1  0.868037  0.205735  0.408528  1
  S  S27  1  0.411255  0.316793  0.432472  1
  S  S28  1  0.588746  0.683208  0.567528  1
  S  S29  1  0.131963  0.794265  0.591472  1
  S  S30  1  0.882575  0.475543  0.630572  1
  S  S31  1  0.672782  0.194035  0.636382  1
  S  S32  1  0.226808  0.287354  0.643328  1
  S  S33  1  0.447763  0.980456  0.685418  1
  S  S34  1  0.552237  0.480455  0.814582  1
  S  S35  1  0.773192  0.787353  0.856673  1
  S  S36  1  0.327218  0.694034  0.863618  1
  S  S37  1  0.117426  0.975543  0.869427  1
  S  S38  1  0.868037  0.294264  0.908528  1
  S  S39  1  0.411254  0.183208  0.932472  1
