# generated using pymatgen
data_Ho19MgIr5Au7
_symmetry_space_group_name_H-M   'P 1'
_cell_length_a   11.19567510
_cell_length_b   11.16896185
_cell_length_c   6.30719652
_cell_angle_alpha   89.88590367
_cell_angle_beta   89.77691806
_cell_angle_gamma   90.21358935
_symmetry_Int_Tables_number   1
_chemical_formula_structural   Ho19MgIr5Au7
_chemical_formula_sum   'Ho19 Mg1 Ir5 Au7'
_cell_volume   788.66446634
_cell_formula_units_Z   1
loop_
 _symmetry_equiv_pos_site_id
 _symmetry_equiv_pos_as_xyz
  1  'x, y, z'
loop_
 _atom_site_type_symbol
 _atom_site_label
 _atom_site_symmetry_multiplicity
 _atom_site_fract_x
 _atom_site_fract_y
 _atom_site_fract_z
 _atom_site_occupancy
  Ho  Ho0  1  0.294876  0.078938  0.365745  1
  Ho  Ho1  1  0.299536  0.905667  0.866271  1
  Ho  Ho2  1  0.700285  0.082561  0.863842  1
  Ho  Ho3  1  0.704282  0.917844  0.364542  1
  Ho  Ho4  1  0.578465  0.793727  0.861881  1
  Ho  Ho5  1  0.580755  0.202708  0.363485  1
  Ho  Ho6  1  0.414083  0.793044  0.374252  1
  Ho  Ho7  1  0.413502  0.198485  0.864105  1
  Ho  Ho8  1  0.205632  0.427045  0.638219  1
  Ho  Ho9  1  0.208055  0.591199  0.124006  1
  Ho  Ho10  1  0.797159  0.414580  0.134886  1
  Ho  Ho11  1  0.800292  0.581629  0.638015  1
  Ho  Ho12  1  0.919231  0.700147  0.134978  1
  Ho  Ho13  1  0.919560  0.294959  0.635070  1
  Ho  Ho14  1  0.090220  0.705698  0.634381  1
  Ho  Ho15  1  0.084352  0.301249  0.136440  1
  Ho  Ho16  1  0.000417  0.000992  0.997664  1
  Ho  Ho17  1  0.494710  0.503465  0.000190  1
  Ho  Ho18  1  0.495513  0.506777  0.502606  1
  Mg  Mg19  1  0.999156  0.000058  0.499028  1
  Ir  Ir20  1  0.347023  0.653149  0.749246  1
  Ir  Ir21  1  0.499801  0.999443  0.114295  1
  Ir  Ir22  1  0.499907  0.999939  0.611178  1
  Ir  Ir23  1  0.999683  0.499891  0.888075  1
  Ir  Ir24  1  0.000103  0.500360  0.386238  1
  Au  Au25  1  0.845886  0.152660  0.254593  1
  Au  Au26  1  0.846593  0.846247  0.746026  1
  Au  Au27  1  0.152864  0.155573  0.743822  1
  Au  Au28  1  0.152283  0.848331  0.253773  1
  Au  Au29  1  0.654251  0.345324  0.748699  1
  Au  Au30  1  0.658128  0.657007  0.250605  1
  Au  Au31  1  0.343397  0.341306  0.253842  1
