# generated using pymatgen
data_GdPbF7
_symmetry_space_group_name_H-M   'P 1'
_cell_length_a   5.87769500
_cell_length_b   6.23373366
_cell_length_c   8.48931172
_cell_angle_alpha   102.77446556
_cell_angle_beta   90.00000000
_cell_angle_gamma   90.00000000
_symmetry_Int_Tables_number   1
_chemical_formula_structural   GdPbF7
_chemical_formula_sum   'Gd2 Pb2 F14'
_cell_volume   303.34918680
_cell_formula_units_Z   2
loop_
 _symmetry_equiv_pos_site_id
 _symmetry_equiv_pos_as_xyz
  1  'x, y, z'
loop_
 _atom_site_type_symbol
 _atom_site_label
 _atom_site_symmetry_multiplicity
 _atom_site_fract_x
 _atom_site_fract_y
 _atom_site_fract_z
 _atom_site_occupancy
  Gd  Gd0  1  0.697671  0.654776  0.685492  1
  Gd  Gd1  1  0.197671  0.345224  0.314508  1
  Pb  Pb2  1  0.707724  0.811181  0.225963  1
  Pb  Pb3  1  0.207724  0.188819  0.774037  1
  F  F4  1  0.900529  0.465114  0.480448  1
  F  F5  1  0.400529  0.534886  0.519552  1
  F  F6  1  0.427513  0.921045  0.769406  1
  F  F7  1  0.927513  0.078955  0.230594  1
  F  F8  1  0.942356  0.954317  0.760085  1
  F  F9  1  0.442356  0.045683  0.239915  1
  F  F10  1  0.992129  0.462118  0.792623  1
  F  F11  1  0.492129  0.537882  0.207377  1
  F  F12  1  0.698122  0.758517  0.975344  1
  F  F13  1  0.198122  0.241483  0.024656  1
  F  F14  1  0.703902  0.871062  0.478869  1
  F  F15  1  0.203902  0.128938  0.521131  1
  F  F16  1  0.506414  0.381890  0.785057  1
  F  F17  1  0.006414  0.618110  0.214943  1
