# generated using pymatgen
data_YHo15(InRh)4
_symmetry_space_group_name_H-M   'P 1'
_cell_length_a   9.62356535
_cell_length_b   9.62372084
_cell_length_c   9.62599500
_cell_angle_alpha   59.99068872
_cell_angle_beta   59.99265331
_cell_angle_gamma   59.98880372
_symmetry_Int_Tables_number   1
_chemical_formula_structural   YHo15(InRh)4
_chemical_formula_sum   'Y1 Ho15 In4 Rh4'
_cell_volume   630.25777492
_cell_formula_units_Z   1
loop_
 _symmetry_equiv_pos_site_id
 _symmetry_equiv_pos_as_xyz
  1  'x, y, z'
loop_
 _atom_site_type_symbol
 _atom_site_label
 _atom_site_symmetry_multiplicity
 _atom_site_fract_x
 _atom_site_fract_y
 _atom_site_fract_z
 _atom_site_occupancy
  Y  Y0  1  0.187970  0.187955  0.812035  1
  Ho  Ho1  1  0.599790  0.599795  0.201801  1
  Ho  Ho2  1  0.439272  0.060266  0.439194  1
  Ho  Ho3  1  0.439295  0.439304  0.060691  1
  Ho  Ho4  1  0.811983  0.188061  0.811810  1
  Ho  Ho5  1  0.188052  0.811988  0.188149  1
  Ho  Ho6  1  0.439268  0.060275  0.061265  1
  Ho  Ho7  1  0.188051  0.811984  0.811817  1
  Ho  Ho8  1  0.060272  0.439269  0.061269  1
  Ho  Ho9  1  0.812273  0.812262  0.187729  1
  Ho  Ho10  1  0.200738  0.600781  0.599257  1
  Ho  Ho11  1  0.060253  0.439271  0.439189  1
  Ho  Ho12  1  0.060816  0.060826  0.439179  1
  Ho  Ho13  1  0.811988  0.188060  0.188149  1
  Ho  Ho14  1  0.600775  0.200741  0.599255  1
  Ho  Ho15  1  0.599783  0.599775  0.598629  1
  In  In16  1  0.833073  0.833073  0.833350  1
  In  In17  1  0.833079  0.833084  0.500488  1
  In  In18  1  0.501109  0.832593  0.833150  1
  In  In19  1  0.832587  0.501084  0.833168  1
  Rh  Rh20  1  0.392095  0.822961  0.392469  1
  Rh  Rh21  1  0.392272  0.392245  0.392182  1
  Rh  Rh22  1  0.822959  0.392098  0.392476  1
  Rh  Rh23  1  0.392250  0.392251  0.823299  1
