# generated using pymatgen
data_La8Cd2RuAu
_symmetry_space_group_name_H-M   'P 1'
_cell_length_a   10.20077380
_cell_length_b   10.20077350
_cell_length_c   10.17466300
_cell_angle_alpha   60.08463353
_cell_angle_beta   60.08463451
_cell_angle_gamma   60.43590732
_symmetry_Int_Tables_number   1
_chemical_formula_structural   La8Cd2RuAu
_chemical_formula_sum   'La16 Cd4 Ru2 Au2'
_cell_volume   752.03776809
_cell_formula_units_Z   2
loop_
 _symmetry_equiv_pos_site_id
 _symmetry_equiv_pos_as_xyz
  1  'x, y, z'
loop_
 _atom_site_type_symbol
 _atom_site_label
 _atom_site_symmetry_multiplicity
 _atom_site_fract_x
 _atom_site_fract_y
 _atom_site_fract_z
 _atom_site_occupancy
  La  La0  1  0.898519  0.898519  0.911664  1
  La  La1  1  0.438405  0.438405  0.061595  1
  La  La2  1  0.052872  0.052872  0.447128  1
  La  La3  1  0.454234  0.058345  0.058339  1
  La  La4  1  0.309422  0.684997  0.314369  1
  La  La5  1  0.685855  0.685855  0.314145  1
  La  La6  1  0.684997  0.309422  0.314369  1
  La  La7  1  0.307051  0.884317  0.904317  1
  La  La8  1  0.884317  0.307051  0.904317  1
  La  La9  1  0.309422  0.684997  0.691212  1
  La  La10  1  0.898519  0.898519  0.291300  1
  La  La11  1  0.058345  0.454234  0.058339  1
  La  La12  1  0.311289  0.311289  0.688711  1
  La  La13  1  0.058345  0.454234  0.429082  1
  La  La14  1  0.454234  0.058345  0.429082  1
  La  La15  1  0.684997  0.309422  0.691212  1
  Cd  Cd16  1  0.670963  0.670963  0.988851  1
  Cd  Cd17  1  0.988160  0.671147  0.670346  1
  Cd  Cd18  1  0.671147  0.988160  0.670346  1
  Cd  Cd19  1  0.670963  0.670963  0.669223  1
  Ru  Ru20  1  0.112758  0.673018  0.107112  1
  Ru  Ru21  1  0.673018  0.112758  0.107112  1
  Au  Au22  1  0.111086  0.111086  0.677284  1
  Au  Au23  1  0.111086  0.111086  0.100544  1
