# generated using pymatgen
data_Dy3Np(BRu)16
_symmetry_space_group_name_H-M   'P 1'
_cell_length_a   9.20505261
_cell_length_b   7.47788483
_cell_length_c   7.47788495
_cell_angle_alpha   90.19612038
_cell_angle_beta   113.87818264
_cell_angle_gamma   113.87817669
_symmetry_Int_Tables_number   1
_chemical_formula_structural   Dy3Np(BRu)16
_chemical_formula_sum   'Dy3 Np1 B16 Ru16'
_cell_volume   421.69068265
_cell_formula_units_Z   1
loop_
 _symmetry_equiv_pos_site_id
 _symmetry_equiv_pos_as_xyz
  1  'x, y, z'
loop_
 _atom_site_type_symbol
 _atom_site_label
 _atom_site_symmetry_multiplicity
 _atom_site_fract_x
 _atom_site_fract_y
 _atom_site_fract_z
 _atom_site_occupancy
  Dy  Dy0  1  0.249999  0.625000  0.375000  1
  Dy  Dy1  1  0.750000  0.375000  0.625000  1
  Dy  Dy2  1  0.249999  0.125000  0.875000  1
  Np  Np3  1  0.750000  0.875000  0.125000  1
  B  B4  1  0.917619  0.291260  0.069893  1
  B  B5  1  0.410774  0.564827  0.124063  1
  B  B6  1  0.089226  0.213289  0.154053  1
  B  B7  1  0.584611  0.150332  0.212037  1
  B  B8  1  0.413541  0.065589  0.290738  1
  B  B9  1  0.917619  0.626360  0.347726  1
  B  B10  1  0.582381  0.652275  0.373641  1
  B  B11  1  0.089226  0.875938  0.435174  1
  B  B12  1  0.915389  0.127425  0.565721  1
  B  B13  1  0.413541  0.347952  0.622804  1
  B  B14  1  0.086459  0.377197  0.652049  1
  B  B15  1  0.582381  0.930106  0.708741  1
  B  B16  1  0.410774  0.845946  0.786712  1
  B  B17  1  0.915389  0.787964  0.849668  1
  B  B18  1  0.584611  0.434280  0.872575  1
  B  B19  1  0.086459  0.709262  0.934410  1
  Ru  Ru20  1  0.869727  0.550723  0.035746  1
  Ru  Ru21  1  0.376267  0.834432  0.052336  1
  Ru  Ru22  1  0.123733  0.947665  0.165568  1
  Ru  Ru23  1  0.629031  0.472823  0.177021  1
  Ru  Ru24  1  0.375284  0.334060  0.322317  1
  Ru  Ru25  1  0.869727  0.319003  0.333981  1
  Ru  Ru26  1  0.630274  0.964254  0.449277  1
  Ru  Ru27  1  0.123733  0.176069  0.458164  1
  Ru  Ru28  1  0.870970  0.822980  0.527176  1
  Ru  Ru29  1  0.375284  0.041224  0.552966  1
  Ru  Ru30  1  0.124716  0.677682  0.665939  1
  Ru  Ru31  1  0.630274  0.666019  0.680996  1
  Ru  Ru32  1  0.376267  0.541835  0.823932  1
  Ru  Ru33  1  0.870970  0.047990  0.843793  1
  Ru  Ru34  1  0.629031  0.156208  0.952011  1
  Ru  Ru35  1  0.124716  0.447033  0.958777  1
