# generated using pymatgen
data_Y3CI5
_symmetry_space_group_name_H-M   'P 1'
_cell_length_a   7.69735793
_cell_length_b   9.54472170
_cell_length_c   9.62527076
_cell_angle_alpha   106.94603684
_cell_angle_beta   96.47834938
_cell_angle_gamma   104.36700384
_symmetry_Int_Tables_number   1
_chemical_formula_structural   Y3CI5
_chemical_formula_sum   'Y6 C2 I10'
_cell_volume   642.08640165
_cell_formula_units_Z   2
loop_
 _symmetry_equiv_pos_site_id
 _symmetry_equiv_pos_as_xyz
  1  'x, y, z'
loop_
 _atom_site_type_symbol
 _atom_site_label
 _atom_site_symmetry_multiplicity
 _atom_site_fract_x
 _atom_site_fract_y
 _atom_site_fract_z
 _atom_site_occupancy
  Y  Y0  1  0.102590  0.037946  0.782362  1
  Y  Y1  1  0.373661  0.131932  0.177291  1
  Y  Y2  1  0.897410  0.962054  0.217638  1
  Y  Y3  1  0.027922  0.743764  0.925695  1
  Y  Y4  1  0.972078  0.256236  0.074305  1
  Y  Y5  1  0.626339  0.868068  0.822709  1
  C  C6  1  0.908777  0.969953  0.958726  1
  C  C7  1  0.091223  0.030047  0.041274  1
  I  I8  1  0.194248  0.737438  0.651221  1
  I  I9  1  0.086695  0.363762  0.822727  1
  I  I10  1  0.456481  0.811345  0.093029  1
  I  I11  1  0.254609  0.084883  0.457842  1
  I  I12  1  0.543519  0.188655  0.906971  1
  I  I13  1  0.805752  0.262562  0.348779  1
  I  I14  1  0.345204  0.452197  0.272641  1
  I  I15  1  0.913305  0.636238  0.177273  1
  I  I16  1  0.654796  0.547803  0.727359  1
  I  I17  1  0.745391  0.915117  0.542158  1
