# generated using pymatgen
data_YbPa2(GaPt)3
_symmetry_space_group_name_H-M   'P 1'
_cell_length_a   7.18714519
_cell_length_b   7.23310554
_cell_length_c   3.99271100
_cell_angle_alpha   90.00000000
_cell_angle_beta   90.00000000
_cell_angle_gamma   120.21177691
_symmetry_Int_Tables_number   1
_chemical_formula_structural   YbPa2(GaPt)3
_chemical_formula_sum   'Yb1 Pa2 Ga3 Pt3'
_cell_volume   179.36965823
_cell_formula_units_Z   1
loop_
 _symmetry_equiv_pos_site_id
 _symmetry_equiv_pos_as_xyz
  1  'x, y, z'
loop_
 _atom_site_type_symbol
 _atom_site_label
 _atom_site_symmetry_multiplicity
 _atom_site_fract_x
 _atom_site_fract_y
 _atom_site_fract_z
 _atom_site_occupancy
  Yb  Yb0  1  0.000000  0.590336  0.500000  1
  Pa  Pa1  1  0.416998  0.415327  0.500000  1
  Pa  Pa2  1  0.583002  0.998329  0.500000  1
  Ga  Ga3  1  0.764603  0.751112  0.000000  1
  Ga  Ga4  1  0.235397  0.986509  0.000000  1
  Ga  Ga5  1  0.000000  0.256602  0.000000  1
  Pt  Pt6  1  0.649428  0.318465  0.000000  1
  Pt  Pt7  1  0.350572  0.669039  0.000000  1
  Pt  Pt8  1  0.000000  0.014281  0.500000  1
