# generated using pymatgen
data_GaMo12Pt7N4
_symmetry_space_group_name_H-M   'P 1'
_cell_length_a   6.89886146
_cell_length_b   6.89886146
_cell_length_c   6.89886146
_cell_angle_alpha   89.97031371
_cell_angle_beta   89.97031371
_cell_angle_gamma   89.97031371
_symmetry_Int_Tables_number   1
_chemical_formula_structural   GaMo12Pt7N4
_chemical_formula_sum   'Ga1 Mo12 Pt7 N4'
_cell_volume   328.34627740
_cell_formula_units_Z   1
loop_
 _symmetry_equiv_pos_site_id
 _symmetry_equiv_pos_as_xyz
  1  'x, y, z'
loop_
 _atom_site_type_symbol
 _atom_site_label
 _atom_site_symmetry_multiplicity
 _atom_site_fract_x
 _atom_site_fract_y
 _atom_site_fract_z
 _atom_site_occupancy
  Ga  Ga0  1  0.187171  0.187171  0.187171  1
  Mo  Mo1  1  0.621231  0.704649  0.951028  1
  Mo  Mo2  1  0.462593  0.870136  0.305650  1
  Mo  Mo3  1  0.704649  0.951028  0.621231  1
  Mo  Mo4  1  0.548387  0.373334  0.202047  1
  Mo  Mo5  1  0.373334  0.202047  0.548387  1
  Mo  Mo6  1  0.202047  0.548387  0.373334  1
  Mo  Mo7  1  0.870136  0.305650  0.462593  1
  Mo  Mo8  1  0.045678  0.120705  0.793446  1
  Mo  Mo9  1  0.305650  0.462593  0.870136  1
  Mo  Mo10  1  0.120705  0.793446  0.045678  1
  Mo  Mo11  1  0.793446  0.045678  0.120705  1
  Mo  Mo12  1  0.951028  0.621231  0.704649  1
  Pt  Pt13  1  0.307046  0.814575  0.687317  1
  Pt  Pt14  1  0.426240  0.064366  0.952953  1
  Pt  Pt15  1  0.814575  0.687317  0.307046  1
  Pt  Pt16  1  0.687317  0.307046  0.814575  1
  Pt  Pt17  1  0.557616  0.557616  0.557616  1
  Pt  Pt18  1  0.064366  0.952953  0.426240  1
  Pt  Pt19  1  0.952953  0.426240  0.064366  1
  N  N20  1  0.376594  0.627533  0.126920  1
  N  N21  1  0.872785  0.872785  0.872785  1
  N  N22  1  0.126920  0.376594  0.627533  1
  N  N23  1  0.627533  0.126920  0.376594  1
