# generated using pymatgen
data_Eu3Cd3CuPd2
_symmetry_space_group_name_H-M   'P 1'
_cell_length_a   7.79678800
_cell_length_b   7.79678759
_cell_length_c   4.13931100
_cell_angle_alpha   90.00000000
_cell_angle_beta   90.00000000
_cell_angle_gamma   120.00000175
_symmetry_Int_Tables_number   1
_chemical_formula_structural   Eu3Cd3CuPd2
_chemical_formula_sum   'Eu3 Cd3 Cu1 Pd2'
_cell_volume   217.91649745
_cell_formula_units_Z   1
loop_
 _symmetry_equiv_pos_site_id
 _symmetry_equiv_pos_as_xyz
  1  'x, y, z'
loop_
 _atom_site_type_symbol
 _atom_site_label
 _atom_site_symmetry_multiplicity
 _atom_site_fract_x
 _atom_site_fract_y
 _atom_site_fract_z
 _atom_site_occupancy
  Eu  Eu0  1  0.411044  0.000000  0.500000  1
  Eu  Eu1  1  0.000000  0.411044  0.500000  1
  Eu  Eu2  1  0.588956  0.588956  0.500000  1
  Cd  Cd3  1  0.752154  0.000000  0.000000  1
  Cd  Cd4  1  0.000000  0.752154  0.000000  1
  Cd  Cd5  1  0.247846  0.247846  0.000000  1
  Cu  Cu6  1  0.000000  0.000000  0.500000  1
  Pd  Pd7  1  0.333333  0.666667  0.000000  1
  Pd  Pd8  1  0.666667  0.333333  0.000000  1
