# generated using pymatgen
data_Y8Sc12Si15Rh
_symmetry_space_group_name_H-M   'P 1'
_cell_length_a   7.08192327
_cell_length_b   7.44465567
_cell_length_c   13.97256500
_cell_angle_alpha   90.00000000
_cell_angle_beta   90.00000000
_cell_angle_gamma   90.21650408
_symmetry_Int_Tables_number   1
_chemical_formula_structural   Y8Sc12Si15Rh
_chemical_formula_sum   'Y8 Sc12 Si15 Rh1'
_cell_volume   736.66302237
_cell_formula_units_Z   1
loop_
 _symmetry_equiv_pos_site_id
 _symmetry_equiv_pos_as_xyz
  1  'x, y, z'
loop_
 _atom_site_type_symbol
 _atom_site_label
 _atom_site_symmetry_multiplicity
 _atom_site_fract_x
 _atom_site_fract_y
 _atom_site_fract_z
 _atom_site_occupancy
  Y  Y0  1  0.011218  0.178093  0.096168  1
  Y  Y1  1  0.990996  0.824303  0.904675  1
  Y  Y2  1  0.489315  0.676783  0.904332  1
  Y  Y3  1  0.990996  0.824303  0.595325  1
  Y  Y4  1  0.511094  0.323033  0.096427  1
  Y  Y5  1  0.011218  0.178093  0.403832  1
  Y  Y6  1  0.511094  0.323033  0.403573  1
  Y  Y7  1  0.489315  0.676783  0.595668  1
  Sc  Sc8  1  0.158777  0.503242  0.750000  1
  Sc  Sc9  1  0.838020  0.496487  0.250000  1
  Sc  Sc10  1  0.338849  0.004328  0.250000  1
  Sc  Sc11  1  0.668766  0.999408  0.750000  1
  Sc  Sc12  1  0.320328  0.172781  0.627038  1
  Sc  Sc13  1  0.671126  0.825161  0.373925  1
  Sc  Sc14  1  0.170686  0.677317  0.374199  1
  Sc  Sc15  1  0.671126  0.825161  0.126075  1
  Sc  Sc16  1  0.834038  0.322133  0.626670  1
  Sc  Sc17  1  0.320328  0.172781  0.872962  1
  Sc  Sc18  1  0.834038  0.322133  0.873330  1
  Sc  Sc19  1  0.170686  0.677317  0.125801  1
  Si  Si20  1  0.968422  0.884083  0.250000  1
  Si  Si21  1  0.468015  0.615318  0.250000  1
  Si  Si22  1  0.530666  0.387252  0.750000  1
  Si  Si23  1  0.287448  0.869038  0.750000  1
  Si  Si24  1  0.713393  0.128652  0.250000  1
  Si  Si25  1  0.213286  0.372282  0.250000  1
  Si  Si26  1  0.780791  0.626192  0.750000  1
  Si  Si27  1  0.159156  0.467114  0.537984  1
  Si  Si28  1  0.843028  0.535893  0.461147  1
  Si  Si29  1  0.344736  0.965589  0.460500  1
  Si  Si30  1  0.843028  0.535893  0.038853  1
  Si  Si31  1  0.657488  0.034853  0.538758  1
  Si  Si32  1  0.159156  0.467114  0.962016  1
  Si  Si33  1  0.657488  0.034853  0.961242  1
  Si  Si34  1  0.344736  0.965589  0.039500  1
  Rh  Rh35  1  0.027145  0.107609  0.750000  1
