# generated using pymatgen
data_TbNd7Sc12Si15Hg
_symmetry_space_group_name_H-M   'P 1'
_cell_length_a   7.24425965
_cell_length_b   7.49780207
_cell_length_c   14.27373203
_cell_angle_alpha   89.82384736
_cell_angle_beta   89.65576031
_cell_angle_gamma   90.17186196
_symmetry_Int_Tables_number   1
_chemical_formula_structural   TbNd7Sc12Si15Hg
_chemical_formula_sum   'Tb1 Nd7 Sc12 Si15 Hg1'
_cell_volume   775.27119783
_cell_formula_units_Z   1
loop_
 _symmetry_equiv_pos_site_id
 _symmetry_equiv_pos_as_xyz
  1  'x, y, z'
loop_
 _atom_site_type_symbol
 _atom_site_label
 _atom_site_symmetry_multiplicity
 _atom_site_fract_x
 _atom_site_fract_y
 _atom_site_fract_z
 _atom_site_occupancy
  Tb  Tb0  1  0.497039  0.681320  0.602053  1
  Nd  Nd1  1  0.011934  0.173194  0.097740  1
  Nd  Nd2  1  0.987858  0.827794  0.903005  1
  Nd  Nd3  1  0.488084  0.673270  0.903637  1
  Nd  Nd4  1  0.989296  0.832680  0.598419  1
  Nd  Nd5  1  0.511301  0.326862  0.096845  1
  Nd  Nd6  1  0.008208  0.169090  0.398831  1
  Nd  Nd7  1  0.512033  0.324910  0.399298  1
  Sc  Sc8  1  0.162350  0.499715  0.754383  1
  Sc  Sc9  1  0.837583  0.501208  0.249738  1
  Sc  Sc10  1  0.338057  0.997512  0.248372  1
  Sc  Sc11  1  0.664429  0.999845  0.751662  1
  Sc  Sc12  1  0.342552  0.168799  0.629462  1
  Sc  Sc13  1  0.664080  0.823395  0.373226  1
  Sc  Sc14  1  0.167302  0.677352  0.370890  1
  Sc  Sc15  1  0.669610  0.824190  0.124098  1
  Sc  Sc16  1  0.823501  0.325799  0.625862  1
  Sc  Sc17  1  0.329319  0.174482  0.875195  1
  Sc  Sc18  1  0.829769  0.323836  0.875568  1
  Sc  Sc19  1  0.168864  0.675984  0.124758  1
  Si  Si20  1  0.035930  0.127534  0.750774  1
  Si  Si21  1  0.962728  0.876362  0.248396  1
  Si  Si22  1  0.464161  0.623149  0.248068  1
  Si  Si23  1  0.534740  0.381429  0.751114  1
  Si  Si24  1  0.288614  0.877412  0.750502  1
  Si  Si25  1  0.710317  0.119013  0.247935  1
  Si  Si26  1  0.211122  0.379542  0.248795  1
  Si  Si27  1  0.788625  0.621502  0.750798  1
  Si  Si28  1  0.836134  0.541842  0.459379  1
  Si  Si29  1  0.345154  0.957595  0.461480  1
  Si  Si30  1  0.847833  0.536667  0.039164  1
  Si  Si31  1  0.652678  0.035851  0.538523  1
  Si  Si32  1  0.151281  0.462647  0.961288  1
  Si  Si33  1  0.652003  0.037039  0.960181  1
  Si  Si34  1  0.347004  0.963088  0.039589  1
  Hg  Hg35  1  0.168507  0.458093  0.540969  1
