# generated using pymatgen
data_Tm8ReB24Ru2W
_symmetry_space_group_name_H-M   'P 1'
_cell_length_a   3.61287600
_cell_length_b   9.11906647
_cell_length_c   11.49698315
_cell_angle_alpha   89.78896785
_cell_angle_beta   90.00000000
_cell_angle_gamma   90.00000000
_symmetry_Int_Tables_number   1
_chemical_formula_structural   Tm8ReB24Ru2W
_chemical_formula_sum   'Tm8 Re1 B24 Ru2 W1'
_cell_volume   378.77768620
_cell_formula_units_Z   1
loop_
 _symmetry_equiv_pos_site_id
 _symmetry_equiv_pos_as_xyz
  1  'x, y, z'
loop_
 _atom_site_type_symbol
 _atom_site_label
 _atom_site_symmetry_multiplicity
 _atom_site_fract_x
 _atom_site_fract_y
 _atom_site_fract_z
 _atom_site_occupancy
  Tm  Tm0  1  0.000000  0.321985  0.416005  1
  Tm  Tm1  1  0.000000  0.675958  0.585907  1
  Tm  Tm2  1  0.000000  0.821339  0.086385  1
  Tm  Tm3  1  0.000000  0.179521  0.912186  1
  Tm  Tm4  1  0.000000  0.945604  0.371648  1
  Tm  Tm5  1  0.000000  0.057320  0.629312  1
  Tm  Tm6  1  0.000000  0.441567  0.127509  1
  Tm  Tm7  1  0.000000  0.557297  0.870432  1
  Re  Re8  1  0.000000  0.360963  0.680565  1
  B  B9  1  0.500000  0.550450  0.436181  1
  B  B10  1  0.500000  0.446686  0.567593  1
  B  B11  1  0.500000  0.053552  0.066407  1
  B  B12  1  0.500000  0.946541  0.933446  1
  B  B13  1  0.500000  0.752238  0.422419  1
  B  B14  1  0.500000  0.250713  0.580952  1
  B  B15  1  0.500000  0.248635  0.080527  1
  B  B16  1  0.500000  0.751048  0.919048  1
  B  B17  1  0.500000  0.796020  0.263082  1
  B  B18  1  0.500000  0.207456  0.735201  1
  B  B19  1  0.500000  0.290347  0.233935  1
  B  B20  1  0.500000  0.708990  0.765678  1
  B  B21  1  0.500000  0.631510  0.181348  1
  B  B22  1  0.500000  0.368774  0.815615  1
  B  B23  1  0.500000  0.130857  0.314334  1
  B  B24  1  0.500000  0.869308  0.685740  1
  B  B25  1  0.500000  0.983333  0.211796  1
  B  B26  1  0.500000  0.017592  0.788384  1
  B  B27  1  0.500000  0.476512  0.286750  1
  B  B28  1  0.500000  0.518331  0.712815  1
  B  B29  1  0.500000  0.603016  0.027343  1
  B  B30  1  0.500000  0.396634  0.971054  1
  B  B31  1  0.500000  0.103752  0.471429  1
  B  B32  1  0.500000  0.897748  0.529602  1
  Ru  Ru33  1  0.000000  0.137885  0.177810  1
  Ru  Ru34  1  0.000000  0.862190  0.821307  1
  W  W35  1  0.000000  0.638330  0.320254  1
