# generated using pymatgen
data_Pa2P3S
_symmetry_space_group_name_H-M   'P 1'
_cell_length_a   3.84183900
_cell_length_b   3.84183900
_cell_length_c   7.88278700
_cell_angle_alpha   90.00000000
_cell_angle_beta   90.00000000
_cell_angle_gamma   90.00000000
_symmetry_Int_Tables_number   1
_chemical_formula_structural   Pa2P3S
_chemical_formula_sum   'Pa2 P3 S1'
_cell_volume   116.34778335
_cell_formula_units_Z   1
loop_
 _symmetry_equiv_pos_site_id
 _symmetry_equiv_pos_as_xyz
  1  'x, y, z'
loop_
 _atom_site_type_symbol
 _atom_site_label
 _atom_site_symmetry_multiplicity
 _atom_site_fract_x
 _atom_site_fract_y
 _atom_site_fract_z
 _atom_site_occupancy
  Pa  Pa0  1  0.000000  0.500000  0.724529  1
  Pa  Pa1  1  0.500000  0.000000  0.276430  1
  P  P2  1  0.500000  0.000000  0.640143  1
  P  P3  1  0.000000  0.000000  0.999925  1
  P  P4  1  0.500000  0.500000  0.999925  1
  S  S5  1  0.000000  0.500000  0.359047  1
