# generated using pymatgen
data_Yb3Np(Pt2O7)2
_symmetry_space_group_name_H-M   'P 1'
_cell_length_a   7.21282019
_cell_length_b   7.24417697
_cell_length_c   7.21282000
_cell_angle_alpha   60.14307600
_cell_angle_beta   59.99999172
_cell_angle_gamma   60.14307612
_symmetry_Int_Tables_number   1
_chemical_formula_structural   Yb3Np(Pt2O7)2
_chemical_formula_sum   'Yb3 Np1 Pt4 O14'
_cell_volume   267.06689141
_cell_formula_units_Z   1
loop_
 _symmetry_equiv_pos_site_id
 _symmetry_equiv_pos_as_xyz
  1  'x, y, z'
loop_
 _atom_site_type_symbol
 _atom_site_label
 _atom_site_symmetry_multiplicity
 _atom_site_fract_x
 _atom_site_fract_y
 _atom_site_fract_z
 _atom_site_occupancy
  Yb  Yb0  1  0.125000  0.125000  0.125000  1
  Yb  Yb1  1  0.625000  0.125000  0.125000  1
  Yb  Yb2  1  0.125000  0.125000  0.625000  1
  Np  Np3  1  0.125000  0.625000  0.125000  1
  Pt  Pt4  1  0.625000  0.625000  0.625000  1
  Pt  Pt5  1  0.125000  0.625000  0.625000  1
  Pt  Pt6  1  0.625000  0.625000  0.125000  1
  Pt  Pt7  1  0.625000  0.125000  0.625000  1
  O  O8  1  0.014281  0.957156  0.014281  1
  O  O9  1  0.235719  0.292844  0.235719  1
  O  O10  1  0.525755  0.544085  0.965080  1
  O  O11  1  0.282661  0.285730  0.715805  1
  O  O12  1  0.965080  0.544085  0.965080  1
  O  O13  1  0.965080  0.544085  0.525755  1
  O  O14  1  0.534195  0.964270  0.967339  1
  O  O15  1  0.534195  0.964270  0.534195  1
  O  O16  1  0.967339  0.964270  0.534195  1
  O  O17  1  0.715805  0.285730  0.282661  1
  O  O18  1  0.284920  0.705915  0.724245  1
  O  O19  1  0.724245  0.705915  0.284920  1
  O  O20  1  0.715805  0.285730  0.715805  1
  O  O21  1  0.284920  0.705915  0.284920  1
