# generated using pymatgen
data_Li4Y4PdPt3
_symmetry_space_group_name_H-M   'P 1'
_cell_length_a   3.99364500
_cell_length_b   7.11308918
_cell_length_c   8.52496830
_cell_angle_alpha   89.61685964
_cell_angle_beta   90.00000000
_cell_angle_gamma   90.00000000
_symmetry_Int_Tables_number   1
_chemical_formula_structural   Li4Y4PdPt3
_chemical_formula_sum   'Li4 Y4 Pd1 Pt3'
_cell_volume   242.16466459
_cell_formula_units_Z   1
loop_
 _symmetry_equiv_pos_site_id
 _symmetry_equiv_pos_as_xyz
  1  'x, y, z'
loop_
 _atom_site_type_symbol
 _atom_site_label
 _atom_site_symmetry_multiplicity
 _atom_site_fract_x
 _atom_site_fract_y
 _atom_site_fract_z
 _atom_site_occupancy
  Li  Li0  1  0.250000  0.375782  0.556566  1
  Li  Li1  1  0.250000  0.874666  0.940731  1
  Li  Li2  1  0.750000  0.623174  0.443547  1
  Li  Li3  1  0.750000  0.123387  0.058420  1
  Y  Y4  1  0.250000  0.950142  0.317634  1
  Y  Y5  1  0.250000  0.453996  0.183790  1
  Y  Y6  1  0.750000  0.045491  0.676275  1
  Y  Y7  1  0.750000  0.555096  0.821510  1
  Pd  Pd8  1  0.250000  0.253646  0.876584  1
  Pt  Pt9  1  0.250000  0.753244  0.626134  1
  Pt  Pt10  1  0.750000  0.746447  0.124357  1
  Pt  Pt11  1  0.750000  0.244926  0.374452  1
