# generated using pymatgen
data_La10Sn5BiP2
_symmetry_space_group_name_H-M   'P 1'
_cell_length_a   9.65581872
_cell_length_b   9.63760199
_cell_length_c   7.18054900
_cell_angle_alpha   90.00000000
_cell_angle_beta   90.00000000
_cell_angle_gamma   119.93762568
_symmetry_Int_Tables_number   1
_chemical_formula_structural   La10Sn5BiP2
_chemical_formula_sum   'La10 Sn5 Bi1 P2'
_cell_volume   579.05390504
_cell_formula_units_Z   1
loop_
 _symmetry_equiv_pos_site_id
 _symmetry_equiv_pos_as_xyz
  1  'x, y, z'
loop_
 _atom_site_type_symbol
 _atom_site_label
 _atom_site_symmetry_multiplicity
 _atom_site_fract_x
 _atom_site_fract_y
 _atom_site_fract_z
 _atom_site_occupancy
  La  La0  1  0.762279  0.761945  0.750000  1
  La  La1  1  0.237721  0.999666  0.750000  1
  La  La2  1  0.000000  0.237725  0.750000  1
  La  La3  1  0.241162  0.236239  0.250000  1
  La  La4  1  0.758838  0.995076  0.250000  1
  La  La5  1  0.000000  0.762763  0.250000  1
  La  La6  1  0.662161  0.332591  0.997425  1
  La  La7  1  0.337839  0.670430  0.997425  1
  La  La8  1  0.337839  0.670430  0.502575  1
  La  La9  1  0.662161  0.332591  0.502575  1
  Sn  Sn10  1  0.399431  0.400521  0.750000  1
  Sn  Sn11  1  0.600569  0.001091  0.750000  1
  Sn  Sn12  1  0.000000  0.599446  0.750000  1
  Sn  Sn13  1  0.599263  0.599047  0.250000  1
  Sn  Sn14  1  0.400737  0.999784  0.250000  1
  Bi  Bi15  1  0.000000  0.398845  0.250000  1
  P  P16  1  0.000000  0.000905  0.000845  1
  P  P17  1  0.000000  0.000905  0.499155  1
