# generated using pymatgen
data_Tb2Nd2Zn9GaSn2
_symmetry_space_group_name_H-M   'P 1'
_cell_length_a   8.46923870
_cell_length_b   8.46923837
_cell_length_c   9.07811537
_cell_angle_alpha   90.27975028
_cell_angle_beta   89.72024480
_cell_angle_gamma   149.73823733
_symmetry_Int_Tables_number   1
_chemical_formula_structural   Tb2Nd2Zn9GaSn2
_chemical_formula_sum   'Tb2 Nd2 Zn9 Ga1 Sn2'
_cell_volume   328.14625335
_cell_formula_units_Z   1
loop_
 _symmetry_equiv_pos_site_id
 _symmetry_equiv_pos_as_xyz
  1  'x, y, z'
loop_
 _atom_site_type_symbol
 _atom_site_label
 _atom_site_symmetry_multiplicity
 _atom_site_fract_x
 _atom_site_fract_y
 _atom_site_fract_z
 _atom_site_occupancy
  Tb  Tb0  1  0.203713  0.796287  0.249531  1
  Tb  Tb1  1  0.796099  0.203901  0.750939  1
  Nd  Nd2  1  0.000087  0.999913  0.500518  1
  Nd  Nd3  1  0.000968  0.999032  0.998248  1
  Zn  Zn4  1  0.186534  0.813467  0.611089  1
  Zn  Zn5  1  0.812776  0.187224  0.106491  1
  Zn  Zn6  1  0.187028  0.812972  0.891152  1
  Zn  Zn7  1  0.656831  0.343169  0.482520  1
  Zn  Zn8  1  0.342429  0.657571  0.519812  1
  Zn  Zn9  1  0.657755  0.342246  0.016918  1
  Zn  Zn10  1  0.342109  0.657892  0.982727  1
  Zn  Zn11  1  0.394260  0.605740  0.247875  1
  Zn  Zn12  1  0.606999  0.393001  0.750353  1
  Ga  Ga13  1  0.811937  0.188063  0.391235  1
  Sn  Sn14  1  0.556178  0.443823  0.249988  1
  Sn  Sn15  1  0.444300  0.555701  0.750604  1
