# generated using pymatgen
data_La3Zn2Sb5As
_symmetry_space_group_name_H-M   'P 1'
_cell_length_a   4.31287400
_cell_length_b   10.53574700
_cell_length_c   13.31549700
_cell_angle_alpha   90.00000000
_cell_angle_beta   90.00000000
_cell_angle_gamma   90.00000000
_symmetry_Int_Tables_number   1
_chemical_formula_structural   La3Zn2Sb5As
_chemical_formula_sum   'La6 Zn4 Sb10 As2'
_cell_volume   605.04751938
_cell_formula_units_Z   2
loop_
 _symmetry_equiv_pos_site_id
 _symmetry_equiv_pos_as_xyz
  1  'x, y, z'
loop_
 _atom_site_type_symbol
 _atom_site_label
 _atom_site_symmetry_multiplicity
 _atom_site_fract_x
 _atom_site_fract_y
 _atom_site_fract_z
 _atom_site_occupancy
  La  La0  1  0.750000  0.253054  0.750000  1
  La  La1  1  0.750000  0.253404  0.404496  1
  La  La2  1  0.250000  0.746596  0.904496  1
  La  La3  1  0.250000  0.746596  0.595504  1
  La  La4  1  0.250000  0.746946  0.250000  1
  La  La5  1  0.750000  0.253404  0.095504  1
  Zn  Zn6  1  0.250000  0.007938  0.102987  1
  Zn  Zn7  1  0.250000  0.007938  0.397013  1
  Zn  Zn8  1  0.750000  0.992062  0.602987  1
  Zn  Zn9  1  0.750000  0.992062  0.897013  1
  Sb  Sb10  1  0.750000  0.502796  0.250000  1
  Sb  Sb11  1  0.750000  0.494038  0.917725  1
  Sb  Sb12  1  0.750000  0.851490  0.419764  1
  Sb  Sb13  1  0.250000  0.148510  0.919764  1
  Sb  Sb14  1  0.250000  0.148510  0.580236  1
  Sb  Sb15  1  0.250000  0.505962  0.082275  1
  Sb  Sb16  1  0.250000  0.497204  0.750000  1
  Sb  Sb17  1  0.250000  0.505962  0.417725  1
  Sb  Sb18  1  0.750000  0.494038  0.582275  1
  Sb  Sb19  1  0.750000  0.851490  0.080236  1
  As  As20  1  0.750000  0.836381  0.750000  1
  As  As21  1  0.250000  0.163619  0.250000  1
