# generated using pymatgen
data_TbTh(Cu5Sn)2
_symmetry_space_group_name_H-M   'P 1'
_cell_length_a   8.28981100
_cell_length_b   5.07262300
_cell_length_c   10.59180000
_cell_angle_alpha   90.00000000
_cell_angle_beta   90.00000000
_cell_angle_gamma   90.00000000
_symmetry_Int_Tables_number   1
_chemical_formula_structural   TbTh(Cu5Sn)2
_chemical_formula_sum   'Tb2 Th2 Cu20 Sn4'
_cell_volume   445.39669210
_cell_formula_units_Z   2
loop_
 _symmetry_equiv_pos_site_id
 _symmetry_equiv_pos_as_xyz
  1  'x, y, z'
loop_
 _atom_site_type_symbol
 _atom_site_label
 _atom_site_symmetry_multiplicity
 _atom_site_fract_x
 _atom_site_fract_y
 _atom_site_fract_z
 _atom_site_occupancy
  Tb  Tb0  1  0.248526  0.750001  0.060800  1
  Tb  Tb1  1  0.748526  0.750001  0.439200  1
  Th  Th2  1  0.248918  0.250000  0.556867  1
  Th  Th3  1  0.748918  0.250000  0.943133  1
  Cu  Cu4  1  0.411917  0.250000  0.019070  1
  Cu  Cu5  1  0.069672  0.250000  0.104440  1
  Cu  Cu6  1  0.570993  0.501263  0.187143  1
  Cu  Cu7  1  0.570993  0.998739  0.187143  1
  Cu  Cu8  1  0.320798  0.250000  0.247239  1
  Cu  Cu9  1  0.820798  0.250000  0.252761  1
  Cu  Cu10  1  0.070993  0.501263  0.312857  1
  Cu  Cu11  1  0.070993  0.998739  0.312857  1
  Cu  Cu12  1  0.569672  0.250000  0.395560  1
  Cu  Cu13  1  0.911917  0.250000  0.480931  1
  Cu  Cu14  1  0.075132  0.750001  0.516453  1
  Cu  Cu15  1  0.438454  0.750001  0.602689  1
  Cu  Cu16  1  0.928995  0.001168  0.687922  1
  Cu  Cu17  1  0.928995  0.498832  0.687922  1
  Cu  Cu18  1  0.181607  0.750001  0.742709  1
  Cu  Cu19  1  0.681606  0.750001  0.757291  1
  Cu  Cu20  1  0.428995  0.001168  0.812078  1
  Cu  Cu21  1  0.428995  0.498832  0.812078  1
  Cu  Cu22  1  0.938454  0.750001  0.897311  1
  Cu  Cu23  1  0.575132  0.750001  0.983547  1
  Sn  Sn24  1  0.865965  0.750001  0.142423  1
  Sn  Sn25  1  0.365965  0.750001  0.357578  1
  Sn  Sn26  1  0.639034  0.250000  0.639299  1
  Sn  Sn27  1  0.139034  0.250000  0.860701  1
