# generated using pymatgen
data_Cu29Si8Pd
_symmetry_space_group_name_H-M   'P 1'
_cell_length_a   8.42611219
_cell_length_b   8.42611278
_cell_length_c   8.42611226
_cell_angle_alpha   109.57295204
_cell_angle_beta   109.57295119
_cell_angle_gamma   109.26795224
_symmetry_Int_Tables_number   1
_chemical_formula_structural   Cu29Si8Pd
_chemical_formula_sum   'Cu29 Si8 Pd1'
_cell_volume   460.52768514
_cell_formula_units_Z   1
loop_
 _symmetry_equiv_pos_site_id
 _symmetry_equiv_pos_as_xyz
  1  'x, y, z'
loop_
 _atom_site_type_symbol
 _atom_site_label
 _atom_site_symmetry_multiplicity
 _atom_site_fract_x
 _atom_site_fract_y
 _atom_site_fract_z
 _atom_site_occupancy
  Cu  Cu0  1  0.251867  0.625791  0.377762  1
  Cu  Cu1  1  0.748029  0.874104  0.122238  1
  Cu  Cu2  1  0.125896  0.748133  0.873924  1
  Cu  Cu3  1  0.374209  0.251971  0.626076  1
  Cu  Cu4  1  0.875000  0.125000  0.750000  1
  Cu  Cu5  1  0.074607  0.275108  0.123722  1
  Cu  Cu6  1  0.700660  0.049661  0.925887  1
  Cu  Cu7  1  0.886549  0.454232  0.151508  1
  Cu  Cu8  1  0.154152  0.878070  0.452244  1
  Cu  Cu9  1  0.347866  0.797435  0.725785  1
  Cu  Cu10  1  0.724892  0.348614  0.799499  1
  Cu  Cu11  1  0.049115  0.925393  0.700501  1
  Cu  Cu12  1  0.225227  0.299340  0.849000  1
  Cu  Cu13  1  0.202565  0.428350  0.550431  1
  Cu  Cu14  1  0.950339  0.376226  0.651000  1
  Cu  Cu15  1  0.298092  0.845848  0.223918  1
  Cu  Cu16  1  0.545768  0.197276  0.432317  1
  Cu  Cu17  1  0.377919  0.652134  0.949569  1
  Cu  Cu18  1  0.121930  0.074174  0.276082  1
  Cu  Cu19  1  0.264959  0.113451  0.067683  1
  Cu  Cu20  1  0.854551  0.222368  0.298430  1
  Cu  Cu21  1  0.423938  0.556122  0.201570  1
  Cu  Cu22  1  0.651386  0.950885  0.376278  1
  Cu  Cu23  1  0.623774  0.774773  0.574113  1
  Cu  Cu24  1  0.571650  0.622081  0.774215  1
  Cu  Cu25  1  0.777632  0.576062  0.632184  1
  Cu  Cu26  1  0.802724  0.735041  0.348492  1
  Cu  Cu27  1  0.925826  0.701908  0.047756  1
  Cu  Cu28  1  0.443878  0.145449  0.867816  1
  Si  Si29  1  0.413094  0.412562  0.410861  1
  Si  Si30  1  0.500184  0.999294  0.588338  1
  Si  Si31  1  0.587438  0.498299  0.000532  1
  Si  Si32  1  0.997767  0.586906  0.499468  1
  Si  Si33  1  0.088154  0.499816  0.999110  1
  Si  Si34  1  0.000706  0.089043  0.500890  1
  Si  Si35  1  0.501701  0.002233  0.089139  1
  Si  Si36  1  0.910957  0.911846  0.911662  1
  Pd  Pd37  1  0.625000  0.375000  0.250000  1
