# generated using pymatgen
data_YLu(SnRh)2
_symmetry_space_group_name_H-M   'P 1'
_cell_length_a   7.47003100
_cell_length_b   7.47003209
_cell_length_c   7.82891900
_cell_angle_alpha   90.00000000
_cell_angle_beta   90.00000000
_cell_angle_gamma   120.00000081
_symmetry_Int_Tables_number   1
_chemical_formula_structural   YLu(SnRh)2
_chemical_formula_sum   'Y3 Lu3 Sn6 Rh6'
_cell_volume   378.33567881
_cell_formula_units_Z   3
loop_
 _symmetry_equiv_pos_site_id
 _symmetry_equiv_pos_as_xyz
  1  'x, y, z'
loop_
 _atom_site_type_symbol
 _atom_site_label
 _atom_site_symmetry_multiplicity
 _atom_site_fract_x
 _atom_site_fract_y
 _atom_site_fract_z
 _atom_site_occupancy
  Y  Y0  1  0.592215  0.000137  0.250000  1
  Y  Y1  1  0.407921  0.407785  0.250000  1
  Y  Y2  1  0.999863  0.592079  0.250000  1
  Lu  Lu3  1  0.596541  0.999820  0.750000  1
  Lu  Lu4  1  0.403279  0.403459  0.750000  1
  Lu  Lu5  1  0.000180  0.596721  0.750000  1
  Sn  Sn6  1  0.260027  0.000018  0.996927  1
  Sn  Sn7  1  0.739992  0.739973  0.503073  1
  Sn  Sn8  1  0.999982  0.260008  0.503073  1
  Sn  Sn9  1  0.999982  0.260008  0.996927  1
  Sn  Sn10  1  0.739992  0.739973  0.996927  1
  Sn  Sn11  1  0.260027  0.000018  0.503073  1
  Rh  Rh12  1  0.666667  0.333333  0.985304  1
  Rh  Rh13  1  0.666667  0.333333  0.514696  1
  Rh  Rh14  1  0.333333  0.666667  0.986118  1
  Rh  Rh15  1  0.333333  0.666667  0.513882  1
  Rh  Rh16  1  0.000000  0.000000  0.750000  1
  Rh  Rh17  1  0.000000  0.000000  0.250000  1
