# generated using pymatgen
data_Li3La2LuAu3
_symmetry_space_group_name_H-M   'P 1'
_cell_length_a   7.44399300
_cell_length_b   7.46991589
_cell_length_c   4.24441800
_cell_angle_alpha   90.00000000
_cell_angle_beta   90.00000000
_cell_angle_gamma   120.11525004
_symmetry_Int_Tables_number   1
_chemical_formula_structural   Li3La2LuAu3
_chemical_formula_sum   'Li3 La2 Lu1 Au3'
_cell_volume   204.15729973
_cell_formula_units_Z   1
loop_
 _symmetry_equiv_pos_site_id
 _symmetry_equiv_pos_as_xyz
  1  'x, y, z'
loop_
 _atom_site_type_symbol
 _atom_site_label
 _atom_site_symmetry_multiplicity
 _atom_site_fract_x
 _atom_site_fract_y
 _atom_site_fract_z
 _atom_site_occupancy
  Li  Li0  1  0.776419  0.767045  0.500000  1
  Li  Li1  1  0.223581  0.990626  0.500000  1
  Li  Li2  1  0.000000  0.233538  0.500000  1
  La  La3  1  0.411412  0.413937  0.000000  1
  La  La4  1  0.588588  0.002524  0.000000  1
  Lu  Lu5  1  0.000000  0.594972  0.000000  1
  Au  Au6  1  0.000000  0.985255  0.000000  1
  Au  Au7  1  0.690067  0.351083  0.500000  1
  Au  Au8  1  0.309933  0.661017  0.500000  1
