# generated using pymatgen
data_PrVF7
_symmetry_space_group_name_H-M   'P 1'
_cell_length_a   5.64662100
_cell_length_b   9.16485717
_cell_length_c   12.15571256
_cell_angle_alpha   62.21625338
_cell_angle_beta   90.00000000
_cell_angle_gamma   90.00000000
_symmetry_Int_Tables_number   1
_chemical_formula_structural   PrVF7
_chemical_formula_sum   'Pr4 V4 F28'
_cell_volume   556.54116087
_cell_formula_units_Z   4
loop_
 _symmetry_equiv_pos_site_id
 _symmetry_equiv_pos_as_xyz
  1  'x, y, z'
loop_
 _atom_site_type_symbol
 _atom_site_label
 _atom_site_symmetry_multiplicity
 _atom_site_fract_x
 _atom_site_fract_y
 _atom_site_fract_z
 _atom_site_occupancy
  Pr  Pr0  1  0.759406  0.807433  0.766332  1
  Pr  Pr1  1  0.259406  0.192567  0.733668  1
  Pr  Pr2  1  0.240594  0.192567  0.233668  1
  Pr  Pr3  1  0.740594  0.807433  0.266332  1
  V  V4  1  0.755341  0.274158  0.957118  1
  V  V5  1  0.255341  0.725842  0.542882  1
  V  V6  1  0.244659  0.725842  0.042882  1
  V  V7  1  0.744659  0.274158  0.457118  1
  F  F8  1  0.433556  0.708066  0.921796  1
  F  F9  1  0.933556  0.291934  0.578204  1
  F  F10  1  0.566444  0.291934  0.078204  1
  F  F11  1  0.066444  0.708066  0.421796  1
  F  F12  1  0.461762  0.282581  0.540431  1
  F  F13  1  0.961762  0.717419  0.959569  1
  F  F14  1  0.538238  0.717419  0.459569  1
  F  F15  1  0.038238  0.282581  0.040431  1
  F  F16  1  0.764292  0.502204  0.867459  1
  F  F17  1  0.264292  0.497796  0.632541  1
  F  F18  1  0.235708  0.497796  0.132541  1
  F  F19  1  0.735708  0.502204  0.367459  1
  F  F20  1  0.761926  0.047589  0.045168  1
  F  F21  1  0.261926  0.952411  0.454832  1
  F  F22  1  0.238074  0.952411  0.954832  1
  F  F23  1  0.738074  0.047589  0.545168  1
  F  F24  1  0.979716  0.730779  0.630662  1
  F  F25  1  0.479716  0.269221  0.869338  1
  F  F26  1  0.020284  0.269221  0.369338  1
  F  F27  1  0.520284  0.730779  0.130662  1
  F  F28  1  0.057373  0.742567  0.166866  1
  F  F29  1  0.557373  0.257433  0.333134  1
  F  F30  1  0.942627  0.257433  0.833134  1
  F  F31  1  0.442627  0.742567  0.666866  1
  F  F32  1  0.404267  0.968832  0.226716  1
  F  F33  1  0.904267  0.031168  0.273284  1
  F  F34  1  0.595733  0.031168  0.773284  1
  F  F35  1  0.095733  0.968832  0.726716  1
