# generated using pymatgen
data_Pr8Ho12Si15Sn
_symmetry_space_group_name_H-M   'P 1'
_cell_length_a   7.52650198
_cell_length_b   7.83680763
_cell_length_c   14.90330035
_cell_angle_alpha   90.05355608
_cell_angle_beta   89.39858060
_cell_angle_gamma   90.08689660
_symmetry_Int_Tables_number   1
_chemical_formula_structural   Pr8Ho12Si15Sn
_chemical_formula_sum   'Pr8 Ho12 Si15 Sn1'
_cell_volume   879.00270547
_cell_formula_units_Z   1
loop_
 _symmetry_equiv_pos_site_id
 _symmetry_equiv_pos_as_xyz
  1  'x, y, z'
loop_
 _atom_site_type_symbol
 _atom_site_label
 _atom_site_symmetry_multiplicity
 _atom_site_fract_x
 _atom_site_fract_y
 _atom_site_fract_z
 _atom_site_occupancy
  Pr  Pr0  1  0.012097  0.172059  0.398336  1
  Pr  Pr1  1  0.516856  0.319911  0.399106  1
  Pr  Pr2  1  0.482956  0.679377  0.902172  1
  Pr  Pr3  1  0.494343  0.684882  0.601494  1
  Pr  Pr4  1  0.983661  0.826548  0.600069  1
  Pr  Pr5  1  0.982338  0.821898  0.902465  1
  Pr  Pr6  1  0.517308  0.320607  0.098690  1
  Pr  Pr7  1  0.017358  0.179049  0.098146  1
  Ho  Ho8  1  0.337568  0.164945  0.628822  1
  Ho  Ho9  1  0.668003  0.823429  0.375095  1
  Ho  Ho10  1  0.662840  0.990757  0.752199  1
  Ho  Ho11  1  0.167065  0.685057  0.371618  1
  Ho  Ho12  1  0.825582  0.322428  0.877628  1
  Ho  Ho13  1  0.820136  0.323490  0.624164  1
  Ho  Ho14  1  0.837826  0.490541  0.249500  1
  Ho  Ho15  1  0.339423  0.009599  0.248831  1
  Ho  Ho16  1  0.324833  0.176600  0.877514  1
  Ho  Ho17  1  0.174013  0.677486  0.122851  1
  Ho  Ho18  1  0.673361  0.821830  0.122062  1
  Ho  Ho19  1  0.161484  0.508489  0.754096  1
  Si  Si20  1  0.280091  0.874992  0.752314  1
  Si  Si21  1  0.464764  0.614420  0.248481  1
  Si  Si22  1  0.033576  0.117538  0.751126  1
  Si  Si23  1  0.533513  0.385971  0.752409  1
  Si  Si24  1  0.963401  0.887195  0.247154  1
  Si  Si25  1  0.719864  0.120566  0.247966  1
  Si  Si26  1  0.851610  0.532450  0.039140  1
  Si  Si27  1  0.351045  0.967450  0.039277  1
  Si  Si28  1  0.147979  0.467055  0.961615  1
  Si  Si29  1  0.654608  0.034814  0.537676  1
  Si  Si30  1  0.346101  0.966867  0.460751  1
  Si  Si31  1  0.837526  0.536516  0.458703  1
  Si  Si32  1  0.782594  0.622328  0.751463  1
  Si  Si33  1  0.219423  0.379322  0.249173  1
  Si  Si34  1  0.647515  0.033169  0.961119  1
  Sn  Sn35  1  0.167337  0.460365  0.536775  1
