# generated using pymatgen
data_Tb7Nd6Dy3(CdPt)4
_symmetry_space_group_name_H-M   'P 1'
_cell_length_a   9.82555612
_cell_length_b   9.80928194
_cell_length_c   9.82291754
_cell_angle_alpha   60.06370156
_cell_angle_beta   60.09544619
_cell_angle_gamma   60.03698952
_symmetry_Int_Tables_number   1
_chemical_formula_structural   Tb7Nd6Dy3(CdPt)4
_chemical_formula_sum   'Tb7 Nd6 Dy3 Cd4 Pt4'
_cell_volume   670.44421536
_cell_formula_units_Z   1
loop_
 _symmetry_equiv_pos_site_id
 _symmetry_equiv_pos_as_xyz
  1  'x, y, z'
loop_
 _atom_site_type_symbol
 _atom_site_label
 _atom_site_symmetry_multiplicity
 _atom_site_fract_x
 _atom_site_fract_y
 _atom_site_fract_z
 _atom_site_occupancy
  Tb  Tb0  1  0.350342  0.350224  0.350717  1
  Tb  Tb1  1  0.350987  0.350446  0.947770  1
  Tb  Tb2  1  0.350717  0.948717  0.350342  1
  Tb  Tb3  1  0.947770  0.350796  0.350987  1
  Tb  Tb4  1  0.811420  0.188843  0.188568  1
  Tb  Tb5  1  0.188568  0.811170  0.811420  1
  Tb  Tb6  1  0.188747  0.811253  0.188747  1
  Nd  Nd7  1  0.937917  0.562353  0.562137  1
  Nd  Nd8  1  0.562137  0.937592  0.937917  1
  Nd  Nd9  1  0.562073  0.937927  0.562073  1
  Nd  Nd10  1  0.937685  0.562315  0.937685  1
  Nd  Nd11  1  0.562171  0.562283  0.938011  1
  Nd  Nd12  1  0.938011  0.937536  0.562171  1
  Dy  Dy13  1  0.811145  0.188855  0.811145  1
  Dy  Dy14  1  0.188647  0.189097  0.811209  1
  Dy  Dy15  1  0.811209  0.811046  0.188647  1
  Cd  Cd16  1  0.580092  0.579883  0.579975  1
  Cd  Cd17  1  0.580040  0.580016  0.260046  1
  Cd  Cd18  1  0.579975  0.260051  0.580092  1
  Cd  Cd19  1  0.260046  0.579899  0.580040  1
  Pt  Pt20  1  0.142925  0.142861  0.142446  1
  Pt  Pt21  1  0.142502  0.142745  0.572426  1
  Pt  Pt22  1  0.142446  0.571766  0.142925  1
  Pt  Pt23  1  0.572426  0.142326  0.142502  1
