# generated using pymatgen
data_MgZr6Zn22Si
_symmetry_space_group_name_H-M   'P 1'
_cell_length_a   8.81201128
_cell_length_b   8.81201103
_cell_length_c   8.81201200
_cell_angle_alpha   60.00000385
_cell_angle_beta   60.00000482
_cell_angle_gamma   60.00000008
_symmetry_Int_Tables_number   1
_chemical_formula_structural   MgZr6Zn22Si
_chemical_formula_sum   'Mg1 Zr6 Zn22 Si1'
_cell_volume   483.84937813
_cell_formula_units_Z   1
loop_
 _symmetry_equiv_pos_site_id
 _symmetry_equiv_pos_as_xyz
  1  'x, y, z'
loop_
 _atom_site_type_symbol
 _atom_site_label
 _atom_site_symmetry_multiplicity
 _atom_site_fract_x
 _atom_site_fract_y
 _atom_site_fract_z
 _atom_site_occupancy
  Mg  Mg0  1  0.000000  0.000000  0.000000  1
  Zr  Zr1  1  0.711031  0.288969  0.288969  1
  Zr  Zr2  1  0.288969  0.711031  0.711031  1
  Zr  Zr3  1  0.288969  0.711031  0.288969  1
  Zr  Zr4  1  0.711031  0.288969  0.711031  1
  Zr  Zr5  1  0.288969  0.288969  0.711031  1
  Zr  Zr6  1  0.711031  0.711031  0.288969  1
  Zn  Zn7  1  0.125955  0.125955  0.125955  1
  Zn  Zn8  1  0.874045  0.874045  0.874045  1
  Zn  Zn9  1  0.125955  0.125955  0.622136  1
  Zn  Zn10  1  0.125955  0.622136  0.125955  1
  Zn  Zn11  1  0.874045  0.874045  0.377864  1
  Zn  Zn12  1  0.874045  0.377864  0.874045  1
  Zn  Zn13  1  0.622136  0.125955  0.125955  1
  Zn  Zn14  1  0.377864  0.874045  0.874045  1
  Zn  Zn15  1  0.500000  0.000000  0.000000  1
  Zn  Zn16  1  0.000000  0.500000  0.500000  1
  Zn  Zn17  1  0.000000  0.500000  0.000000  1
  Zn  Zn18  1  0.500000  0.000000  0.500000  1
  Zn  Zn19  1  0.000000  0.000000  0.500000  1
  Zn  Zn20  1  0.500000  0.500000  0.000000  1
  Zn  Zn21  1  0.335943  0.335943  0.335943  1
  Zn  Zn22  1  0.664057  0.664057  0.664057  1
  Zn  Zn23  1  0.335943  0.335943  0.992172  1
  Zn  Zn24  1  0.335943  0.992172  0.335943  1
  Zn  Zn25  1  0.664057  0.664057  0.007828  1
  Zn  Zn26  1  0.664057  0.007828  0.664057  1
  Zn  Zn27  1  0.992172  0.335943  0.335943  1
  Zn  Zn28  1  0.007828  0.664057  0.664057  1
  Si  Si29  1  0.500000  0.500000  0.500000  1
