# generated using pymatgen
data_LaSb12MoOs3
_symmetry_space_group_name_H-M   'P 1'
_cell_length_a   8.18827306
_cell_length_b   8.24411324
_cell_length_c   8.24411362
_cell_angle_alpha   109.60801703
_cell_angle_beta   109.33406852
_cell_angle_gamma   109.33407304
_symmetry_Int_Tables_number   1
_chemical_formula_structural   LaSb12MoOs3
_chemical_formula_sum   'La1 Sb12 Mo1 Os3'
_cell_volume   429.13176415
_cell_formula_units_Z   1
loop_
 _symmetry_equiv_pos_site_id
 _symmetry_equiv_pos_as_xyz
  1  'x, y, z'
loop_
 _atom_site_type_symbol
 _atom_site_label
 _atom_site_symmetry_multiplicity
 _atom_site_fract_x
 _atom_site_fract_y
 _atom_site_fract_z
 _atom_site_occupancy
  La  La0  1  0.000000  0.000000  0.000000  1
  Sb  Sb1  1  0.335513  0.185121  0.839673  1
  Sb  Sb2  1  0.664487  0.814879  0.160327  1
  Sb  Sb3  1  0.661640  0.504435  0.842247  1
  Sb  Sb4  1  0.338360  0.495565  0.157753  1
  Sb  Sb5  1  0.180607  0.842247  0.337813  1
  Sb  Sb6  1  0.819393  0.157753  0.662187  1
  Sb  Sb7  1  0.504160  0.839673  0.654551  1
  Sb  Sb8  1  0.495840  0.160327  0.345449  1
  Sb  Sb9  1  0.849609  0.345449  0.185121  1
  Sb  Sb10  1  0.150391  0.654551  0.814879  1
  Sb  Sb11  1  0.842795  0.662187  0.504435  1
  Sb  Sb12  1  0.157205  0.337813  0.495565  1
  Mo  Mo13  1  0.500000  0.000000  0.000000  1
  Os  Os14  1  0.000000  0.000000  0.500000  1
  Os  Os15  1  0.000000  0.500000  0.000000  1
  Os  Os16  1  0.500000  0.500000  0.500000  1
