# generated using pymatgen
data_Zr12Mn3Be(Ir2N)4
_symmetry_space_group_name_H-M   'P 1'
_cell_length_a   8.51973121
_cell_length_b   8.51973015
_cell_length_c   8.51973095
_cell_angle_alpha   60.30657661
_cell_angle_beta   60.30657923
_cell_angle_gamma   60.30657567
_symmetry_Int_Tables_number   1
_chemical_formula_structural   Zr12Mn3Be(Ir2N)4
_chemical_formula_sum   'Zr12 Mn3 Be1 Ir8 N4'
_cell_volume   440.31658878
_cell_formula_units_Z   1
loop_
 _symmetry_equiv_pos_site_id
 _symmetry_equiv_pos_as_xyz
  1  'x, y, z'
loop_
 _atom_site_type_symbol
 _atom_site_label
 _atom_site_symmetry_multiplicity
 _atom_site_fract_x
 _atom_site_fract_y
 _atom_site_fract_z
 _atom_site_occupancy
  Zr  Zr0  1  0.807078  0.807078  0.194762  1
  Zr  Zr1  1  0.193102  0.193102  0.806577  1
  Zr  Zr2  1  0.807078  0.194762  0.807078  1
  Zr  Zr3  1  0.193102  0.806577  0.193102  1
  Zr  Zr4  1  0.194762  0.807078  0.807078  1
  Zr  Zr5  1  0.806577  0.193102  0.193102  1
  Zr  Zr6  1  0.442922  0.442922  0.055238  1
  Zr  Zr7  1  0.056898  0.056898  0.443423  1
  Zr  Zr8  1  0.442922  0.055238  0.442922  1
  Zr  Zr9  1  0.056898  0.443423  0.056898  1
  Zr  Zr10  1  0.055238  0.442922  0.442922  1
  Zr  Zr11  1  0.443423  0.056898  0.056898  1
  Mn  Mn12  1  0.125000  0.625000  0.625000  1
  Mn  Mn13  1  0.625000  0.125000  0.625000  1
  Mn  Mn14  1  0.625000  0.625000  0.125000  1
  Be  Be15  1  0.625000  0.625000  0.625000  1
  Ir  Ir16  1  0.746942  0.420187  0.420187  1
  Ir  Ir17  1  0.420187  0.746942  0.420187  1
  Ir  Ir18  1  0.420187  0.420187  0.746942  1
  Ir  Ir19  1  0.416908  0.416908  0.416908  1
  Ir  Ir20  1  0.503058  0.829813  0.829813  1
  Ir  Ir21  1  0.829813  0.503058  0.829813  1
  Ir  Ir22  1  0.829813  0.829813  0.503058  1
  Ir  Ir23  1  0.833092  0.833092  0.833092  1
  N  N24  1  0.625000  0.125000  0.125000  1
  N  N25  1  0.125000  0.625000  0.125000  1
  N  N26  1  0.125000  0.125000  0.625000  1
  N  N27  1  0.125000  0.125000  0.125000  1
