# generated using pymatgen
data_Dy3Er5(TcB6)4
_symmetry_space_group_name_H-M   'P 1'
_cell_length_a   3.66931100
_cell_length_b   9.13637501
_cell_length_c   11.52098600
_cell_angle_alpha   89.99833029
_cell_angle_beta   90.00000000
_cell_angle_gamma   90.00000000
_symmetry_Int_Tables_number   1
_chemical_formula_structural   Dy3Er5(TcB6)4
_chemical_formula_sum   'Dy3 Er5 Tc4 B24'
_cell_volume   386.23185386
_cell_formula_units_Z   1
loop_
 _symmetry_equiv_pos_site_id
 _symmetry_equiv_pos_as_xyz
  1  'x, y, z'
loop_
 _atom_site_type_symbol
 _atom_site_label
 _atom_site_symmetry_multiplicity
 _atom_site_fract_x
 _atom_site_fract_y
 _atom_site_fract_z
 _atom_site_occupancy
  Dy  Dy0  1  0.000000  0.323570  0.414095  1
  Dy  Dy1  1  0.000000  0.676402  0.585979  1
  Dy  Dy2  1  0.000000  0.823651  0.085804  1
  Er  Er3  1  0.000000  0.176132  0.914168  1
  Er  Er4  1  0.000000  0.942867  0.369254  1
  Er  Er5  1  0.000000  0.057220  0.630797  1
  Er  Er6  1  0.000000  0.442687  0.130427  1
  Er  Er7  1  0.000000  0.557198  0.869485  1
  Tc  Tc8  1  0.000000  0.639260  0.320205  1
  Tc  Tc9  1  0.000000  0.360507  0.680099  1
  Tc  Tc10  1  0.000000  0.139274  0.179368  1
  Tc  Tc11  1  0.000000  0.861090  0.820421  1
  B  B12  1  0.500000  0.553466  0.432811  1
  B  B13  1  0.500000  0.446378  0.567341  1
  B  B14  1  0.500000  0.053677  0.066751  1
  B  B15  1  0.500000  0.946928  0.932865  1
  B  B16  1  0.500000  0.749606  0.418508  1
  B  B17  1  0.500000  0.250364  0.581677  1
  B  B18  1  0.500000  0.249516  0.080851  1
  B  B19  1  0.500000  0.750593  0.918510  1
  B  B20  1  0.500000  0.792286  0.265207  1
  B  B21  1  0.500000  0.207472  0.735201  1
  B  B22  1  0.500000  0.292242  0.234445  1
  B  B23  1  0.500000  0.707805  0.765365  1
  B  B24  1  0.500000  0.630599  0.185242  1
  B  B25  1  0.500000  0.369004  0.815118  1
  B  B26  1  0.500000  0.130691  0.314526  1
  B  B27  1  0.500000  0.869546  0.685454  1
  B  B28  1  0.500000  0.982221  0.211778  1
  B  B29  1  0.500000  0.018386  0.788329  1
  B  B30  1  0.500000  0.482056  0.287912  1
  B  B31  1  0.500000  0.517780  0.712167  1
  B  B32  1  0.500000  0.599358  0.027673  1
  B  B33  1  0.500000  0.400044  0.972123  1
  B  B34  1  0.500000  0.099294  0.472351  1
  B  B35  1  0.500000  0.900829  0.527693  1
