# generated using pymatgen
data_Pr3Dy(AuCl6)4
_symmetry_space_group_name_H-M   'P 1'
_cell_length_a   7.71623204
_cell_length_b   10.12033709
_cell_length_c   14.43659088
_cell_angle_alpha   103.53689674
_cell_angle_beta   96.63928033
_cell_angle_gamma   111.91711302
_symmetry_Int_Tables_number   1
_chemical_formula_structural   Pr3Dy(AuCl6)4
_chemical_formula_sum   'Pr3 Dy1 Au4 Cl24'
_cell_volume   990.74431159
_cell_formula_units_Z   1
loop_
 _symmetry_equiv_pos_site_id
 _symmetry_equiv_pos_as_xyz
  1  'x, y, z'
loop_
 _atom_site_type_symbol
 _atom_site_label
 _atom_site_symmetry_multiplicity
 _atom_site_fract_x
 _atom_site_fract_y
 _atom_site_fract_z
 _atom_site_occupancy
  Pr  Pr0  1  0.026232  0.686900  0.128096  1
  Pr  Pr1  1  0.421351  0.076083  0.379725  1
  Pr  Pr2  1  0.972244  0.311277  0.870161  1
  Dy  Dy3  1  0.579667  0.925279  0.621781  1
  Au  Au4  1  0.295118  0.634005  0.762875  1
  Au  Au5  1  0.500700  0.502023  0.501023  1
  Au  Au6  1  0.705610  0.366531  0.236283  1
  Au  Au7  1  0.999844  0.999907  0.999794  1
  Cl  Cl8  1  0.774755  0.095561  0.970897  1
  Cl  Cl9  1  0.724260  0.153228  0.260999  1
  Cl  Cl10  1  0.281093  0.847438  0.736511  1
  Cl  Cl11  1  0.767613  0.794833  0.026264  1
  Cl  Cl12  1  0.609072  0.183131  0.739795  1
  Cl  Cl13  1  0.312572  0.417136  0.783929  1
  Cl  Cl14  1  0.687569  0.583051  0.216106  1
  Cl  Cl15  1  0.306235  0.630826  0.502313  1
  Cl  Cl16  1  0.231420  0.204713  0.972647  1
  Cl  Cl17  1  0.756042  0.730276  0.525406  1
  Cl  Cl18  1  0.225344  0.904645  0.029071  1
  Cl  Cl19  1  0.728504  0.046647  0.488967  1
  Cl  Cl20  1  0.608957  0.731281  0.744444  1
  Cl  Cl21  1  0.943029  0.051524  0.727126  1
  Cl  Cl22  1  0.241521  0.274619  0.477151  1
  Cl  Cl23  1  0.388902  0.808396  0.256045  1
  Cl  Cl24  1  0.977916  0.542216  0.777969  1
  Cl  Cl25  1  0.756101  0.433775  0.977163  1
  Cl  Cl26  1  0.242663  0.564453  0.021362  1
  Cl  Cl27  1  0.022879  0.458365  0.222299  1
  Cl  Cl28  1  0.390130  0.272629  0.252781  1
  Cl  Cl29  1  0.276423  0.948097  0.520339  1
  Cl  Cl30  1  0.701900  0.378236  0.501209  1
  Cl  Cl31  1  0.044334  0.942918  0.269469  1
