# generated using pymatgen
data_Zr8Fe3Co4Si14Pd
_symmetry_space_group_name_H-M   'P 1'
_cell_length_a   9.56495964
_cell_length_b   9.55759914
_cell_length_c   9.55178120
_cell_angle_alpha   94.12701706
_cell_angle_beta   94.14018286
_cell_angle_gamma   148.70926650
_symmetry_Int_Tables_number   1
_chemical_formula_structural   Zr8Fe3Co4Si14Pd
_chemical_formula_sum   'Zr8 Fe3 Co4 Si14 Pd1'
_cell_volume   437.02556787
_cell_formula_units_Z   1
loop_
 _symmetry_equiv_pos_site_id
 _symmetry_equiv_pos_as_xyz
  1  'x, y, z'
loop_
 _atom_site_type_symbol
 _atom_site_label
 _atom_site_symmetry_multiplicity
 _atom_site_fract_x
 _atom_site_fract_y
 _atom_site_fract_z
 _atom_site_occupancy
  Zr  Zr0  1  0.695719  0.500331  0.193939  1
  Zr  Zr1  1  0.498487  0.696555  0.196544  1
  Zr  Zr2  1  0.499530  0.303340  0.805467  1
  Zr  Zr3  1  0.303078  0.501929  0.802948  1
  Zr  Zr4  1  0.864125  0.865127  0.724846  1
  Zr  Zr5  1  0.137170  0.862252  0.999909  1
  Zr  Zr6  1  0.862099  0.138759  0.000247  1
  Zr  Zr7  1  0.134666  0.135959  0.274728  1
  Fe  Fe8  1  0.395312  0.896072  0.791507  1
  Fe  Fe9  1  0.901420  0.102867  0.501626  1
  Fe  Fe10  1  0.394662  0.605835  0.498940  1
  Co  Co11  1  0.903243  0.399208  0.799829  1
  Co  Co12  1  0.601057  0.097173  0.201858  1
  Co  Co13  1  0.102353  0.603196  0.207044  1
  Co  Co14  1  0.602940  0.396246  0.501031  1
  Si  Si15  1  0.749098  0.750353  0.999823  1
  Si  Si16  1  0.249624  0.250613  0.999725  1
  Si  Si17  1  0.092080  0.501644  0.589960  1
  Si  Si18  1  0.531058  0.114839  0.598378  1
  Si  Si19  1  0.506833  0.914301  0.410225  1
  Si  Si20  1  0.878656  0.464316  0.402292  1
  Si  Si21  1  0.698657  0.000041  0.698195  1
  Si  Si22  1  0.992654  0.687865  0.705992  1
  Si  Si23  1  0.688832  0.695994  0.419679  1
  Si  Si24  1  0.291448  0.712951  0.999458  1
  Si  Si25  1  0.312178  0.008390  0.294123  1
  Si  Si26  1  0.708115  0.285940  0.999421  1
  Si  Si27  1  0.304575  0.311633  0.580389  1
  Si  Si28  1  0.998914  0.299900  0.302635  1
  Pd  Pd29  1  0.101416  0.896372  0.499241  1
