# generated using pymatgen
data_Np2AlIr3
_symmetry_space_group_name_H-M   'P 1'
_cell_length_a   5.06537762
_cell_length_b   5.60057022
_cell_length_c   5.60057000
_cell_angle_alpha   60.00000130
_cell_angle_beta   56.43872437
_cell_angle_gamma   56.43872414
_symmetry_Int_Tables_number   1
_chemical_formula_structural   Np2AlIr3
_chemical_formula_sum   'Np2 Al1 Ir3'
_cell_volume   105.91412624
_cell_formula_units_Z   1
loop_
 _symmetry_equiv_pos_site_id
 _symmetry_equiv_pos_as_xyz
  1  'x, y, z'
loop_
 _atom_site_type_symbol
 _atom_site_label
 _atom_site_symmetry_multiplicity
 _atom_site_fract_x
 _atom_site_fract_y
 _atom_site_fract_z
 _atom_site_occupancy
  Np  Np0  1  0.983931  0.005356  0.005356  1
  Np  Np1  1  0.266069  0.244644  0.244644  1
  Al  Al2  1  0.125000  0.625000  0.625000  1
  Ir  Ir3  1  0.625000  0.625000  0.625000  1
  Ir  Ir4  1  0.625000  0.125000  0.625000  1
  Ir  Ir5  1  0.625000  0.625000  0.125000  1
