# generated using pymatgen
data_Ba3ErScO6
_symmetry_space_group_name_H-M   'P 1'
_cell_length_a   7.24833657
_cell_length_b   7.24800031
_cell_length_c   7.24662694
_cell_angle_alpha   93.19114359
_cell_angle_beta   93.21001530
_cell_angle_gamma   93.15582258
_symmetry_Int_Tables_number   1
_chemical_formula_structural   Ba3ErScO6
_chemical_formula_sum   'Ba6 Er2 Sc2 O12'
_cell_volume   378.87500887
_cell_formula_units_Z   2
loop_
 _symmetry_equiv_pos_site_id
 _symmetry_equiv_pos_as_xyz
  1  'x, y, z'
loop_
 _atom_site_type_symbol
 _atom_site_label
 _atom_site_symmetry_multiplicity
 _atom_site_fract_x
 _atom_site_fract_y
 _atom_site_fract_z
 _atom_site_occupancy
  Ba  Ba0  1  0.610487  0.889634  0.250036  1
  Ba  Ba1  1  0.250048  0.610517  0.889656  1
  Ba  Ba2  1  0.889633  0.250045  0.610522  1
  Ba  Ba3  1  0.389603  0.110531  0.750100  1
  Ba  Ba4  1  0.750077  0.389574  0.110491  1
  Ba  Ba5  1  0.110558  0.750085  0.389575  1
  Er  Er6  1  0.249776  0.249844  0.249915  1
  Er  Er7  1  0.749790  0.749719  0.749770  1
  Sc  Sc8  1  0.999890  0.999840  0.999765  1
  Sc  Sc9  1  0.499735  0.499780  0.499798  1
  O  O10  1  0.282727  0.969070  0.096688  1
  O  O11  1  0.096684  0.282722  0.969077  1
  O  O12  1  0.969087  0.096703  0.282717  1
  O  O13  1  0.530939  0.217371  0.403331  1
  O  O14  1  0.403308  0.530960  0.217381  1
  O  O15  1  0.217385  0.403368  0.530953  1
  O  O16  1  0.717387  0.030979  0.903359  1
  O  O17  1  0.903385  0.717395  0.030965  1
  O  O18  1  0.030971  0.903358  0.717378  1
  O  O19  1  0.469064  0.782771  0.596694  1
  O  O20  1  0.596709  0.469052  0.782759  1
  O  O21  1  0.782758  0.596678  0.469065  1
