# generated using pymatgen
data_TbTm11Co5Sn
_symmetry_space_group_name_H-M   'P 1'
_cell_length_a   8.18284691
_cell_length_b   8.18284656
_cell_length_c   8.17978429
_cell_angle_alpha   110.89585005
_cell_angle_beta   110.73515672
_cell_angle_gamma   106.83083083
_symmetry_Int_Tables_number   1
_chemical_formula_structural   TbTm11Co5Sn
_chemical_formula_sum   'Tb1 Tm11 Co5 Sn1'
_cell_volume   420.87198940
_cell_formula_units_Z   1
loop_
 _symmetry_equiv_pos_site_id
 _symmetry_equiv_pos_as_xyz
  1  'x, y, z'
loop_
 _atom_site_type_symbol
 _atom_site_label
 _atom_site_symmetry_multiplicity
 _atom_site_fract_x
 _atom_site_fract_y
 _atom_site_fract_z
 _atom_site_occupancy
  Tb  Tb0  1  0.288957  0.185163  0.474120  1
  Tm  Tm1  1  0.711600  0.815391  0.526992  1
  Tm  Tm2  1  0.288669  0.813271  0.101940  1
  Tm  Tm3  1  0.712351  0.185508  0.897859  1
  Tm  Tm4  1  0.620510  0.313859  0.305478  1
  Tm  Tm5  1  0.380095  0.687395  0.694597  1
  Tm  Tm6  1  0.007202  0.314504  0.694597  1
  Tm  Tm7  1  0.991619  0.684967  0.305478  1
  Tm  Tm8  1  0.211625  0.406087  0.193134  1
  Tm  Tm9  1  0.789509  0.595958  0.807250  1
  Tm  Tm10  1  0.211294  0.017741  0.807250  1
  Tm  Tm11  1  0.787046  0.981508  0.193134  1
  Co  Co12  1  0.999215  0.375426  0.374641  1
  Co  Co13  1  0.999670  0.625078  0.624748  1
  Co  Co14  1  0.388128  0.886121  0.499839  1
  Co  Co15  1  0.613719  0.111712  0.499839  1
  Co  Co16  1  0.998722  0.000156  0.998878  1
  Sn  Sn17  1  0.500070  0.500155  0.000224  1
