# generated using pymatgen
data_Ca2Pu6SnPd24
_symmetry_space_group_name_H-M   'P 1'
_cell_length_a   8.45542516
_cell_length_b   8.45542516
_cell_length_c   8.45542516
_cell_angle_alpha   89.94207584
_cell_angle_beta   89.94207584
_cell_angle_gamma   89.94207584
_symmetry_Int_Tables_number   1
_chemical_formula_structural   Ca2Pu6SnPd24
_chemical_formula_sum   'Ca2 Pu6 Sn1 Pd24'
_cell_volume   604.51305495
_cell_formula_units_Z   1
loop_
 _symmetry_equiv_pos_site_id
 _symmetry_equiv_pos_as_xyz
  1  'x, y, z'
loop_
 _atom_site_type_symbol
 _atom_site_label
 _atom_site_symmetry_multiplicity
 _atom_site_fract_x
 _atom_site_fract_y
 _atom_site_fract_z
 _atom_site_occupancy
  Ca  Ca0  1  0.252263  0.252263  0.252263  1
  Ca  Ca1  1  0.747737  0.747737  0.747737  1
  Pu  Pu2  1  0.750485  0.750485  0.252210  1
  Pu  Pu3  1  0.750485  0.252210  0.750485  1
  Pu  Pu4  1  0.249515  0.249515  0.747790  1
  Pu  Pu5  1  0.249515  0.747790  0.249515  1
  Pu  Pu6  1  0.252210  0.750485  0.750485  1
  Pu  Pu7  1  0.747790  0.249515  0.249515  1
  Sn  Sn8  1  0.000000  0.000000  0.000000  1
  Pd  Pd9  1  0.267081  0.501870  0.996373  1
  Pd  Pd10  1  0.732919  0.498130  0.003627  1
  Pd  Pd11  1  0.996373  0.267081  0.501870  1
  Pd  Pd12  1  0.501870  0.267081  0.996373  1
  Pd  Pd13  1  0.003627  0.732919  0.498130  1
  Pd  Pd14  1  0.498130  0.732919  0.003627  1
  Pd  Pd15  1  0.501870  0.996373  0.267081  1
  Pd  Pd16  1  0.267081  0.996373  0.501870  1
  Pd  Pd17  1  0.498130  0.003627  0.732919  1
  Pd  Pd18  1  0.732919  0.003627  0.498130  1
  Pd  Pd19  1  0.996373  0.501870  0.267081  1
  Pd  Pd20  1  0.003627  0.498130  0.732919  1
  Pd  Pd21  1  0.255783  0.503057  0.503057  1
  Pd  Pd22  1  0.744217  0.496943  0.496943  1
  Pd  Pd23  1  0.503057  0.255783  0.503057  1
  Pd  Pd24  1  0.496943  0.744217  0.496943  1
  Pd  Pd25  1  0.503057  0.503057  0.255783  1
  Pd  Pd26  1  0.496943  0.496943  0.744217  1
  Pd  Pd27  1  0.312732  0.000656  0.000656  1
  Pd  Pd28  1  0.687268  0.999344  0.999344  1
  Pd  Pd29  1  0.000656  0.312732  0.000656  1
  Pd  Pd30  1  0.999344  0.687268  0.999344  1
  Pd  Pd31  1  0.000656  0.000656  0.312732  1
  Pd  Pd32  1  0.999344  0.999344  0.687268  1
