# generated using pymatgen
data_Pr5Nd5(RuRh)2
_symmetry_space_group_name_H-M   'P 1'
_cell_length_a   9.05532932
_cell_length_b   9.06164556
_cell_length_c   7.38177955
_cell_angle_alpha   83.67660197
_cell_angle_beta   83.64025268
_cell_angle_gamma   42.93202784
_symmetry_Int_Tables_number   1
_chemical_formula_structural   Pr5Nd5(RuRh)2
_chemical_formula_sum   'Pr5 Nd5 Ru2 Rh2'
_cell_volume   409.65825439
_cell_formula_units_Z   1
loop_
 _symmetry_equiv_pos_site_id
 _symmetry_equiv_pos_as_xyz
  1  'x, y, z'
loop_
 _atom_site_type_symbol
 _atom_site_label
 _atom_site_symmetry_multiplicity
 _atom_site_fract_x
 _atom_site_fract_y
 _atom_site_fract_z
 _atom_site_occupancy
  Pr  Pr0  1  0.010543  0.801399  0.918482  1
  Pr  Pr1  1  0.198874  0.989306  0.581586  1
  Pr  Pr2  1  0.982779  0.203011  0.086003  1
  Pr  Pr3  1  0.797280  0.016873  0.413919  1
  Pr  Pr4  1  0.361467  0.208494  0.814508  1
  Nd  Nd5  1  0.791254  0.638223  0.685081  1
  Nd  Nd6  1  0.645249  0.788559  0.188127  1
  Nd  Nd7  1  0.211056  0.354960  0.312168  1
  Nd  Nd8  1  0.571287  0.429009  0.749948  1
  Nd  Nd9  1  0.426403  0.573636  0.250030  1
  Ru  Ru10  1  0.819473  0.404109  0.426882  1
  Ru  Ru11  1  0.596443  0.180451  0.073564  1
  Rh  Rh12  1  0.181185  0.594016  0.574899  1
  Rh  Rh13  1  0.406705  0.817955  0.924804  1
