# generated using pymatgen
data_HfZr2Ga3Pd2Rh
_symmetry_space_group_name_H-M   'P 1'
_cell_length_a   7.29634668
_cell_length_b   7.29333965
_cell_length_c   3.41958800
_cell_angle_alpha   90.00000000
_cell_angle_beta   90.00000000
_cell_angle_gamma   119.75427268
_symmetry_Int_Tables_number   1
_chemical_formula_structural   HfZr2Ga3Pd2Rh
_chemical_formula_sum   'Hf1 Zr2 Ga3 Pd2 Rh1'
_cell_volume   157.98154650
_cell_formula_units_Z   1
loop_
 _symmetry_equiv_pos_site_id
 _symmetry_equiv_pos_as_xyz
  1  'x, y, z'
loop_
 _atom_site_type_symbol
 _atom_site_label
 _atom_site_symmetry_multiplicity
 _atom_site_fract_x
 _atom_site_fract_y
 _atom_site_fract_z
 _atom_site_occupancy
  Hf  Hf0  1  0.608641  0.599193  0.500000  1
  Zr  Zr1  1  0.400738  0.009095  0.500000  1
  Zr  Zr2  1  0.991172  0.392126  0.500000  1
  Ga  Ga3  1  0.726728  0.997273  0.000000  1
  Ga  Ga4  1  0.002624  0.729301  0.000000  1
  Ga  Ga5  1  0.269733  0.272561  0.000000  1
  Pd  Pd6  1  0.336888  0.665932  0.000000  1
  Pd  Pd7  1  0.997662  0.997613  0.500000  1
  Rh  Rh8  1  0.665814  0.336904  0.000000  1
