# generated using pymatgen
data_NdTm4Bi3
_symmetry_space_group_name_H-M   'P 1'
_cell_length_a   8.28196900
_cell_length_b   9.44549500
_cell_length_c   12.08168500
_cell_angle_alpha   90.00000000
_cell_angle_beta   90.00000000
_cell_angle_gamma   90.00000000
_symmetry_Int_Tables_number   1
_chemical_formula_structural   NdTm4Bi3
_chemical_formula_sum   'Nd4 Tm16 Bi12'
_cell_volume   945.11755809
_cell_formula_units_Z   4
loop_
 _symmetry_equiv_pos_site_id
 _symmetry_equiv_pos_as_xyz
  1  'x, y, z'
loop_
 _atom_site_type_symbol
 _atom_site_label
 _atom_site_symmetry_multiplicity
 _atom_site_fract_x
 _atom_site_fract_y
 _atom_site_fract_z
 _atom_site_occupancy
  Nd  Nd0  1  0.331170  0.750000  0.278046  1
  Nd  Nd1  1  0.168830  0.750000  0.778046  1
  Nd  Nd2  1  0.668830  0.250000  0.721954  1
  Nd  Nd3  1  0.831170  0.250000  0.221954  1
  Tm  Tm4  1  0.686441  0.934492  0.437290  1
  Tm  Tm5  1  0.813559  0.565508  0.937290  1
  Tm  Tm6  1  0.313559  0.434492  0.562710  1
  Tm  Tm7  1  0.186441  0.065508  0.062710  1
  Tm  Tm8  1  0.313559  0.065508  0.562710  1
  Tm  Tm9  1  0.186441  0.434492  0.062710  1
  Tm  Tm10  1  0.686441  0.565508  0.437290  1
  Tm  Tm11  1  0.813559  0.934492  0.937290  1
  Tm  Tm12  1  0.020737  0.750000  0.496236  1
  Tm  Tm13  1  0.479263  0.750000  0.996236  1
  Tm  Tm14  1  0.979263  0.250000  0.503764  1
  Tm  Tm15  1  0.520737  0.250000  0.003764  1
  Tm  Tm16  1  0.829725  0.750000  0.213072  1
  Tm  Tm17  1  0.670275  0.750000  0.713072  1
  Tm  Tm18  1  0.170275  0.250000  0.786928  1
  Tm  Tm19  1  0.329725  0.250000  0.286928  1
  Bi  Bi20  1  0.100050  0.750000  0.040015  1
  Bi  Bi21  1  0.399950  0.750000  0.540015  1
  Bi  Bi22  1  0.899950  0.250000  0.959985  1
  Bi  Bi23  1  0.600050  0.250000  0.459985  1
  Bi  Bi24  1  0.563664  0.993630  0.170657  1
  Bi  Bi25  1  0.936336  0.506370  0.670658  1
  Bi  Bi26  1  0.436336  0.493630  0.829342  1
  Bi  Bi27  1  0.063664  0.006370  0.329343  1
  Bi  Bi28  1  0.436336  0.006370  0.829342  1
  Bi  Bi29  1  0.063664  0.493630  0.329343  1
  Bi  Bi30  1  0.563664  0.506370  0.170657  1
  Bi  Bi31  1  0.936336  0.993630  0.670658  1
