# generated using pymatgen
data_Zn2H4Os
_symmetry_space_group_name_H-M   'P 1'
_cell_length_a   3.20784534
_cell_length_b   4.93596423
_cell_length_c   4.94852993
_cell_angle_alpha   71.59796616
_cell_angle_beta   71.03619296
_cell_angle_gamma   71.09415823
_symmetry_Int_Tables_number   1
_chemical_formula_structural   Zn2H4Os
_chemical_formula_sum   'Zn2 H4 Os1'
_cell_volume   68.13801147
_cell_formula_units_Z   1
loop_
 _symmetry_equiv_pos_site_id
 _symmetry_equiv_pos_as_xyz
  1  'x, y, z'
loop_
 _atom_site_type_symbol
 _atom_site_label
 _atom_site_symmetry_multiplicity
 _atom_site_fract_x
 _atom_site_fract_y
 _atom_site_fract_z
 _atom_site_occupancy
  Zn  Zn0  1  0.744847  0.939498  0.878438  1
  Zn  Zn1  1  0.189686  0.389178  0.539267  1
  H  H2  1  0.475273  0.175313  0.187191  1
  H  H3  1  0.459201  0.599106  0.786631  1
  H  H4  1  0.727967  0.610501  0.243616  1
  H  H5  1  0.028616  0.946084  0.306496  1
  Os  Os6  1  0.496263  0.856071  0.460269  1
