# generated using pymatgen
data_DyY2(ThRu)2
_symmetry_space_group_name_H-M   'P 1'
_cell_length_a   6.39008408
_cell_length_b   7.20457832
_cell_length_c   8.86329800
_cell_angle_alpha   95.95196316
_cell_angle_beta   111.12968211
_cell_angle_gamma   89.99999722
_symmetry_Int_Tables_number   1
_chemical_formula_structural   DyY2(ThRu)2
_chemical_formula_sum   'Dy2 Y4 Th4 Ru4'
_cell_volume   378.25378871
_cell_formula_units_Z   2
loop_
 _symmetry_equiv_pos_site_id
 _symmetry_equiv_pos_as_xyz
  1  'x, y, z'
loop_
 _atom_site_type_symbol
 _atom_site_label
 _atom_site_symmetry_multiplicity
 _atom_site_fract_x
 _atom_site_fract_y
 _atom_site_fract_z
 _atom_site_occupancy
  Dy  Dy0  1  0.420895  0.750000  0.000000  1
  Dy  Dy1  1  0.579105  0.250000  0.000000  1
  Y  Y2  1  0.210407  0.683666  0.569313  1
  Y  Y3  1  0.641094  0.816334  0.430687  1
  Y  Y4  1  0.789593  0.316334  0.430687  1
  Y  Y5  1  0.358906  0.183666  0.569313  1
  Th  Th6  1  0.795912  0.589781  0.808661  1
  Th  Th7  1  0.987251  0.910219  0.191339  1
  Th  Th8  1  0.204088  0.410219  0.191339  1
  Th  Th9  1  0.012749  0.089781  0.808661  1
  Ru  Ru10  1  0.621758  0.914277  0.784234  1
  Ru  Ru11  1  0.837522  0.585723  0.215766  1
  Ru  Ru12  1  0.378242  0.085723  0.215766  1
  Ru  Ru13  1  0.162478  0.414277  0.784234  1
