# generated using pymatgen
data_Sr3ScP3
_symmetry_space_group_name_H-M   'P 1'
_cell_length_a   12.75656400
_cell_length_b   4.39335500
_cell_length_c   14.12395800
_cell_angle_alpha   90.00000000
_cell_angle_beta   90.00000000
_cell_angle_gamma   90.00000000
_symmetry_Int_Tables_number   1
_chemical_formula_structural   Sr3ScP3
_chemical_formula_sum   'Sr12 Sc4 P12'
_cell_volume   791.56471556
_cell_formula_units_Z   4
loop_
 _symmetry_equiv_pos_site_id
 _symmetry_equiv_pos_as_xyz
  1  'x, y, z'
loop_
 _atom_site_type_symbol
 _atom_site_label
 _atom_site_symmetry_multiplicity
 _atom_site_fract_x
 _atom_site_fract_y
 _atom_site_fract_z
 _atom_site_occupancy
  Sr  Sr0  1  0.353362  0.250000  0.002303  1
  Sr  Sr1  1  0.075102  0.250000  0.099491  1
  Sr  Sr2  1  0.770844  0.250000  0.205662  1
  Sr  Sr3  1  0.270845  0.250000  0.294338  1
  Sr  Sr4  1  0.575101  0.250000  0.400510  1
  Sr  Sr5  1  0.853363  0.250000  0.497697  1
  Sr  Sr6  1  0.146637  0.749999  0.502303  1
  Sr  Sr7  1  0.424899  0.749999  0.599490  1
  Sr  Sr8  1  0.729155  0.749999  0.705662  1
  Sr  Sr9  1  0.229156  0.749999  0.794338  1
  Sr  Sr10  1  0.924898  0.749999  0.900510  1
  Sr  Sr11  1  0.646638  0.749999  0.997697  1
  Sc  Sc12  1  0.451750  0.749999  0.203478  1
  Sc  Sc13  1  0.951750  0.749999  0.296522  1
  Sc  Sc14  1  0.048250  0.250000  0.703478  1
  Sc  Sc15  1  0.548251  0.250000  0.796522  1
  P  P16  1  0.905578  0.749999  0.118840  1
  P  P17  1  0.264867  0.749999  0.132050  1
  P  P18  1  0.541765  0.250000  0.144573  1
  P  P19  1  0.041765  0.250000  0.355427  1
  P  P20  1  0.764867  0.749999  0.367950  1
  P  P21  1  0.405578  0.749999  0.381161  1
  P  P22  1  0.594422  0.250000  0.618840  1
  P  P23  1  0.235133  0.250000  0.632050  1
  P  P24  1  0.958235  0.749999  0.644572  1
  P  P25  1  0.458235  0.749999  0.855428  1
  P  P26  1  0.735133  0.250000  0.867950  1
  P  P27  1  0.094422  0.250000  0.881161  1
