# generated using pymatgen
data_Lu10TlBi5S2
_symmetry_space_group_name_H-M   'P 1'
_cell_length_a   8.98249700
_cell_length_b   9.00308178
_cell_length_c   6.48200000
_cell_angle_alpha   90.00000000
_cell_angle_beta   90.00000000
_cell_angle_gamma   120.07582994
_symmetry_Int_Tables_number   1
_chemical_formula_structural   Lu10TlBi5S2
_chemical_formula_sum   'Lu10 Tl1 Bi5 S2'
_cell_volume   453.62353337
_cell_formula_units_Z   1
loop_
 _symmetry_equiv_pos_site_id
 _symmetry_equiv_pos_as_xyz
  1  'x, y, z'
loop_
 _atom_site_type_symbol
 _atom_site_label
 _atom_site_symmetry_multiplicity
 _atom_site_fract_x
 _atom_site_fract_y
 _atom_site_fract_z
 _atom_site_occupancy
  Lu  Lu0  1  0.753776  0.753385  0.750000  1
  Lu  Lu1  1  0.246224  0.999609  0.750000  1
  Lu  Lu2  1  0.000000  0.245919  0.750000  1
  Lu  Lu3  1  0.242264  0.248585  0.250000  1
  Lu  Lu4  1  0.757736  0.006321  0.250000  1
  Lu  Lu5  1  0.000000  0.751766  0.250000  1
  Lu  Lu6  1  0.671330  0.334717  0.001114  1
  Lu  Lu7  1  0.328670  0.663387  0.001114  1
  Lu  Lu8  1  0.328670  0.663387  0.498886  1
  Lu  Lu9  1  0.671330  0.334717  0.498886  1
  Tl  Tl10  1  0.000000  0.397006  0.250000  1
  Bi  Bi11  1  0.394697  0.393279  0.750000  1
  Bi  Bi12  1  0.605303  0.998582  0.750000  1
  Bi  Bi13  1  0.000000  0.603913  0.750000  1
  Bi  Bi14  1  0.606923  0.608018  0.250000  1
  Bi  Bi15  1  0.393077  0.001095  0.250000  1
  S  S16  1  0.000000  0.998157  0.999732  1
  S  S17  1  0.000000  0.998157  0.500268  1
