# generated using pymatgen
data_Hf6Ti16Ir6S
_symmetry_space_group_name_H-M   'P 1'
_cell_length_a   8.90537030
_cell_length_b   8.90537154
_cell_length_c   8.90537100
_cell_angle_alpha   60.00000572
_cell_angle_beta   60.00000113
_cell_angle_gamma   60.00000534
_symmetry_Int_Tables_number   1
_chemical_formula_structural   Hf6Ti16Ir6S
_chemical_formula_sum   'Hf6 Ti16 Ir6 S1'
_cell_volume   499.39143023
_cell_formula_units_Z   1
loop_
 _symmetry_equiv_pos_site_id
 _symmetry_equiv_pos_as_xyz
  1  'x, y, z'
loop_
 _atom_site_type_symbol
 _atom_site_label
 _atom_site_symmetry_multiplicity
 _atom_site_fract_x
 _atom_site_fract_y
 _atom_site_fract_z
 _atom_site_occupancy
  Hf  Hf0  1  0.681019  0.318981  0.318981  1
  Hf  Hf1  1  0.318981  0.681019  0.681019  1
  Hf  Hf2  1  0.318981  0.681019  0.318981  1
  Hf  Hf3  1  0.681019  0.318981  0.681019  1
  Hf  Hf4  1  0.318981  0.318981  0.681019  1
  Hf  Hf5  1  0.681019  0.681019  0.318981  1
  Ti  Ti6  1  0.331004  0.331004  0.331004  1
  Ti  Ti7  1  0.668996  0.668996  0.668996  1
  Ti  Ti8  1  0.331004  0.331004  0.006990  1
  Ti  Ti9  1  0.331004  0.006990  0.331004  1
  Ti  Ti10  1  0.668996  0.668996  0.993010  1
  Ti  Ti11  1  0.668996  0.993010  0.668996  1
  Ti  Ti12  1  0.006990  0.331004  0.331004  1
  Ti  Ti13  1  0.993010  0.668996  0.668996  1
  Ti  Ti14  1  0.116112  0.116112  0.116112  1
  Ti  Ti15  1  0.883888  0.883888  0.883888  1
  Ti  Ti16  1  0.116112  0.116112  0.651664  1
  Ti  Ti17  1  0.116112  0.651664  0.116112  1
  Ti  Ti18  1  0.883888  0.883888  0.348336  1
  Ti  Ti19  1  0.883888  0.348336  0.883888  1
  Ti  Ti20  1  0.651664  0.116112  0.116112  1
  Ti  Ti21  1  0.348336  0.883888  0.883888  1
  Ir  Ir22  1  0.500000  0.000000  0.000000  1
  Ir  Ir23  1  0.000000  0.500000  0.500000  1
  Ir  Ir24  1  0.000000  0.500000  0.000000  1
  Ir  Ir25  1  0.500000  0.000000  0.500000  1
  Ir  Ir26  1  0.000000  0.000000  0.500000  1
  Ir  Ir27  1  0.500000  0.500000  0.000000  1
  S  S28  1  0.000000  0.000000  0.000000  1
