# generated using pymatgen
data_Tm2Sn2PtRh
_symmetry_space_group_name_H-M   'P 1'
_cell_length_a   7.57268000
_cell_length_b   7.57268115
_cell_length_c   7.63136000
_cell_angle_alpha   90.00000000
_cell_angle_beta   90.00000000
_cell_angle_gamma   120.00000373
_symmetry_Int_Tables_number   1
_chemical_formula_structural   Tm2Sn2PtRh
_chemical_formula_sum   'Tm6 Sn6 Pt3 Rh3'
_cell_volume   378.99356207
_cell_formula_units_Z   3
loop_
 _symmetry_equiv_pos_site_id
 _symmetry_equiv_pos_as_xyz
  1  'x, y, z'
loop_
 _atom_site_type_symbol
 _atom_site_label
 _atom_site_symmetry_multiplicity
 _atom_site_fract_x
 _atom_site_fract_y
 _atom_site_fract_z
 _atom_site_occupancy
  Tm  Tm0  1  0.406744  0.006054  0.247859  1
  Tm  Tm1  1  0.599310  0.593256  0.247859  1
  Tm  Tm2  1  0.993946  0.400690  0.247859  1
  Tm  Tm3  1  0.403954  0.000508  0.752210  1
  Tm  Tm4  1  0.596553  0.596046  0.752210  1
  Tm  Tm5  1  0.999492  0.403447  0.752210  1
  Sn  Sn6  1  0.264071  0.260027  0.999878  1
  Sn  Sn7  1  0.995956  0.735929  0.999878  1
  Sn  Sn8  1  0.001488  0.740829  0.499922  1
  Sn  Sn9  1  0.739341  0.998512  0.499922  1
  Sn  Sn10  1  0.259171  0.260659  0.499922  1
  Sn  Sn11  1  0.739973  0.004044  0.999878  1
  Pt  Pt12  1  0.333333  0.666667  0.494962  1
  Pt  Pt13  1  0.333333  0.666667  0.005041  1
  Pt  Pt14  1  0.666667  0.333333  0.505453  1
  Rh  Rh15  1  0.000000  0.000000  0.750387  1
  Rh  Rh16  1  0.000000  0.000000  0.249335  1
  Rh  Rh17  1  0.666667  0.333333  0.995215  1
