# generated using pymatgen
data_GaCo6TcMo5
_symmetry_space_group_name_H-M   'P 1'
_cell_length_a   8.93669061
_cell_length_b   8.93669065
_cell_length_c   8.93669129
_cell_angle_alpha   31.04141418
_cell_angle_beta   31.04141360
_cell_angle_gamma   31.04141635
_symmetry_Int_Tables_number   1
_chemical_formula_structural   GaCo6TcMo5
_chemical_formula_sum   'Ga1 Co6 Tc1 Mo5'
_cell_volume   168.36859508
_cell_formula_units_Z   1
loop_
 _symmetry_equiv_pos_site_id
 _symmetry_equiv_pos_as_xyz
  1  'x, y, z'
loop_
 _atom_site_type_symbol
 _atom_site_label
 _atom_site_symmetry_multiplicity
 _atom_site_fract_x
 _atom_site_fract_y
 _atom_site_fract_z
 _atom_site_occupancy
  Ga  Ga0  1  0.000258  0.000258  0.000258  1
  Co  Co1  1  0.089589  0.089589  0.584649  1
  Co  Co2  1  0.417702  0.909214  0.909214  1
  Co  Co3  1  0.584649  0.089589  0.089589  1
  Co  Co4  1  0.909214  0.909214  0.417702  1
  Co  Co5  1  0.909214  0.417702  0.909214  1
  Co  Co6  1  0.089589  0.584649  0.089589  1
  Tc  Tc7  1  0.831551  0.831551  0.831551  1
  Mo  Mo8  1  0.652940  0.652940  0.652940  1
  Mo  Mo9  1  0.450954  0.450954  0.450954  1
  Mo  Mo10  1  0.549282  0.549282  0.549282  1
  Mo  Mo11  1  0.168249  0.168249  0.168249  1
  Mo  Mo12  1  0.346808  0.346808  0.346808  1
