# generated using pymatgen
data_TbY9(IrRu)2
_symmetry_space_group_name_H-M   'P 1'
_cell_length_a   6.46357037
_cell_length_b   7.29242276
_cell_length_c   8.53898530
_cell_angle_alpha   96.45136884
_cell_angle_beta   112.23919867
_cell_angle_gamma   89.99999898
_symmetry_Int_Tables_number   1
_chemical_formula_structural   TbY9(IrRu)2
_chemical_formula_sum   'Tb1 Y9 Ir2 Ru2'
_cell_volume   369.79064618
_cell_formula_units_Z   1
loop_
 _symmetry_equiv_pos_site_id
 _symmetry_equiv_pos_as_xyz
  1  'x, y, z'
loop_
 _atom_site_type_symbol
 _atom_site_label
 _atom_site_symmetry_multiplicity
 _atom_site_fract_x
 _atom_site_fract_y
 _atom_site_fract_z
 _atom_site_occupancy
  Tb  Tb0  1  0.574682  0.250000  0.000000  1
  Y  Y1  1  0.974819  0.914389  0.183478  1
  Y  Y2  1  0.791341  0.585611  0.816522  1
  Y  Y3  1  0.023949  0.082436  0.815513  1
  Y  Y4  1  0.208436  0.417564  0.184487  1
  Y  Y5  1  0.652304  0.817323  0.439063  1
  Y  Y6  1  0.213241  0.682677  0.560937  1
  Y  Y7  1  0.348522  0.181953  0.561995  1
  Y  Y8  1  0.786527  0.318047  0.438005  1
  Y  Y9  1  0.425955  0.750000  0.000000  1
  Ir  Ir10  1  0.173883  0.424579  0.779364  1
  Ir  Ir11  1  0.394519  0.075421  0.220636  1
  Ru  Ru12  1  0.825626  0.571954  0.219430  1
  Ru  Ru13  1  0.606197  0.928046  0.780570  1
