# generated using pymatgen
data_Dy10InSnBi4
_symmetry_space_group_name_H-M   'P 1'
_cell_length_a   9.12309308
_cell_length_b   9.08984737
_cell_length_c   6.50572100
_cell_angle_alpha   90.00000000
_cell_angle_beta   90.00000000
_cell_angle_gamma   119.82510690
_symmetry_Int_Tables_number   1
_chemical_formula_structural   Dy10InSnBi4
_chemical_formula_sum   'Dy10 In1 Sn1 Bi4'
_cell_volume   468.04481951
_cell_formula_units_Z   1
loop_
 _symmetry_equiv_pos_site_id
 _symmetry_equiv_pos_as_xyz
  1  'x, y, z'
loop_
 _atom_site_type_symbol
 _atom_site_label
 _atom_site_symmetry_multiplicity
 _atom_site_fract_x
 _atom_site_fract_y
 _atom_site_fract_z
 _atom_site_occupancy
  Dy  Dy0  1  0.995166  0.759639  0.750000  1
  Dy  Dy1  1  0.992854  0.233872  0.250000  1
  Dy  Dy2  1  0.756526  0.763486  0.250000  1
  Dy  Dy3  1  0.758931  0.994756  0.750000  1
  Dy  Dy4  1  0.244501  0.243663  0.750000  1
  Dy  Dy5  1  0.243206  0.000386  0.250000  1
  Dy  Dy6  1  0.341122  0.670934  0.501438  1
  Dy  Dy7  1  0.664915  0.331672  0.999184  1
  Dy  Dy8  1  0.664915  0.331672  0.500816  1
  Dy  Dy9  1  0.341122  0.670934  0.998562  1
  In  In10  1  0.606647  0.002652  0.250000  1
  Sn  Sn11  1  0.608605  0.606474  0.750000  1
  Bi  Bi12  1  0.390159  0.998883  0.750000  1
  Bi  Bi13  1  0.388781  0.390041  0.250000  1
  Bi  Bi14  1  0.001451  0.609462  0.250000  1
  Bi  Bi15  1  0.001099  0.391475  0.750000  1
