# generated using pymatgen
data_YbCe3(B4Os)4
_symmetry_space_group_name_H-M   'P 1'
_cell_length_a   3.61570900
_cell_length_b   6.01025246
_cell_length_c   11.63424702
_cell_angle_alpha   90.03676160
_cell_angle_beta   90.00000000
_cell_angle_gamma   90.00000000
_symmetry_Int_Tables_number   1
_chemical_formula_structural   YbCe3(B4Os)4
_chemical_formula_sum   'Yb1 Ce3 B16 Os4'
_cell_volume   252.82753843
_cell_formula_units_Z   1
loop_
 _symmetry_equiv_pos_site_id
 _symmetry_equiv_pos_as_xyz
  1  'x, y, z'
loop_
 _atom_site_type_symbol
 _atom_site_label
 _atom_site_symmetry_multiplicity
 _atom_site_fract_x
 _atom_site_fract_y
 _atom_site_fract_z
 _atom_site_occupancy
  Yb  Yb0  1  0.500000  0.871139  0.649149  1
  Ce  Ce1  1  0.500000  0.628607  0.149735  1
  Ce  Ce2  1  0.500000  0.371637  0.847822  1
  Ce  Ce3  1  0.500000  0.127712  0.351867  1
  B  B4  1  0.000000  0.973183  0.190420  1
  B  B5  1  0.000000  0.025755  0.808624  1
  B  B6  1  0.000000  0.472917  0.310493  1
  B  B7  1  0.000000  0.525649  0.690012  1
  B  B8  1  0.000000  0.786783  0.315696  1
  B  B9  1  0.000000  0.213673  0.685069  1
  B  B10  1  0.000000  0.286814  0.186198  1
  B  B11  1  0.000000  0.714578  0.813595  1
  B  B12  1  0.000000  0.862566  0.470236  1
  B  B13  1  0.000000  0.137739  0.531617  1
  B  B14  1  0.000000  0.362407  0.030652  1
  B  B15  1  0.000000  0.636640  0.968048  1
  B  B16  1  0.000000  0.887913  0.045395  1
  B  B17  1  0.000000  0.110358  0.952755  1
  B  B18  1  0.000000  0.389051  0.455949  1
  B  B19  1  0.000000  0.614432  0.547594  1
  Os  Os20  1  0.500000  0.639609  0.406054  1
  Os  Os21  1  0.500000  0.359828  0.591878  1
  Os  Os22  1  0.500000  0.141360  0.094355  1
  Os  Os23  1  0.500000  0.859649  0.906787  1
