# generated using pymatgen
data_Y4Hf5ZrSi8
_symmetry_space_group_name_H-M   'P 1'
_cell_length_a   7.29229308
_cell_length_b   7.29229422
_cell_length_c   13.40415100
_cell_angle_alpha   90.00000000
_cell_angle_beta   90.00000000
_cell_angle_gamma   89.97515607
_symmetry_Int_Tables_number   1
_chemical_formula_structural   Y4Hf5ZrSi8
_chemical_formula_sum   'Y8 Hf10 Zr2 Si16'
_cell_volume   712.79979825
_cell_formula_units_Z   2
loop_
 _symmetry_equiv_pos_site_id
 _symmetry_equiv_pos_as_xyz
  1  'x, y, z'
loop_
 _atom_site_type_symbol
 _atom_site_label
 _atom_site_symmetry_multiplicity
 _atom_site_fract_x
 _atom_site_fract_y
 _atom_site_fract_z
 _atom_site_occupancy
  Y  Y0  1  0.996466  0.343752  0.215089  1
  Y  Y1  1  0.003534  0.656248  0.715089  1
  Y  Y2  1  0.156153  0.496536  0.465057  1
  Y  Y3  1  0.503464  0.843847  0.034943  1
  Y  Y4  1  0.843847  0.503464  0.965057  1
  Y  Y5  1  0.496536  0.156153  0.534943  1
  Y  Y6  1  0.343752  0.996466  0.784911  1
  Y  Y7  1  0.656248  0.003534  0.284911  1
  Hf  Hf8  1  0.325463  0.674537  0.250000  1
  Hf  Hf9  1  0.674537  0.325463  0.750000  1
  Hf  Hf10  1  0.149123  0.995349  0.374429  1
  Hf  Hf11  1  0.850877  0.004651  0.874429  1
  Hf  Hf12  1  0.504389  0.649563  0.624302  1
  Hf  Hf13  1  0.350437  0.495611  0.875698  1
  Hf  Hf14  1  0.495611  0.350437  0.124302  1
  Hf  Hf15  1  0.649563  0.504389  0.375698  1
  Hf  Hf16  1  0.995349  0.149123  0.625571  1
  Hf  Hf17  1  0.004651  0.850877  0.125571  1
  Zr  Zr18  1  0.174306  0.174306  0.000000  1
  Zr  Zr19  1  0.825694  0.825694  0.500000  1
  Si  Si20  1  0.363199  0.295139  0.317028  1
  Si  Si21  1  0.636801  0.704861  0.817028  1
  Si  Si22  1  0.206049  0.863246  0.567150  1
  Si  Si23  1  0.136754  0.793951  0.932850  1
  Si  Si24  1  0.793951  0.136754  0.067150  1
  Si  Si25  1  0.863246  0.206049  0.432850  1
  Si  Si26  1  0.295139  0.363199  0.682972  1
  Si  Si27  1  0.704861  0.636801  0.182972  1
  Si  Si28  1  0.295614  0.048206  0.186435  1
  Si  Si29  1  0.704386  0.951794  0.686435  1
  Si  Si30  1  0.450243  0.794839  0.435550  1
  Si  Si31  1  0.205161  0.549757  0.064450  1
  Si  Si32  1  0.549757  0.205161  0.935550  1
  Si  Si33  1  0.794839  0.450243  0.564450  1
  Si  Si34  1  0.048206  0.295614  0.813565  1
  Si  Si35  1  0.951794  0.704386  0.313565  1
