# generated using pymatgen
data_Lu10CoNiSb4
_symmetry_space_group_name_H-M   'P 1'
_cell_length_a   7.75349400
_cell_length_b   8.51520500
_cell_length_c   11.87350700
_cell_angle_alpha   90.00000000
_cell_angle_beta   90.00000000
_cell_angle_gamma   90.00000000
_symmetry_Int_Tables_number   1
_chemical_formula_structural   Lu10CoNiSb4
_chemical_formula_sum   'Lu20 Co2 Ni2 Sb8'
_cell_volume   783.91969493
_cell_formula_units_Z   2
loop_
 _symmetry_equiv_pos_site_id
 _symmetry_equiv_pos_as_xyz
  1  'x, y, z'
loop_
 _atom_site_type_symbol
 _atom_site_label
 _atom_site_symmetry_multiplicity
 _atom_site_fract_x
 _atom_site_fract_y
 _atom_site_fract_z
 _atom_site_occupancy
  Lu  Lu0  1  0.158216  0.750000  0.204642  1
  Lu  Lu1  1  0.658216  0.250000  0.295358  1
  Lu  Lu2  1  0.839789  0.250000  0.792218  1
  Lu  Lu3  1  0.339789  0.750000  0.707782  1
  Lu  Lu4  1  0.448458  0.750000  0.000045  1
  Lu  Lu5  1  0.948458  0.250000  0.499955  1
  Lu  Lu6  1  0.549791  0.250000  0.001153  1
  Lu  Lu7  1  0.049791  0.750000  0.498847  1
  Lu  Lu8  1  0.623840  0.750000  0.306137  1
  Lu  Lu9  1  0.123840  0.250000  0.193863  1
  Lu  Lu10  1  0.378665  0.250000  0.692369  1
  Lu  Lu11  1  0.878665  0.750000  0.807631  1
  Lu  Lu12  1  0.824187  0.956351  0.065846  1
  Lu  Lu13  1  0.324187  0.043649  0.434154  1
  Lu  Lu14  1  0.176662  0.462841  0.933530  1
  Lu  Lu15  1  0.676662  0.537159  0.566470  1
  Lu  Lu16  1  0.176662  0.037159  0.933530  1
  Lu  Lu17  1  0.676662  0.962841  0.566470  1
  Lu  Lu18  1  0.824187  0.543649  0.065846  1
  Lu  Lu19  1  0.324187  0.456351  0.434154  1
  Co  Co20  1  0.570144  0.250000  0.510104  1
  Co  Co21  1  0.070144  0.750000  0.989896  1
  Ni  Ni22  1  0.428341  0.750000  0.489533  1
  Ni  Ni23  1  0.928341  0.250000  0.010467  1
  Sb  Sb24  1  0.931080  0.990383  0.327209  1
  Sb  Sb25  1  0.431080  0.009617  0.172791  1
  Sb  Sb26  1  0.069448  0.490302  0.671904  1
  Sb  Sb27  1  0.569448  0.509698  0.828096  1
  Sb  Sb28  1  0.069448  0.009698  0.671904  1
  Sb  Sb29  1  0.569448  0.990302  0.828096  1
  Sb  Sb30  1  0.931080  0.509617  0.327209  1
  Sb  Sb31  1  0.431080  0.490383  0.172791  1
