# generated using pymatgen
data_Zr5Sb9Pd
_symmetry_space_group_name_H-M   'P 1'
_cell_length_a   9.04695900
_cell_length_b   9.04695900
_cell_length_c   8.72533800
_cell_angle_alpha   90.00000000
_cell_angle_beta   90.00000000
_cell_angle_gamma   90.00000000
_symmetry_Int_Tables_number   1
_chemical_formula_structural   Zr5Sb9Pd
_chemical_formula_sum   'Zr10 Sb18 Pd2'
_cell_volume   714.14681531
_cell_formula_units_Z   2
loop_
 _symmetry_equiv_pos_site_id
 _symmetry_equiv_pos_as_xyz
  1  'x, y, z'
loop_
 _atom_site_type_symbol
 _atom_site_label
 _atom_site_symmetry_multiplicity
 _atom_site_fract_x
 _atom_site_fract_y
 _atom_site_fract_z
 _atom_site_occupancy
  Zr  Zr0  1  0.500000  0.000000  0.257670  1
  Zr  Zr1  1  0.000000  0.500000  0.742330  1
  Zr  Zr2  1  0.294116  0.604743  0.266458  1
  Zr  Zr3  1  0.705884  0.395257  0.266458  1
  Zr  Zr4  1  0.794116  0.104743  0.733542  1
  Zr  Zr5  1  0.205884  0.895257  0.733542  1
  Zr  Zr6  1  0.395257  0.294116  0.733542  1
  Zr  Zr7  1  0.604743  0.705884  0.733542  1
  Zr  Zr8  1  0.895257  0.794116  0.266458  1
  Zr  Zr9  1  0.104743  0.205884  0.266458  1
  Sb  Sb10  1  0.781977  0.589711  0.001009  1
  Sb  Sb11  1  0.218023  0.410289  0.001009  1
  Sb  Sb12  1  0.281977  0.089711  0.998991  1
  Sb  Sb13  1  0.718023  0.910289  0.998991  1
  Sb  Sb14  1  0.410289  0.781977  0.998991  1
  Sb  Sb15  1  0.589711  0.218023  0.998991  1
  Sb  Sb16  1  0.910289  0.281977  0.001009  1
  Sb  Sb17  1  0.089711  0.718023  0.001009  1
  Sb  Sb18  1  0.000000  0.500000  0.386801  1
  Sb  Sb19  1  0.500000  0.000000  0.613199  1
  Sb  Sb20  1  0.197062  0.902966  0.376734  1
  Sb  Sb21  1  0.802938  0.097034  0.376734  1
  Sb  Sb22  1  0.697062  0.402966  0.623266  1
  Sb  Sb23  1  0.302938  0.597034  0.623266  1
  Sb  Sb24  1  0.097034  0.197062  0.623266  1
  Sb  Sb25  1  0.902966  0.802938  0.623266  1
  Sb  Sb26  1  0.597034  0.697062  0.376734  1
  Sb  Sb27  1  0.402966  0.302938  0.376734  1
  Pd  Pd28  1  0.500000  0.500000  0.000000  1
  Pd  Pd29  1  0.000000  0.000000  0.000000  1
