# generated using pymatgen
data_Er4Mg3Sc(B6Ir)4
_symmetry_space_group_name_H-M   'P 1'
_cell_length_a   3.54325200
_cell_length_b   8.92158153
_cell_length_c   11.30711101
_cell_angle_alpha   90.05361403
_cell_angle_beta   90.00000000
_cell_angle_gamma   90.00000000
_symmetry_Int_Tables_number   1
_chemical_formula_structural   Er4Mg3Sc(B6Ir)4
_chemical_formula_sum   'Er4 Mg3 Sc1 B24 Ir4'
_cell_volume   357.43358377
_cell_formula_units_Z   1
loop_
 _symmetry_equiv_pos_site_id
 _symmetry_equiv_pos_as_xyz
  1  'x, y, z'
loop_
 _atom_site_type_symbol
 _atom_site_label
 _atom_site_symmetry_multiplicity
 _atom_site_fract_x
 _atom_site_fract_y
 _atom_site_fract_z
 _atom_site_occupancy
  Er  Er0  1  0.500000  0.318796  0.415160  1
  Er  Er1  1  0.500000  0.680681  0.586387  1
  Er  Er2  1  0.500000  0.181695  0.914048  1
  Er  Er3  1  0.500000  0.818499  0.084565  1
  Mg  Mg4  1  0.500000  0.448352  0.118287  1
  Mg  Mg5  1  0.500000  0.552056  0.881352  1
  Mg  Mg6  1  0.500000  0.053119  0.620806  1
  Sc  Sc7  1  0.500000  0.945999  0.377837  1
  B  B8  1  0.000000  0.101696  0.473001  1
  B  B9  1  0.000000  0.898673  0.527449  1
  B  B10  1  0.000000  0.399439  0.972847  1
  B  B11  1  0.000000  0.600495  0.026928  1
  B  B12  1  0.000000  0.130059  0.319498  1
  B  B13  1  0.000000  0.870940  0.681749  1
  B  B14  1  0.000000  0.371719  0.819543  1
  B  B15  1  0.000000  0.628410  0.179764  1
  B  B16  1  0.000000  0.056245  0.065767  1
  B  B17  1  0.000000  0.944368  0.933370  1
  B  B18  1  0.000000  0.444626  0.566945  1
  B  B19  1  0.000000  0.555055  0.434159  1
  B  B20  1  0.000000  0.481135  0.284420  1
  B  B21  1  0.000000  0.518355  0.715517  1
  B  B22  1  0.000000  0.018927  0.784847  1
  B  B23  1  0.000000  0.981552  0.215032  1
  B  B24  1  0.000000  0.255488  0.078924  1
  B  B25  1  0.000000  0.744672  0.920090  1
  B  B26  1  0.000000  0.245790  0.580530  1
  B  B27  1  0.000000  0.753980  0.421191  1
  B  B28  1  0.000000  0.295244  0.235004  1
  B  B29  1  0.000000  0.705417  0.765230  1
  B  B30  1  0.000000  0.205988  0.735422  1
  B  B31  1  0.000000  0.793473  0.264550  1
  Ir  Ir32  1  0.500000  0.141359  0.181939  1
  Ir  Ir33  1  0.500000  0.859881  0.817478  1
  Ir  Ir34  1  0.500000  0.359229  0.681296  1
  Ir  Ir35  1  0.500000  0.638591  0.319066  1
