# generated using pymatgen
data_Hf2Be4Os5
_symmetry_space_group_name_H-M   'P 1'
_cell_length_a   3.21598800
_cell_length_b   8.63325620
_cell_length_c   10.13985300
_cell_angle_alpha   89.98760276
_cell_angle_beta   90.00000000
_cell_angle_gamma   90.00000000
_symmetry_Int_Tables_number   1
_chemical_formula_structural   Hf2Be4Os5
_chemical_formula_sum   'Hf4 Be8 Os10'
_cell_volume   281.52741827
_cell_formula_units_Z   2
loop_
 _symmetry_equiv_pos_site_id
 _symmetry_equiv_pos_as_xyz
  1  'x, y, z'
loop_
 _atom_site_type_symbol
 _atom_site_label
 _atom_site_symmetry_multiplicity
 _atom_site_fract_x
 _atom_site_fract_y
 _atom_site_fract_z
 _atom_site_occupancy
  Hf  Hf0  1  0.500000  0.842871  0.181935  1
  Hf  Hf1  1  0.500000  0.157129  0.818065  1
  Hf  Hf2  1  0.500000  0.657191  0.681845  1
  Hf  Hf3  1  0.500000  0.342809  0.318155  1
  Be  Be4  1  0.500000  0.964114  0.593726  1
  Be  Be5  1  0.500000  0.035886  0.406274  1
  Be  Be6  1  0.500000  0.842765  0.903328  1
  Be  Be7  1  0.500000  0.157235  0.096672  1
  Be  Be8  1  0.500000  0.657354  0.403442  1
  Be  Be9  1  0.500000  0.342646  0.596558  1
  Be  Be10  1  0.500000  0.464099  0.906304  1
  Be  Be11  1  0.500000  0.535901  0.093696  1
  Os  Os12  1  0.000000  0.659165  0.953341  1
  Os  Os13  1  0.000000  0.340835  0.046659  1
  Os  Os14  1  0.000000  0.840808  0.453311  1
  Os  Os15  1  0.000000  0.159192  0.546689  1
  Os  Os16  1  0.000000  0.000000  0.000000  1
  Os  Os17  1  0.000000  0.401881  0.758258  1
  Os  Os18  1  0.000000  0.598119  0.241742  1
  Os  Os19  1  0.000000  0.500000  0.500000  1
  Os  Os20  1  0.000000  0.901875  0.741630  1
  Os  Os21  1  0.000000  0.098125  0.258370  1
