# generated using pymatgen
data_LaTbDy2(Sn5Rh3)2
_symmetry_space_group_name_H-M   'P 1'
_cell_length_a   13.51919710
_cell_length_b   13.51919645
_cell_length_c   7.27902900
_cell_angle_alpha   90.02450018
_cell_angle_beta   89.97550062
_cell_angle_gamma   160.95678219
_symmetry_Int_Tables_number   1
_chemical_formula_structural   LaTbDy2(Sn5Rh3)2
_chemical_formula_sum   'La1 Tb1 Dy2 Sn10 Rh6'
_cell_volume   434.07754278
_cell_formula_units_Z   1
loop_
 _symmetry_equiv_pos_site_id
 _symmetry_equiv_pos_as_xyz
  1  'x, y, z'
loop_
 _atom_site_type_symbol
 _atom_site_label
 _atom_site_symmetry_multiplicity
 _atom_site_fract_x
 _atom_site_fract_y
 _atom_site_fract_z
 _atom_site_occupancy
  La  La0  1  0.172586  0.827414  0.754724  1
  Tb  Tb1  1  0.828803  0.171197  0.255240  1
  Dy  Dy2  1  0.475405  0.524595  0.739110  1
  Dy  Dy3  1  0.522817  0.477183  0.236697  1
  Sn  Sn4  1  0.881284  0.118716  0.728790  1
  Sn  Sn5  1  0.119198  0.880802  0.233180  1
  Sn  Sn6  1  0.705426  0.294574  0.053188  1
  Sn  Sn7  1  0.296060  0.703940  0.548032  1
  Sn  Sn8  1  0.593922  0.406078  0.612688  1
  Sn  Sn9  1  0.403497  0.596503  0.112871  1
  Sn  Sn10  1  0.952138  0.047862  0.399020  1
  Sn  Sn11  1  0.046566  0.953434  0.898758  1
  Sn  Sn12  1  0.291869  0.708131  0.978308  1
  Sn  Sn13  1  0.710693  0.289307  0.473166  1
  Rh  Rh14  1  0.049154  0.950846  0.517130  1
  Rh  Rh15  1  0.949315  0.050685  0.018795  1
  Rh  Rh16  1  0.778979  0.221021  0.763284  1
  Rh  Rh17  1  0.223520  0.776480  0.263466  1
  Rh  Rh18  1  0.394254  0.605746  0.482132  1
  Rh  Rh19  1  0.604513  0.395487  0.987418  1
