# generated using pymatgen
data_Ho6Tm2Sc11Si16Ag
_symmetry_space_group_name_H-M   'P 1'
_cell_length_a   6.99996921
_cell_length_b   7.36837168
_cell_length_c   13.95923773
_cell_angle_alpha   89.97022391
_cell_angle_beta   90.02215896
_cell_angle_gamma   89.91238838
_symmetry_Int_Tables_number   1
_chemical_formula_structural   Ho6Tm2Sc11Si16Ag
_chemical_formula_sum   'Ho6 Tm2 Sc11 Si16 Ag1'
_cell_volume   719.99380436
_cell_formula_units_Z   1
loop_
 _symmetry_equiv_pos_site_id
 _symmetry_equiv_pos_as_xyz
  1  'x, y, z'
loop_
 _atom_site_type_symbol
 _atom_site_label
 _atom_site_symmetry_multiplicity
 _atom_site_fract_x
 _atom_site_fract_y
 _atom_site_fract_z
 _atom_site_occupancy
  Ho  Ho0  1  0.010985  0.176119  0.096188  1
  Ho  Ho1  1  0.990203  0.814619  0.901610  1
  Ho  Ho2  1  0.485206  0.673930  0.902324  1
  Ho  Ho3  1  0.990243  0.814407  0.598194  1
  Ho  Ho4  1  0.510338  0.323072  0.095862  1
  Ho  Ho5  1  0.011247  0.176203  0.404015  1
  Tm  Tm6  1  0.510234  0.322822  0.403962  1
  Tm  Tm7  1  0.485180  0.674253  0.597811  1
  Sc  Sc8  1  0.838392  0.496860  0.250123  1
  Sc  Sc9  1  0.340563  0.003707  0.250141  1
  Sc  Sc10  1  0.656765  0.997071  0.749859  1
  Sc  Sc11  1  0.325745  0.182596  0.627049  1
  Sc  Sc12  1  0.670987  0.823497  0.374925  1
  Sc  Sc13  1  0.170566  0.678546  0.374012  1
  Sc  Sc14  1  0.671111  0.823734  0.125277  1
  Sc  Sc15  1  0.836102  0.327322  0.626817  1
  Sc  Sc16  1  0.325435  0.182338  0.872840  1
  Sc  Sc17  1  0.836422  0.327154  0.872958  1
  Sc  Sc18  1  0.170495  0.678675  0.126184  1
  Si  Si19  1  0.027048  0.096381  0.749921  1
  Si  Si20  1  0.969481  0.889442  0.250056  1
  Si  Si21  1  0.467782  0.614638  0.250186  1
  Si  Si22  1  0.535974  0.386891  0.749828  1
  Si  Si23  1  0.288262  0.880013  0.749732  1
  Si  Si24  1  0.713708  0.129688  0.250274  1
  Si  Si25  1  0.213453  0.370824  0.250257  1
  Si  Si26  1  0.775619  0.630652  0.749684  1
  Si  Si27  1  0.163456  0.460518  0.531704  1
  Si  Si28  1  0.841167  0.534957  0.462085  1
  Si  Si29  1  0.344314  0.965715  0.462828  1
  Si  Si30  1  0.842079  0.535310  0.037836  1
  Si  Si31  1  0.657950  0.033711  0.540187  1
  Si  Si32  1  0.162241  0.460235  0.968423  1
  Si  Si33  1  0.658334  0.033816  0.959781  1
  Si  Si34  1  0.343908  0.965625  0.037200  1
  Ag  Ag35  1  0.159003  0.514658  0.749865  1
