# generated using pymatgen
data_Tb2Ga3PIr4
_symmetry_space_group_name_H-M   'P 1'
_cell_length_a   4.10528100
_cell_length_b   4.10528100
_cell_length_c   10.50612500
_cell_angle_alpha   90.00000000
_cell_angle_beta   90.00000000
_cell_angle_gamma   90.00000000
_symmetry_Int_Tables_number   1
_chemical_formula_structural   Tb2Ga3PIr4
_chemical_formula_sum   'Tb2 Ga3 P1 Ir4'
_cell_volume   177.06321359
_cell_formula_units_Z   1
loop_
 _symmetry_equiv_pos_site_id
 _symmetry_equiv_pos_as_xyz
  1  'x, y, z'
loop_
 _atom_site_type_symbol
 _atom_site_label
 _atom_site_symmetry_multiplicity
 _atom_site_fract_x
 _atom_site_fract_y
 _atom_site_fract_z
 _atom_site_occupancy
  Tb  Tb0  1  0.000000  0.500000  0.245360  1
  Tb  Tb1  1  0.500000  0.000000  0.751134  1
  Ga  Ga2  1  0.000000  0.000000  0.494454  1
  Ga  Ga3  1  0.500000  0.500000  0.494454  1
  Ga  Ga4  1  0.000000  0.500000  0.872955  1
  P  P5  1  0.500000  0.000000  0.126285  1
  Ir  Ir6  1  0.000000  0.000000  0.015727  1
  Ir  Ir7  1  0.500000  0.500000  0.015727  1
  Ir  Ir8  1  0.000000  0.500000  0.637939  1
  Ir  Ir9  1  0.500000  0.000000  0.345965  1
