# generated using pymatgen
data_Ba6Er2RuO12
_symmetry_space_group_name_H-M   'P 1'
_cell_length_a   9.42338413
_cell_length_b   9.42338311
_cell_length_c   7.44045600
_cell_angle_alpha   67.74054632
_cell_angle_beta   67.74054887
_cell_angle_gamma   36.90041426
_symmetry_Int_Tables_number   1
_chemical_formula_structural   Ba6Er2RuO12
_chemical_formula_sum   'Ba6 Er2 Ru1 O12'
_cell_volume   363.70681038
_cell_formula_units_Z   1
loop_
 _symmetry_equiv_pos_site_id
 _symmetry_equiv_pos_as_xyz
  1  'x, y, z'
loop_
 _atom_site_type_symbol
 _atom_site_label
 _atom_site_symmetry_multiplicity
 _atom_site_fract_x
 _atom_site_fract_y
 _atom_site_fract_z
 _atom_site_occupancy
  Ba  Ba0  1  0.878356  0.878356  0.710980  1
  Ba  Ba1  1  0.217439  0.217439  0.708634  1
  Ba  Ba2  1  0.548601  0.548601  0.705904  1
  Ba  Ba3  1  0.451399  0.451399  0.294096  1
  Ba  Ba4  1  0.782561  0.782561  0.291366  1
  Ba  Ba5  1  0.121644  0.121644  0.289020  1
  Er  Er6  1  0.665084  0.665084  0.999030  1
  Er  Er7  1  0.334916  0.334916  0.000970  1
  Ru  Ru8  1  0.000000  0.000000  0.000000  1
  O  O9  1  0.951668  0.951668  0.293435  1
  O  O10  1  0.282089  0.282089  0.330654  1
  O  O11  1  0.606389  0.606389  0.330958  1
  O  O12  1  0.393611  0.393611  0.669042  1
  O  O13  1  0.717911  0.717911  0.669346  1
  O  O14  1  0.048332  0.048332  0.706565  1
  O  O15  1  0.500000  0.000000  0.000000  1
  O  O16  1  0.846062  0.306568  0.000940  1
  O  O17  1  0.153938  0.693432  0.999060  1
  O  O18  1  0.000000  0.500000  0.000000  1
  O  O19  1  0.306568  0.846062  0.000940  1
  O  O20  1  0.693432  0.153938  0.999060  1
