# generated using pymatgen
data_BaSrPr(CuO2)4
_symmetry_space_group_name_H-M   'P 1'
_cell_length_a   13.59958700
_cell_length_b   13.59958556
_cell_length_c   3.83199100
_cell_angle_alpha   90.00000000
_cell_angle_beta   90.00000000
_cell_angle_gamma   163.16148759
_symmetry_Int_Tables_number   1
_chemical_formula_structural   BaSrPr(CuO2)4
_chemical_formula_sum   'Ba1 Sr1 Pr1 Cu4 O8'
_cell_volume   205.29917601
_cell_formula_units_Z   1
loop_
 _symmetry_equiv_pos_site_id
 _symmetry_equiv_pos_as_xyz
  1  'x, y, z'
loop_
 _atom_site_type_symbol
 _atom_site_label
 _atom_site_symmetry_multiplicity
 _atom_site_fract_x
 _atom_site_fract_y
 _atom_site_fract_z
 _atom_site_occupancy
  Ba  Ba0  1  0.638698  0.361302  0.500000  1
  Sr  Sr1  1  0.363126  0.636874  0.500000  1
  Pr  Pr2  1  0.498530  0.501470  0.500000  1
  Cu  Cu3  1  0.215868  0.784132  0.000000  1
  Cu  Cu4  1  0.788372  0.211628  0.000000  1
  Cu  Cu5  1  0.063389  0.936611  0.000000  1
  Cu  Cu6  1  0.932775  0.067225  0.000000  1
  O  O7  1  0.147510  0.852490  0.000000  1
  O  O8  1  0.855899  0.144101  0.000000  1
  O  O9  1  0.556842  0.443158  0.000000  1
  O  O10  1  0.437853  0.562147  0.000000  1
  O  O11  1  0.054607  0.945393  0.500000  1
  O  O12  1  0.941523  0.058477  0.500000  1
  O  O13  1  0.719011  0.280989  0.000000  1
  O  O14  1  0.285998  0.714002  0.000000  1
