# generated using pymatgen
data_Er5ReTcC7
_symmetry_space_group_name_H-M   'P 1'
_cell_length_a   8.25512642
_cell_length_b   8.25512660
_cell_length_c   3.39777000
_cell_angle_alpha   90.00000000
_cell_angle_beta   90.00000000
_cell_angle_gamma   122.25525835
_symmetry_Int_Tables_number   1
_chemical_formula_structural   Er5ReTcC7
_chemical_formula_sum   'Er5 Re1 Tc1 C7'
_cell_volume   195.81543000
_cell_formula_units_Z   1
loop_
 _symmetry_equiv_pos_site_id
 _symmetry_equiv_pos_as_xyz
  1  'x, y, z'
loop_
 _atom_site_type_symbol
 _atom_site_label
 _atom_site_symmetry_multiplicity
 _atom_site_fract_x
 _atom_site_fract_y
 _atom_site_fract_z
 _atom_site_occupancy
  Er  Er0  1  0.500229  0.499771  0.000000  1
  Er  Er1  1  0.076628  0.335542  0.500000  1
  Er  Er2  1  0.922641  0.663143  0.500000  1
  Er  Er3  1  0.664458  0.923372  0.500000  1
  Er  Er4  1  0.336857  0.077359  0.500000  1
  Re  Re5  1  0.285656  0.714344  0.000000  1
  Tc  Tc6  1  0.714027  0.285973  0.000000  1
  C  C7  1  0.624712  0.375288  0.500000  1
  C  C8  1  0.375053  0.624947  0.500000  1
  C  C9  1  0.999766  0.000234  0.000000  1
  C  C10  1  0.170227  0.170268  0.000000  1
  C  C11  1  0.829732  0.829773  0.000000  1
  C  C12  1  0.001344  0.501332  0.000000  1
  C  C13  1  0.498668  0.998656  0.000000  1
