# generated using pymatgen
data_Y16MgTl2InPd4
_symmetry_space_group_name_H-M   'P 1'
_cell_length_a   9.78332929
_cell_length_b   9.78505433
_cell_length_c   9.81564000
_cell_angle_alpha   59.89654693
_cell_angle_beta   59.89068964
_cell_angle_gamma   59.85571656
_symmetry_Int_Tables_number   1
_chemical_formula_structural   Y16MgTl2InPd4
_chemical_formula_sum   'Y16 Mg1 Tl2 In1 Pd4'
_cell_volume   662.64214542
_cell_formula_units_Z   1
loop_
 _symmetry_equiv_pos_site_id
 _symmetry_equiv_pos_as_xyz
  1  'x, y, z'
loop_
 _atom_site_type_symbol
 _atom_site_label
 _atom_site_symmetry_multiplicity
 _atom_site_fract_x
 _atom_site_fract_y
 _atom_site_fract_z
 _atom_site_occupancy
  Y  Y0  1  0.351612  0.351179  0.352055  1
  Y  Y1  1  0.351612  0.351179  0.945155  1
  Y  Y2  1  0.352022  0.943631  0.352174  1
  Y  Y3  1  0.938617  0.353090  0.354147  1
  Y  Y4  1  0.808900  0.190552  0.191512  1
  Y  Y5  1  0.187392  0.811786  0.811142  1
  Y  Y6  1  0.187392  0.811786  0.189681  1
  Y  Y7  1  0.808900  0.190552  0.809036  1
  Y  Y8  1  0.188634  0.189092  0.811138  1
  Y  Y9  1  0.809257  0.809169  0.190787  1
  Y  Y10  1  0.936681  0.564324  0.564707  1
  Y  Y11  1  0.564094  0.936067  0.935737  1
  Y  Y12  1  0.564094  0.936067  0.564101  1
  Y  Y13  1  0.936681  0.564324  0.934287  1
  Y  Y14  1  0.564571  0.563987  0.935721  1
  Y  Y15  1  0.935403  0.935839  0.564378  1
  Mg  Mg16  1  0.268313  0.576840  0.577423  1
  Tl  Tl17  1  0.583094  0.585951  0.587719  1
  Tl  Tl18  1  0.583094  0.585951  0.243234  1
  In  In19  1  0.581947  0.248461  0.584795  1
  Pd  Pd20  1  0.143040  0.144280  0.144582  1
  Pd  Pd21  1  0.143040  0.144280  0.568098  1
  Pd  Pd22  1  0.142376  0.568429  0.144598  1
  Pd  Pd23  1  0.569230  0.143183  0.143793  1
