# generated using pymatgen
data_Lu5Zr(Ni3P2)6
_symmetry_space_group_name_H-M   'P 1'
_cell_length_a   3.70648800
_cell_length_b   10.42407435
_cell_length_c   12.18128641
_cell_angle_alpha   89.97037065
_cell_angle_beta   89.99701128
_cell_angle_gamma   90.00327614
_symmetry_Int_Tables_number   1
_chemical_formula_structural   Lu5Zr(Ni3P2)6
_chemical_formula_sum   'Lu5 Zr1 Ni18 P12'
_cell_volume   470.64472387
_cell_formula_units_Z   1
loop_
 _symmetry_equiv_pos_site_id
 _symmetry_equiv_pos_as_xyz
  1  'x, y, z'
loop_
 _atom_site_type_symbol
 _atom_site_label
 _atom_site_symmetry_multiplicity
 _atom_site_fract_x
 _atom_site_fract_y
 _atom_site_fract_z
 _atom_site_occupancy
  Lu  Lu0  1  0.751885  0.000613  0.475538  1
  Lu  Lu1  1  0.251745  0.499822  0.523154  1
  Lu  Lu2  1  0.251693  0.681127  0.794334  1
  Lu  Lu3  1  0.251671  0.318317  0.793030  1
  Lu  Lu4  1  0.751993  0.820073  0.206653  1
  Zr  Zr5  1  0.752026  0.182050  0.204599  1
  Ni  Ni6  1  0.752134  0.000206  0.015824  1
  Ni  Ni7  1  0.251241  0.498635  0.987176  1
  Ni  Ni8  1  0.253158  0.196560  0.569127  1
  Ni  Ni9  1  0.249971  0.802470  0.570961  1
  Ni  Ni10  1  0.752691  0.302158  0.427334  1
  Ni  Ni11  1  0.750450  0.698994  0.429464  1
  Ni  Ni12  1  0.251994  0.623922  0.290260  1
  Ni  Ni13  1  0.252882  0.377005  0.289802  1
  Ni  Ni14  1  0.751425  0.877052  0.710430  1
  Ni  Ni15  1  0.751052  0.122456  0.710282  1
  Ni  Ni16  1  0.251290  0.167731  0.003371  1
  Ni  Ni17  1  0.252199  0.833697  0.005069  1
  Ni  Ni18  1  0.751735  0.330882  0.997225  1
  Ni  Ni19  1  0.752002  0.667754  0.996655  1
  Ni  Ni20  1  0.253904  0.999303  0.838809  1
  Ni  Ni21  1  0.749936  0.498074  0.160407  1
  Ni  Ni22  1  0.252951  0.001022  0.299655  1
  Ni  Ni23  1  0.752065  0.499478  0.700184  1
  P  P24  1  0.252226  0.185167  0.383170  1
  P  P25  1  0.251258  0.816355  0.385373  1
  P  P26  1  0.752458  0.314692  0.613865  1
  P  P27  1  0.750981  0.684432  0.615238  1
  P  P28  1  0.252151  0.002905  0.124087  1
  P  P29  1  0.751488  0.499079  0.877554  1
  P  P30  1  0.251880  0.654385  0.109752  1
  P  P31  1  0.251821  0.343016  0.111089  1
  P  P32  1  0.752084  0.846804  0.891124  1
  P  P33  1  0.751620  0.153202  0.890489  1
  P  P34  1  0.251466  0.999839  0.651863  1
  P  P35  1  0.752076  0.500724  0.347054  1
