# generated using pymatgen
data_La5YbSmOsBr12
_symmetry_space_group_name_H-M   'P 1'
_cell_length_a   9.80761698
_cell_length_b   9.86358518
_cell_length_c   9.59031192
_cell_angle_alpha   107.93439067
_cell_angle_beta   107.68682905
_cell_angle_gamma   106.03214136
_symmetry_Int_Tables_number   1
_chemical_formula_structural   La5YbSmOsBr12
_chemical_formula_sum   'La5 Yb1 Sm1 Os1 Br12'
_cell_volume   767.81056244
_cell_formula_units_Z   1
loop_
 _symmetry_equiv_pos_site_id
 _symmetry_equiv_pos_as_xyz
  1  'x, y, z'
loop_
 _atom_site_type_symbol
 _atom_site_label
 _atom_site_symmetry_multiplicity
 _atom_site_fract_x
 _atom_site_fract_y
 _atom_site_fract_z
 _atom_site_occupancy
  La  La0  1  0.019893  0.320283  0.116617  1
  La  La1  1  0.109679  0.028242  0.304925  1
  La  La2  1  0.893183  0.973362  0.697818  1
  La  La3  1  0.978232  0.679430  0.884903  1
  La  La4  1  0.676886  0.888702  0.974285  1
  Yb  Yb5  1  0.501554  0.498630  0.496355  1
  Sm  Sm6  1  0.312294  0.109862  0.026716  1
  Os  Os7  1  0.998707  0.999809  0.001279  1
  Br  Br8  1  0.673818  0.211773  0.065709  1
  Br  Br9  1  0.370694  0.446778  0.163184  1
  Br  Br10  1  0.074612  0.686408  0.216395  1
  Br  Br11  1  0.790592  0.933990  0.321685  1
  Br  Br12  1  0.463470  0.176024  0.374101  1
  Br  Br13  1  0.180358  0.382307  0.468003  1
  Br  Br14  1  0.824807  0.618648  0.532890  1
  Br  Br15  1  0.536180  0.819626  0.614329  1
  Br  Br16  1  0.217258  0.070112  0.691292  1
  Br  Br17  1  0.928738  0.314494  0.785574  1
  Br  Br18  1  0.627430  0.543772  0.827606  1
  Br  Br19  1  0.321619  0.797751  0.936337  1
