# generated using pymatgen
data_Ce3Tm3Al24Fe3Ru5
_symmetry_space_group_name_H-M   'P 1'
_cell_length_a   8.75854207
_cell_length_b   8.80383954
_cell_length_c   9.49940308
_cell_angle_alpha   90.01438180
_cell_angle_beta   89.84761461
_cell_angle_gamma   119.93271827
_symmetry_Int_Tables_number   1
_chemical_formula_structural   Ce3Tm3Al24Fe3Ru5
_chemical_formula_sum   'Ce3 Tm3 Al24 Fe3 Ru5'
_cell_volume   634.77974106
_cell_formula_units_Z   1
loop_
 _symmetry_equiv_pos_site_id
 _symmetry_equiv_pos_as_xyz
  1  'x, y, z'
loop_
 _atom_site_type_symbol
 _atom_site_label
 _atom_site_symmetry_multiplicity
 _atom_site_fract_x
 _atom_site_fract_y
 _atom_site_fract_z
 _atom_site_occupancy
  Ce  Ce0  1  0.803949  0.191134  0.750727  1
  Ce  Ce1  1  0.193771  0.807141  0.249316  1
  Ce  Ce2  1  0.389556  0.194129  0.751492  1
  Tm  Tm3  1  0.612354  0.808437  0.248148  1
  Tm  Tm4  1  0.804330  0.610200  0.751064  1
  Tm  Tm5  1  0.192542  0.389252  0.248854  1
  Al  Al6  1  0.671467  0.341638  0.989325  1
  Al  Al7  1  0.332531  0.660194  0.015605  1
  Al  Al8  1  0.338897  0.662453  0.484893  1
  Al  Al9  1  0.665226  0.338929  0.508974  1
  Al  Al10  1  0.839029  0.163542  0.420705  1
  Al  Al11  1  0.160572  0.834878  0.578053  1
  Al  Al12  1  0.326272  0.168663  0.421294  1
  Al  Al13  1  0.158637  0.831361  0.923852  1
  Al  Al14  1  0.673547  0.831435  0.575590  1
  Al  Al15  1  0.840627  0.166900  0.077669  1
  Al  Al16  1  0.832836  0.674512  0.422342  1
  Al  Al17  1  0.672293  0.830969  0.924507  1
  Al  Al18  1  0.165839  0.326673  0.576024  1
  Al  Al19  1  0.327528  0.169208  0.078694  1
  Al  Al20  1  0.163410  0.327573  0.925277  1
  Al  Al21  1  0.835373  0.673817  0.076549  1
  Al  Al22  1  0.441429  0.559207  0.750279  1
  Al  Al23  1  0.557296  0.445046  0.249929  1
  Al  Al24  1  0.119250  0.559202  0.754706  1
  Al  Al25  1  0.879154  0.439934  0.245451  1
  Al  Al26  1  0.435331  0.869800  0.750401  1
  Al  Al27  1  0.563181  0.124871  0.249476  1
  Al  Al28  1  0.998290  0.995438  0.750089  1
  Al  Al29  1  0.999814  0.003330  0.250018  1
  Fe  Fe30  1  0.500768  0.498861  0.997856  1
  Fe  Fe31  1  0.001333  0.500911  0.000890  1
  Fe  Fe32  1  0.500595  0.498609  0.502778  1
  Ru  Ru33  1  0.501119  0.000648  0.999077  1
  Ru  Ru34  1  0.001336  0.500956  0.499194  1
  Ru  Ru35  1  0.500986  0.000462  0.500792  1
  Ru  Ru36  1  0.999716  0.999883  0.000396  1
  Ru  Ru37  1  0.999817  0.999800  0.499713  1
