# generated using pymatgen
data_Nd16MgHg3(IrPt)2
_symmetry_space_group_name_H-M   'P 1'
_cell_length_a   9.96566607
_cell_length_b   9.95377552
_cell_length_c   9.96565292
_cell_angle_alpha   60.31835807
_cell_angle_beta   60.45043756
_cell_angle_gamma   60.31843372
_symmetry_Int_Tables_number   1
_chemical_formula_structural   Nd16MgHg3(IrPt)2
_chemical_formula_sum   'Nd16 Mg1 Hg3 Ir2 Pt2'
_cell_volume   704.74034387
_cell_formula_units_Z   1
loop_
 _symmetry_equiv_pos_site_id
 _symmetry_equiv_pos_as_xyz
  1  'x, y, z'
loop_
 _atom_site_type_symbol
 _atom_site_label
 _atom_site_symmetry_multiplicity
 _atom_site_fract_x
 _atom_site_fract_y
 _atom_site_fract_z
 _atom_site_occupancy
  Nd  Nd0  1  0.649200  0.046782  0.649198  1
  Nd  Nd1  1  0.807102  0.191459  0.807102  1
  Nd  Nd2  1  0.194463  0.808146  0.808138  1
  Nd  Nd3  1  0.060784  0.438551  0.435626  1
  Nd  Nd4  1  0.061218  0.061884  0.437551  1
  Nd  Nd5  1  0.437291  0.060862  0.437292  1
  Nd  Nd6  1  0.812161  0.185554  0.192877  1
  Nd  Nd7  1  0.437552  0.061884  0.061218  1
  Nd  Nd8  1  0.188448  0.813320  0.188451  1
  Nd  Nd9  1  0.435625  0.438552  0.060784  1
  Nd  Nd10  1  0.808138  0.808145  0.194464  1
  Nd  Nd11  1  0.192875  0.185555  0.812160  1
  Nd  Nd12  1  0.050459  0.651054  0.646005  1
  Nd  Nd13  1  0.648039  0.652101  0.648037  1
  Nd  Nd14  1  0.061517  0.438853  0.061518  1
  Nd  Nd15  1  0.646006  0.651054  0.050460  1
  Mg  Mg16  1  0.429753  0.429795  0.429754  1
  Hg  Hg17  1  0.413073  0.412723  0.755465  1
  Hg  Hg18  1  0.755465  0.412723  0.413073  1
  Hg  Hg19  1  0.412854  0.755636  0.412854  1
  Ir  Ir20  1  0.857171  0.855956  0.426950  1
  Ir  Ir21  1  0.426950  0.855956  0.857170  1
  Pt  Pt22  1  0.857025  0.855389  0.857024  1
  Pt  Pt23  1  0.856831  0.428065  0.856830  1
