# generated using pymatgen
data_Tb10Y2Ga9Si9Ge2
_symmetry_space_group_name_H-M   'P 1'
_cell_length_a   5.99372900
_cell_length_b   5.99373414
_cell_length_c   18.70286400
_cell_angle_alpha   90.00000000
_cell_angle_beta   90.00000000
_cell_angle_gamma   102.77935799
_symmetry_Int_Tables_number   1
_chemical_formula_structural   Tb10Y2Ga9Si9Ge2
_chemical_formula_sum   'Tb10 Y2 Ga9 Si9 Ge2'
_cell_volume   655.25350017
_cell_formula_units_Z   1
loop_
 _symmetry_equiv_pos_site_id
 _symmetry_equiv_pos_as_xyz
  1  'x, y, z'
loop_
 _atom_site_type_symbol
 _atom_site_label
 _atom_site_symmetry_multiplicity
 _atom_site_fract_x
 _atom_site_fract_y
 _atom_site_fract_z
 _atom_site_occupancy
  Tb  Tb0  1  0.339002  0.339002  0.250424  1
  Tb  Tb1  1  0.339002  0.339002  0.749576  1
  Tb  Tb2  1  0.200915  0.801249  0.128387  1
  Tb  Tb3  1  0.199418  0.801558  0.624938  1
  Tb  Tb4  1  0.200915  0.801249  0.871613  1
  Tb  Tb5  1  0.199418  0.801558  0.375062  1
  Tb  Tb6  1  0.801248  0.200914  0.128387  1
  Tb  Tb7  1  0.801558  0.199420  0.624938  1
  Tb  Tb8  1  0.801558  0.199420  0.375062  1
  Tb  Tb9  1  0.801248  0.200914  0.871613  1
  Y  Y10  1  0.653189  0.653187  0.000000  1
  Y  Y11  1  0.662656  0.662654  0.500000  1
  Ga  Ga12  1  0.316708  0.316707  0.902845  1
  Ga  Ga13  1  0.323994  0.323996  0.402728  1
  Ga  Ga14  1  0.677754  0.677754  0.347860  1
  Ga  Ga15  1  0.677761  0.677762  0.847171  1
  Ga  Ga16  1  0.316708  0.316707  0.097155  1
  Ga  Ga17  1  0.323994  0.323996  0.597272  1
  Ga  Ga18  1  0.677761  0.677762  0.152829  1
  Ga  Ga19  1  0.677754  0.677754  0.652140  1
  Ga  Ga20  1  0.039924  0.039923  0.000000  1
  Si  Si21  1  0.482287  0.089957  0.500000  1
  Si  Si22  1  0.911220  0.519343  0.250785  1
  Si  Si23  1  0.911220  0.519343  0.749215  1
  Si  Si24  1  0.519342  0.911219  0.250785  1
  Si  Si25  1  0.519342  0.911219  0.749215  1
  Si  Si26  1  0.089955  0.482287  0.500000  1
  Si  Si27  1  0.055268  0.055270  0.500000  1
  Si  Si28  1  0.947241  0.947240  0.251064  1
  Si  Si29  1  0.947241  0.947240  0.748936  1
  Ge  Ge30  1  0.496744  0.087656  0.000000  1
  Ge  Ge31  1  0.087659  0.496743  0.000000  1
