# generated using pymatgen
data_TbEr(Tm2Os)2
_symmetry_space_group_name_H-M   'P 1'
_cell_length_a   7.37778906
_cell_length_b   8.92142100
_cell_length_c   6.27560400
_cell_angle_alpha   90.00000000
_cell_angle_beta   89.99252912
_cell_angle_gamma   90.00000000
_symmetry_Int_Tables_number   1
_chemical_formula_structural   TbEr(Tm2Os)2
_chemical_formula_sum   'Tb2 Er2 Tm8 Os4'
_cell_volume   413.06252528
_cell_formula_units_Z   2
loop_
 _symmetry_equiv_pos_site_id
 _symmetry_equiv_pos_as_xyz
  1  'x, y, z'
loop_
 _atom_site_type_symbol
 _atom_site_label
 _atom_site_symmetry_multiplicity
 _atom_site_fract_x
 _atom_site_fract_y
 _atom_site_fract_z
 _atom_site_occupancy
  Tb  Tb0  1  0.460142  0.750000  0.129417  1
  Tb  Tb1  1  0.539858  0.250000  0.870583  1
  Er  Er2  1  0.038983  0.250000  0.629361  1
  Er  Er3  1  0.961017  0.750000  0.370639  1
  Tm  Tm4  1  0.174152  0.062888  0.166447  1
  Tm  Tm5  1  0.825848  0.937112  0.833553  1
  Tm  Tm6  1  0.325245  0.937362  0.665618  1
  Tm  Tm7  1  0.825848  0.562888  0.833553  1
  Tm  Tm8  1  0.674755  0.062638  0.334382  1
  Tm  Tm9  1  0.174152  0.437112  0.166447  1
  Tm  Tm10  1  0.674755  0.437362  0.334382  1
  Tm  Tm11  1  0.325245  0.562638  0.665618  1
  Os  Os12  1  0.381755  0.250000  0.458548  1
  Os  Os13  1  0.618245  0.750000  0.541452  1
  Os  Os14  1  0.116687  0.750000  0.958858  1
  Os  Os15  1  0.883313  0.250000  0.041142  1
