# generated using pymatgen
data_GdEr(SO4)3
_symmetry_space_group_name_H-M   'P 1'
_cell_length_a   8.60051573
_cell_length_b   8.60051521
_cell_length_c   9.21207000
_cell_angle_alpha   65.27660710
_cell_angle_beta   65.27660869
_cell_angle_gamma   65.53676226
_symmetry_Int_Tables_number   1
_chemical_formula_structural   GdEr(SO4)3
_chemical_formula_sum   'Gd2 Er2 S6 O24'
_cell_volume   538.07032571
_cell_formula_units_Z   2
loop_
 _symmetry_equiv_pos_site_id
 _symmetry_equiv_pos_as_xyz
  1  'x, y, z'
loop_
 _atom_site_type_symbol
 _atom_site_label
 _atom_site_symmetry_multiplicity
 _atom_site_fract_x
 _atom_site_fract_y
 _atom_site_fract_z
 _atom_site_occupancy
  Gd  Gd0  1  0.377413  0.893239  0.430301  1
  Gd  Gd1  1  0.893239  0.377413  0.930301  1
  Er  Er2  1  0.110577  0.624347  0.065538  1
  Er  Er3  1  0.624347  0.110577  0.565538  1
  S  S4  1  0.763926  0.525024  0.291648  1
  S  S5  1  0.525024  0.763926  0.791648  1
  S  S6  1  0.028389  0.962943  0.253762  1
  S  S7  1  0.962943  0.028389  0.753762  1
  S  S8  1  0.471241  0.246685  0.205962  1
  S  S9  1  0.246685  0.471241  0.705962  1
  O  O10  1  0.854123  0.976164  0.386877  1
  O  O11  1  0.976164  0.854123  0.886877  1
  O  O12  1  0.911708  0.531781  0.329864  1
  O  O13  1  0.604452  0.679024  0.316222  1
  O  O14  1  0.837954  0.542691  0.105611  1
  O  O15  1  0.531781  0.911708  0.829864  1
  O  O16  1  0.171801  0.918533  0.325202  1
  O  O17  1  0.717422  0.356154  0.386940  1
  O  O18  1  0.679024  0.604452  0.816222  1
  O  O19  1  0.542691  0.837954  0.605611  1
  O  O20  1  0.918533  0.171801  0.825202  1
  O  O21  1  0.634494  0.301813  0.109829  1
  O  O22  1  0.356154  0.717422  0.886940  1
  O  O23  1  0.066032  0.818965  0.185586  1
  O  O24  1  0.458174  0.173537  0.390800  1
  O  O25  1  0.311920  0.400600  0.182678  1
  O  O26  1  0.301813  0.634494  0.609829  1
  O  O27  1  0.818965  0.066032  0.685586  1
  O  O28  1  0.472055  0.097308  0.164160  1
  O  O29  1  0.173537  0.458174  0.890800  1
  O  O30  1  0.400600  0.311920  0.682678  1
  O  O31  1  0.097308  0.472055  0.664160  1
  O  O32  1  0.024016  0.135496  0.119019  1
  O  O33  1  0.135496  0.024016  0.619019  1
