# generated using pymatgen
data_TbDyAg2(WO4)4
_symmetry_space_group_name_H-M   'P 1'
_cell_length_a   7.43117659
_cell_length_b   7.43117695
_cell_length_c   7.31065641
_cell_angle_alpha   65.74953923
_cell_angle_beta   65.74954480
_cell_angle_gamma   94.51197477
_symmetry_Int_Tables_number   1
_chemical_formula_structural   TbDyAg2(WO4)4
_chemical_formula_sum   'Tb1 Dy1 Ag2 W4 O16'
_cell_volume   320.40529875
_cell_formula_units_Z   1
loop_
 _symmetry_equiv_pos_site_id
 _symmetry_equiv_pos_as_xyz
  1  'x, y, z'
loop_
 _atom_site_type_symbol
 _atom_site_label
 _atom_site_symmetry_multiplicity
 _atom_site_fract_x
 _atom_site_fract_y
 _atom_site_fract_z
 _atom_site_occupancy
  Tb  Tb0  1  0.699409  0.300591  0.000000  1
  Dy  Dy1  1  0.300141  0.699859  0.000000  1
  Ag  Ag2  1  0.685122  0.685179  0.477629  1
  Ag  Ag3  1  0.314821  0.314878  0.522371  1
  W  W4  1  0.162560  0.837440  0.500000  1
  W  W5  1  0.837884  0.162116  0.500000  1
  W  W6  1  0.786104  0.785955  0.972705  1
  W  W7  1  0.214045  0.213896  0.027295  1
  O  O8  1  0.896567  0.646935  0.759751  1
  O  O9  1  0.646066  0.896164  0.760421  1
  O  O10  1  0.103836  0.353934  0.239579  1
  O  O11  1  0.353065  0.103433  0.240249  1
  O  O12  1  0.784990  0.311056  0.649160  1
  O  O13  1  0.310705  0.784642  0.650281  1
  O  O14  1  0.215358  0.689295  0.349719  1
  O  O15  1  0.688944  0.215010  0.350840  1
  O  O16  1  0.446894  0.447236  0.858766  1
  O  O17  1  0.552764  0.553106  0.141234  1
  O  O18  1  0.044233  0.301680  0.908904  1
  O  O19  1  0.301545  0.043335  0.909521  1
  O  O20  1  0.956665  0.698455  0.090479  1
  O  O21  1  0.698320  0.955767  0.091096  1
  O  O22  1  0.020545  0.020582  0.659849  1
  O  O23  1  0.979418  0.979455  0.340151  1
