# generated using pymatgen
data_Ho4AlPd
_symmetry_space_group_name_H-M   'P 1'
_cell_length_a   9.55963186
_cell_length_b   9.55963211
_cell_length_c   9.55963200
_cell_angle_alpha   60.00000039
_cell_angle_beta   59.99999951
_cell_angle_gamma   60.00000055
_symmetry_Int_Tables_number   1
_chemical_formula_structural   Ho4AlPd
_chemical_formula_sum   'Ho16 Al4 Pd4'
_cell_volume   617.74398506
_cell_formula_units_Z   4
loop_
 _symmetry_equiv_pos_site_id
 _symmetry_equiv_pos_as_xyz
  1  'x, y, z'
loop_
 _atom_site_type_symbol
 _atom_site_label
 _atom_site_symmetry_multiplicity
 _atom_site_fract_x
 _atom_site_fract_y
 _atom_site_fract_z
 _atom_site_occupancy
  Ho  Ho0  1  0.355689  0.355689  0.355689  1
  Ho  Ho1  1  0.355689  0.355689  0.932935  1
  Ho  Ho2  1  0.355689  0.932935  0.355689  1
  Ho  Ho3  1  0.932935  0.355689  0.355689  1
  Ho  Ho4  1  0.806669  0.193331  0.193331  1
  Ho  Ho5  1  0.193331  0.806669  0.806669  1
  Ho  Ho6  1  0.193331  0.806669  0.193331  1
  Ho  Ho7  1  0.806669  0.193331  0.806669  1
  Ho  Ho8  1  0.193331  0.193331  0.806669  1
  Ho  Ho9  1  0.806669  0.806669  0.193331  1
  Ho  Ho10  1  0.934474  0.565526  0.565526  1
  Ho  Ho11  1  0.565526  0.934474  0.934474  1
  Ho  Ho12  1  0.565526  0.934474  0.565526  1
  Ho  Ho13  1  0.934474  0.565526  0.934474  1
  Ho  Ho14  1  0.565526  0.565526  0.934474  1
  Ho  Ho15  1  0.934474  0.934474  0.565526  1
  Al  Al16  1  0.577825  0.577825  0.577825  1
  Al  Al17  1  0.577825  0.577825  0.266523  1
  Al  Al18  1  0.577825  0.266523  0.577825  1
  Al  Al19  1  0.266523  0.577825  0.577825  1
  Pd  Pd20  1  0.144665  0.144665  0.144665  1
  Pd  Pd21  1  0.144665  0.144665  0.566004  1
  Pd  Pd22  1  0.144665  0.566004  0.144665  1
  Pd  Pd23  1  0.566004  0.144665  0.144665  1
