# generated using pymatgen
data_Sc5Nb3P12(Ir3Rh)4
_symmetry_space_group_name_H-M   'P 1'
_cell_length_a   12.68359981
_cell_length_b   12.67729128
_cell_length_c   3.91392400
_cell_angle_alpha   90.00000000
_cell_angle_beta   90.00000000
_cell_angle_gamma   119.95525772
_symmetry_Int_Tables_number   1
_chemical_formula_structural   Sc5Nb3P12(Ir3Rh)4
_chemical_formula_sum   'Sc5 Nb3 P12 Ir12 Rh4'
_cell_volume   545.26503092
_cell_formula_units_Z   1
loop_
 _symmetry_equiv_pos_site_id
 _symmetry_equiv_pos_as_xyz
  1  'x, y, z'
loop_
 _atom_site_type_symbol
 _atom_site_label
 _atom_site_symmetry_multiplicity
 _atom_site_fract_x
 _atom_site_fract_y
 _atom_site_fract_z
 _atom_site_occupancy
  Sc  Sc0  1  0.333253  0.666664  0.000000  1
  Sc  Sc1  1  0.666382  0.333206  0.000000  1
  Sc  Sc2  1  0.815277  0.000305  0.500000  1
  Sc  Sc3  1  0.999794  0.815175  0.500000  1
  Sc  Sc4  1  0.185309  0.184538  0.500000  1
  Nb  Nb5  1  0.451789  0.999617  0.000000  1
  Nb  Nb6  1  0.000506  0.452089  0.000000  1
  Nb  Nb7  1  0.548290  0.548038  0.000000  1
  P  P8  1  0.174837  0.999982  0.000000  1
  P  P9  1  0.999991  0.174690  0.000000  1
  P  P10  1  0.824885  0.824976  0.000000  1
  P  P11  1  0.167821  0.484006  0.500000  1
  P  P12  1  0.516187  0.683793  0.500000  1
  P  P13  1  0.315992  0.831868  0.500000  1
  P  P14  1  0.684738  0.516824  0.500000  1
  P  P15  1  0.831893  0.315814  0.500000  1
  P  P16  1  0.483211  0.168034  0.500000  1
  P  P17  1  0.644106  0.999452  0.000000  1
  P  P18  1  0.000084  0.644263  0.000000  1
  P  P19  1  0.355429  0.355993  0.000000  1
  Ir  Ir20  1  0.354628  0.492011  0.500000  1
  Ir  Ir21  1  0.508037  0.862559  0.500000  1
  Ir  Ir22  1  0.136909  0.645143  0.500000  1
  Ir  Ir23  1  0.863011  0.507649  0.500000  1
  Ir  Ir24  1  0.644270  0.138527  0.500000  1
  Ir  Ir25  1  0.493634  0.355440  0.500000  1
  Ir  Ir26  1  0.821398  0.191706  0.000000  1
  Ir  Ir27  1  0.369888  0.178505  0.000000  1
  Ir  Ir28  1  0.279274  0.999564  0.500000  1
  Ir  Ir29  1  0.000472  0.279628  0.500000  1
  Ir  Ir30  1  0.721076  0.721162  0.500000  1
  Ir  Ir31  1  0.999849  0.999705  0.000000  1
  Rh  Rh32  1  0.178490  0.370370  0.000000  1
  Rh  Rh33  1  0.629458  0.807781  0.000000  1
  Rh  Rh34  1  0.192011  0.821580  0.000000  1
  Rh  Rh35  1  0.807820  0.629344  0.000000  1
