# generated using pymatgen
data_Sm8PPd23Pt
_symmetry_space_group_name_H-M   'P 1'
_cell_length_a   8.40924900
_cell_length_b   8.42417100
_cell_length_c   8.42417100
_cell_angle_alpha   90.00000000
_cell_angle_beta   90.00000000
_cell_angle_gamma   90.00000000
_symmetry_Int_Tables_number   1
_chemical_formula_structural   Sm8PPd23Pt
_chemical_formula_sum   'Sm8 P1 Pd23 Pt1'
_cell_volume   596.77628972
_cell_formula_units_Z   1
loop_
 _symmetry_equiv_pos_site_id
 _symmetry_equiv_pos_as_xyz
  1  'x, y, z'
loop_
 _atom_site_type_symbol
 _atom_site_label
 _atom_site_symmetry_multiplicity
 _atom_site_fract_x
 _atom_site_fract_y
 _atom_site_fract_z
 _atom_site_occupancy
  Sm  Sm0  1  0.253817  0.253480  0.253480  1
  Sm  Sm1  1  0.745390  0.745555  0.745555  1
  Sm  Sm2  1  0.745390  0.745555  0.254445  1
  Sm  Sm3  1  0.745390  0.254445  0.745555  1
  Sm  Sm4  1  0.253817  0.253480  0.746520  1
  Sm  Sm5  1  0.253817  0.746520  0.253480  1
  Sm  Sm6  1  0.253817  0.746520  0.746520  1
  Sm  Sm7  1  0.745390  0.254445  0.254445  1
  P  P8  1  0.007618  0.000000  0.000000  1
  Pd  Pd9  1  0.256402  0.500000  0.000000  1
  Pd  Pd10  1  0.742105  0.500000  0.000000  1
  Pd  Pd11  1  0.999819  0.256670  0.500000  1
  Pd  Pd12  1  0.500318  0.255601  0.000000  1
  Pd  Pd13  1  0.999819  0.743330  0.500000  1
  Pd  Pd14  1  0.500318  0.744399  0.000000  1
  Pd  Pd15  1  0.500318  0.000000  0.255601  1
  Pd  Pd16  1  0.256402  0.000000  0.500000  1
  Pd  Pd17  1  0.500318  0.000000  0.744399  1
  Pd  Pd18  1  0.742105  0.000000  0.500000  1
  Pd  Pd19  1  0.999819  0.500000  0.256670  1
  Pd  Pd20  1  0.999819  0.500000  0.743330  1
  Pd  Pd21  1  0.252170  0.500000  0.500000  1
  Pd  Pd22  1  0.747802  0.500000  0.500000  1
  Pd  Pd23  1  0.499696  0.251921  0.500000  1
  Pd  Pd24  1  0.499696  0.748079  0.500000  1
  Pd  Pd25  1  0.499696  0.500000  0.251921  1
  Pd  Pd26  1  0.499696  0.500000  0.748079  1
  Pd  Pd27  1  0.728513  0.000000  0.000000  1
  Pd  Pd28  1  0.997910  0.277321  0.000000  1
  Pd  Pd29  1  0.997910  0.722679  0.000000  1
  Pd  Pd30  1  0.997910  0.000000  0.277321  1
  Pd  Pd31  1  0.997910  0.000000  0.722679  1
  Pt  Pt32  1  0.279089  0.000000  0.000000  1
