# generated using pymatgen
data_LaSm3Ta4(Bi2O11)2
_symmetry_space_group_name_H-M   'P 1'
_cell_length_a   6.66881669
_cell_length_b   7.74619374
_cell_length_c   9.88672431
_cell_angle_alpha   101.25463338
_cell_angle_beta   90.63518414
_cell_angle_gamma   90.06326001
_symmetry_Int_Tables_number   1
_chemical_formula_structural   LaSm3Ta4(Bi2O11)2
_chemical_formula_sum   'La1 Sm3 Ta4 Bi4 O22'
_cell_volume   500.87275868
_cell_formula_units_Z   1
loop_
 _symmetry_equiv_pos_site_id
 _symmetry_equiv_pos_as_xyz
  1  'x, y, z'
loop_
 _atom_site_type_symbol
 _atom_site_label
 _atom_site_symmetry_multiplicity
 _atom_site_fract_x
 _atom_site_fract_y
 _atom_site_fract_z
 _atom_site_occupancy
  La  La0  1  0.749235  0.372111  0.490753  1
  Sm  Sm1  1  0.248897  0.633400  0.519917  1
  Sm  Sm2  1  0.758001  0.871975  0.486283  1
  Sm  Sm3  1  0.240285  0.126215  0.511310  1
  Ta  Ta4  1  0.915683  0.703111  0.808243  1
  Ta  Ta5  1  0.086026  0.299281  0.194656  1
  Ta  Ta6  1  0.917254  0.199790  0.808896  1
  Ta  Ta7  1  0.085549  0.799140  0.193132  1
  Bi  Bi8  1  0.434996  0.955944  0.815279  1
  Bi  Bi9  1  0.568577  0.044769  0.184755  1
  Bi  Bi10  1  0.391497  0.455440  0.827624  1
  Bi  Bi11  1  0.603923  0.544450  0.174463  1
  O  O12  1  0.218658  0.726781  0.763110  1
  O  O13  1  0.784115  0.272606  0.237946  1
  O  O14  1  0.634621  0.660440  0.836794  1
  O  O15  1  0.366708  0.334981  0.156856  1
  O  O16  1  0.634225  0.254287  0.836420  1
  O  O17  1  0.366574  0.745900  0.156526  1
  O  O18  1  0.897608  0.145677  0.591825  1
  O  O19  1  0.108299  0.843894  0.405907  1
  O  O20  1  0.217182  0.151480  0.758367  1
  O  O21  1  0.784732  0.848258  0.241918  1
  O  O22  1  0.901345  0.651254  0.594634  1
  O  O23  1  0.109117  0.359548  0.404542  1
  O  O24  1  0.025880  0.550220  0.198274  1
  O  O25  1  0.973259  0.447976  0.794979  1
  O  O26  1  0.997654  0.777763  0.000790  1
  O  O27  1  0.001813  0.222803  0.999149  1
  O  O28  1  0.566377  0.601586  0.391620  1
  O  O29  1  0.416911  0.402092  0.610054  1
  O  O30  1  0.158468  0.054866  0.217818  1
  O  O31  1  0.838832  0.946424  0.787332  1
  O  O32  1  0.543337  0.097423  0.400028  1
  O  O33  1  0.454362  0.898115  0.599797  1
