# generated using pymatgen
data_Ca2Mn5CoNi6As7
_symmetry_space_group_name_H-M   'P 1'
_cell_length_a   9.60784139
_cell_length_b   9.57185055
_cell_length_c   3.81370900
_cell_angle_alpha   90.00000000
_cell_angle_beta   90.00000000
_cell_angle_gamma   120.43040446
_symmetry_Int_Tables_number   1
_chemical_formula_structural   Ca2Mn5CoNi6As7
_chemical_formula_sum   'Ca2 Mn5 Co1 Ni6 As7'
_cell_volume   302.41266764
_cell_formula_units_Z   1
loop_
 _symmetry_equiv_pos_site_id
 _symmetry_equiv_pos_as_xyz
  1  'x, y, z'
loop_
 _atom_site_type_symbol
 _atom_site_label
 _atom_site_symmetry_multiplicity
 _atom_site_fract_x
 _atom_site_fract_y
 _atom_site_fract_z
 _atom_site_occupancy
  Ca  Ca0  1  0.995706  0.995140  0.000000  1
  Ca  Ca1  1  0.668164  0.337891  0.500000  1
  Mn  Mn2  1  0.955907  0.243028  0.500000  1
  Mn  Mn3  1  0.287742  0.042500  0.500000  1
  Mn  Mn4  1  0.430851  0.548054  0.500000  1
  Mn  Mn5  1  0.116295  0.571940  0.500000  1
  Mn  Mn6  1  0.455913  0.887109  0.500000  1
  Co  Co7  1  0.757362  0.712417  0.500000  1
  Ni  Ni8  1  0.388409  0.285842  0.000000  1
  Ni  Ni9  1  0.899710  0.612242  0.000000  1
  Ni  Ni10  1  0.713929  0.100057  0.000000  1
  Ni  Ni11  1  0.611284  0.789590  0.000000  1
  Ni  Ni12  1  0.176859  0.387910  0.000000  1
  Ni  Ni13  1  0.209347  0.821845  0.000000  1
  As  As14  1  0.626283  0.550502  0.000000  1
  As  As15  1  0.922377  0.377737  0.000000  1
  As  As16  1  0.456536  0.076718  0.000000  1
  As  As17  1  0.745336  0.958977  0.500000  1
  As  As18  1  0.216510  0.251367  0.500000  1
  As  As19  1  0.031933  0.781535  0.500000  1
  As  As20  1  0.333547  0.667599  0.000000  1
