# generated using pymatgen
data_Er7Tm6Th3(CdIr)4
_symmetry_space_group_name_H-M   'P 1'
_cell_length_a   9.63746493
_cell_length_b   9.65196124
_cell_length_c   9.67017000
_cell_angle_alpha   59.93535523
_cell_angle_beta   59.88592130
_cell_angle_gamma   59.87077852
_symmetry_Int_Tables_number   1
_chemical_formula_structural   Er7Tm6Th3(CdIr)4
_chemical_formula_sum   'Er7 Tm6 Th3 Cd4 Ir4'
_cell_volume   634.57743797
_cell_formula_units_Z   1
loop_
 _symmetry_equiv_pos_site_id
 _symmetry_equiv_pos_as_xyz
  1  'x, y, z'
loop_
 _atom_site_type_symbol
 _atom_site_label
 _atom_site_symmetry_multiplicity
 _atom_site_fract_x
 _atom_site_fract_y
 _atom_site_fract_z
 _atom_site_occupancy
  Er  Er0  1  0.062711  0.061131  0.438081  1
  Er  Er1  1  0.187095  0.813599  0.813801  1
  Er  Er2  1  0.815953  0.185083  0.183542  1
  Er  Er3  1  0.815948  0.185093  0.815426  1
  Er  Er4  1  0.187094  0.813602  0.185501  1
  Er  Er5  1  0.816499  0.815879  0.183815  1
  Er  Er6  1  0.186768  0.187012  0.813112  1
  Tm  Tm7  1  0.197872  0.601008  0.600557  1
  Tm  Tm8  1  0.061803  0.438261  0.439209  1
  Tm  Tm9  1  0.435663  0.063416  0.064002  1
  Tm  Tm10  1  0.435659  0.063417  0.436921  1
  Tm  Tm11  1  0.061799  0.438261  0.060724  1
  Tm  Tm12  1  0.436411  0.437139  0.063223  1
  Th  Th13  1  0.598291  0.600563  0.600146  1
  Th  Th14  1  0.598280  0.600570  0.200994  1
  Th  Th15  1  0.598538  0.199692  0.600883  1
  Cd  Cd16  1  0.835397  0.830864  0.831586  1
  Cd  Cd17  1  0.835384  0.830871  0.502155  1
  Cd  Cd18  1  0.835239  0.501586  0.831594  1
  Cd  Cd19  1  0.499590  0.832904  0.833751  1
  Ir  Ir20  1  0.391551  0.392164  0.392817  1
  Ir  Ir21  1  0.391543  0.392165  0.823466  1
  Ir  Ir22  1  0.392186  0.823167  0.392325  1
  Ir  Ir23  1  0.822725  0.392549  0.392367  1
