# generated using pymatgen
data_Y2HoCd3Ga2Ag
_symmetry_space_group_name_H-M   'P 1'
_cell_length_a   7.38167301
_cell_length_b   7.38167315
_cell_length_c   4.33779000
_cell_angle_alpha   90.00000000
_cell_angle_beta   90.00000000
_cell_angle_gamma   119.98441151
_symmetry_Int_Tables_number   1
_chemical_formula_structural   Y2HoCd3Ga2Ag
_chemical_formula_sum   'Y2 Ho1 Cd3 Ga2 Ag1'
_cell_volume   204.72786969
_cell_formula_units_Z   1
loop_
 _symmetry_equiv_pos_site_id
 _symmetry_equiv_pos_as_xyz
  1  'x, y, z'
loop_
 _atom_site_type_symbol
 _atom_site_label
 _atom_site_symmetry_multiplicity
 _atom_site_fract_x
 _atom_site_fract_y
 _atom_site_fract_z
 _atom_site_occupancy
  Y  Y0  1  0.579163  0.999953  0.500000  1
  Y  Y1  1  0.999953  0.579163  0.500000  1
  Ho  Ho2  1  0.420667  0.420667  0.500000  1
  Cd  Cd3  1  0.747781  0.747781  0.000000  1
  Cd  Cd4  1  0.252007  0.000163  0.000000  1
  Cd  Cd5  1  0.000163  0.252007  0.000000  1
  Ga  Ga6  1  0.666207  0.333540  0.000000  1
  Ga  Ga7  1  0.333540  0.666207  0.000000  1
  Ag  Ag8  1  0.000518  0.000518  0.500000  1
