# generated using pymatgen
data_Y10In5Bi
_symmetry_space_group_name_H-M   'P 1'
_cell_length_a   9.05866401
_cell_length_b   9.03635441
_cell_length_c   6.70220700
_cell_angle_alpha   90.00000000
_cell_angle_beta   90.00000000
_cell_angle_gamma   120.08197695
_symmetry_Int_Tables_number   1
_chemical_formula_structural   Y10In5Bi
_chemical_formula_sum   'Y10 In5 Bi1'
_cell_volume   474.72984171
_cell_formula_units_Z   1
loop_
 _symmetry_equiv_pos_site_id
 _symmetry_equiv_pos_as_xyz
  1  'x, y, z'
loop_
 _atom_site_type_symbol
 _atom_site_label
 _atom_site_symmetry_multiplicity
 _atom_site_fract_x
 _atom_site_fract_y
 _atom_site_fract_z
 _atom_site_occupancy
  Y  Y0  1  0.328362  0.662510  0.996283  1
  Y  Y1  1  0.665858  0.337493  0.503720  1
  Y  Y2  1  0.665858  0.337493  0.996280  1
  Y  Y3  1  0.328362  0.662510  0.503717  1
  Y  Y4  1  0.232827  0.999990  0.250001  1
  Y  Y5  1  0.762902  0.000001  0.750000  1
  Y  Y6  1  0.007500  0.243498  0.250001  1
  Y  Y7  1  0.763996  0.756508  0.250001  1
  Y  Y8  1  0.238335  0.237650  0.750000  1
  Y  Y9  1  0.000693  0.762356  0.750000  1
  In  In10  1  0.397785  0.999989  0.750000  1
  In  In11  1  0.001317  0.597266  0.250001  1
  In  In12  1  0.404047  0.402722  0.250001  1
  In  In13  1  0.598453  0.601018  0.750000  1
  In  In14  1  0.997445  0.398992  0.750000  1
  Bi  Bi15  1  0.606257  0.000003  0.250001  1
