# generated using pymatgen
data_Nd7Tm3(Pb3Cl)2
_symmetry_space_group_name_H-M   'P 1'
_cell_length_a   9.41245700
_cell_length_b   9.41245649
_cell_length_c   6.70473900
_cell_angle_alpha   90.00000000
_cell_angle_beta   90.00000000
_cell_angle_gamma   120.00000530
_symmetry_Int_Tables_number   1
_chemical_formula_structural   Nd7Tm3(Pb3Cl)2
_chemical_formula_sum   'Nd7 Tm3 Pb6 Cl2'
_cell_volume   514.42074250
_cell_formula_units_Z   1
loop_
 _symmetry_equiv_pos_site_id
 _symmetry_equiv_pos_as_xyz
  1  'x, y, z'
loop_
 _atom_site_type_symbol
 _atom_site_label
 _atom_site_symmetry_multiplicity
 _atom_site_fract_x
 _atom_site_fract_y
 _atom_site_fract_z
 _atom_site_occupancy
  Nd  Nd0  1  0.259799  0.999992  0.249222  1
  Nd  Nd1  1  0.740193  0.999992  0.750778  1
  Nd  Nd2  1  0.000008  0.259807  0.249222  1
  Nd  Nd3  1  0.000008  0.740201  0.750778  1
  Nd  Nd4  1  0.740193  0.740201  0.249222  1
  Nd  Nd5  1  0.259799  0.259807  0.750778  1
  Nd  Nd6  1  0.333333  0.666667  0.500000  1
  Tm  Tm7  1  0.333333  0.666667  0.000000  1
  Tm  Tm8  1  0.666667  0.333333  0.000000  1
  Tm  Tm9  1  0.666667  0.333333  0.500000  1
  Pb  Pb10  1  0.609742  0.003490  0.247692  1
  Pb  Pb11  1  0.393748  0.003490  0.752308  1
  Pb  Pb12  1  0.996510  0.606252  0.247692  1
  Pb  Pb13  1  0.996510  0.390258  0.752308  1
  Pb  Pb14  1  0.393748  0.390258  0.247692  1
  Pb  Pb15  1  0.609742  0.606252  0.752308  1
  Cl  Cl16  1  0.000000  0.000000  0.000000  1
  Cl  Cl17  1  0.000000  0.000000  0.500000  1
