# generated using pymatgen
data_SmEu(Bi3O7)2
_symmetry_space_group_name_H-M   'P 1'
_cell_length_a   6.72752993
_cell_length_b   6.94669736
_cell_length_c   7.94075800
_cell_angle_alpha   106.52132898
_cell_angle_beta   89.27611109
_cell_angle_gamma   99.41320855
_symmetry_Int_Tables_number   1
_chemical_formula_structural   SmEu(Bi3O7)2
_chemical_formula_sum   'Sm1 Eu1 Bi6 O14'
_cell_volume   350.76684672
_cell_formula_units_Z   1
loop_
 _symmetry_equiv_pos_site_id
 _symmetry_equiv_pos_as_xyz
  1  'x, y, z'
loop_
 _atom_site_type_symbol
 _atom_site_label
 _atom_site_symmetry_multiplicity
 _atom_site_fract_x
 _atom_site_fract_y
 _atom_site_fract_z
 _atom_site_occupancy
  Sm  Sm0  1  0.540963  0.999156  0.752044  1
  Eu  Eu1  1  0.463408  0.000362  0.249691  1
  Bi  Bi2  1  0.000518  0.000076  0.499687  1
  Bi  Bi3  1  0.000492  0.000353  0.000054  1
  Bi  Bi4  1  0.259620  0.509335  0.875809  1
  Bi  Bi5  1  0.741218  0.490981  0.124395  1
  Bi  Bi6  1  0.720544  0.466809  0.608896  1
  Bi  Bi7  1  0.279051  0.532018  0.392623  1
  O  O8  1  0.465235  0.650430  0.184158  1
  O  O9  1  0.534381  0.349461  0.815485  1
  O  O10  1  0.297792  0.939439  0.952207  1
  O  O11  1  0.700833  0.061956  0.043235  1
  O  O12  1  0.290893  0.910112  0.508424  1
  O  O13  1  0.707873  0.089379  0.495366  1
  O  O14  1  0.533096  0.351916  0.354888  1
  O  O15  1  0.468505  0.646713  0.643571  1
  O  O16  1  0.908972  0.679786  0.967195  1
  O  O17  1  0.088452  0.320895  0.033109  1
  O  O18  1  0.104704  0.321244  0.623511  1
  O  O19  1  0.895762  0.678452  0.375752  1
  O  O20  1  0.884293  0.927106  0.731122  1
  O  O21  1  0.113394  0.074019  0.268778  1
