# generated using pymatgen
data_Nd2Mn2Co10As7
_symmetry_space_group_name_H-M   'P 1'
_cell_length_a   9.43567173
_cell_length_b   9.45598949
_cell_length_c   3.79031300
_cell_angle_alpha   90.00000000
_cell_angle_beta   90.00000000
_cell_angle_gamma   119.83238649
_symmetry_Int_Tables_number   1
_chemical_formula_structural   Nd2Mn2Co10As7
_chemical_formula_sum   'Nd2 Mn2 Co10 As7'
_cell_volume   293.37057531
_cell_formula_units_Z   1
loop_
 _symmetry_equiv_pos_site_id
 _symmetry_equiv_pos_as_xyz
  1  'x, y, z'
loop_
 _atom_site_type_symbol
 _atom_site_label
 _atom_site_symmetry_multiplicity
 _atom_site_fract_x
 _atom_site_fract_y
 _atom_site_fract_z
 _atom_site_occupancy
  Nd  Nd0  1  0.669399  0.334475  0.000000  1
  Nd  Nd1  1  0.332339  0.667726  0.500000  1
  Mn  Mn2  1  0.782046  0.892392  0.500000  1
  Mn  Mn3  1  0.114800  0.218480  0.500000  1
  Co  Co4  1  0.057049  0.630812  0.000000  1
  Co  Co5  1  0.570714  0.942554  0.000000  1
  Co  Co6  1  0.369993  0.428547  0.000000  1
  Co  Co7  1  0.278272  0.122175  0.000000  1
  Co  Co8  1  0.845454  0.724472  0.000000  1
  Co  Co9  1  0.882275  0.154099  0.000000  1
  Co  Co10  1  0.429638  0.049194  0.500000  1
  Co  Co11  1  0.619086  0.568579  0.500000  1
  Co  Co12  1  0.949467  0.381869  0.500000  1
  Co  Co13  1  0.096225  0.881740  0.500000  1
  As  As14  1  0.296454  0.889994  0.000000  1
  As  As15  1  0.588262  0.699406  0.000000  1
  As  As16  1  0.110204  0.411133  0.000000  1
  As  As17  1  0.406762  0.293299  0.500000  1
  As  As18  1  0.890667  0.599973  0.500000  1
  As  As19  1  0.707575  0.110938  0.500000  1
  As  As20  1  0.003318  0.998144  0.000000  1
