# generated using pymatgen
data_Dy8Sc12Ga8Si7P
_symmetry_space_group_name_H-M   'P 1'
_cell_length_a   7.18206807
_cell_length_b   7.39376210
_cell_length_c   14.26335100
_cell_angle_alpha   90.00000000
_cell_angle_beta   90.00000000
_cell_angle_gamma   90.30948308
_symmetry_Int_Tables_number   1
_chemical_formula_structural   Dy8Sc12Ga8Si7P
_chemical_formula_sum   'Dy8 Sc12 Ga8 Si7 P1'
_cell_volume   757.40858486
_cell_formula_units_Z   1
loop_
 _symmetry_equiv_pos_site_id
 _symmetry_equiv_pos_as_xyz
  1  'x, y, z'
loop_
 _atom_site_type_symbol
 _atom_site_label
 _atom_site_symmetry_multiplicity
 _atom_site_fract_x
 _atom_site_fract_y
 _atom_site_fract_z
 _atom_site_occupancy
  Dy  Dy0  1  0.010498  0.175940  0.099459  1
  Dy  Dy1  1  0.991020  0.826424  0.897000  1
  Dy  Dy2  1  0.490760  0.674783  0.899945  1
  Dy  Dy3  1  0.991020  0.826424  0.603000  1
  Dy  Dy4  1  0.510368  0.324527  0.099545  1
  Dy  Dy5  1  0.010498  0.175940  0.400541  1
  Dy  Dy6  1  0.510368  0.324527  0.400455  1
  Dy  Dy7  1  0.490760  0.674783  0.600055  1
  Sc  Sc8  1  0.163551  0.499912  0.750000  1
  Sc  Sc9  1  0.834719  0.499941  0.250000  1
  Sc  Sc10  1  0.335201  0.001014  0.250000  1
  Sc  Sc11  1  0.663376  0.000149  0.750000  1
  Sc  Sc12  1  0.327026  0.171009  0.629040  1
  Sc  Sc13  1  0.669352  0.826391  0.374403  1
  Sc  Sc14  1  0.169217  0.673215  0.374693  1
  Sc  Sc15  1  0.669352  0.826391  0.125597  1
  Sc  Sc16  1  0.832114  0.326121  0.627115  1
  Sc  Sc17  1  0.327026  0.171009  0.870960  1
  Sc  Sc18  1  0.832114  0.326121  0.872885  1
  Sc  Sc19  1  0.169217  0.673215  0.125307  1
  Ga  Ga20  1  0.159948  0.460836  0.540094  1
  Ga  Ga21  1  0.839118  0.538689  0.461360  1
  Ga  Ga22  1  0.339694  0.963283  0.461368  1
  Ga  Ga23  1  0.839118  0.538689  0.038640  1
  Ga  Ga24  1  0.660227  0.039164  0.540159  1
  Ga  Ga25  1  0.159948  0.460836  0.959906  1
  Ga  Ga26  1  0.660227  0.039164  0.959841  1
  Ga  Ga27  1  0.339694  0.963283  0.038632  1
  Si  Si28  1  0.968244  0.886084  0.250000  1
  Si  Si29  1  0.466878  0.613448  0.250000  1
  Si  Si30  1  0.530802  0.383815  0.750000  1
  Si  Si31  1  0.296339  0.862117  0.750000  1
  Si  Si32  1  0.714870  0.126024  0.250000  1
  Si  Si33  1  0.214930  0.374520  0.250000  1
  Si  Si34  1  0.787334  0.627844  0.750000  1
  P  P35  1  0.025076  0.124363  0.750000  1
