# generated using pymatgen
data_CsThAgTe3
_symmetry_space_group_name_H-M   'P 1'
_cell_length_a   8.88016376
_cell_length_b   8.88016358
_cell_length_c   11.80010700
_cell_angle_alpha   90.00000000
_cell_angle_beta   90.00000000
_cell_angle_gamma   149.90722715
_symmetry_Int_Tables_number   1
_chemical_formula_structural   CsThAgTe3
_chemical_formula_sum   'Cs2 Th2 Ag2 Te6'
_cell_volume   466.56655689
_cell_formula_units_Z   2
loop_
 _symmetry_equiv_pos_site_id
 _symmetry_equiv_pos_as_xyz
  1  'x, y, z'
loop_
 _atom_site_type_symbol
 _atom_site_label
 _atom_site_symmetry_multiplicity
 _atom_site_fract_x
 _atom_site_fract_y
 _atom_site_fract_z
 _atom_site_occupancy
  Cs  Cs0  1  0.750035  0.249966  0.250000  1
  Cs  Cs1  1  0.249966  0.750035  0.750000  1
  Th  Th2  1  0.500000  0.500000  0.000000  1
  Th  Th3  1  0.500000  0.500000  0.500000  1
  Ag  Ag4  1  0.033491  0.966510  0.250000  1
  Ag  Ag5  1  0.966510  0.033491  0.750000  1
  Te  Te6  1  0.122135  0.877866  0.048859  1
  Te  Te7  1  0.434822  0.565179  0.250000  1
  Te  Te8  1  0.122135  0.877866  0.451141  1
  Te  Te9  1  0.877866  0.122135  0.548859  1
  Te  Te10  1  0.565179  0.434822  0.750000  1
  Te  Te11  1  0.877866  0.122135  0.951142  1
