# generated using pymatgen
data_Co2Re3Tc2Os
_symmetry_space_group_name_H-M   'P 1'
_cell_length_a   5.40177342
_cell_length_b   5.41227326
_cell_length_c   4.32877200
_cell_angle_alpha   90.00000000
_cell_angle_beta   90.00000000
_cell_angle_gamma   119.98096521
_symmetry_Int_Tables_number   1
_chemical_formula_structural   Co2Re3Tc2Os
_chemical_formula_sum   'Co2 Re3 Tc2 Os1'
_cell_volume   109.62123520
_cell_formula_units_Z   1
loop_
 _symmetry_equiv_pos_site_id
 _symmetry_equiv_pos_as_xyz
  1  'x, y, z'
loop_
 _atom_site_type_symbol
 _atom_site_label
 _atom_site_symmetry_multiplicity
 _atom_site_fract_x
 _atom_site_fract_y
 _atom_site_fract_z
 _atom_site_occupancy
  Co  Co0  1  0.333751  0.666229  0.750000  1
  Co  Co1  1  0.666574  0.330999  0.250000  1
  Re  Re2  1  0.165311  0.830746  0.250000  1
  Re  Re3  1  0.334671  0.167760  0.750000  1
  Re  Re4  1  0.832839  0.167084  0.750000  1
  Tc  Tc5  1  0.666530  0.832552  0.250000  1
  Tc  Tc6  1  0.833714  0.669069  0.750000  1
  Os  Os7  1  0.166611  0.335561  0.250000  1
