# generated using pymatgen
data_Er2PuO6
_symmetry_space_group_name_H-M   'P 1'
_cell_length_a   9.84894013
_cell_length_b   9.84894013
_cell_length_c   5.43637477
_cell_angle_alpha   78.75044783
_cell_angle_beta   78.75045069
_cell_angle_gamma   67.47061534
_symmetry_Int_Tables_number   1
_chemical_formula_structural   Er2PuO6
_chemical_formula_sum   'Er8 Pu4 O24'
_cell_volume   473.50059197
_cell_formula_units_Z   4
loop_
 _symmetry_equiv_pos_site_id
 _symmetry_equiv_pos_as_xyz
  1  'x, y, z'
loop_
 _atom_site_type_symbol
 _atom_site_label
 _atom_site_symmetry_multiplicity
 _atom_site_fract_x
 _atom_site_fract_y
 _atom_site_fract_z
 _atom_site_occupancy
  Er  Er0  1  0.220369  0.457976  0.902713  1
  Er  Er1  1  0.457976  0.220369  0.402713  1
  Er  Er2  1  0.779631  0.542024  0.097287  1
  Er  Er3  1  0.542024  0.779631  0.597287  1
  Er  Er4  1  0.882846  0.117154  0.250000  1
  Er  Er5  1  0.117154  0.882846  0.750000  1
  Er  Er6  1  0.389686  0.610314  0.250000  1
  Er  Er7  1  0.610314  0.389686  0.750000  1
  Pu  Pu8  1  0.989252  0.686301  0.395447  1
  Pu  Pu9  1  0.313699  0.010748  0.104553  1
  Pu  Pu10  1  0.010748  0.313699  0.604553  1
  Pu  Pu11  1  0.686301  0.989252  0.895447  1
  O  O12  1  0.415068  0.410762  0.589544  1
  O  O13  1  0.589238  0.584932  0.910456  1
  O  O14  1  0.584932  0.589238  0.410456  1
  O  O15  1  0.410762  0.415068  0.089544  1
  O  O16  1  0.169945  0.641426  0.544851  1
  O  O17  1  0.358574  0.830055  0.955149  1
  O  O18  1  0.830055  0.358574  0.455149  1
  O  O19  1  0.641426  0.169945  0.044851  1
  O  O20  1  0.154613  0.682309  0.046097  1
  O  O21  1  0.317691  0.845387  0.453903  1
  O  O22  1  0.845387  0.317691  0.953903  1
  O  O23  1  0.682309  0.154613  0.546097  1
  O  O24  1  0.726761  0.795628  0.798805  1
  O  O25  1  0.204372  0.273239  0.701195  1
  O  O26  1  0.273239  0.204372  0.201195  1
  O  O27  1  0.795628  0.726761  0.298805  1
  O  O28  1  0.890080  0.946981  0.006358  1
  O  O29  1  0.053019  0.109920  0.493642  1
  O  O30  1  0.961672  0.523410  0.739872  1
  O  O31  1  0.946981  0.890080  0.506358  1
  O  O32  1  0.523410  0.961672  0.239872  1
  O  O33  1  0.038328  0.476590  0.260128  1
  O  O34  1  0.476590  0.038328  0.760128  1
  O  O35  1  0.109920  0.053019  0.993642  1
