# generated using pymatgen
data_Sc8Ti8Nb4Si15Ge
_symmetry_space_group_name_H-M   'P 1'
_cell_length_a   6.72702306
_cell_length_b   6.85847482
_cell_length_c   13.06319343
_cell_angle_alpha   90.02694516
_cell_angle_beta   90.13187169
_cell_angle_gamma   89.96991132
_symmetry_Int_Tables_number   1
_chemical_formula_structural   Sc8Ti8Nb4Si15Ge
_chemical_formula_sum   'Sc8 Ti8 Nb4 Si15 Ge1'
_cell_volume   602.69635493
_cell_formula_units_Z   1
loop_
 _symmetry_equiv_pos_site_id
 _symmetry_equiv_pos_as_xyz
  1  'x, y, z'
loop_
 _atom_site_type_symbol
 _atom_site_label
 _atom_site_symmetry_multiplicity
 _atom_site_fract_x
 _atom_site_fract_y
 _atom_site_fract_z
 _atom_site_occupancy
  Sc  Sc0  1  0.502058  0.676304  0.597534  1
  Sc  Sc1  1  0.001125  0.824687  0.903773  1
  Sc  Sc2  1  0.498872  0.325101  0.096184  1
  Sc  Sc3  1  0.998518  0.173765  0.403293  1
  Sc  Sc4  1  0.502909  0.322513  0.402646  1
  Sc  Sc5  1  0.998507  0.175168  0.096029  1
  Sc  Sc6  1  0.500870  0.674966  0.903478  1
  Sc  Sc7  1  0.999526  0.825932  0.597125  1
  Ti  Ti8  1  0.661824  0.175209  0.626641  1
  Ti  Ti9  1  0.162050  0.324614  0.873826  1
  Ti  Ti10  1  0.337837  0.824322  0.125968  1
  Ti  Ti11  1  0.836411  0.675731  0.373700  1
  Ti  Ti12  1  0.340524  0.827713  0.372550  1
  Ti  Ti13  1  0.837927  0.675669  0.125936  1
  Ti  Ti14  1  0.661358  0.175870  0.874049  1
  Ti  Ti15  1  0.159583  0.322252  0.627396  1
  Nb  Nb16  1  0.834203  0.492802  0.750111  1
  Nb  Nb17  1  0.334173  0.006612  0.750087  1
  Nb  Nb18  1  0.165470  0.507547  0.247847  1
  Nb  Nb19  1  0.665558  0.993438  0.249914  1
  Si  Si20  1  0.666991  0.965135  0.461278  1
  Si  Si21  1  0.165874  0.533892  0.039008  1
  Si  Si22  1  0.333844  0.033778  0.960628  1
  Si  Si23  1  0.829017  0.465256  0.539687  1
  Si  Si24  1  0.333440  0.034278  0.539290  1
  Si  Si25  1  0.834034  0.466051  0.960515  1
  Si  Si26  1  0.665662  0.966214  0.039345  1
  Si  Si27  1  0.456848  0.384545  0.750005  1
  Si  Si28  1  0.956742  0.114718  0.750887  1
  Si  Si29  1  0.542623  0.615183  0.249707  1
  Si  Si30  1  0.042345  0.884813  0.249991  1
  Si  Si31  1  0.702934  0.865690  0.750594  1
  Si  Si32  1  0.202770  0.634247  0.750206  1
  Si  Si33  1  0.296459  0.135410  0.249480  1
  Si  Si34  1  0.797739  0.365877  0.249837  1
  Ge  Ge35  1  0.173373  0.534700  0.461456  1
