# generated using pymatgen
data_TbErGa9Ru5
_symmetry_space_group_name_H-M   'P 1'
_cell_length_a   8.05724306
_cell_length_b   8.05724277
_cell_length_c   8.05724153
_cell_angle_alpha   135.11663602
_cell_angle_beta   134.75347572
_cell_angle_gamma   65.63157355
_symmetry_Int_Tables_number   1
_chemical_formula_structural   TbErGa9Ru5
_chemical_formula_sum   'Tb1 Er1 Ga9 Ru5'
_cell_volume   258.21035985
_cell_formula_units_Z   1
loop_
 _symmetry_equiv_pos_site_id
 _symmetry_equiv_pos_as_xyz
  1  'x, y, z'
loop_
 _atom_site_type_symbol
 _atom_site_label
 _atom_site_symmetry_multiplicity
 _atom_site_fract_x
 _atom_site_fract_y
 _atom_site_fract_z
 _atom_site_occupancy
  Tb  Tb0  1  0.000000  0.500000  0.500000  1
  Er  Er1  1  0.500000  0.000000  0.500000  1
  Ga  Ga2  1  0.438241  0.858961  0.000947  1
  Ga  Ga3  1  0.141986  0.141039  0.579280  1
  Ga  Ga4  1  0.858014  0.437294  0.999053  1
  Ga  Ga5  1  0.858014  0.858961  0.420720  1
  Ga  Ga6  1  0.561759  0.141039  0.999053  1
  Ga  Ga7  1  0.141986  0.562706  0.000947  1
  Ga  Ga8  1  0.561759  0.562706  0.420720  1
  Ga  Ga9  1  0.000000  0.000000  0.000000  1
  Ga  Ga10  1  0.438241  0.437294  0.579280  1
  Ru  Ru11  1  0.181096  0.181096  0.000000  1
  Ru  Ru12  1  0.818904  0.818904  0.000000  1
  Ru  Ru13  1  0.249927  0.749927  0.500000  1
  Ru  Ru14  1  0.750073  0.250073  0.500000  1
  Ru  Ru15  1  0.500000  0.500000  0.000000  1
