# generated using pymatgen
data_Pr2Tm3(GaSn)2
_symmetry_space_group_name_H-M   'P 1'
_cell_length_a   7.69008600
_cell_length_b   8.13628400
_cell_length_c   15.36205400
_cell_angle_alpha   90.00000000
_cell_angle_beta   90.00000000
_cell_angle_gamma   90.00000000
_symmetry_Int_Tables_number   1
_chemical_formula_structural   Pr2Tm3(GaSn)2
_chemical_formula_sum   'Pr8 Tm12 Ga8 Sn8'
_cell_volume   961.18411189
_cell_formula_units_Z   4
loop_
 _symmetry_equiv_pos_site_id
 _symmetry_equiv_pos_as_xyz
  1  'x, y, z'
loop_
 _atom_site_type_symbol
 _atom_site_label
 _atom_site_symmetry_multiplicity
 _atom_site_fract_x
 _atom_site_fract_y
 _atom_site_fract_z
 _atom_site_occupancy
  Pr  Pr0  1  0.501972  0.319089  0.900196  1
  Pr  Pr1  1  0.001972  0.180911  0.599804  1
  Pr  Pr2  1  0.498028  0.680911  0.400196  1
  Pr  Pr3  1  0.998028  0.819089  0.099804  1
  Pr  Pr4  1  0.498028  0.680911  0.099804  1
  Pr  Pr5  1  0.998028  0.819089  0.400196  1
  Pr  Pr6  1  0.501972  0.319089  0.599804  1
  Pr  Pr7  1  0.001972  0.180911  0.900196  1
  Tm  Tm8  1  0.337783  0.831124  0.868111  1
  Tm  Tm9  1  0.837783  0.668876  0.631889  1
  Tm  Tm10  1  0.662217  0.168876  0.368111  1
  Tm  Tm11  1  0.162217  0.331124  0.131889  1
  Tm  Tm12  1  0.662217  0.168876  0.131889  1
  Tm  Tm13  1  0.162217  0.331124  0.368111  1
  Tm  Tm14  1  0.337783  0.831124  0.631889  1
  Tm  Tm15  1  0.837783  0.668876  0.868111  1
  Tm  Tm16  1  0.180113  0.491110  0.750000  1
  Tm  Tm17  1  0.680113  0.008890  0.750000  1
  Tm  Tm18  1  0.819887  0.508890  0.250000  1
  Tm  Tm19  1  0.319887  0.991110  0.250000  1
  Ga  Ga20  1  0.541425  0.613217  0.750000  1
  Ga  Ga21  1  0.041425  0.886783  0.750000  1
  Ga  Ga22  1  0.458575  0.386783  0.250000  1
  Ga  Ga23  1  0.958575  0.113217  0.250000  1
  Ga  Ga24  1  0.293825  0.126304  0.750000  1
  Ga  Ga25  1  0.793825  0.373696  0.750000  1
  Ga  Ga26  1  0.706175  0.873696  0.250000  1
  Ga  Ga27  1  0.206175  0.626304  0.250000  1
  Sn  Sn28  1  0.323039  0.041247  0.038494  1
  Sn  Sn29  1  0.823039  0.458753  0.461506  1
  Sn  Sn30  1  0.676961  0.958753  0.538494  1
  Sn  Sn31  1  0.176961  0.541247  0.961506  1
  Sn  Sn32  1  0.676961  0.958753  0.961506  1
  Sn  Sn33  1  0.176961  0.541247  0.538494  1
  Sn  Sn34  1  0.323039  0.041247  0.461506  1
  Sn  Sn35  1  0.823039  0.458753  0.038494  1
