# generated using pymatgen
data_Sr5Pr3(IO6)4
_symmetry_space_group_name_H-M   'P 1'
_cell_length_a   5.41353418
_cell_length_b   9.32196763
_cell_length_c   10.12720200
_cell_angle_alpha   89.83132635
_cell_angle_beta   89.67857880
_cell_angle_gamma   89.62823733
_symmetry_Int_Tables_number   1
_chemical_formula_structural   Sr5Pr3(IO6)4
_chemical_formula_sum   'Sr5 Pr3 I4 O24'
_cell_volume   511.04616674
_cell_formula_units_Z   1
loop_
 _symmetry_equiv_pos_site_id
 _symmetry_equiv_pos_as_xyz
  1  'x, y, z'
loop_
 _atom_site_type_symbol
 _atom_site_label
 _atom_site_symmetry_multiplicity
 _atom_site_fract_x
 _atom_site_fract_y
 _atom_site_fract_z
 _atom_site_occupancy
  Sr  Sr0  1  0.463608  0.612680  0.540146  1
  Sr  Sr1  1  0.537334  0.099380  0.959234  1
  Sr  Sr2  1  0.525029  0.219093  0.357367  1
  Sr  Sr3  1  0.972802  0.780829  0.859502  1
  Sr  Sr4  1  0.966025  0.899554  0.460153  1
  Pr  Pr5  1  0.041105  0.385099  0.041761  1
  Pr  Pr6  1  0.026820  0.287985  0.633587  1
  Pr  Pr7  1  0.470850  0.717647  0.135548  1
  I  I8  1  0.051125  0.000437  0.139910  1
  I  I9  1  0.449448  0.004595  0.639955  1
  I  I10  1  0.550820  0.493509  0.861942  1
  I  I11  1  0.951646  0.505077  0.360274  1
  O  O12  1  0.036272  0.645225  0.483218  1
  O  O13  1  0.162929  0.558442  0.219160  1
  O  O14  1  0.203761  0.866939  0.673767  1
  O  O15  1  0.190745  0.866912  0.257337  1
  O  O16  1  0.210870  0.393357  0.433253  1
  O  O17  1  0.240513  0.098229  0.515211  1
  O  O18  1  0.255260  0.906030  0.011990  1
  O  O19  1  0.288778  0.604323  0.937657  1
  O  O20  1  0.302336  0.132439  0.759713  1
  O  O21  1  0.295243  0.137606  0.173093  1
  O  O22  1  0.339196  0.432714  0.728565  1
  O  O23  1  0.459350  0.354594  0.990102  1
  O  O24  1  0.533378  0.871089  0.507946  1
  O  O25  1  0.658410  0.939510  0.770375  1
  O  O26  1  0.693912  0.632872  0.315447  1
  O  O27  1  0.671701  0.630043  0.747528  1
  O  O28  1  0.707248  0.122393  0.576004  1
  O  O29  1  0.746278  0.415208  0.488313  1
  O  O30  1  0.757601  0.578517  0.994086  1
  O  O31  1  0.790230  0.883310  0.075916  1
  O  O32  1  0.836718  0.365418  0.242996  1
  O  O33  1  0.812495  0.361707  0.826230  1
  O  O34  1  0.841990  0.060542  0.273731  1
  O  O35  1  0.958180  0.136689  0.008987  1
