# generated using pymatgen
data_Y3Th(Al8Pt3)3
_symmetry_space_group_name_H-M   'P 1'
_cell_length_a   7.56179422
_cell_length_b   7.55605265
_cell_length_c   13.18543739
_cell_angle_alpha   84.55355087
_cell_angle_beta   100.96797350
_cell_angle_gamma   119.88977825
_symmetry_Int_Tables_number   1
_chemical_formula_structural   Y3Th(Al8Pt3)3
_chemical_formula_sum   'Y3 Th1 Al24 Pt9'
_cell_volume   641.23907484
_cell_formula_units_Z   1
loop_
 _symmetry_equiv_pos_site_id
 _symmetry_equiv_pos_as_xyz
  1  'x, y, z'
loop_
 _atom_site_type_symbol
 _atom_site_label
 _atom_site_symmetry_multiplicity
 _atom_site_fract_x
 _atom_site_fract_y
 _atom_site_fract_z
 _atom_site_occupancy
  Y  Y0  1  0.437587  0.832066  0.807318  1
  Y  Y1  1  0.562398  0.168435  0.192043  1
  Y  Y2  1  0.767517  0.501249  0.807174  1
  Th  Th3  1  0.232383  0.498434  0.193076  1
  Al  Al4  1  0.482001  0.166441  0.943762  1
  Al  Al5  1  0.520544  0.836728  0.053449  1
  Al  Al6  1  0.020468  0.166846  0.561897  1
  Al  Al7  1  0.979422  0.832614  0.439608  1
  Al  Al8  1  0.353397  0.834151  0.559111  1
  Al  Al9  1  0.647280  0.166798  0.441613  1
  Al  Al10  1  0.621844  0.838193  0.332400  1
  Al  Al11  1  0.382912  0.165433  0.670223  1
  Al  Al12  1  0.055613  0.493550  0.670056  1
  Al  Al13  1  0.941134  0.506554  0.332490  1
  Al  Al14  1  0.729954  0.839867  0.669013  1
  Al  Al15  1  0.270759  0.155943  0.333989  1
  Al  Al16  1  0.147283  0.500353  0.942427  1
  Al  Al17  1  0.848467  0.499816  0.053234  1
  Al  Al18  1  0.816600  0.832467  0.952135  1
  Al  Al19  1  0.181821  0.164558  0.043964  1
  Al  Al20  1  0.314797  0.500466  0.443212  1
  Al  Al21  1  0.686285  0.499191  0.559193  1
  Al  Al22  1  0.101114  0.839270  0.183344  1
  Al  Al23  1  0.897499  0.163867  0.816047  1
  Al  Al24  1  0.307690  0.369019  0.814880  1
  Al  Al25  1  0.696801  0.632106  0.184677  1
  Al  Al26  1  0.102712  0.958631  0.815756  1
  Al  Al27  1  0.893914  0.036939  0.183954  1
  Pt  Pt28  1  0.387321  0.508201  0.638477  1
  Pt  Pt29  1  0.611775  0.492197  0.361313  1
  Pt  Pt30  1  0.171514  0.828241  0.000088  1
  Pt  Pt31  1  0.829341  0.171885  0.000413  1
  Pt  Pt32  1  0.295243  0.832197  0.361342  1
  Pt  Pt33  1  0.704481  0.166628  0.638382  1
  Pt  Pt34  1  0.045717  0.825007  0.637226  1
  Pt  Pt35  1  0.954870  0.175560  0.362516  1
  Pt  Pt36  1  0.499539  0.500098  0.000196  1
