# generated using pymatgen
data_Th2MgPtAu
_symmetry_space_group_name_H-M   'P 1'
_cell_length_a   8.01957100
_cell_length_b   3.91798000
_cell_length_c   8.01967600
_cell_angle_alpha   90.00000000
_cell_angle_beta   90.00000000
_cell_angle_gamma   90.00000000
_symmetry_Int_Tables_number   1
_chemical_formula_structural   Th2MgPtAu
_chemical_formula_sum   'Th4 Mg2 Pt2 Au2'
_cell_volume   251.98238042
_cell_formula_units_Z   2
loop_
 _symmetry_equiv_pos_site_id
 _symmetry_equiv_pos_as_xyz
  1  'x, y, z'
loop_
 _atom_site_type_symbol
 _atom_site_label
 _atom_site_symmetry_multiplicity
 _atom_site_fract_x
 _atom_site_fract_y
 _atom_site_fract_z
 _atom_site_occupancy
  Th  Th0  1  0.327601  0.500000  0.183712  1
  Th  Th1  1  0.827601  0.500000  0.316288  1
  Th  Th2  1  0.172763  0.500000  0.658552  1
  Th  Th3  1  0.672764  0.500000  0.841449  1
  Mg  Mg4  1  0.001804  0.000000  0.001085  1
  Mg  Mg5  1  0.501804  0.000000  0.498915  1
  Pt  Pt6  1  0.632052  0.000000  0.131444  1
  Pt  Pt7  1  0.132051  0.000000  0.368557  1
  Au  Au8  1  0.865782  0.000000  0.631088  1
  Au  Au9  1  0.365781  0.000000  0.868915  1
