# generated using pymatgen
data_La4Pr2RuRhI6
_symmetry_space_group_name_H-M   'P 1'
_cell_length_a   4.37715200
_cell_length_b   9.56435893
_cell_length_c   12.59152961
_cell_angle_alpha   87.07770566
_cell_angle_beta   90.00000000
_cell_angle_gamma   90.00000000
_symmetry_Int_Tables_number   1
_chemical_formula_structural   La4Pr2RuRhI6
_chemical_formula_sum   'La4 Pr2 Ru1 Rh1 I6'
_cell_volume   526.45452051
_cell_formula_units_Z   1
loop_
 _symmetry_equiv_pos_site_id
 _symmetry_equiv_pos_as_xyz
  1  'x, y, z'
loop_
 _atom_site_type_symbol
 _atom_site_label
 _atom_site_symmetry_multiplicity
 _atom_site_fract_x
 _atom_site_fract_y
 _atom_site_fract_z
 _atom_site_occupancy
  La  La0  1  0.750000  0.688459  0.118307  1
  La  La1  1  0.250000  0.313423  0.881095  1
  La  La2  1  0.250000  0.886037  0.337049  1
  La  La3  1  0.750000  0.114479  0.669264  1
  Pr  Pr4  1  0.250000  0.906373  0.894902  1
  Pr  Pr5  1  0.750000  0.094219  0.103755  1
  Ru  Ru6  1  0.750000  0.116192  0.871449  1
  Rh  Rh7  1  0.250000  0.884605  0.123148  1
  I  I8  1  0.250000  0.863116  0.619725  1
  I  I9  1  0.750000  0.136801  0.381233  1
  I  I10  1  0.750000  0.631353  0.378412  1
  I  I11  1  0.250000  0.366858  0.621769  1
  I  I12  1  0.250000  0.391129  0.135985  1
  I  I13  1  0.750000  0.606959  0.863906  1
