# generated using pymatgen
data_NaEu4Te5
_symmetry_space_group_name_H-M   'P 1'
_cell_length_a   7.99474744
_cell_length_b   7.99474731
_cell_length_c   11.32746594
_cell_angle_alpha   61.82533403
_cell_angle_beta   61.82533350
_cell_angle_gamma   33.55804064
_symmetry_Int_Tables_number   1
_chemical_formula_structural   NaEu4Te5
_chemical_formula_sum   'Na1 Eu4 Te5'
_cell_volume   348.16502476
_cell_formula_units_Z   1
loop_
 _symmetry_equiv_pos_site_id
 _symmetry_equiv_pos_as_xyz
  1  'x, y, z'
loop_
 _atom_site_type_symbol
 _atom_site_label
 _atom_site_symmetry_multiplicity
 _atom_site_fract_x
 _atom_site_fract_y
 _atom_site_fract_z
 _atom_site_occupancy
  Na  Na0  1  0.000000  0.000000  0.000000  1
  Eu  Eu1  1  0.597987  0.597987  0.605539  1
  Eu  Eu2  1  0.202943  0.202943  0.195810  1
  Eu  Eu3  1  0.797057  0.797057  0.804190  1
  Eu  Eu4  1  0.402013  0.402013  0.394461  1
  Te  Te5  1  0.202787  0.202787  0.694747  1
  Te  Te6  1  0.797213  0.797213  0.305253  1
  Te  Te7  1  0.397613  0.397613  0.896839  1
  Te  Te8  1  0.000000  0.000000  0.500000  1
  Te  Te9  1  0.602387  0.602387  0.103161  1
