# generated using pymatgen
data_RbEr10(C2Br9)2
_symmetry_space_group_name_H-M   'P 1'
_cell_length_a   10.58634722
_cell_length_b   10.67329034
_cell_length_c   10.79513486
_cell_angle_alpha   113.49205875
_cell_angle_beta   87.52991843
_cell_angle_gamma   118.82803245
_symmetry_Int_Tables_number   1
_chemical_formula_structural   RbEr10(C2Br9)2
_chemical_formula_sum   'Rb1 Er10 C4 Br18'
_cell_volume   962.99681406
_cell_formula_units_Z   1
loop_
 _symmetry_equiv_pos_site_id
 _symmetry_equiv_pos_as_xyz
  1  'x, y, z'
loop_
 _atom_site_type_symbol
 _atom_site_label
 _atom_site_symmetry_multiplicity
 _atom_site_fract_x
 _atom_site_fract_y
 _atom_site_fract_z
 _atom_site_occupancy
  Rb  Rb0  1  0.500000  0.000000  0.500000  1
  Er  Er1  1  0.663771  0.717912  0.703346  1
  Er  Er2  1  0.282082  0.363806  0.011886  1
  Er  Er3  1  0.093200  0.405408  0.299970  1
  Er  Er4  1  0.959732  0.036091  0.332646  1
  Er  Er5  1  0.906800  0.594592  0.700030  1
  Er  Er6  1  0.111188  0.942059  0.001046  1
  Er  Er7  1  0.040268  0.963909  0.667354  1
  Er  Er8  1  0.336229  0.282088  0.296654  1
  Er  Er9  1  0.717918  0.636194  0.988114  1
  Er  Er10  1  0.888812  0.057941  0.998954  1
  C  C11  1  0.157498  0.228045  0.122661  1
  C  C12  1  0.842502  0.771955  0.877339  1
  C  C13  1  0.922771  0.852364  0.795599  1
  C  C14  1  0.077229  0.147636  0.204401  1
  Br  Br15  1  0.450721  0.530510  0.833091  1
  Br  Br16  1  0.383798  0.039224  0.159619  1
  Br  Br17  1  0.777099  0.857153  0.501452  1
  Br  Br18  1  0.837619  0.311278  0.154165  1
  Br  Br19  1  0.549279  0.469490  0.166909  1
  Br  Br20  1  0.222901  0.142847  0.498548  1
  Br  Br21  1  0.315778  0.099049  0.828875  1
  Br  Br22  1  0.684222  0.900951  0.171125  1
  Br  Br23  1  0.974818  0.760037  0.172661  1
  Br  Br24  1  0.932454  0.301858  0.501280  1
  Br  Br25  1  0.025182  0.239963  0.827339  1
  Br  Br26  1  0.067546  0.698142  0.498720  1
  Br  Br27  1  0.260956  0.623934  0.187243  1
  Br  Br28  1  0.739044  0.376066  0.812757  1
  Br  Br29  1  0.639045  0.433403  0.499497  1
  Br  Br30  1  0.162381  0.688722  0.845835  1
  Br  Br31  1  0.616202  0.960776  0.840381  1
  Br  Br32  1  0.360955  0.566597  0.500503  1
