# generated using pymatgen
data_Ti8Al10Ga5Co7
_symmetry_space_group_name_H-M   'P 1'
_cell_length_a   8.41312516
_cell_length_b   8.41312477
_cell_length_c   8.41312492
_cell_angle_alpha   120.27136756
_cell_angle_beta   119.89449458
_cell_angle_gamma   89.85673000
_symmetry_Int_Tables_number   1
_chemical_formula_structural   Ti8Al10Ga5Co7
_chemical_formula_sum   'Ti8 Al10 Ga5 Co7'
_cell_volume   420.53769143
_cell_formula_units_Z   1
loop_
 _symmetry_equiv_pos_site_id
 _symmetry_equiv_pos_as_xyz
  1  'x, y, z'
loop_
 _atom_site_type_symbol
 _atom_site_label
 _atom_site_symmetry_multiplicity
 _atom_site_fract_x
 _atom_site_fract_y
 _atom_site_fract_z
 _atom_site_occupancy
  Ti  Ti0  1  0.792122  0.287370  0.072214  1
  Ti  Ti1  1  0.215156  0.287370  0.495247  1
  Ti  Ti2  1  0.209646  0.709646  0.500000  1
  Ti  Ti3  1  0.215156  0.719908  0.927786  1
  Ti  Ti4  1  0.792122  0.719908  0.504753  1
  Ti  Ti5  1  0.783241  0.283241  0.500000  1
  Ti  Ti6  1  0.378282  0.123231  0.744948  1
  Ti  Ti7  1  0.378282  0.633334  0.255052  1
  Al  Al8  1  0.841041  0.657709  0.816669  1
  Al  Al9  1  0.841041  0.024372  0.183331  1
  Al  Al10  1  0.840847  0.658303  0.182543  1
  Al  Al11  1  0.475759  0.658303  0.817457  1
  Al  Al12  1  0.379530  0.121734  0.257796  1
  Al  Al13  1  0.863939  0.121734  0.742204  1
  Al  Al14  1  0.619503  0.879008  0.259505  1
  Al  Al15  1  0.619503  0.359999  0.740495  1
  Al  Al16  1  0.618673  0.879119  0.739552  1
  Al  Al17  1  0.139566  0.879119  0.260448  1
  Ga  Ga18  1  0.996103  0.496103  0.500000  1
  Ga  Ga19  1  0.155237  0.345849  0.190610  1
  Ga  Ga20  1  0.155237  0.964627  0.809390  1
  Ga  Ga21  1  0.152678  0.347519  0.805160  1
  Ga  Ga22  1  0.542358  0.347519  0.194840  1
  Co  Co23  1  0.000887  0.001085  0.501738  1
  Co  Co24  1  0.499347  0.001085  0.000198  1
  Co  Co25  1  0.498288  0.498288  0.000000  1
  Co  Co26  1  0.499347  0.499149  0.498262  1
  Co  Co27  1  0.000887  0.499149  0.999802  1
  Co  Co28  1  0.999258  0.999258  0.000000  1
  Co  Co29  1  0.496956  0.996956  0.500000  1
