# generated using pymatgen
data_LuZr5(SnRh2)6
_symmetry_space_group_name_H-M   'P 1'
_cell_length_a   4.35147325
_cell_length_b   7.39329430
_cell_length_c   13.03015402
_cell_angle_alpha   90.15544667
_cell_angle_beta   89.99112208
_cell_angle_gamma   90.19354756
_symmetry_Int_Tables_number   1
_chemical_formula_structural   LuZr5(SnRh2)6
_chemical_formula_sum   'Lu1 Zr5 Sn6 Rh12'
_cell_volume   419.19855849
_cell_formula_units_Z   1
loop_
 _symmetry_equiv_pos_site_id
 _symmetry_equiv_pos_as_xyz
  1  'x, y, z'
loop_
 _atom_site_type_symbol
 _atom_site_label
 _atom_site_symmetry_multiplicity
 _atom_site_fract_x
 _atom_site_fract_y
 _atom_site_fract_z
 _atom_site_occupancy
  Lu  Lu0  1  0.000000  0.500000  0.000000  1
  Zr  Zr1  1  0.499797  0.999899  0.168977  1
  Zr  Zr2  1  0.999813  0.499759  0.332587  1
  Zr  Zr3  1  0.500000  0.000000  0.500000  1
  Zr  Zr4  1  0.000187  0.500241  0.667414  1
  Zr  Zr5  1  0.500203  0.000101  0.831023  1
  Sn  Sn6  1  0.000000  0.000000  0.000000  1
  Sn  Sn7  1  0.499943  0.499725  0.166633  1
  Sn  Sn8  1  0.000104  0.999869  0.334534  1
  Sn  Sn9  1  0.500000  0.500000  0.500000  1
  Sn  Sn10  1  0.999896  0.000131  0.665466  1
  Sn  Sn11  1  0.500057  0.500275  0.833367  1
  Rh  Rh12  1  0.499831  0.237465  0.999971  1
  Rh  Rh13  1  0.500169  0.762535  0.000029  1
  Rh  Rh14  1  0.999954  0.246425  0.170273  1
  Rh  Rh15  1  0.999520  0.753559  0.170324  1
  Rh  Rh16  1  0.500004  0.250076  0.335226  1
  Rh  Rh17  1  0.499324  0.748856  0.335075  1
  Rh  Rh18  1  0.000093  0.252134  0.500046  1
  Rh  Rh19  1  0.999907  0.747867  0.499954  1
  Rh  Rh20  1  0.500676  0.251144  0.664925  1
  Rh  Rh21  1  0.499996  0.749924  0.664774  1
  Rh  Rh22  1  0.000480  0.246442  0.829677  1
  Rh  Rh23  1  0.000046  0.753576  0.829728  1
