# generated using pymatgen
data_TbDy3Lu4(B6Ru)4
_symmetry_space_group_name_H-M   'P 1'
_cell_length_a   3.62364300
_cell_length_b   9.06947100
_cell_length_c   11.45449100
_cell_angle_alpha   90.00302048
_cell_angle_beta   90.00000000
_cell_angle_gamma   90.00000000
_symmetry_Int_Tables_number   1
_chemical_formula_structural   TbDy3Lu4(B6Ru)4
_chemical_formula_sum   'Tb1 Dy3 Lu4 B24 Ru4'
_cell_volume   376.44640675
_cell_formula_units_Z   1
loop_
 _symmetry_equiv_pos_site_id
 _symmetry_equiv_pos_as_xyz
  1  'x, y, z'
loop_
 _atom_site_type_symbol
 _atom_site_label
 _atom_site_symmetry_multiplicity
 _atom_site_fract_x
 _atom_site_fract_y
 _atom_site_fract_z
 _atom_site_occupancy
  Tb  Tb0  1  0.000000  0.321772  0.414139  1
  Dy  Dy1  1  0.000000  0.678349  0.585849  1
  Dy  Dy2  1  0.000000  0.821677  0.085810  1
  Dy  Dy3  1  0.000000  0.178317  0.914175  1
  Lu  Lu4  1  0.000000  0.943906  0.372515  1
  Lu  Lu5  1  0.000000  0.055963  0.627532  1
  Lu  Lu6  1  0.000000  0.444012  0.127426  1
  Lu  Lu7  1  0.000000  0.556027  0.872528  1
  B  B8  1  0.500000  0.554815  0.432731  1
  B  B9  1  0.500000  0.445461  0.567422  1
  B  B10  1  0.500000  0.054597  0.067218  1
  B  B11  1  0.500000  0.945379  0.932765  1
  B  B12  1  0.500000  0.749861  0.419333  1
  B  B13  1  0.500000  0.250119  0.580905  1
  B  B14  1  0.500000  0.249813  0.080649  1
  B  B15  1  0.500000  0.750192  0.919312  1
  B  B16  1  0.500000  0.791904  0.265853  1
  B  B17  1  0.500000  0.208101  0.734186  1
  B  B18  1  0.500000  0.291788  0.233952  1
  B  B19  1  0.500000  0.708128  0.765873  1
  B  B20  1  0.500000  0.630769  0.184187  1
  B  B21  1  0.500000  0.369266  0.815802  1
  B  B22  1  0.500000  0.130566  0.315660  1
  B  B23  1  0.500000  0.869248  0.684233  1
  B  B24  1  0.500000  0.982896  0.213531  1
  B  B25  1  0.500000  0.017038  0.786456  1
  B  B26  1  0.500000  0.483161  0.286333  1
  B  B27  1  0.500000  0.517077  0.713591  1
  B  B28  1  0.500000  0.604149  0.028551  1
  B  B29  1  0.500000  0.395861  0.971433  1
  B  B30  1  0.500000  0.103827  0.471530  1
  B  B31  1  0.500000  0.895868  0.528557  1
  Ru  Ru32  1  0.000000  0.638814  0.320011  1
  Ru  Ru33  1  0.000000  0.361350  0.680040  1
  Ru  Ru34  1  0.000000  0.138561  0.179810  1
  Ru  Ru35  1  0.000000  0.861367  0.820106  1
