# generated using pymatgen
data_Sm3Y5(Si3Pt)4
_symmetry_space_group_name_H-M   'P 1'
_cell_length_a   8.16373308
_cell_length_b   8.16373404
_cell_length_c   8.29348900
_cell_angle_alpha   90.00000000
_cell_angle_beta   90.00000000
_cell_angle_gamma   120.01560876
_symmetry_Int_Tables_number   1
_chemical_formula_structural   Sm3Y5(Si3Pt)4
_chemical_formula_sum   'Sm3 Y5 Si12 Pt4'
_cell_volume   478.60498687
_cell_formula_units_Z   1
loop_
 _symmetry_equiv_pos_site_id
 _symmetry_equiv_pos_as_xyz
  1  'x, y, z'
loop_
 _atom_site_type_symbol
 _atom_site_label
 _atom_site_symmetry_multiplicity
 _atom_site_fract_x
 _atom_site_fract_y
 _atom_site_fract_z
 _atom_site_occupancy
  Sm  Sm0  1  0.000010  0.999990  0.250000  1
  Sm  Sm1  1  0.999992  0.000008  0.750000  1
  Sm  Sm2  1  0.499378  0.500622  0.250000  1
  Y  Y3  1  0.001214  0.500634  0.250000  1
  Y  Y4  1  0.500644  0.001298  0.750000  1
  Y  Y5  1  0.499366  0.998786  0.250000  1
  Y  Y6  1  0.500641  0.499359  0.750000  1
  Y  Y7  1  0.998702  0.499356  0.750000  1
  Si  Si8  1  0.165701  0.332058  0.998594  1
  Si  Si9  1  0.667942  0.834299  0.998594  1
  Si  Si10  1  0.165701  0.332058  0.501406  1
  Si  Si11  1  0.332074  0.165708  0.000080  1
  Si  Si12  1  0.165961  0.834039  0.999222  1
  Si  Si13  1  0.667942  0.834299  0.501406  1
  Si  Si14  1  0.834292  0.667926  0.000080  1
  Si  Si15  1  0.332074  0.165708  0.499920  1
  Si  Si16  1  0.165961  0.834039  0.500778  1
  Si  Si17  1  0.834292  0.667926  0.499920  1
  Si  Si18  1  0.834044  0.165956  0.000697  1
  Si  Si19  1  0.834044  0.165956  0.499303  1
  Pt  Pt20  1  0.332900  0.667100  0.997377  1
  Pt  Pt21  1  0.332900  0.667100  0.502623  1
  Pt  Pt22  1  0.667112  0.332888  0.999536  1
  Pt  Pt23  1  0.667112  0.332888  0.500464  1
