# generated using pymatgen
data_Eu4Y2TaNbO12
_symmetry_space_group_name_H-M   'P 1'
_cell_length_a   5.94886912
_cell_length_b   5.77375213
_cell_length_c   10.05001495
_cell_angle_alpha   55.23574618
_cell_angle_beta   89.82479015
_cell_angle_gamma   90.01309141
_symmetry_Int_Tables_number   1
_chemical_formula_structural   Eu4Y2TaNbO12
_chemical_formula_sum   'Eu4 Y2 Ta1 Nb1 O12'
_cell_volume   283.57389269
_cell_formula_units_Z   1
loop_
 _symmetry_equiv_pos_site_id
 _symmetry_equiv_pos_as_xyz
  1  'x, y, z'
loop_
 _atom_site_type_symbol
 _atom_site_label
 _atom_site_symmetry_multiplicity
 _atom_site_fract_x
 _atom_site_fract_y
 _atom_site_fract_z
 _atom_site_occupancy
  Eu  Eu0  1  0.450768  0.260526  0.753686  1
  Eu  Eu1  1  0.947427  0.732551  0.752246  1
  Eu  Eu2  1  0.052573  0.267449  0.247754  1
  Eu  Eu3  1  0.549232  0.739474  0.246314  1
  Y  Y4  1  0.000000  0.000000  0.000000  1
  Y  Y5  1  0.500000  0.000000  0.500000  1
  Ta  Ta6  1  0.000000  0.500000  0.500000  1
  Nb  Nb7  1  0.500000  0.500000  0.000000  1
  O  O8  1  0.722144  0.630603  0.557295  1
  O  O9  1  0.216506  0.368744  0.943297  1
  O  O10  1  0.277856  0.369397  0.442705  1
  O  O11  1  0.783494  0.631256  0.056703  1
  O  O12  1  0.191644  0.728203  0.551020  1
  O  O13  1  0.692977  0.265054  0.949296  1
  O  O14  1  0.808356  0.271797  0.448980  1
  O  O15  1  0.307023  0.734946  0.050704  1
  O  O16  1  0.033717  0.166499  0.732960  1
  O  O17  1  0.535801  0.839330  0.762915  1
  O  O18  1  0.966283  0.833501  0.267040  1
  O  O19  1  0.464199  0.160670  0.237085  1
