# generated using pymatgen
data_Rb3PbF7
_symmetry_space_group_name_H-M   'P 1'
_cell_length_a   6.29459534
_cell_length_b   6.29459556
_cell_length_c   7.24828258
_cell_angle_alpha   113.36298478
_cell_angle_beta   113.36298238
_cell_angle_gamma   88.89003881
_symmetry_Int_Tables_number   1
_chemical_formula_structural   Rb3PbF7
_chemical_formula_sum   'Rb3 Pb1 F7'
_cell_volume   238.76706148
_cell_formula_units_Z   1
loop_
 _symmetry_equiv_pos_site_id
 _symmetry_equiv_pos_as_xyz
  1  'x, y, z'
loop_
 _atom_site_type_symbol
 _atom_site_label
 _atom_site_symmetry_multiplicity
 _atom_site_fract_x
 _atom_site_fract_y
 _atom_site_fract_z
 _atom_site_occupancy
  Rb  Rb0  1  0.494710  0.494710  0.989272  1
  Rb  Rb1  1  0.766711  0.239007  0.504531  1
  Rb  Rb2  1  0.239007  0.766711  0.504531  1
  Pb  Pb3  1  0.954750  0.954750  0.970115  1
  F  F4  1  0.863895  0.863895  0.193329  1
  F  F5  1  0.973165  0.301596  0.216308  1
  F  F6  1  0.301596  0.973165  0.216308  1
  F  F7  1  0.657868  0.657868  0.750720  1
  F  F8  1  0.663304  0.087172  0.781576  1
  F  F9  1  0.087172  0.663304  0.781576  1
  F  F10  1  0.122815  0.122815  0.841755  1
