# generated using pymatgen
data_La2SmDy(Sn5Rh3)2
_symmetry_space_group_name_H-M   'P 1'
_cell_length_a   13.64490452
_cell_length_b   13.64490468
_cell_length_c   7.30927420
_cell_angle_alpha   90.00240875
_cell_angle_beta   89.99759130
_cell_angle_gamma   161.00214928
_symmetry_Int_Tables_number   1
_chemical_formula_structural   La2SmDy(Sn5Rh3)2
_chemical_formula_sum   'La2 Sm1 Dy1 Sn10 Rh6'
_cell_volume   443.00625926
_cell_formula_units_Z   1
loop_
 _symmetry_equiv_pos_site_id
 _symmetry_equiv_pos_as_xyz
  1  'x, y, z'
loop_
 _atom_site_type_symbol
 _atom_site_label
 _atom_site_symmetry_multiplicity
 _atom_site_fract_x
 _atom_site_fract_y
 _atom_site_fract_z
 _atom_site_occupancy
  La  La0  1  0.172065  0.827935  0.754255  1
  La  La1  1  0.827984  0.172016  0.254248  1
  Sm  Sm2  1  0.475813  0.524187  0.737190  1
  Dy  Dy3  1  0.524870  0.475130  0.238095  1
  Sn  Sn4  1  0.880476  0.119524  0.732423  1
  Sn  Sn5  1  0.119171  0.880829  0.232874  1
  Sn  Sn6  1  0.704751  0.295249  0.052129  1
  Sn  Sn7  1  0.294838  0.705162  0.552220  1
  Sn  Sn8  1  0.594444  0.405556  0.613654  1
  Sn  Sn9  1  0.406072  0.593928  0.114788  1
  Sn  Sn10  1  0.952861  0.047139  0.397274  1
  Sn  Sn11  1  0.047700  0.952300  0.899461  1
  Sn  Sn12  1  0.289907  0.710093  0.973317  1
  Sn  Sn13  1  0.709973  0.290027  0.472924  1
  Rh  Rh14  1  0.049918  0.950082  0.516288  1
  Rh  Rh15  1  0.950409  0.049591  0.019167  1
  Rh  Rh16  1  0.777981  0.222019  0.762466  1
  Rh  Rh17  1  0.221610  0.778390  0.262362  1
  Rh  Rh18  1  0.394537  0.605463  0.484418  1
  Rh  Rh19  1  0.604621  0.395379  0.986446  1
