# generated using pymatgen
data_TbYTi2(Fe4P3)2
_symmetry_space_group_name_H-M   'P 1'
_cell_length_a   3.68192200
_cell_length_b   10.42938000
_cell_length_c   12.26961000
_cell_angle_alpha   90.00000000
_cell_angle_beta   90.00000000
_cell_angle_gamma   90.00000000
_symmetry_Int_Tables_number   1
_chemical_formula_structural   TbYTi2(Fe4P3)2
_chemical_formula_sum   'Tb2 Y2 Ti4 Fe16 P12'
_cell_volume   471.15503215
_cell_formula_units_Z   2
loop_
 _symmetry_equiv_pos_site_id
 _symmetry_equiv_pos_as_xyz
  1  'x, y, z'
loop_
 _atom_site_type_symbol
 _atom_site_label
 _atom_site_symmetry_multiplicity
 _atom_site_fract_x
 _atom_site_fract_y
 _atom_site_fract_z
 _atom_site_occupancy
  Tb  Tb0  1  0.750000  0.417885  0.288160  1
  Tb  Tb1  1  0.750000  0.082115  0.788160  1
  Y  Y2  1  0.250000  0.582226  0.711938  1
  Y  Y3  1  0.250000  0.917774  0.211938  1
  Ti  Ti4  1  0.250000  0.699622  0.991827  1
  Ti  Ti5  1  0.250000  0.800378  0.491827  1
  Ti  Ti6  1  0.750000  0.300636  0.008334  1
  Ti  Ti7  1  0.750000  0.199364  0.508334  1
  Fe  Fe8  1  0.250000  0.415822  0.492044  1
  Fe  Fe9  1  0.250000  0.084178  0.992044  1
  Fe  Fe10  1  0.750000  0.584244  0.508017  1
  Fe  Fe11  1  0.750000  0.915756  0.008017  1
  Fe  Fe12  1  0.250000  0.217351  0.171869  1
  Fe  Fe13  1  0.250000  0.282649  0.671869  1
  Fe  Fe14  1  0.750000  0.782528  0.828045  1
  Fe  Fe15  1  0.750000  0.717472  0.328045  1
  Fe  Fe16  1  0.250000  0.875370  0.698813  1
  Fe  Fe17  1  0.250000  0.624630  0.198813  1
  Fe  Fe18  1  0.750000  0.124269  0.301165  1
  Fe  Fe19  1  0.750000  0.375731  0.801165  1
  Fe  Fe20  1  0.250000  0.463532  0.932690  1
  Fe  Fe21  1  0.250000  0.036468  0.432690  1
  Fe  Fe22  1  0.750000  0.536831  0.067199  1
  Fe  Fe23  1  0.750000  0.963169  0.567199  1
  P  P24  1  0.250000  0.427634  0.111716  1
  P  P25  1  0.250000  0.072366  0.611716  1
  P  P26  1  0.750000  0.572720  0.888119  1
  P  P27  1  0.750000  0.927280  0.388119  1
  P  P28  1  0.250000  0.270861  0.859214  1
  P  P29  1  0.250000  0.229139  0.359214  1
  P  P30  1  0.750000  0.729588  0.140863  1
  P  P31  1  0.750000  0.770412  0.640863  1
  P  P32  1  0.250000  0.600259  0.379921  1
  P  P33  1  0.250000  0.899741  0.879921  1
  P  P34  1  0.750000  0.399966  0.620065  1
  P  P35  1  0.750000  0.100034  0.120065  1
