# generated using pymatgen
data_MnZn3Rh4
_symmetry_space_group_name_H-M   'P 1'
_cell_length_a   4.28612700
_cell_length_b   5.27975113
_cell_length_c   10.55543900
_cell_angle_alpha   109.44340219
_cell_angle_beta   90.00000000
_cell_angle_gamma   90.00000000
_symmetry_Int_Tables_number   1
_chemical_formula_structural   MnZn3Rh4
_chemical_formula_sum   'Mn2 Zn6 Rh8'
_cell_volume   225.24389004
_cell_formula_units_Z   2
loop_
 _symmetry_equiv_pos_site_id
 _symmetry_equiv_pos_as_xyz
  1  'x, y, z'
loop_
 _atom_site_type_symbol
 _atom_site_label
 _atom_site_symmetry_multiplicity
 _atom_site_fract_x
 _atom_site_fract_y
 _atom_site_fract_z
 _atom_site_occupancy
  Mn  Mn0  1  0.000000  0.500049  0.249921  1
  Mn  Mn1  1  0.000000  0.500178  0.749995  1
  Zn  Zn2  1  0.500000  0.251209  0.374621  1
  Zn  Zn3  1  0.500000  0.250579  0.874598  1
  Zn  Zn4  1  0.500000  0.749168  0.125421  1
  Zn  Zn5  1  0.500000  0.748844  0.625508  1
  Zn  Zn6  1  0.000000  0.999948  0.999920  1
  Zn  Zn7  1  0.000000  0.000024  0.500007  1
  Rh  Rh8  1  0.500000  0.748535  0.374306  1
  Rh  Rh9  1  0.500000  0.748269  0.874097  1
  Rh  Rh10  1  0.500000  0.251764  0.125849  1
  Rh  Rh11  1  0.500000  0.251373  0.625730  1
  Rh  Rh12  1  0.000000  0.000050  0.249882  1
  Rh  Rh13  1  0.000000  0.999757  0.750164  1
  Rh  Rh14  1  0.000000  0.499839  0.000018  1
  Rh  Rh15  1  0.000000  0.500414  0.499961  1
