# generated using pymatgen
data_Ca2GaSnAu2
_symmetry_space_group_name_H-M   'P 1'
_cell_length_a   5.94577153
_cell_length_b   6.00903476
_cell_length_c   6.00903493
_cell_angle_alpha   134.32995233
_cell_angle_beta   103.31772101
_cell_angle_gamma   94.24748907
_symmetry_Int_Tables_number   1
_chemical_formula_structural   Ca2GaSnAu2
_chemical_formula_sum   'Ca2 Ga1 Sn1 Au2'
_cell_volume   140.66931564
_cell_formula_units_Z   1
loop_
 _symmetry_equiv_pos_site_id
 _symmetry_equiv_pos_as_xyz
  1  'x, y, z'
loop_
 _atom_site_type_symbol
 _atom_site_label
 _atom_site_symmetry_multiplicity
 _atom_site_fract_x
 _atom_site_fract_y
 _atom_site_fract_z
 _atom_site_occupancy
  Ca  Ca0  1  0.686680  0.691206  0.995474  1
  Ca  Ca1  1  0.118582  0.617359  0.501223  1
  Ga  Ga2  1  0.285825  0.984082  0.301744  1
  Sn  Sn3  1  0.685527  0.989568  0.695959  1
  Au  Au4  1  0.526265  0.301787  0.224478  1
  Au  Au5  1  0.112540  0.331417  0.781123  1
