# generated using pymatgen
data_Re3TcS8
_symmetry_space_group_name_H-M   'P 1'
_cell_length_a   6.41807361
_cell_length_b   6.52339260
_cell_length_c   7.56068932
_cell_angle_alpha   66.89735621
_cell_angle_beta   77.83511973
_cell_angle_gamma   61.16164109
_symmetry_Int_Tables_number   1
_chemical_formula_structural   Re3TcS8
_chemical_formula_sum   'Re3 Tc1 S8'
_cell_volume   254.96266717
_cell_formula_units_Z   1
loop_
 _symmetry_equiv_pos_site_id
 _symmetry_equiv_pos_as_xyz
  1  'x, y, z'
loop_
 _atom_site_type_symbol
 _atom_site_label
 _atom_site_symmetry_multiplicity
 _atom_site_fract_x
 _atom_site_fract_y
 _atom_site_fract_z
 _atom_site_occupancy
  Re  Re0  1  0.511205  0.285772  0.501879  1
  Re  Re1  1  0.488837  0.714776  0.498096  1
  Re  Re2  1  0.938234  0.308963  0.507425  1
  Tc  Tc3  1  0.060924  0.691603  0.492067  1
  S  S4  1  0.322273  0.170641  0.329458  1
  S  S5  1  0.677767  0.829754  0.670635  1
  S  S6  1  0.859479  0.151462  0.306213  1
  S  S7  1  0.140946  0.848403  0.693793  1
  S  S8  1  0.362941  0.669517  0.249686  1
  S  S9  1  0.637136  0.330112  0.751192  1
  S  S10  1  0.824945  0.701177  0.274398  1
  S  S11  1  0.175314  0.297820  0.725158  1
