# generated using pymatgen
data_ZnFe(NO3)4
_symmetry_space_group_name_H-M   'P 1'
_cell_length_a   7.60527315
_cell_length_b   7.68397300
_cell_length_c   7.75172562
_cell_angle_alpha   90.00000000
_cell_angle_beta   89.80265938
_cell_angle_gamma   90.00000000
_symmetry_Int_Tables_number   1
_chemical_formula_structural   ZnFe(NO3)4
_chemical_formula_sum   'Zn2 Fe2 N8 O24'
_cell_volume   452.99818634
_cell_formula_units_Z   2
loop_
 _symmetry_equiv_pos_site_id
 _symmetry_equiv_pos_as_xyz
  1  'x, y, z'
loop_
 _atom_site_type_symbol
 _atom_site_label
 _atom_site_symmetry_multiplicity
 _atom_site_fract_x
 _atom_site_fract_y
 _atom_site_fract_z
 _atom_site_occupancy
  Zn  Zn0  1  0.000000  0.500000  0.000000  1
  Zn  Zn1  1  0.000000  0.000000  0.500000  1
  Fe  Fe2  1  0.500000  0.500000  0.500000  1
  Fe  Fe3  1  0.500000  0.000000  0.000000  1
  N  N4  1  0.675983  0.170665  0.329394  1
  N  N5  1  0.675983  0.329335  0.829394  1
  N  N6  1  0.827368  0.826589  0.824431  1
  N  N7  1  0.827368  0.673411  0.324431  1
  N  N8  1  0.172632  0.173411  0.175569  1
  N  N9  1  0.172632  0.326589  0.675569  1
  N  N10  1  0.324017  0.670665  0.170606  1
  N  N11  1  0.324017  0.829335  0.670606  1
  O  O12  1  0.558112  0.213371  0.824247  1
  O  O13  1  0.558112  0.286629  0.324247  1
  O  O14  1  0.678631  0.449058  0.718301  1
  O  O15  1  0.678631  0.050942  0.218301  1
  O  O16  1  0.712608  0.674558  0.443508  1
  O  O17  1  0.712608  0.825442  0.943508  1
  O  O18  1  0.791438  0.323735  0.947180  1
  O  O19  1  0.791438  0.176265  0.447180  1
  O  O20  1  0.821078  0.942733  0.708887  1
  O  O21  1  0.821078  0.557267  0.208887  1
  O  O22  1  0.946095  0.712003  0.821060  1
  O  O23  1  0.946095  0.787997  0.321060  1
  O  O24  1  0.053905  0.212003  0.678940  1
  O  O25  1  0.053905  0.287997  0.178940  1
  O  O26  1  0.178922  0.442733  0.791113  1
  O  O27  1  0.178922  0.057267  0.291113  1
  O  O28  1  0.208562  0.676265  0.052820  1
  O  O29  1  0.208562  0.823735  0.552820  1
  O  O30  1  0.287392  0.174558  0.056492  1
  O  O31  1  0.287392  0.325442  0.556492  1
  O  O32  1  0.321369  0.550942  0.281699  1
  O  O33  1  0.321369  0.949058  0.781699  1
  O  O34  1  0.441888  0.713371  0.675753  1
  O  O35  1  0.441888  0.786629  0.175753  1
