# generated using pymatgen
data_Tm16MgCo4AgHg2
_symmetry_space_group_name_H-M   'P 1'
_cell_length_a   9.33701712
_cell_length_b   9.31912146
_cell_length_c   9.33257700
_cell_angle_alpha   59.95222233
_cell_angle_beta   60.01572592
_cell_angle_gamma   59.94922896
_symmetry_Int_Tables_number   1
_chemical_formula_structural   Tm16MgCo4AgHg2
_chemical_formula_sum   'Tm16 Mg1 Co4 Ag1 Hg2'
_cell_volume   573.84865218
_cell_formula_units_Z   1
loop_
 _symmetry_equiv_pos_site_id
 _symmetry_equiv_pos_as_xyz
  1  'x, y, z'
loop_
 _atom_site_type_symbol
 _atom_site_label
 _atom_site_symmetry_multiplicity
 _atom_site_fract_x
 _atom_site_fract_y
 _atom_site_fract_z
 _atom_site_occupancy
  Tm  Tm0  1  0.346264  0.346270  0.344378  1
  Tm  Tm1  1  0.346264  0.346270  0.963088  1
  Tm  Tm2  1  0.346762  0.961966  0.345636  1
  Tm  Tm3  1  0.951122  0.350857  0.349010  1
  Tm  Tm4  1  0.810027  0.188362  0.189967  1
  Tm  Tm5  1  0.186269  0.812565  0.813243  1
  Tm  Tm6  1  0.186269  0.812565  0.187922  1
  Tm  Tm7  1  0.810027  0.188362  0.811644  1
  Tm  Tm8  1  0.186364  0.185377  0.814130  1
  Tm  Tm9  1  0.809094  0.810283  0.190311  1
  Tm  Tm10  1  0.937145  0.563857  0.561515  1
  Tm  Tm11  1  0.561443  0.941017  0.935821  1
  Tm  Tm12  1  0.561443  0.941017  0.561719  1
  Tm  Tm13  1  0.937145  0.563857  0.937483  1
  Tm  Tm14  1  0.561803  0.564826  0.936686  1
  Tm  Tm15  1  0.936604  0.941703  0.560846  1
  Mg  Mg16  1  0.286266  0.568452  0.572641  1
  Co  Co17  1  0.138026  0.141915  0.143507  1
  Co  Co18  1  0.138026  0.141915  0.576553  1
  Co  Co19  1  0.137873  0.576633  0.142748  1
  Co  Co20  1  0.576261  0.140066  0.141838  1
  Ag  Ag21  1  0.582532  0.247494  0.584986  1
  Hg  Hg22  1  0.583485  0.582185  0.587419  1
  Hg  Hg23  1  0.583485  0.582185  0.246908  1
