# generated using pymatgen
data_Yb3Lu5(B6Ru)4
_symmetry_space_group_name_H-M   'P 1'
_cell_length_a   3.60544000
_cell_length_b   9.06544579
_cell_length_c   11.44352100
_cell_angle_alpha   89.95209755
_cell_angle_beta   90.00000000
_cell_angle_gamma   90.00000000
_symmetry_Int_Tables_number   1
_chemical_formula_structural   Yb3Lu5(B6Ru)4
_chemical_formula_sum   'Yb3 Lu5 B24 Ru4'
_cell_volume   374.03044771
_cell_formula_units_Z   1
loop_
 _symmetry_equiv_pos_site_id
 _symmetry_equiv_pos_as_xyz
  1  'x, y, z'
loop_
 _atom_site_type_symbol
 _atom_site_label
 _atom_site_symmetry_multiplicity
 _atom_site_fract_x
 _atom_site_fract_y
 _atom_site_fract_z
 _atom_site_occupancy
  Yb  Yb0  1  0.000000  0.324540  0.414509  1
  Yb  Yb1  1  0.000000  0.675394  0.585021  1
  Yb  Yb2  1  0.000000  0.823286  0.085958  1
  Lu  Lu3  1  0.000000  0.175878  0.915095  1
  Lu  Lu4  1  0.000000  0.941408  0.367057  1
  Lu  Lu5  1  0.000000  0.057898  0.631367  1
  Lu  Lu6  1  0.000000  0.443071  0.132072  1
  Lu  Lu7  1  0.000000  0.558151  0.868516  1
  B  B8  1  0.500000  0.553505  0.432844  1
  B  B9  1  0.500000  0.445626  0.568027  1
  B  B10  1  0.500000  0.054401  0.066092  1
  B  B11  1  0.500000  0.946463  0.933382  1
  B  B12  1  0.500000  0.749719  0.417585  1
  B  B13  1  0.500000  0.250053  0.582739  1
  B  B14  1  0.500000  0.250067  0.080867  1
  B  B15  1  0.500000  0.750683  0.917952  1
  B  B16  1  0.500000  0.791528  0.263910  1
  B  B17  1  0.500000  0.207632  0.737016  1
  B  B18  1  0.500000  0.291688  0.234683  1
  B  B19  1  0.500000  0.709363  0.764839  1
  B  B20  1  0.500000  0.630356  0.185072  1
  B  B21  1  0.500000  0.368903  0.816378  1
  B  B22  1  0.500000  0.130681  0.314065  1
  B  B23  1  0.500000  0.870055  0.684886  1
  B  B24  1  0.500000  0.982710  0.210813  1
  B  B25  1  0.500000  0.018324  0.788785  1
  B  B26  1  0.500000  0.483035  0.288379  1
  B  B27  1  0.500000  0.516519  0.712375  1
  B  B28  1  0.500000  0.598061  0.026979  1
  B  B29  1  0.500000  0.400400  0.972756  1
  B  B30  1  0.500000  0.096274  0.473171  1
  B  B31  1  0.500000  0.903687  0.526134  1
  Ru  Ru32  1  0.000000  0.639436  0.319881  1
  Ru  Ru33  1  0.000000  0.359014  0.681867  1
  Ru  Ru34  1  0.000000  0.139169  0.178909  1
  Ru  Ru35  1  0.000000  0.863025  0.820018  1
