# generated using pymatgen
data_Hf7Zr3BeSiSn6
_symmetry_space_group_name_H-M   'P 1'
_cell_length_a   8.62320400
_cell_length_b   8.62320201
_cell_length_c   5.79796500
_cell_angle_alpha   90.00000000
_cell_angle_beta   90.00000000
_cell_angle_gamma   119.99999998
_symmetry_Int_Tables_number   1
_chemical_formula_structural   Hf7Zr3BeSiSn6
_chemical_formula_sum   'Hf7 Zr3 Be1 Si1 Sn6'
_cell_volume   373.37345749
_cell_formula_units_Z   1
loop_
 _symmetry_equiv_pos_site_id
 _symmetry_equiv_pos_as_xyz
  1  'x, y, z'
loop_
 _atom_site_type_symbol
 _atom_site_label
 _atom_site_symmetry_multiplicity
 _atom_site_fract_x
 _atom_site_fract_y
 _atom_site_fract_z
 _atom_site_occupancy
  Hf  Hf0  1  0.666667  0.333333  0.997358  1
  Hf  Hf1  1  0.333333  0.666667  0.997358  1
  Hf  Hf2  1  0.333333  0.666667  0.503008  1
  Hf  Hf3  1  0.666667  0.333333  0.503008  1
  Hf  Hf4  1  0.737239  0.737239  0.758839  1
  Hf  Hf5  1  0.262761  0.000000  0.758839  1
  Hf  Hf6  1  0.000000  0.262761  0.758839  1
  Zr  Zr7  1  0.249216  0.249216  0.242292  1
  Zr  Zr8  1  0.750784  0.000000  0.242292  1
  Zr  Zr9  1  0.000000  0.750784  0.242292  1
  Be  Be10  1  0.000000  0.000000  0.977032  1
  Si  Si11  1  0.000000  0.000000  0.518951  1
  Sn  Sn12  1  0.388932  0.388932  0.748830  1
  Sn  Sn13  1  0.611068  0.000000  0.748830  1
  Sn  Sn14  1  0.000000  0.611068  0.748830  1
  Sn  Sn15  1  0.604688  0.604688  0.251135  1
  Sn  Sn16  1  0.395312  0.000000  0.251135  1
  Sn  Sn17  1  0.000000  0.395312  0.251135  1
