# generated using pymatgen
data_Ho5Hf4Sc(Si5Ir2)4
_symmetry_space_group_name_H-M   'P 1'
_cell_length_a   12.48162200
_cell_length_b   12.48162200
_cell_length_c   4.16357500
_cell_angle_alpha   90.00000000
_cell_angle_beta   90.00000000
_cell_angle_gamma   90.00000000
_symmetry_Int_Tables_number   1
_chemical_formula_structural   Ho5Hf4Sc(Si5Ir2)4
_chemical_formula_sum   'Ho5 Hf4 Sc1 Si20 Ir8'
_cell_volume   648.64704547
_cell_formula_units_Z   1
loop_
 _symmetry_equiv_pos_site_id
 _symmetry_equiv_pos_as_xyz
  1  'x, y, z'
loop_
 _atom_site_type_symbol
 _atom_site_label
 _atom_site_symmetry_multiplicity
 _atom_site_fract_x
 _atom_site_fract_y
 _atom_site_fract_z
 _atom_site_occupancy
  Ho  Ho0  1  0.000000  0.000000  0.000000  1
  Ho  Ho1  1  0.884108  0.384947  0.500000  1
  Ho  Ho2  1  0.115892  0.615053  0.500000  1
  Ho  Ho3  1  0.384947  0.115892  0.500000  1
  Ho  Ho4  1  0.615053  0.884108  0.500000  1
  Hf  Hf5  1  0.673274  0.175058  0.500000  1
  Hf  Hf6  1  0.326726  0.824942  0.500000  1
  Hf  Hf7  1  0.175058  0.326726  0.500000  1
  Hf  Hf8  1  0.824942  0.673274  0.500000  1
  Sc  Sc9  1  0.500000  0.500000  0.000000  1
  Si  Si10  1  0.565854  0.067639  0.000000  1
  Si  Si11  1  0.434146  0.932361  0.000000  1
  Si  Si12  1  0.067639  0.434146  0.000000  1
  Si  Si13  1  0.932361  0.565854  0.000000  1
  Si  Si14  1  0.664466  0.700274  0.000000  1
  Si  Si15  1  0.335534  0.299726  0.000000  1
  Si  Si16  1  0.164508  0.799865  0.000000  1
  Si  Si17  1  0.835492  0.200135  0.000000  1
  Si  Si18  1  0.299726  0.664466  0.000000  1
  Si  Si19  1  0.700274  0.335534  0.000000  1
  Si  Si20  1  0.200135  0.164508  0.000000  1
  Si  Si21  1  0.799865  0.835492  0.000000  1
  Si  Si22  1  0.650908  0.508215  0.500000  1
  Si  Si23  1  0.349092  0.491785  0.500000  1
  Si  Si24  1  0.156849  0.992454  0.500000  1
  Si  Si25  1  0.843151  0.007546  0.500000  1
  Si  Si26  1  0.491785  0.650908  0.500000  1
  Si  Si27  1  0.508215  0.349092  0.500000  1
  Si  Si28  1  0.007546  0.156849  0.500000  1
  Si  Si29  1  0.992454  0.843151  0.500000  1
  Ir  Ir30  1  0.743325  0.521668  0.000000  1
  Ir  Ir31  1  0.256675  0.478332  0.000000  1
  Ir  Ir32  1  0.246605  0.978000  0.000000  1
  Ir  Ir33  1  0.753395  0.022000  0.000000  1
  Ir  Ir34  1  0.478332  0.743325  0.000000  1
  Ir  Ir35  1  0.521668  0.256675  0.000000  1
  Ir  Ir36  1  0.022000  0.246605  0.000000  1
  Ir  Ir37  1  0.978000  0.753395  0.000000  1
