# generated using pymatgen
data_TaRe5As14
_symmetry_space_group_name_H-M   'P 1'
_cell_length_a   7.68872186
_cell_length_b   7.68872216
_cell_length_c   7.68872185
_cell_angle_alpha   109.20428699
_cell_angle_beta   110.00639968
_cell_angle_gamma   109.20430131
_symmetry_Int_Tables_number   1
_chemical_formula_structural   TaRe5As14
_chemical_formula_sum   'Ta1 Re5 As14'
_cell_volume   349.87438177
_cell_formula_units_Z   1
loop_
 _symmetry_equiv_pos_site_id
 _symmetry_equiv_pos_as_xyz
  1  'x, y, z'
loop_
 _atom_site_type_symbol
 _atom_site_label
 _atom_site_symmetry_multiplicity
 _atom_site_fract_x
 _atom_site_fract_y
 _atom_site_fract_z
 _atom_site_occupancy
  Ta  Ta0  1  0.341389  0.000000  0.341389  1
  Re  Re1  1  0.000274  0.340599  0.340873  1
  Re  Re2  1  0.000274  0.659401  0.659675  1
  Re  Re3  1  0.340873  0.340599  0.000274  1
  Re  Re4  1  0.659675  0.659401  0.000274  1
  Re  Re5  1  0.666116  0.000000  0.666116  1
  As  As6  1  0.751100  0.500000  0.251100  1
  As  As7  1  0.499578  0.747547  0.247126  1
  As  As8  1  0.499578  0.252453  0.752031  1
  As  As9  1  0.752031  0.252453  0.499578  1
  As  As10  1  0.247126  0.747547  0.499578  1
  As  As11  1  0.251100  0.500000  0.751100  1
  As  As12  1  0.997129  0.000000  0.330790  1
  As  As13  1  0.667924  0.000000  0.999599  1
  As  As14  1  0.997129  0.666339  0.997129  1
  As  As15  1  0.330790  0.333661  0.330790  1
  As  As16  1  0.999599  0.331676  0.999599  1
  As  As17  1  0.667924  0.668324  0.667924  1
  As  As18  1  0.330790  0.000000  0.997129  1
  As  As19  1  0.999599  0.000000  0.667924  1
