# generated using pymatgen
data_Dy(Al5Os)2
_symmetry_space_group_name_H-M   'P 1'
_cell_length_a   6.85345806
_cell_length_b   6.85345829
_cell_length_c   9.16317900
_cell_angle_alpha   90.00000000
_cell_angle_beta   90.00000000
_cell_angle_gamma   96.42758536
_symmetry_Int_Tables_number   1
_chemical_formula_structural   Dy(Al5Os)2
_chemical_formula_sum   'Dy2 Al20 Os4'
_cell_volume   427.68810552
_cell_formula_units_Z   2
loop_
 _symmetry_equiv_pos_site_id
 _symmetry_equiv_pos_as_xyz
  1  'x, y, z'
loop_
 _atom_site_type_symbol
 _atom_site_label
 _atom_site_symmetry_multiplicity
 _atom_site_fract_x
 _atom_site_fract_y
 _atom_site_fract_z
 _atom_site_occupancy
  Dy  Dy0  1  0.870064  0.129936  0.750000  1
  Dy  Dy1  1  0.129936  0.870064  0.250000  1
  Al  Al2  1  0.518507  0.782834  0.750000  1
  Al  Al3  1  0.782834  0.518507  0.250000  1
  Al  Al4  1  0.481493  0.217166  0.250000  1
  Al  Al5  1  0.217166  0.481493  0.750000  1
  Al  Al6  1  0.623632  0.376368  0.954603  1
  Al  Al7  1  0.376368  0.623632  0.045397  1
  Al  Al8  1  0.623632  0.376368  0.545397  1
  Al  Al9  1  0.376368  0.623632  0.454603  1
  Al  Al10  1  0.416220  0.147621  0.750000  1
  Al  Al11  1  0.147621  0.416220  0.250000  1
  Al  Al12  1  0.583780  0.852379  0.250000  1
  Al  Al13  1  0.852379  0.583780  0.750000  1
  Al  Al14  1  0.844526  0.155474  0.399089  1
  Al  Al15  1  0.155474  0.844526  0.600911  1
  Al  Al16  1  0.844526  0.155474  0.100911  1
  Al  Al17  1  0.155474  0.844526  0.899089  1
  Al  Al18  1  0.775456  0.775456  0.000000  1
  Al  Al19  1  0.775456  0.775456  0.500000  1
  Al  Al20  1  0.224544  0.224544  0.000000  1
  Al  Al21  1  0.224544  0.224544  0.500000  1
  Os  Os22  1  0.500000  0.000000  0.000000  1
  Os  Os23  1  0.000000  0.500000  0.000000  1
  Os  Os24  1  0.500000  0.000000  0.500000  1
  Os  Os25  1  0.000000  0.500000  0.500000  1
