# generated using pymatgen
data_Hf5ZrTi16Ir7
_symmetry_space_group_name_H-M   'P 1'
_cell_length_a   8.96946651
_cell_length_b   8.94681173
_cell_length_c   8.94681175
_cell_angle_alpha   60.16758981
_cell_angle_beta   59.91620541
_cell_angle_gamma   59.91620923
_symmetry_Int_Tables_number   1
_chemical_formula_structural   Hf5ZrTi16Ir7
_chemical_formula_sum   'Hf5 Zr1 Ti16 Ir7'
_cell_volume   507.67133768
_cell_formula_units_Z   1
loop_
 _symmetry_equiv_pos_site_id
 _symmetry_equiv_pos_as_xyz
  1  'x, y, z'
loop_
 _atom_site_type_symbol
 _atom_site_label
 _atom_site_symmetry_multiplicity
 _atom_site_fract_x
 _atom_site_fract_y
 _atom_site_fract_z
 _atom_site_occupancy
  Hf  Hf0  1  0.684332  0.683097  0.315668  1
  Hf  Hf1  1  0.316903  0.683097  0.315668  1
  Hf  Hf2  1  0.682030  0.317970  0.317970  1
  Hf  Hf3  1  0.316903  0.315668  0.683097  1
  Hf  Hf4  1  0.684332  0.315668  0.683097  1
  Zr  Zr5  1  0.316247  0.683753  0.683753  1
  Ti  Ti6  1  0.882114  0.882028  0.353744  1
  Ti  Ti7  1  0.882114  0.353744  0.882028  1
  Ti  Ti8  1  0.354025  0.882297  0.882297  1
  Ti  Ti9  1  0.881381  0.882297  0.882297  1
  Ti  Ti10  1  0.117703  0.118619  0.645975  1
  Ti  Ti11  1  0.117703  0.645975  0.118619  1
  Ti  Ti12  1  0.646256  0.117886  0.117886  1
  Ti  Ti13  1  0.117972  0.117886  0.117886  1
  Ti  Ti14  1  0.669153  0.669024  0.992667  1
  Ti  Ti15  1  0.669153  0.992667  0.669024  1
  Ti  Ti16  1  0.992333  0.669227  0.669227  1
  Ti  Ti17  1  0.669211  0.669227  0.669227  1
  Ti  Ti18  1  0.330773  0.330789  0.007667  1
  Ti  Ti19  1  0.330773  0.007667  0.330789  1
  Ti  Ti20  1  0.007333  0.330847  0.330847  1
  Ti  Ti21  1  0.330976  0.330847  0.330847  1
  Ir  Ir22  1  0.000033  0.999967  0.999967  1
  Ir  Ir23  1  0.999125  0.000875  0.499042  1
  Ir  Ir24  1  0.500958  0.000875  0.499042  1
  Ir  Ir25  1  0.000041  0.499959  0.499959  1
  Ir  Ir26  1  0.500958  0.499042  0.000875  1
  Ir  Ir27  1  0.999125  0.499042  0.000875  1
  Ir  Ir28  1  0.500041  0.999959  0.999959  1
