# generated using pymatgen
data_YbTiSiO5
_symmetry_space_group_name_H-M   'P 1'
_cell_length_a   8.72720400
_cell_length_b   6.60215820
_cell_length_c   7.07014256
_cell_angle_alpha   66.15347755
_cell_angle_beta   90.00000000
_cell_angle_gamma   90.00000000
_symmetry_Int_Tables_number   1
_chemical_formula_structural   YbTiSiO5
_chemical_formula_sum   'Yb4 Ti4 Si4 O20'
_cell_volume   372.59367209
_cell_formula_units_Z   4
loop_
 _symmetry_equiv_pos_site_id
 _symmetry_equiv_pos_as_xyz
  1  'x, y, z'
loop_
 _atom_site_type_symbol
 _atom_site_label
 _atom_site_symmetry_multiplicity
 _atom_site_fract_x
 _atom_site_fract_y
 _atom_site_fract_z
 _atom_site_occupancy
  Yb  Yb0  1  0.921479  0.250276  0.253828  1
  Yb  Yb1  1  0.578521  0.250276  0.753828  1
  Yb  Yb2  1  0.421479  0.749724  0.246172  1
  Yb  Yb3  1  0.078521  0.749724  0.746172  1
  Ti  Ti4  1  0.251753  0.250290  0.505268  1
  Ti  Ti5  1  0.748247  0.749710  0.494732  1
  Ti  Ti6  1  0.248247  0.250290  0.005268  1
  Ti  Ti7  1  0.751753  0.749710  0.994732  1
  Si  Si8  1  0.070699  0.750500  0.249078  1
  Si  Si9  1  0.570699  0.249500  0.250922  1
  Si  Si10  1  0.929301  0.249500  0.750922  1
  Si  Si11  1  0.429301  0.750500  0.749078  1
  O  O12  1  0.464731  0.146983  0.116494  1
  O  O13  1  0.964731  0.853017  0.383506  1
  O  O14  1  0.535269  0.853017  0.883506  1
  O  O15  1  0.035269  0.146983  0.616494  1
  O  O16  1  0.034851  0.352758  0.885026  1
  O  O17  1  0.534851  0.647242  0.614974  1
  O  O18  1  0.965149  0.647242  0.114974  1
  O  O19  1  0.465149  0.352758  0.385026  1
  O  O20  1  0.311155  0.934906  0.588858  1
  O  O21  1  0.811155  0.065094  0.911142  1
  O  O22  1  0.688845  0.065094  0.411142  1
  O  O23  1  0.188845  0.934906  0.088858  1
  O  O24  1  0.321690  0.249733  0.750202  1
  O  O25  1  0.821690  0.750267  0.749798  1
  O  O26  1  0.678310  0.750267  0.249798  1
  O  O27  1  0.178310  0.249733  0.250202  1
  O  O28  1  0.311478  0.565997  0.909994  1
  O  O29  1  0.811478  0.434003  0.590006  1
  O  O30  1  0.688522  0.434003  0.090006  1
  O  O31  1  0.188522  0.565997  0.409994  1
