# generated using pymatgen
data_Yb2PrNi9
_symmetry_space_group_name_H-M   'P 1'
_cell_length_a   8.52995554
_cell_length_b   8.52995489
_cell_length_c   8.52995637
_cell_angle_alpha   33.71464794
_cell_angle_beta   33.71465252
_cell_angle_gamma   33.71465720
_symmetry_Int_Tables_number   1
_chemical_formula_structural   Yb2PrNi9
_chemical_formula_sum   'Yb2 Pr1 Ni9'
_cell_volume   170.36143510
_cell_formula_units_Z   1
loop_
 _symmetry_equiv_pos_site_id
 _symmetry_equiv_pos_as_xyz
  1  'x, y, z'
loop_
 _atom_site_type_symbol
 _atom_site_label
 _atom_site_symmetry_multiplicity
 _atom_site_fract_x
 _atom_site_fract_y
 _atom_site_fract_z
 _atom_site_occupancy
  Yb  Yb0  1  0.857911  0.857911  0.857911  1
  Yb  Yb1  1  0.142089  0.142089  0.142089  1
  Pr  Pr2  1  0.000000  0.000000  0.000000  1
  Ni  Ni3  1  0.416443  0.916278  0.416443  1
  Ni  Ni4  1  0.416443  0.416443  0.916278  1
  Ni  Ni5  1  0.916278  0.416443  0.416443  1
  Ni  Ni6  1  0.583557  0.083722  0.583557  1
  Ni  Ni7  1  0.583557  0.583557  0.083722  1
  Ni  Ni8  1  0.083722  0.583557  0.583557  1
  Ni  Ni9  1  0.667636  0.667636  0.667636  1
  Ni  Ni10  1  0.332364  0.332364  0.332364  1
  Ni  Ni11  1  0.500000  0.500000  0.500000  1
