# generated using pymatgen
data_Er2AlCoOs
_symmetry_space_group_name_H-M   'P 1'
_cell_length_a   5.47512624
_cell_length_b   5.47512538
_cell_length_c   5.47512519
_cell_angle_alpha   136.38824029
_cell_angle_beta   118.99914578
_cell_angle_gamma   77.94638028
_symmetry_Int_Tables_number   1
_chemical_formula_structural   Er2AlCoOs
_chemical_formula_sum   'Er2 Al1 Co1 Os1'
_cell_volume   96.22754318
_cell_formula_units_Z   1
loop_
 _symmetry_equiv_pos_site_id
 _symmetry_equiv_pos_as_xyz
  1  'x, y, z'
loop_
 _atom_site_type_symbol
 _atom_site_label
 _atom_site_symmetry_multiplicity
 _atom_site_fract_x
 _atom_site_fract_y
 _atom_site_fract_z
 _atom_site_occupancy
  Er  Er0  1  0.699579  0.207257  0.492322  1
  Er  Er1  1  0.285064  0.792743  0.492322  1
  Al  Al2  1  0.996362  0.000000  0.996362  1
  Co  Co3  1  0.725324  0.500000  0.225324  1
  Os  Os4  1  0.293670  0.500000  0.793670  1
