# generated using pymatgen
data_Ho8InNiAgIr
_symmetry_space_group_name_H-M   'P 1'
_cell_length_a   9.45089788
_cell_length_b   9.49624981
_cell_length_c   9.47689537
_cell_angle_alpha   60.46505577
_cell_angle_beta   60.02237280
_cell_angle_gamma   60.07115301
_symmetry_Int_Tables_number   1
_chemical_formula_structural   Ho8InNiAgIr
_chemical_formula_sum   'Ho16 In2 Ni2 Ag2 Ir2'
_cell_volume   603.93207697
_cell_formula_units_Z   2
loop_
 _symmetry_equiv_pos_site_id
 _symmetry_equiv_pos_as_xyz
  1  'x, y, z'
loop_
 _atom_site_type_symbol
 _atom_site_label
 _atom_site_symmetry_multiplicity
 _atom_site_fract_x
 _atom_site_fract_y
 _atom_site_fract_z
 _atom_site_occupancy
  Ho  Ho0  1  0.443447  0.437859  0.057247  1
  Ho  Ho1  1  0.647803  0.651555  0.051616  1
  Ho  Ho2  1  0.192593  0.809251  0.188313  1
  Ho  Ho3  1  0.066660  0.437449  0.058375  1
  Ho  Ho4  1  0.188743  0.809247  0.809376  1
  Ho  Ho5  1  0.065931  0.440680  0.436704  1
  Ho  Ho6  1  0.812261  0.189367  0.189954  1
  Ho  Ho7  1  0.647099  0.654726  0.650729  1
  Ho  Ho8  1  0.813037  0.187366  0.805601  1
  Ho  Ho9  1  0.191205  0.185893  0.811745  1
  Ho  Ho10  1  0.050769  0.649555  0.652258  1
  Ho  Ho11  1  0.438156  0.068530  0.059587  1
  Ho  Ho12  1  0.061329  0.061712  0.436390  1
  Ho  Ho13  1  0.644757  0.052574  0.651627  1
  Ho  Ho14  1  0.809962  0.807819  0.189955  1
  Ho  Ho15  1  0.439606  0.067259  0.433054  1
  In  In16  1  0.416810  0.743355  0.421103  1
  In  In17  1  0.742644  0.416480  0.421510  1
  Ni  Ni18  1  0.426085  0.858099  0.858891  1
  Ni  Ni19  1  0.854391  0.858552  0.857230  1
  Ag  Ag20  1  0.417271  0.415042  0.419825  1
  Ag  Ag21  1  0.415576  0.413782  0.751799  1
  Ir  Ir22  1  0.855059  0.426337  0.860145  1
  Ir  Ir23  1  0.858811  0.857511  0.426969  1
