# generated using pymatgen
data_Hf4GaFe6Si
_symmetry_space_group_name_H-M   'P 1'
_cell_length_a   4.98100347
_cell_length_b   4.98100344
_cell_length_c   8.07967875
_cell_angle_alpha   89.91814728
_cell_angle_beta   90.08185209
_cell_angle_gamma   119.90701425
_symmetry_Int_Tables_number   1
_chemical_formula_structural   Hf4GaFe6Si
_chemical_formula_sum   'Hf4 Ga1 Fe6 Si1'
_cell_volume   173.76567274
_cell_formula_units_Z   1
loop_
 _symmetry_equiv_pos_site_id
 _symmetry_equiv_pos_as_xyz
  1  'x, y, z'
loop_
 _atom_site_type_symbol
 _atom_site_label
 _atom_site_symmetry_multiplicity
 _atom_site_fract_x
 _atom_site_fract_y
 _atom_site_fract_z
 _atom_site_occupancy
  Hf  Hf0  1  0.666710  0.333290  0.564724  1
  Hf  Hf1  1  0.333290  0.666710  0.435276  1
  Hf  Hf2  1  0.333385  0.666615  0.064340  1
  Hf  Hf3  1  0.666615  0.333385  0.935660  1
  Ga  Ga4  1  0.000000  0.000000  0.500000  1
  Fe  Fe5  1  0.171575  0.343094  0.754096  1
  Fe  Fe6  1  0.171576  0.828424  0.754124  1
  Fe  Fe7  1  0.656906  0.828425  0.754096  1
  Fe  Fe8  1  0.828425  0.656906  0.245904  1
  Fe  Fe9  1  0.828424  0.171576  0.245876  1
  Fe  Fe10  1  0.343094  0.171575  0.245904  1
  Si  Si11  1  0.000000  0.000000  0.000000  1
