# generated using pymatgen
data_Lu16ZnIn6Ag
_symmetry_space_group_name_H-M   'P 1'
_cell_length_a   10.43977300
_cell_length_b   10.43977357
_cell_length_c   6.68026100
_cell_angle_alpha   90.00000000
_cell_angle_beta   90.00000000
_cell_angle_gamma   120.00000135
_symmetry_Int_Tables_number   1
_chemical_formula_structural   Lu16ZnIn6Ag
_chemical_formula_sum   'Lu16 Zn1 In6 Ag1'
_cell_volume   630.53063424
_cell_formula_units_Z   1
loop_
 _symmetry_equiv_pos_site_id
 _symmetry_equiv_pos_as_xyz
  1  'x, y, z'
loop_
 _atom_site_type_symbol
 _atom_site_label
 _atom_site_symmetry_multiplicity
 _atom_site_fract_x
 _atom_site_fract_y
 _atom_site_fract_z
 _atom_site_occupancy
  Lu  Lu0  1  0.518609  0.037219  0.527831  1
  Lu  Lu1  1  0.962781  0.481391  0.527831  1
  Lu  Lu2  1  0.518609  0.481391  0.527831  1
  Lu  Lu3  1  0.480035  0.960071  0.027733  1
  Lu  Lu4  1  0.039929  0.519965  0.027733  1
  Lu  Lu5  1  0.480035  0.519965  0.027733  1
  Lu  Lu6  1  0.173055  0.346109  0.744109  1
  Lu  Lu7  1  0.653891  0.826945  0.744109  1
  Lu  Lu8  1  0.173055  0.826945  0.744109  1
  Lu  Lu9  1  0.827057  0.654115  0.241564  1
  Lu  Lu10  1  0.345885  0.172943  0.241564  1
  Lu  Lu11  1  0.827057  0.172943  0.241564  1
  Lu  Lu12  1  0.666667  0.333333  0.877114  1
  Lu  Lu13  1  0.333333  0.666667  0.380298  1
  Lu  Lu14  1  0.000000  0.000000  0.506115  1
  Lu  Lu15  1  0.000000  0.000000  0.004091  1
  Zn  Zn16  1  0.333333  0.666667  0.813543  1
  In  In17  1  0.836138  0.672275  0.757003  1
  In  In18  1  0.327725  0.163862  0.757003  1
  In  In19  1  0.836138  0.163862  0.757003  1
  In  In20  1  0.165192  0.330384  0.259966  1
  In  In21  1  0.669616  0.834808  0.259966  1
  In  In22  1  0.165192  0.834808  0.259966  1
  Ag  Ag23  1  0.666667  0.333333  0.299904  1
