# generated using pymatgen
data_Er2ZnP6(IrRh3)3
_symmetry_space_group_name_H-M   'P 1'
_cell_length_a   9.65320100
_cell_length_b   9.65319963
_cell_length_c   3.90249500
_cell_angle_alpha   90.00000000
_cell_angle_beta   90.00000000
_cell_angle_gamma   120.00000127
_symmetry_Int_Tables_number   1
_chemical_formula_structural   Er2ZnP6(IrRh3)3
_chemical_formula_sum   'Er2 Zn1 P6 Ir3 Rh9'
_cell_volume   314.93114939
_cell_formula_units_Z   1
loop_
 _symmetry_equiv_pos_site_id
 _symmetry_equiv_pos_as_xyz
  1  'x, y, z'
loop_
 _atom_site_type_symbol
 _atom_site_label
 _atom_site_symmetry_multiplicity
 _atom_site_fract_x
 _atom_site_fract_y
 _atom_site_fract_z
 _atom_site_occupancy
  Er  Er0  1  0.333333  0.666667  0.752862  1
  Er  Er1  1  0.666667  0.333333  0.247271  1
  Zn  Zn2  1  0.000000  0.000000  0.499719  1
  P  P3  1  0.403372  0.283955  0.748456  1
  P  P4  1  0.716045  0.119417  0.748456  1
  P  P5  1  0.880583  0.596628  0.748456  1
  P  P6  1  0.597872  0.715566  0.251514  1
  P  P7  1  0.284434  0.882305  0.251514  1
  P  P8  1  0.117695  0.402128  0.251514  1
  Ir  Ir9  1  0.453164  0.066517  0.749338  1
  Ir  Ir10  1  0.933483  0.386646  0.749338  1
  Ir  Ir11  1  0.613354  0.546836  0.749338  1
  Rh  Rh12  1  0.545588  0.931156  0.250849  1
  Rh  Rh13  1  0.068844  0.614433  0.250849  1
  Rh  Rh14  1  0.385567  0.454412  0.250849  1
  Rh  Rh15  1  0.159255  0.283686  0.753395  1
  Rh  Rh16  1  0.716314  0.875569  0.753395  1
  Rh  Rh17  1  0.124431  0.840745  0.753395  1
  Rh  Rh18  1  0.840870  0.716214  0.246497  1
  Rh  Rh19  1  0.283786  0.124656  0.246497  1
  Rh  Rh20  1  0.875344  0.159130  0.246497  1
