# generated using pymatgen
data_HfThP7Ru12
_symmetry_space_group_name_H-M   'P 1'
_cell_length_a   9.43941500
_cell_length_b   9.43941545
_cell_length_c   3.92469200
_cell_angle_alpha   90.00000000
_cell_angle_beta   90.00000000
_cell_angle_gamma   119.99999490
_symmetry_Int_Tables_number   1
_chemical_formula_structural   HfThP7Ru12
_chemical_formula_sum   'Hf1 Th1 P7 Ru12'
_cell_volume   302.84918910
_cell_formula_units_Z   1
loop_
 _symmetry_equiv_pos_site_id
 _symmetry_equiv_pos_as_xyz
  1  'x, y, z'
loop_
 _atom_site_type_symbol
 _atom_site_label
 _atom_site_symmetry_multiplicity
 _atom_site_fract_x
 _atom_site_fract_y
 _atom_site_fract_z
 _atom_site_occupancy
  Hf  Hf0  1  0.666667  0.333333  0.500000  1
  Th  Th1  1  0.333333  0.666667  0.000000  1
  P  P2  1  0.604665  0.718060  0.500000  1
  P  P3  1  0.000000  0.000000  0.000000  1
  P  P4  1  0.281940  0.886604  0.500000  1
  P  P5  1  0.113396  0.395335  0.500000  1
  P  P6  1  0.885224  0.571687  0.000000  1
  P  P7  1  0.428313  0.313537  0.000000  1
  P  P8  1  0.686463  0.114776  0.000000  1
  Ru  Ru9  1  0.558310  0.954410  0.500000  1
  Ru  Ru10  1  0.396100  0.441690  0.500000  1
  Ru  Ru11  1  0.912703  0.121561  0.500000  1
  Ru  Ru12  1  0.208858  0.087297  0.500000  1
  Ru  Ru13  1  0.878439  0.791142  0.500000  1
  Ru  Ru14  1  0.726477  0.890112  0.000000  1
  Ru  Ru15  1  0.109888  0.836364  0.000000  1
  Ru  Ru16  1  0.163636  0.273523  0.000000  1
  Ru  Ru17  1  0.429301  0.076428  0.000000  1
  Ru  Ru18  1  0.923572  0.352872  0.000000  1
  Ru  Ru19  1  0.647128  0.570699  0.000000  1
  Ru  Ru20  1  0.045590  0.603900  0.500000  1
