# generated using pymatgen
data_Sc20Si15Au
_symmetry_space_group_name_H-M   'P 1'
_cell_length_a   6.95284021
_cell_length_b   7.19805428
_cell_length_c   13.76231154
_cell_angle_alpha   90.32096573
_cell_angle_beta   89.07727915
_cell_angle_gamma   89.93535750
_symmetry_Int_Tables_number   1
_chemical_formula_structural   Sc20Si15Au
_chemical_formula_sum   'Sc20 Si15 Au1'
_cell_volume   688.66068963
_cell_formula_units_Z   1
loop_
 _symmetry_equiv_pos_site_id
 _symmetry_equiv_pos_as_xyz
  1  'x, y, z'
loop_
 _atom_site_type_symbol
 _atom_site_label
 _atom_site_symmetry_multiplicity
 _atom_site_fract_x
 _atom_site_fract_y
 _atom_site_fract_z
 _atom_site_occupancy
  Sc  Sc0  1  0.178268  0.992191  0.753292  1
  Sc  Sc1  1  0.822258  0.006530  0.250402  1
  Sc  Sc2  1  0.320722  0.498661  0.249598  1
  Sc  Sc3  1  0.680237  0.504403  0.751102  1
  Sc  Sc4  1  0.001857  0.666480  0.599532  1
  Sc  Sc5  1  0.993507  0.329759  0.398064  1
  Sc  Sc6  1  0.500817  0.186129  0.399569  1
  Sc  Sc7  1  0.002549  0.325003  0.096719  1
  Sc  Sc8  1  0.505425  0.817886  0.601606  1
  Sc  Sc9  1  0.997692  0.675107  0.904575  1
  Sc  Sc10  1  0.496300  0.819506  0.904282  1
  Sc  Sc11  1  0.503122  0.179994  0.096187  1
  Sc  Sc12  1  0.356584  0.322399  0.623194  1
  Sc  Sc13  1  0.646912  0.679054  0.375886  1
  Sc  Sc14  1  0.149705  0.826719  0.371225  1
  Sc  Sc15  1  0.656350  0.678686  0.124009  1
  Sc  Sc16  1  0.847204  0.173442  0.624774  1
  Sc  Sc17  1  0.343222  0.321078  0.877154  1
  Sc  Sc18  1  0.842172  0.177521  0.876279  1
  Sc  Sc19  1  0.156653  0.823206  0.125224  1
  Si  Si20  1  0.053070  0.385302  0.750409  1
  Si  Si21  1  0.948103  0.609561  0.248360  1
  Si  Si22  1  0.452492  0.897626  0.248579  1
  Si  Si23  1  0.548839  0.103100  0.751567  1
  Si  Si24  1  0.300838  0.628436  0.752164  1
  Si  Si25  1  0.698339  0.369081  0.247545  1
  Si  Si26  1  0.200258  0.138412  0.247157  1
  Si  Si27  1  0.801605  0.864165  0.753918  1
  Si  Si28  1  0.821049  0.971462  0.459598  1
  Si  Si29  1  0.313993  0.537399  0.461352  1
  Si  Si30  1  0.832932  0.967556  0.037714  1
  Si  Si31  1  0.682066  0.465625  0.537580  1
  Si  Si32  1  0.166375  0.032140  0.963124  1
  Si  Si33  1  0.669731  0.467922  0.961572  1
  Si  Si34  1  0.329655  0.533904  0.038555  1
  Au  Au35  1  0.179095  0.024554  0.538133  1
