# generated using pymatgen
data_DyMg3(GaPt3)3
_symmetry_space_group_name_H-M   'P 1'
_cell_length_a   4.10245300
_cell_length_b   4.10245300
_cell_length_c   15.33773100
_cell_angle_alpha   90.00000000
_cell_angle_beta   90.00000000
_cell_angle_gamma   90.00000000
_symmetry_Int_Tables_number   1
_chemical_formula_structural   DyMg3(GaPt3)3
_chemical_formula_sum   'Dy1 Mg3 Ga3 Pt9'
_cell_volume   258.13586272
_cell_formula_units_Z   1
loop_
 _symmetry_equiv_pos_site_id
 _symmetry_equiv_pos_as_xyz
  1  'x, y, z'
loop_
 _atom_site_type_symbol
 _atom_site_label
 _atom_site_symmetry_multiplicity
 _atom_site_fract_x
 _atom_site_fract_y
 _atom_site_fract_z
 _atom_site_occupancy
  Dy  Dy0  1  0.000000  0.000000  0.000000  1
  Mg  Mg1  1  0.500000  0.500000  0.259524  1
  Mg  Mg2  1  0.500000  0.500000  0.500000  1
  Mg  Mg3  1  0.500000  0.500000  0.740476  1
  Ga  Ga4  1  0.000000  0.000000  0.257921  1
  Ga  Ga5  1  0.000000  0.000000  0.500000  1
  Ga  Ga6  1  0.000000  0.000000  0.742079  1
  Pt  Pt7  1  0.500000  0.500000  0.000000  1
  Pt  Pt8  1  0.500000  0.000000  0.141923  1
  Pt  Pt9  1  0.500000  0.000000  0.380960  1
  Pt  Pt10  1  0.500000  0.000000  0.619040  1
  Pt  Pt11  1  0.500000  0.000000  0.858077  1
  Pt  Pt12  1  0.000000  0.500000  0.141923  1
  Pt  Pt13  1  0.000000  0.500000  0.380960  1
  Pt  Pt14  1  0.000000  0.500000  0.619040  1
  Pt  Pt15  1  0.000000  0.500000  0.858077  1
