# generated using pymatgen
data_Sr4TmLuTa2O12
_symmetry_space_group_name_H-M   'P 1'
_cell_length_a   5.81768248
_cell_length_b   5.88890407
_cell_length_c   8.25715509
_cell_angle_alpha   89.98367671
_cell_angle_beta   90.14641936
_cell_angle_gamma   90.00615797
_symmetry_Int_Tables_number   1
_chemical_formula_structural   Sr4TmLuTa2O12
_chemical_formula_sum   'Sr4 Tm1 Lu1 Ta2 O12'
_cell_volume   282.88733083
_cell_formula_units_Z   1
loop_
 _symmetry_equiv_pos_site_id
 _symmetry_equiv_pos_as_xyz
  1  'x, y, z'
loop_
 _atom_site_type_symbol
 _atom_site_label
 _atom_site_symmetry_multiplicity
 _atom_site_fract_x
 _atom_site_fract_y
 _atom_site_fract_z
 _atom_site_occupancy
  Sr  Sr0  1  0.008127  0.035772  0.249418  1
  Sr  Sr1  1  0.491905  0.536261  0.248982  1
  Sr  Sr2  1  0.991873  0.964220  0.750583  1
  Sr  Sr3  1  0.508103  0.463740  0.751019  1
  Tm  Tm4  1  0.999999  0.499997  0.500001  1
  Lu  Lu5  1  0.499985  0.999998  0.000004  1
  Ta  Ta6  1  0.500001  0.000002  0.500000  1
  Ta  Ta7  1  0.999998  0.500000  0.000000  1
  O  O8  1  0.923469  0.478793  0.236745  1
  O  O9  1  0.575774  0.979031  0.261918  1
  O  O10  1  0.076528  0.521212  0.763254  1
  O  O11  1  0.424225  0.020971  0.738084  1
  O  O12  1  0.200841  0.774596  0.041421  1
  O  O13  1  0.301796  0.275015  0.457971  1
  O  O14  1  0.799164  0.225402  0.958578  1
  O  O15  1  0.698204  0.724982  0.542024  1
  O  O16  1  0.274142  0.297019  0.038631  1
  O  O17  1  0.225459  0.799519  0.460647  1
  O  O18  1  0.725862  0.702986  0.961370  1
  O  O19  1  0.774545  0.200482  0.539354  1
