# generated using pymatgen
data_Er5(SiB4)2
_symmetry_space_group_name_H-M   'P 1'
_cell_length_a   7.18311800
_cell_length_b   7.18311800
_cell_length_c   8.00342600
_cell_angle_alpha   90.00000000
_cell_angle_beta   90.00000000
_cell_angle_gamma   90.00000000
_symmetry_Int_Tables_number   1
_chemical_formula_structural   Er5(SiB4)2
_chemical_formula_sum   'Er10 Si4 B16'
_cell_volume   412.95424557
_cell_formula_units_Z   2
loop_
 _symmetry_equiv_pos_site_id
 _symmetry_equiv_pos_as_xyz
  1  'x, y, z'
loop_
 _atom_site_type_symbol
 _atom_site_label
 _atom_site_symmetry_multiplicity
 _atom_site_fract_x
 _atom_site_fract_y
 _atom_site_fract_z
 _atom_site_occupancy
  Er  Er0  1  0.680398  0.180398  0.224142  1
  Er  Er1  1  0.319602  0.819602  0.775858  1
  Er  Er2  1  0.319602  0.819602  0.224142  1
  Er  Er3  1  0.819602  0.680398  0.224142  1
  Er  Er4  1  0.819602  0.680398  0.775858  1
  Er  Er5  1  0.680398  0.180398  0.775858  1
  Er  Er6  1  0.180398  0.319602  0.775858  1
  Er  Er7  1  0.180398  0.319602  0.224142  1
  Er  Er8  1  0.000000  0.000000  0.500000  1
  Er  Er9  1  0.500000  0.500000  0.500000  1
  Si  Si10  1  0.115756  0.615756  0.500000  1
  Si  Si11  1  0.884244  0.384244  0.500000  1
  Si  Si12  1  0.384244  0.115756  0.500000  1
  Si  Si13  1  0.615756  0.884244  0.500000  1
  B  B14  1  0.172781  0.039206  0.000000  1
  B  B15  1  0.827219  0.960794  0.000000  1
  B  B16  1  0.960794  0.172781  0.000000  1
  B  B17  1  0.327219  0.539206  0.000000  1
  B  B18  1  0.039206  0.827219  0.000000  1
  B  B19  1  0.672781  0.460794  0.000000  1
  B  B20  1  0.539206  0.672781  0.000000  1
  B  B21  1  0.460794  0.327219  0.000000  1
  B  B22  1  0.089315  0.589315  0.000000  1
  B  B23  1  0.910685  0.410685  0.000000  1
  B  B24  1  0.410685  0.089315  0.000000  1
  B  B25  1  0.589315  0.910685  0.000000  1
  B  B26  1  0.000000  0.000000  0.164306  1
  B  B27  1  0.000000  0.000000  0.835694  1
  B  B28  1  0.500000  0.500000  0.835694  1
  B  B29  1  0.500000  0.500000  0.164306  1
