# generated using pymatgen
data_SrTm5(Si3Ru)8
_symmetry_space_group_name_H-M   'P 1'
_cell_length_a   10.12640576
_cell_length_b   10.12640681
_cell_length_c   8.13913925
_cell_angle_alpha   90.00658428
_cell_angle_beta   89.99341361
_cell_angle_gamma   132.55594210
_symmetry_Int_Tables_number   1
_chemical_formula_structural   SrTm5(Si3Ru)8
_chemical_formula_sum   'Sr1 Tm5 Si24 Ru8'
_cell_volume   614.79612152
_cell_formula_units_Z   1
loop_
 _symmetry_equiv_pos_site_id
 _symmetry_equiv_pos_as_xyz
  1  'x, y, z'
loop_
 _atom_site_type_symbol
 _atom_site_label
 _atom_site_symmetry_multiplicity
 _atom_site_fract_x
 _atom_site_fract_y
 _atom_site_fract_z
 _atom_site_occupancy
  Sr  Sr0  1  0.502130  0.002130  0.250000  1
  Tm  Tm1  1  0.000502  0.000286  0.000515  1
  Tm  Tm2  1  0.500286  0.500502  0.499485  1
  Tm  Tm3  1  0.003225  0.503225  0.250000  1
  Tm  Tm4  1  0.497046  0.997046  0.750000  1
  Tm  Tm5  1  0.999712  0.499712  0.750000  1
  Si  Si6  1  0.293153  0.703064  0.998271  1
  Si  Si7  1  0.797587  0.207196  0.502931  1
  Si  Si8  1  0.707196  0.297587  0.997069  1
  Si  Si9  1  0.203064  0.793153  0.501729  1
  Si  Si10  1  0.833278  0.832887  0.332761  1
  Si  Si11  1  0.168460  0.167384  0.666826  1
  Si  Si12  1  0.667384  0.668460  0.833174  1
  Si  Si13  1  0.332887  0.333278  0.167239  1
  Si  Si14  1  0.626891  0.393057  0.229239  1
  Si  Si15  1  0.609509  0.376845  0.771317  1
  Si  Si16  1  0.111797  0.879296  0.727651  1
  Si  Si17  1  0.116667  0.882837  0.271829  1
  Si  Si18  1  0.379296  0.611797  0.772349  1
  Si  Si19  1  0.382837  0.616667  0.228171  1
  Si  Si20  1  0.893057  0.126891  0.270761  1
  Si  Si21  1  0.876845  0.109509  0.728683  1
  Si  Si22  1  0.843986  0.612312  0.006214  1
  Si  Si23  1  0.387273  0.153029  0.990126  1
  Si  Si24  1  0.888364  0.656359  0.503974  1
  Si  Si25  1  0.345018  0.112108  0.500837  1
  Si  Si26  1  0.156359  0.388364  0.996026  1
  Si  Si27  1  0.612108  0.845018  0.999163  1
  Si  Si28  1  0.112312  0.343986  0.493786  1
  Si  Si29  1  0.653029  0.887273  0.509874  1
  Ru  Ru30  1  0.164378  0.826446  0.996117  1
  Ru  Ru31  1  0.673275  0.334513  0.503576  1
  Ru  Ru32  1  0.834513  0.173275  0.996424  1
  Ru  Ru33  1  0.326446  0.664378  0.503883  1
  Ru  Ru34  1  0.626337  0.627103  0.127636  1
  Ru  Ru35  1  0.373697  0.372999  0.873178  1
  Ru  Ru36  1  0.872999  0.873697  0.626822  1
  Ru  Ru37  1  0.127103  0.126337  0.372364  1
