# generated using pymatgen
data_HoSc9AlSb5
_symmetry_space_group_name_H-M   'P 1'
_cell_length_a   8.49113951
_cell_length_b   8.50111651
_cell_length_c   6.00461800
_cell_angle_alpha   90.00000000
_cell_angle_beta   90.00000000
_cell_angle_gamma   120.38231904
_symmetry_Int_Tables_number   1
_chemical_formula_structural   HoSc9AlSb5
_chemical_formula_sum   'Ho1 Sc9 Al1 Sb5'
_cell_volume   373.91416326
_cell_formula_units_Z   1
loop_
 _symmetry_equiv_pos_site_id
 _symmetry_equiv_pos_as_xyz
  1  'x, y, z'
loop_
 _atom_site_type_symbol
 _atom_site_label
 _atom_site_symmetry_multiplicity
 _atom_site_fract_x
 _atom_site_fract_y
 _atom_site_fract_z
 _atom_site_occupancy
  Ho  Ho0  1  0.241225  0.231892  0.750000  1
  Sc  Sc1  1  0.334844  0.672825  0.997893  1
  Sc  Sc2  1  0.661926  0.327446  0.501554  1
  Sc  Sc3  1  0.661926  0.327446  0.998446  1
  Sc  Sc4  1  0.334844  0.672825  0.502107  1
  Sc  Sc5  1  0.752204  0.000394  0.750000  1
  Sc  Sc6  1  0.757203  0.758449  0.250000  1
  Sc  Sc7  1  0.997955  0.243935  0.250000  1
  Sc  Sc8  1  0.010602  0.762951  0.750000  1
  Sc  Sc9  1  0.242428  0.999303  0.250000  1
  Al  Al10  1  0.398992  0.995696  0.750000  1
  Sb  Sb11  1  0.389331  0.391993  0.250000  1
  Sb  Sb12  1  0.997102  0.609065  0.250000  1
  Sb  Sb13  1  0.996956  0.391673  0.750000  1
  Sb  Sb14  1  0.616000  0.614286  0.750000  1
  Sb  Sb15  1  0.606462  0.999819  0.250000  1
