# generated using pymatgen
data_Pr2DyEr5(CdPt)2
_symmetry_space_group_name_H-M   'P 1'
_cell_length_a   9.72967671
_cell_length_b   9.71054574
_cell_length_c   9.71054454
_cell_angle_alpha   60.13038430
_cell_angle_beta   59.93480501
_cell_angle_gamma   59.93480588
_symmetry_Int_Tables_number   1
_chemical_formula_structural   Pr2DyEr5(CdPt)2
_chemical_formula_sum   'Pr4 Dy2 Er10 Cd4 Pt4'
_cell_volume   648.73486823
_cell_formula_units_Z   2
loop_
 _symmetry_equiv_pos_site_id
 _symmetry_equiv_pos_as_xyz
  1  'x, y, z'
loop_
 _atom_site_type_symbol
 _atom_site_label
 _atom_site_symmetry_multiplicity
 _atom_site_fract_x
 _atom_site_fract_y
 _atom_site_fract_z
 _atom_site_occupancy
  Pr  Pr0  1  0.565288  0.934712  0.565288  1
  Pr  Pr1  1  0.934712  0.565288  0.934712  1
  Pr  Pr2  1  0.565288  0.565288  0.934712  1
  Pr  Pr3  1  0.934712  0.934712  0.565288  1
  Dy  Dy4  1  0.943503  0.556497  0.556497  1
  Dy  Dy5  1  0.556497  0.943503  0.943503  1
  Er  Er6  1  0.351882  0.349896  0.349896  1
  Er  Er7  1  0.349896  0.351882  0.948326  1
  Er  Er8  1  0.349896  0.948326  0.351882  1
  Er  Er9  1  0.948326  0.349896  0.349896  1
  Er  Er10  1  0.812048  0.187952  0.187952  1
  Er  Er11  1  0.187952  0.812048  0.812048  1
  Er  Er12  1  0.188720  0.811280  0.188720  1
  Er  Er13  1  0.811280  0.188720  0.811280  1
  Er  Er14  1  0.188720  0.188720  0.811280  1
  Er  Er15  1  0.811280  0.811280  0.188720  1
  Cd  Cd16  1  0.583523  0.578396  0.578396  1
  Cd  Cd17  1  0.578396  0.583523  0.259683  1
  Cd  Cd18  1  0.578396  0.259683  0.583523  1
  Cd  Cd19  1  0.259683  0.578396  0.578396  1
  Pt  Pt20  1  0.146293  0.140874  0.140874  1
  Pt  Pt21  1  0.140874  0.146293  0.571958  1
  Pt  Pt22  1  0.140874  0.571958  0.146293  1
  Pt  Pt23  1  0.571958  0.140874  0.140874  1
