# generated using pymatgen
data_Pr7Th(CdIr)2
_symmetry_space_group_name_H-M   'P 1'
_cell_length_a   10.05138662
_cell_length_b   10.05138646
_cell_length_c   10.08085200
_cell_angle_alpha   59.90297303
_cell_angle_beta   59.90297356
_cell_angle_gamma   60.02743309
_symmetry_Int_Tables_number   1
_chemical_formula_structural   Pr7Th(CdIr)2
_chemical_formula_sum   'Pr14 Th2 Cd4 Ir4'
_cell_volume   719.25916980
_cell_formula_units_Z   2
loop_
 _symmetry_equiv_pos_site_id
 _symmetry_equiv_pos_as_xyz
  1  'x, y, z'
loop_
 _atom_site_type_symbol
 _atom_site_label
 _atom_site_symmetry_multiplicity
 _atom_site_fract_x
 _atom_site_fract_y
 _atom_site_fract_z
 _atom_site_occupancy
  Pr  Pr0  1  0.349510  0.951560  0.349465  1
  Pr  Pr1  1  0.951560  0.349510  0.349465  1
  Pr  Pr2  1  0.810122  0.190290  0.190545  1
  Pr  Pr3  1  0.190290  0.810122  0.809043  1
  Pr  Pr4  1  0.190290  0.810122  0.190545  1
  Pr  Pr5  1  0.810122  0.190290  0.809043  1
  Pr  Pr6  1  0.190291  0.190291  0.809709  1
  Pr  Pr7  1  0.808752  0.808752  0.191248  1
  Pr  Pr8  1  0.941471  0.560597  0.562321  1
  Pr  Pr9  1  0.560597  0.941471  0.935610  1
  Pr  Pr10  1  0.560597  0.941471  0.562321  1
  Pr  Pr11  1  0.941471  0.560597  0.935610  1
  Pr  Pr12  1  0.561477  0.561477  0.938523  1
  Pr  Pr13  1  0.938815  0.938815  0.561185  1
  Th  Th14  1  0.344427  0.344427  0.346054  1
  Th  Th15  1  0.344427  0.344427  0.965092  1
  Cd  Cd16  1  0.578731  0.578731  0.581949  1
  Cd  Cd17  1  0.578731  0.578731  0.260589  1
  Cd  Cd18  1  0.578203  0.259388  0.581204  1
  Cd  Cd19  1  0.259388  0.578203  0.581204  1
  Ir  Ir20  1  0.146607  0.146607  0.137429  1
  Ir  Ir21  1  0.146607  0.146607  0.569357  1
  Ir  Ir22  1  0.151430  0.566080  0.141245  1
  Ir  Ir23  1  0.566080  0.151430  0.141245  1
