# generated using pymatgen
data_TbCeAlZnIr2
_symmetry_space_group_name_H-M   'P 1'
_cell_length_a   6.97200900
_cell_length_b   4.13394800
_cell_length_c   8.12816800
_cell_angle_alpha   90.00000000
_cell_angle_beta   90.00000000
_cell_angle_gamma   90.00000000
_symmetry_Int_Tables_number   1
_chemical_formula_structural   TbCeAlZnIr2
_chemical_formula_sum   'Tb2 Ce2 Al2 Zn2 Ir4'
_cell_volume   234.26942948
_cell_formula_units_Z   2
loop_
 _symmetry_equiv_pos_site_id
 _symmetry_equiv_pos_as_xyz
  1  'x, y, z'
loop_
 _atom_site_type_symbol
 _atom_site_label
 _atom_site_symmetry_multiplicity
 _atom_site_fract_x
 _atom_site_fract_y
 _atom_site_fract_z
 _atom_site_occupancy
  Tb  Tb0  1  0.040669  0.750000  0.814099  1
  Tb  Tb1  1  0.540669  0.750000  0.685901  1
  Ce  Ce2  1  0.966320  0.250000  0.182377  1
  Ce  Ce3  1  0.466320  0.250000  0.317623  1
  Al  Al4  1  0.132919  0.750000  0.443172  1
  Al  Al5  1  0.632919  0.750000  0.056828  1
  Zn  Zn6  1  0.858797  0.250000  0.569284  1
  Zn  Zn7  1  0.358797  0.250000  0.930716  1
  Ir  Ir8  1  0.742583  0.250000  0.892685  1
  Ir  Ir9  1  0.242583  0.250000  0.607315  1
  Ir  Ir10  1  0.258713  0.750000  0.134754  1
  Ir  Ir11  1  0.758713  0.750000  0.365246  1
