# generated using pymatgen
data_Cs5Re3S7
_symmetry_space_group_name_H-M   'P 1'
_cell_length_a   11.10521278
_cell_length_b   11.10521285
_cell_length_c   11.30127133
_cell_angle_alpha   59.45511695
_cell_angle_beta   59.45511754
_cell_angle_gamma   59.88712179
_symmetry_Int_Tables_number   1
_chemical_formula_structural   Cs5Re3S7
_chemical_formula_sum   'Cs10 Re6 S14'
_cell_volume   976.50417141
_cell_formula_units_Z   2
loop_
 _symmetry_equiv_pos_site_id
 _symmetry_equiv_pos_as_xyz
  1  'x, y, z'
loop_
 _atom_site_type_symbol
 _atom_site_label
 _atom_site_symmetry_multiplicity
 _atom_site_fract_x
 _atom_site_fract_y
 _atom_site_fract_z
 _atom_site_occupancy
  Cs  Cs0  1  0.009544  0.009544  0.990165  1
  Cs  Cs1  1  0.423472  0.985232  0.001869  1
  Cs  Cs2  1  0.412424  0.995270  0.586933  1
  Cs  Cs3  1  0.852479  0.852479  0.854368  1
  Cs  Cs4  1  0.836158  0.836158  0.435297  1
  Cs  Cs5  1  0.995270  0.412424  0.586933  1
  Cs  Cs6  1  0.034776  0.034776  0.434416  1
  Cs  Cs7  1  0.985232  0.423472  0.001869  1
  Cs  Cs8  1  0.185544  0.573543  0.120185  1
  Cs  Cs9  1  0.573543  0.185544  0.120185  1
  Re  Re10  1  0.378808  0.619804  0.617712  1
  Re  Re11  1  0.378655  0.378655  0.621622  1
  Re  Re12  1  0.377359  0.619263  0.383943  1
  Re  Re13  1  0.619804  0.378808  0.617712  1
  Re  Re14  1  0.619887  0.619887  0.377840  1
  Re  Re15  1  0.619263  0.377359  0.383943  1
  S  S16  1  0.220919  0.220919  0.782050  1
  S  S17  1  0.212434  0.777767  0.770370  1
  S  S18  1  0.389726  0.389726  0.825806  1
  S  S19  1  0.168010  0.608200  0.612058  1
  S  S20  1  0.609294  0.609294  0.605231  1
  S  S21  1  0.205000  0.780839  0.243984  1
  S  S22  1  0.388899  0.388899  0.395024  1
  S  S23  1  0.395056  0.829587  0.387241  1
  S  S24  1  0.608200  0.168010  0.612058  1
  S  S25  1  0.777767  0.212434  0.770370  1
  S  S26  1  0.829587  0.395056  0.387241  1
  S  S27  1  0.606708  0.606708  0.175396  1
  S  S28  1  0.780145  0.780145  0.208998  1
  S  S29  1  0.780839  0.205000  0.243984  1
