# generated using pymatgen
data_Dy6Tm10Cd4Ir3Ru
_symmetry_space_group_name_H-M   'P 1'
_cell_length_a   9.57137544
_cell_length_b   9.57137595
_cell_length_c   9.57137579
_cell_angle_alpha   59.72012731
_cell_angle_beta   59.72012343
_cell_angle_gamma   59.72012821
_symmetry_Int_Tables_number   1
_chemical_formula_structural   Dy6Tm10Cd4Ir3Ru
_chemical_formula_sum   'Dy6 Tm10 Cd4 Ir3 Ru1'
_cell_volume   616.08223693
_cell_formula_units_Z   1
loop_
 _symmetry_equiv_pos_site_id
 _symmetry_equiv_pos_as_xyz
  1  'x, y, z'
loop_
 _atom_site_type_symbol
 _atom_site_label
 _atom_site_symmetry_multiplicity
 _atom_site_fract_x
 _atom_site_fract_y
 _atom_site_fract_z
 _atom_site_occupancy
  Dy  Dy0  1  0.190055  0.810553  0.810553  1
  Dy  Dy1  1  0.808955  0.189641  0.189641  1
  Dy  Dy2  1  0.810553  0.190055  0.810553  1
  Dy  Dy3  1  0.189641  0.808955  0.189641  1
  Dy  Dy4  1  0.810553  0.810553  0.190055  1
  Dy  Dy5  1  0.189641  0.189641  0.808955  1
  Tm  Tm6  1  0.598160  0.598160  0.598160  1
  Tm  Tm7  1  0.598581  0.598581  0.205721  1
  Tm  Tm8  1  0.598581  0.205721  0.598581  1
  Tm  Tm9  1  0.205721  0.598581  0.598581  1
  Tm  Tm10  1  0.062250  0.437922  0.437922  1
  Tm  Tm11  1  0.437442  0.061269  0.061269  1
  Tm  Tm12  1  0.437922  0.062250  0.437922  1
  Tm  Tm13  1  0.061269  0.437442  0.061269  1
  Tm  Tm14  1  0.437922  0.437922  0.062250  1
  Tm  Tm15  1  0.061269  0.061269  0.437442  1
  Cd  Cd16  1  0.830026  0.830026  0.830026  1
  Cd  Cd17  1  0.830680  0.830680  0.507236  1
  Cd  Cd18  1  0.830680  0.507236  0.830680  1
  Cd  Cd19  1  0.507236  0.830680  0.830680  1
  Ir  Ir20  1  0.392869  0.392869  0.825943  1
  Ir  Ir21  1  0.392869  0.825943  0.392869  1
  Ir  Ir22  1  0.825943  0.392869  0.392869  1
  Ru  Ru23  1  0.391182  0.391182  0.391182  1
