# generated using pymatgen
data_Na2Ni11P7Ru
_symmetry_space_group_name_H-M   'P 1'
_cell_length_a   9.04765032
_cell_length_b   9.12727143
_cell_length_c   3.60788100
_cell_angle_alpha   90.00000000
_cell_angle_beta   90.00000000
_cell_angle_gamma   119.98162060
_symmetry_Int_Tables_number   1
_chemical_formula_structural   Na2Ni11P7Ru
_chemical_formula_sum   'Na2 Ni11 P7 Ru1'
_cell_volume   258.07147978
_cell_formula_units_Z   1
loop_
 _symmetry_equiv_pos_site_id
 _symmetry_equiv_pos_as_xyz
  1  'x, y, z'
loop_
 _atom_site_type_symbol
 _atom_site_label
 _atom_site_symmetry_multiplicity
 _atom_site_fract_x
 _atom_site_fract_y
 _atom_site_fract_z
 _atom_site_occupancy
  Na  Na0  1  0.665830  0.332477  0.500000  1
  Na  Na1  1  0.334794  0.666102  0.000000  1
  Ni  Ni2  1  0.727290  0.882283  0.000000  1
  Ni  Ni3  1  0.940305  0.376737  0.000000  1
  Ni  Ni4  1  0.903982  0.128259  0.500000  1
  Ni  Ni5  1  0.156112  0.280899  0.000000  1
  Ni  Ni6  1  0.384840  0.436104  0.500000  1
  Ni  Ni7  1  0.118680  0.836218  0.000000  1
  Ni  Ni8  1  0.435639  0.059690  0.000000  1
  Ni  Ni9  1  0.050318  0.617345  0.500000  1
  Ni  Ni10  1  0.568895  0.950971  0.500000  1
  Ni  Ni11  1  0.625448  0.567342  0.000000  1
  Ni  Ni12  1  0.872938  0.776396  0.500000  1
  P  P13  1  0.410972  0.294561  0.000000  1
  P  P14  1  0.294778  0.884158  0.500000  1
  P  P15  1  0.709381  0.119214  0.000000  1
  P  P16  1  0.594366  0.707679  0.500000  1
  P  P17  1  0.880269  0.586841  0.000000  1
  P  P18  1  0.113898  0.407187  0.500000  1
  P  P19  1  0.002900  0.001819  0.000000  1
  Ru  Ru20  1  0.208366  0.087717  0.500000  1
