# generated using pymatgen
data_Zr6Zn21SiNi2
_symmetry_space_group_name_H-M   'P 1'
_cell_length_a   8.78110165
_cell_length_b   8.71413832
_cell_length_c   8.71413920
_cell_angle_alpha   59.75287675
_cell_angle_beta   59.74547345
_cell_angle_gamma   59.74547354
_symmetry_Int_Tables_number   1
_chemical_formula_structural   Zr6Zn21SiNi2
_chemical_formula_sum   'Zr6 Zn21 Si1 Ni2'
_cell_volume   468.80257693
_cell_formula_units_Z   1
loop_
 _symmetry_equiv_pos_site_id
 _symmetry_equiv_pos_as_xyz
  1  'x, y, z'
loop_
 _atom_site_type_symbol
 _atom_site_label
 _atom_site_symmetry_multiplicity
 _atom_site_fract_x
 _atom_site_fract_y
 _atom_site_fract_z
 _atom_site_occupancy
  Zr  Zr0  1  0.712983  0.287017  0.287017  1
  Zr  Zr1  1  0.287017  0.712983  0.712983  1
  Zr  Zr2  1  0.288912  0.708647  0.291353  1
  Zr  Zr3  1  0.711088  0.291353  0.708647  1
  Zr  Zr4  1  0.288912  0.291353  0.708647  1
  Zr  Zr5  1  0.711088  0.708647  0.291353  1
  Zn  Zn6  1  0.118221  0.118552  0.118552  1
  Zn  Zn7  1  0.881779  0.881448  0.881448  1
  Zn  Zn8  1  0.115161  0.129213  0.640466  1
  Zn  Zn9  1  0.115161  0.640466  0.129213  1
  Zn  Zn10  1  0.884839  0.870787  0.359534  1
  Zn  Zn11  1  0.884839  0.359534  0.870787  1
  Zn  Zn12  1  0.644677  0.118552  0.118552  1
  Zn  Zn13  1  0.355323  0.881448  0.881448  1
  Zn  Zn14  1  0.500000  0.000000  0.000000  1
  Zn  Zn15  1  0.000000  0.500000  0.000000  1
  Zn  Zn16  1  0.500000  0.000000  0.500000  1
  Zn  Zn17  1  0.000000  0.000000  0.500000  1
  Zn  Zn18  1  0.500000  0.500000  0.000000  1
  Zn  Zn19  1  0.328124  0.340100  0.340100  1
  Zn  Zn20  1  0.671876  0.659900  0.659900  1
  Zn  Zn21  1  0.336689  0.337023  0.989600  1
  Zn  Zn22  1  0.336689  0.989600  0.337023  1
  Zn  Zn23  1  0.663311  0.662977  0.010400  1
  Zn  Zn24  1  0.663311  0.010400  0.662977  1
  Zn  Zn25  1  0.991677  0.340100  0.340100  1
  Zn  Zn26  1  0.008323  0.659900  0.659900  1
  Si  Si27  1  0.500000  0.500000  0.500000  1
  Ni  Ni28  1  0.000000  0.500000  0.500000  1
  Ni  Ni29  1  0.000000  0.000000  0.000000  1
