# generated using pymatgen
data_Mg3Ga2PRu3
_symmetry_space_group_name_H-M   'P 1'
_cell_length_a   7.01315400
_cell_length_b   7.01315305
_cell_length_c   3.21169600
_cell_angle_alpha   90.00000000
_cell_angle_beta   90.00000000
_cell_angle_gamma   119.99999507
_symmetry_Int_Tables_number   1
_chemical_formula_structural   Mg3Ga2PRu3
_chemical_formula_sum   'Mg3 Ga2 P1 Ru3'
_cell_volume   136.80178878
_cell_formula_units_Z   1
loop_
 _symmetry_equiv_pos_site_id
 _symmetry_equiv_pos_as_xyz
  1  'x, y, z'
loop_
 _atom_site_type_symbol
 _atom_site_label
 _atom_site_symmetry_multiplicity
 _atom_site_fract_x
 _atom_site_fract_y
 _atom_site_fract_z
 _atom_site_occupancy
  Mg  Mg0  1  0.385779  0.385779  0.500000  1
  Mg  Mg1  1  0.614221  0.000000  0.500000  1
  Mg  Mg2  1  0.000000  0.614221  0.500000  1
  Ga  Ga3  1  0.666667  0.333333  0.000000  1
  Ga  Ga4  1  0.333333  0.666667  0.000000  1
  P  P5  1  0.000000  0.000000  0.500000  1
  Ru  Ru6  1  0.000000  0.252695  0.000000  1
  Ru  Ru7  1  0.252695  0.000000  0.000000  1
  Ru  Ru8  1  0.747305  0.747305  0.000000  1
