# generated using pymatgen
data_K4Mn9PdO20
_symmetry_space_group_name_H-M   'P 1'
_cell_length_a   7.90196797
_cell_length_b   5.16529842
_cell_length_c   12.98721500
_cell_angle_alpha   86.73828040
_cell_angle_beta   83.46505847
_cell_angle_gamma   69.60016950
_symmetry_Int_Tables_number   1
_chemical_formula_structural   K4Mn9PdO20
_chemical_formula_sum   'K4 Mn9 Pd1 O20'
_cell_volume   493.52841002
_cell_formula_units_Z   1
loop_
 _symmetry_equiv_pos_site_id
 _symmetry_equiv_pos_as_xyz
  1  'x, y, z'
loop_
 _atom_site_type_symbol
 _atom_site_label
 _atom_site_symmetry_multiplicity
 _atom_site_fract_x
 _atom_site_fract_y
 _atom_site_fract_z
 _atom_site_occupancy
  K  K0  1  0.055160  0.717553  0.502148  1
  K  K1  1  0.550063  0.473102  0.498275  1
  K  K2  1  0.556249  0.215734  0.999976  1
  K  K3  1  0.050286  0.981646  0.997391  1
  Mn  Mn4  1  0.049438  0.350066  0.749774  1
  Mn  Mn5  1  0.350773  0.446365  0.253709  1
  Mn  Mn6  1  0.255162  0.749653  0.746564  1
  Mn  Mn7  1  0.451198  0.153343  0.745100  1
  Mn  Mn8  1  0.550963  0.846728  0.249701  1
  Mn  Mn9  1  0.751067  0.249634  0.246133  1
  Mn  Mn10  1  0.646287  0.550029  0.754613  1
  Mn  Mn11  1  0.949355  0.653293  0.244808  1
  Mn  Mn12  1  0.848522  0.949667  0.754270  1
  Pd  Pd13  1  0.146597  0.047995  0.253124  1
  O  O14  1  0.055916  0.013304  0.673919  1
  O  O15  1  0.134275  0.389182  0.328448  1
  O  O16  1  0.172049  0.708873  0.172363  1
  O  O17  1  0.041942  0.687306  0.826521  1
  O  O18  1  0.237668  0.081632  0.820611  1
  O  O19  1  0.366723  0.121170  0.174669  1
  O  O20  1  0.280153  0.437092  0.666188  1
  O  O21  1  0.324884  0.752114  0.338750  1
  O  O22  1  0.541149  0.184622  0.326784  1
  O  O23  1  0.433337  0.516488  0.832016  1
  O  O24  1  0.555523  0.511694  0.172995  1
  O  O25  1  0.469404  0.788560  0.668361  1
  O  O26  1  0.669652  0.223595  0.676471  1
  O  O27  1  0.735141  0.578117  0.321615  1
  O  O28  1  0.779317  0.935102  0.165324  1
  O  O29  1  0.635658  0.878116  0.826633  1
  O  O30  1  0.957497  0.302208  0.164754  1
  O  O31  1  0.816553  0.266601  0.836069  1
  O  O32  1  0.858617  0.620587  0.678071  1
  O  O33  1  0.922621  0.010860  0.333574  1
