# generated using pymatgen
data_Er2Tm3GePb3
_symmetry_space_group_name_H-M   'P 1'
_cell_length_a   9.24773600
_cell_length_b   9.25277226
_cell_length_c   6.46736200
_cell_angle_alpha   90.00000000
_cell_angle_beta   90.00000000
_cell_angle_gamma   119.98201070
_symmetry_Int_Tables_number   1
_chemical_formula_structural   Er2Tm3GePb3
_chemical_formula_sum   'Er4 Tm6 Ge2 Pb6'
_cell_volume   479.34013690
_cell_formula_units_Z   2
loop_
 _symmetry_equiv_pos_site_id
 _symmetry_equiv_pos_as_xyz
  1  'x, y, z'
loop_
 _atom_site_type_symbol
 _atom_site_label
 _atom_site_symmetry_multiplicity
 _atom_site_fract_x
 _atom_site_fract_y
 _atom_site_fract_z
 _atom_site_occupancy
  Er  Er0  1  0.999998  0.251671  0.250000  1
  Er  Er1  1  0.000002  0.748329  0.750000  1
  Er  Er2  1  0.748327  0.748329  0.250000  1
  Er  Er3  1  0.251673  0.251671  0.750000  1
  Tm  Tm4  1  0.251357  0.000000  0.250000  1
  Tm  Tm5  1  0.748643  0.000000  0.750000  1
  Tm  Tm6  1  0.333359  0.666720  0.000000  1
  Tm  Tm7  1  0.666641  0.333280  0.000000  1
  Tm  Tm8  1  0.666641  0.333280  0.500000  1
  Tm  Tm9  1  0.333359  0.666720  0.500000  1
  Ge  Ge10  1  0.000000  0.000000  0.000000  1
  Ge  Ge11  1  0.000000  0.000000  0.500000  1
  Pb  Pb12  1  0.606903  0.000000  0.250000  1
  Pb  Pb13  1  0.393097  0.000000  0.750000  1
  Pb  Pb14  1  0.000145  0.607335  0.250000  1
  Pb  Pb15  1  0.999855  0.392665  0.750000  1
  Pb  Pb16  1  0.392810  0.392665  0.250000  1
  Pb  Pb17  1  0.607190  0.607335  0.750000  1
