# generated using pymatgen
data_LaNd15Cd4(OsPt)2
_symmetry_space_group_name_H-M   'P 1'
_cell_length_a   10.01671847
_cell_length_b   10.01671731
_cell_length_c   10.09551914
_cell_angle_alpha   59.66556448
_cell_angle_beta   59.66556663
_cell_angle_gamma   59.73145512
_symmetry_Int_Tables_number   1
_chemical_formula_structural   LaNd15Cd4(OsPt)2
_chemical_formula_sum   'La1 Nd15 Cd4 Os2 Pt2'
_cell_volume   711.16506212
_cell_formula_units_Z   1
loop_
 _symmetry_equiv_pos_site_id
 _symmetry_equiv_pos_as_xyz
  1  'x, y, z'
loop_
 _atom_site_type_symbol
 _atom_site_label
 _atom_site_symmetry_multiplicity
 _atom_site_fract_x
 _atom_site_fract_y
 _atom_site_fract_z
 _atom_site_occupancy
  La  La0  1  0.346526  0.346526  0.354464  1
  Nd  Nd1  1  0.348522  0.348522  0.949100  1
  Nd  Nd2  1  0.344701  0.955945  0.348938  1
  Nd  Nd3  1  0.955945  0.344701  0.348938  1
  Nd  Nd4  1  0.814678  0.188904  0.191354  1
  Nd  Nd5  1  0.189110  0.815229  0.804633  1
  Nd  Nd6  1  0.188904  0.814678  0.191354  1
  Nd  Nd7  1  0.815229  0.189110  0.804633  1
  Nd  Nd8  1  0.188882  0.188882  0.812011  1
  Nd  Nd9  1  0.806710  0.806710  0.193581  1
  Nd  Nd10  1  0.937323  0.556801  0.566320  1
  Nd  Nd11  1  0.556233  0.938434  0.939770  1
  Nd  Nd12  1  0.556801  0.937323  0.566320  1
  Nd  Nd13  1  0.938434  0.556233  0.939770  1
  Nd  Nd14  1  0.562818  0.562818  0.936949  1
  Nd  Nd15  1  0.939037  0.939037  0.560857  1
  Cd  Cd16  1  0.579786  0.579786  0.580059  1
  Cd  Cd17  1  0.580490  0.580490  0.260074  1
  Cd  Cd18  1  0.581133  0.258677  0.581218  1
  Cd  Cd19  1  0.258677  0.581133  0.581218  1
  Os  Os20  1  0.144096  0.144096  0.136716  1
  Os  Os21  1  0.144990  0.144990  0.574486  1
  Pt  Pt22  1  0.145753  0.575221  0.138621  1
  Pt  Pt23  1  0.575221  0.145753  0.138621  1
