# generated using pymatgen
data_La6MgOsO14
_symmetry_space_group_name_H-M   'P 1'
_cell_length_a   6.80257557
_cell_length_b   6.80257540
_cell_length_c   7.76112610
_cell_angle_alpha   89.87475562
_cell_angle_beta   89.87475075
_cell_angle_gamma   112.66522856
_symmetry_Int_Tables_number   1
_chemical_formula_structural   La6MgOsO14
_chemical_formula_sum   'La6 Mg1 Os1 O14'
_cell_volume   331.40767790
_cell_formula_units_Z   1
loop_
 _symmetry_equiv_pos_site_id
 _symmetry_equiv_pos_as_xyz
  1  'x, y, z'
loop_
 _atom_site_type_symbol
 _atom_site_label
 _atom_site_symmetry_multiplicity
 _atom_site_fract_x
 _atom_site_fract_y
 _atom_site_fract_z
 _atom_site_occupancy
  La  La0  1  0.500000  0.500000  0.000000  1
  La  La1  1  0.500000  0.500000  0.500000  1
  La  La2  1  0.413457  0.965765  0.773345  1
  La  La3  1  0.586543  0.034235  0.226655  1
  La  La4  1  0.965765  0.413457  0.773345  1
  La  La5  1  0.034235  0.586543  0.226655  1
  Mg  Mg6  1  0.000000  0.000000  0.000000  1
  Os  Os7  1  0.000000  0.000000  0.500000  1
  O  O8  1  0.597574  0.337872  0.741354  1
  O  O9  1  0.402426  0.662128  0.258646  1
  O  O10  1  0.337872  0.597574  0.741354  1
  O  O11  1  0.662128  0.402426  0.258646  1
  O  O12  1  0.329250  0.067319  0.040564  1
  O  O13  1  0.708800  0.945160  0.538661  1
  O  O14  1  0.054840  0.291200  0.461339  1
  O  O15  1  0.932681  0.670750  0.959436  1
  O  O16  1  0.938341  0.938341  0.265945  1
  O  O17  1  0.061659  0.061659  0.734055  1
  O  O18  1  0.067319  0.329250  0.040564  1
  O  O19  1  0.945160  0.708800  0.538661  1
  O  O20  1  0.291200  0.054840  0.461339  1
  O  O21  1  0.670750  0.932681  0.959436  1
