# generated using pymatgen
data_HoTmAl2(Fe3B)2
_symmetry_space_group_name_H-M   'P 1'
_cell_length_a   5.16395700
_cell_length_b   5.16524983
_cell_length_c   6.84613400
_cell_angle_alpha   90.00000000
_cell_angle_beta   90.00000000
_cell_angle_gamma   119.99171431
_symmetry_Int_Tables_number   1
_chemical_formula_structural   HoTmAl2(Fe3B)2
_chemical_formula_sum   'Ho1 Tm1 Al2 Fe6 B2'
_cell_volume   158.15620311
_cell_formula_units_Z   1
loop_
 _symmetry_equiv_pos_site_id
 _symmetry_equiv_pos_as_xyz
  1  'x, y, z'
loop_
 _atom_site_type_symbol
 _atom_site_label
 _atom_site_symmetry_multiplicity
 _atom_site_fract_x
 _atom_site_fract_y
 _atom_site_fract_z
 _atom_site_occupancy
  Ho  Ho0  1  0.999984  0.000000  0.000000  1
  Tm  Tm1  1  0.999990  0.000000  0.500000  1
  Al  Al2  1  0.333283  0.666600  0.000000  1
  Al  Al3  1  0.666683  0.333400  0.000000  1
  Fe  Fe4  1  0.499984  0.000000  0.294578  1
  Fe  Fe5  1  0.499982  0.500000  0.294632  1
  Fe  Fe6  1  0.999982  0.500000  0.294632  1
  Fe  Fe7  1  0.499984  0.000000  0.705422  1
  Fe  Fe8  1  0.499982  0.500000  0.705368  1
  Fe  Fe9  1  0.999982  0.500000  0.705368  1
  B  B10  1  0.333304  0.666640  0.500000  1
  B  B11  1  0.666663  0.333360  0.500000  1
