# generated using pymatgen
data_CsRb2AgF7
_symmetry_space_group_name_H-M   'P 1'
_cell_length_a   8.45757000
_cell_length_b   8.45757000
_cell_length_c   6.19420900
_cell_angle_alpha   90.00000000
_cell_angle_beta   90.00000000
_cell_angle_gamma   90.00000000
_symmetry_Int_Tables_number   1
_chemical_formula_structural   CsRb2AgF7
_chemical_formula_sum   'Cs2 Rb4 Ag2 F14'
_cell_volume   443.07480682
_cell_formula_units_Z   2
loop_
 _symmetry_equiv_pos_site_id
 _symmetry_equiv_pos_as_xyz
  1  'x, y, z'
loop_
 _atom_site_type_symbol
 _atom_site_label
 _atom_site_symmetry_multiplicity
 _atom_site_fract_x
 _atom_site_fract_y
 _atom_site_fract_z
 _atom_site_occupancy
  Cs  Cs0  1  0.500000  0.500000  0.000000  1
  Cs  Cs1  1  0.000000  0.000000  0.000000  1
  Rb  Rb2  1  0.185306  0.685306  0.500000  1
  Rb  Rb3  1  0.814694  0.314694  0.500000  1
  Rb  Rb4  1  0.685306  0.814694  0.500000  1
  Rb  Rb5  1  0.314694  0.185306  0.500000  1
  Ag  Ag6  1  0.000000  0.500000  0.000000  1
  Ag  Ag7  1  0.500000  0.000000  0.000000  1
  F  F8  1  0.381148  0.881148  0.756216  1
  F  F9  1  0.618852  0.118852  0.756216  1
  F  F10  1  0.118852  0.381148  0.756216  1
  F  F11  1  0.881148  0.618852  0.756216  1
  F  F12  1  0.381148  0.881148  0.243784  1
  F  F13  1  0.881148  0.618852  0.243784  1
  F  F14  1  0.118852  0.381148  0.243784  1
  F  F15  1  0.618852  0.118852  0.243784  1
  F  F16  1  0.000000  0.000000  0.500000  1
  F  F17  1  0.500000  0.500000  0.500000  1
  F  F18  1  0.836048  0.336048  0.000000  1
  F  F19  1  0.336048  0.163952  0.000000  1
  F  F20  1  0.663952  0.836048  0.000000  1
  F  F21  1  0.163952  0.663952  0.000000  1
