# generated using pymatgen
data_Tb3Y4CoSn23Os5
_symmetry_space_group_name_H-M   'P 1'
_cell_length_a   9.89707110
_cell_length_b   9.85355895
_cell_length_c   10.08334322
_cell_angle_alpha   90.04637791
_cell_angle_beta   90.01490475
_cell_angle_gamma   120.15308800
_symmetry_Int_Tables_number   1
_chemical_formula_structural   Tb3Y4CoSn23Os5
_chemical_formula_sum   'Tb3 Y4 Co1 Sn23 Os5'
_cell_volume   850.28144312
_cell_formula_units_Z   1
loop_
 _symmetry_equiv_pos_site_id
 _symmetry_equiv_pos_as_xyz
  1  'x, y, z'
loop_
 _atom_site_type_symbol
 _atom_site_label
 _atom_site_symmetry_multiplicity
 _atom_site_fract_x
 _atom_site_fract_y
 _atom_site_fract_z
 _atom_site_occupancy
  Tb  Tb0  1  0.005193  0.010515  0.993862  1
  Tb  Tb1  1  0.033117  0.515605  0.305239  1
  Tb  Tb2  1  0.482538  0.965037  0.304842  1
  Y  Y3  1  0.482442  0.515808  0.305547  1
  Y  Y4  1  0.967683  0.484261  0.696042  1
  Y  Y5  1  0.515843  0.031738  0.696043  1
  Y  Y6  1  0.516473  0.484293  0.696095  1
  Co  Co7  1  0.829759  0.659208  0.200162  1
  Sn  Sn8  1  0.999263  0.998652  0.498119  1
  Sn  Sn9  1  0.108963  0.879004  0.274484  1
  Sn  Sn10  1  0.770021  0.878873  0.274438  1
  Sn  Sn11  1  0.117596  0.234895  0.275061  1
  Sn  Sn12  1  0.883354  0.115360  0.719589  1
  Sn  Sn13  1  0.232048  0.115412  0.719580  1
  Sn  Sn14  1  0.881848  0.763750  0.725496  1
  Sn  Sn15  1  0.349483  0.000263  0.000098  1
  Sn  Sn16  1  0.656580  0.653017  0.005414  1
  Sn  Sn17  1  0.999135  0.351530  0.000258  1
  Sn  Sn18  1  0.352453  0.351439  0.000279  1
  Sn  Sn19  1  0.996505  0.653038  0.005349  1
  Sn  Sn20  1  0.650724  0.000140  0.000173  1
  Sn  Sn21  1  0.781484  0.562876  0.456304  1
  Sn  Sn22  1  0.778369  0.219465  0.462547  1
  Sn  Sn23  1  0.441052  0.219505  0.462418  1
  Sn  Sn24  1  0.220531  0.441468  0.538882  1
  Sn  Sn25  1  0.220853  0.780210  0.537969  1
  Sn  Sn26  1  0.559293  0.780297  0.537947  1
  Sn  Sn27  1  0.667436  0.334917  0.178210  1
  Sn  Sn28  1  0.333218  0.666459  0.824880  1
  Sn  Sn29  1  0.667050  0.334109  0.874834  1
  Sn  Sn30  1  0.332788  0.665399  0.126283  1
  Os  Os31  1  0.167973  0.828862  0.798960  1
  Os  Os32  1  0.660855  0.828813  0.798969  1
  Os  Os33  1  0.168808  0.337572  0.800141  1
  Os  Os34  1  0.830584  0.169126  0.202784  1
  Os  Os35  1  0.338683  0.169085  0.202699  1
