# generated using pymatgen
data_Ho3TmAlZn11
_symmetry_space_group_name_H-M   'P 1'
_cell_length_a   4.37034100
_cell_length_b   6.65755035
_cell_length_c   10.04406300
_cell_angle_alpha   89.92658249
_cell_angle_beta   90.00000000
_cell_angle_gamma   90.00000000
_symmetry_Int_Tables_number   1
_chemical_formula_structural   Ho3TmAlZn11
_chemical_formula_sum   'Ho3 Tm1 Al1 Zn11'
_cell_volume   292.23945957
_cell_formula_units_Z   1
loop_
 _symmetry_equiv_pos_site_id
 _symmetry_equiv_pos_as_xyz
  1  'x, y, z'
loop_
 _atom_site_type_symbol
 _atom_site_label
 _atom_site_symmetry_multiplicity
 _atom_site_fract_x
 _atom_site_fract_y
 _atom_site_fract_z
 _atom_site_occupancy
  Ho  Ho0  1  0.750000  0.718776  0.336742  1
  Ho  Ho1  1  0.250000  0.779858  0.834350  1
  Ho  Ho2  1  0.750000  0.217835  0.164646  1
  Tm  Tm3  1  0.250000  0.279928  0.660702  1
  Al  Al4  1  0.250000  0.537793  0.106068  1
  Zn  Zn5  1  0.750000  0.463499  0.895208  1
  Zn  Zn6  1  0.250000  0.036077  0.395398  1
  Zn  Zn7  1  0.750000  0.964754  0.604620  1
  Zn  Zn8  1  0.750000  0.282634  0.458614  1
  Zn  Zn9  1  0.250000  0.715535  0.543138  1
  Zn  Zn10  1  0.750000  0.782015  0.043144  1
  Zn  Zn11  1  0.250000  0.216846  0.955286  1
  Zn  Zn12  1  0.750000  0.580020  0.649187  1
  Zn  Zn13  1  0.250000  0.419154  0.354414  1
  Zn  Zn14  1  0.750000  0.082241  0.851080  1
  Zn  Zn15  1  0.250000  0.923035  0.147403  1
