# generated using pymatgen
data_La4In2IrPd3
_symmetry_space_group_name_H-M   'P 1'
_cell_length_a   7.88035000
_cell_length_b   7.88034931
_cell_length_c   3.99645200
_cell_angle_alpha   90.00000000
_cell_angle_beta   90.00000000
_cell_angle_gamma   90.27431061
_symmetry_Int_Tables_number   1
_chemical_formula_structural   La4In2IrPd3
_chemical_formula_sum   'La4 In2 Ir1 Pd3'
_cell_volume   248.17646808
_cell_formula_units_Z   1
loop_
 _symmetry_equiv_pos_site_id
 _symmetry_equiv_pos_as_xyz
  1  'x, y, z'
loop_
 _atom_site_type_symbol
 _atom_site_label
 _atom_site_symmetry_multiplicity
 _atom_site_fract_x
 _atom_site_fract_y
 _atom_site_fract_z
 _atom_site_occupancy
  La  La0  1  0.670116  0.170116  0.500000  1
  La  La1  1  0.317314  0.817314  0.500000  1
  La  La2  1  0.175015  0.339307  0.500000  1
  La  La3  1  0.839307  0.675015  0.500000  1
  In  In4  1  0.000899  0.002565  0.000000  1
  In  In5  1  0.502565  0.500899  0.000000  1
  Ir  Ir6  1  0.128904  0.628904  0.000000  1
  Pd  Pd7  1  0.865844  0.365844  0.000000  1
  Pd  Pd8  1  0.630111  0.869924  0.000000  1
  Pd  Pd9  1  0.369924  0.130111  0.000000  1
