# generated using pymatgen
data_CaEu3(SnRh2)2
_symmetry_space_group_name_H-M   'P 1'
_cell_length_a   5.88854059
_cell_length_b   5.86339965
_cell_length_c   8.29378500
_cell_angle_alpha   102.70745105
_cell_angle_beta   102.69441161
_cell_angle_gamma   58.22487804
_symmetry_Int_Tables_number   1
_chemical_formula_structural   CaEu3(SnRh2)2
_chemical_formula_sum   'Ca1 Eu3 Sn2 Rh4'
_cell_volume   235.60483998
_cell_formula_units_Z   1
loop_
 _symmetry_equiv_pos_site_id
 _symmetry_equiv_pos_as_xyz
  1  'x, y, z'
loop_
 _atom_site_type_symbol
 _atom_site_label
 _atom_site_symmetry_multiplicity
 _atom_site_fract_x
 _atom_site_fract_y
 _atom_site_fract_z
 _atom_site_occupancy
  Ca  Ca0  1  0.502524  0.203653  0.852333  1
  Eu  Eu1  1  0.499702  0.793402  0.142668  1
  Eu  Eu2  1  0.205013  0.503126  0.355364  1
  Eu  Eu3  1  0.794260  0.498244  0.649020  1
  Sn  Sn4  1  0.867749  0.132147  0.249005  1
  Sn  Sn5  1  0.127598  0.870622  0.750697  1
  Rh  Rh6  1  0.998350  0.279794  0.006069  1
  Rh  Rh7  1  0.717235  0.005239  0.493967  1
  Rh  Rh8  1  0.278005  0.994588  0.504761  1
  Rh  Rh9  1  0.009564  0.719184  0.996115  1
