# generated using pymatgen
data_LiCe4P12Ru9Rh10
_symmetry_space_group_name_H-M   'P 1'
_cell_length_a   12.66362300
_cell_length_b   12.64402130
_cell_length_c   3.97179500
_cell_angle_alpha   90.00000000
_cell_angle_beta   90.00000000
_cell_angle_gamma   119.94881529
_symmetry_Int_Tables_number   1
_chemical_formula_structural   LiCe4P12Ru9Rh10
_chemical_formula_sum   'Li1 Ce4 P12 Ru9 Rh10'
_cell_volume   551.04163475
_cell_formula_units_Z   1
loop_
 _symmetry_equiv_pos_site_id
 _symmetry_equiv_pos_as_xyz
  1  'x, y, z'
loop_
 _atom_site_type_symbol
 _atom_site_label
 _atom_site_symmetry_multiplicity
 _atom_site_fract_x
 _atom_site_fract_y
 _atom_site_fract_z
 _atom_site_occupancy
  Li  Li0  1  0.000000  0.188230  0.500000  1
  Ce  Ce1  1  0.817471  0.818650  0.500000  1
  Ce  Ce2  1  0.182529  0.001179  0.500000  1
  Ce  Ce3  1  0.665547  0.332468  0.000000  1
  Ce  Ce4  1  0.334453  0.666922  0.000000  1
  P  P5  1  0.000000  0.816733  0.000000  1
  P  P6  1  0.180846  0.184456  0.000000  1
  P  P7  1  0.819154  0.003610  0.000000  1
  P  P8  1  0.691667  0.170324  0.500000  1
  P  P9  1  0.830279  0.518321  0.500000  1
  P  P10  1  0.479025  0.311012  0.500000  1
  P  P11  1  0.169721  0.688042  0.500000  1
  P  P12  1  0.520975  0.831987  0.500000  1
  P  P13  1  0.308333  0.478659  0.500000  1
  P  P14  1  0.000000  0.368557  0.000000  1
  P  P15  1  0.630491  0.630221  0.000000  1
  P  P16  1  0.369509  0.999730  0.000000  1
  Ru  Ru17  1  0.000000  0.715944  0.500000  1
  Ru  Ru18  1  0.283181  0.282908  0.500000  1
  Ru  Ru19  1  0.716819  0.999727  0.500000  1
  Ru  Ru20  1  0.874842  0.361877  0.500000  1
  Ru  Ru21  1  0.637938  0.511016  0.500000  1
  Ru  Ru22  1  0.489211  0.126214  0.500000  1
  Ru  Ru23  1  0.362062  0.873079  0.500000  1
  Ru  Ru24  1  0.510789  0.637002  0.500000  1
  Ru  Ru25  1  0.125158  0.487035  0.500000  1
  Rh  Rh26  1  0.000000  0.548973  0.000000  1
  Rh  Rh27  1  0.451620  0.448150  0.000000  1
  Rh  Rh28  1  0.548380  0.996529  0.000000  1
  Rh  Rh29  1  0.809621  0.184587  0.000000  1
  Rh  Rh30  1  0.817714  0.624060  0.000000  1
  Rh  Rh31  1  0.375101  0.193193  0.000000  1
  Rh  Rh32  1  0.182286  0.806345  0.000000  1
  Rh  Rh33  1  0.624899  0.818090  0.000000  1
  Rh  Rh34  1  0.190379  0.374965  0.000000  1
  Rh  Rh35  1  0.000000  0.001208  0.000000  1
