# generated using pymatgen
data_Ho4Tm2ReBi2
_symmetry_space_group_name_H-M   'P 1'
_cell_length_a   8.21967500
_cell_length_b   8.22069477
_cell_length_c   4.31845500
_cell_angle_alpha   90.00000000
_cell_angle_beta   90.00000000
_cell_angle_gamma   119.99590864
_symmetry_Int_Tables_number   1
_chemical_formula_structural   Ho4Tm2ReBi2
_chemical_formula_sum   'Ho4 Tm2 Re1 Bi2'
_cell_volume   252.72028520
_cell_formula_units_Z   1
loop_
 _symmetry_equiv_pos_site_id
 _symmetry_equiv_pos_as_xyz
  1  'x, y, z'
loop_
 _atom_site_type_symbol
 _atom_site_label
 _atom_site_symmetry_multiplicity
 _atom_site_fract_x
 _atom_site_fract_y
 _atom_site_fract_z
 _atom_site_occupancy
  Ho  Ho0  1  0.231989  0.000000  0.500000  1
  Ho  Ho1  1  0.614009  0.000000  0.000000  1
  Ho  Ho2  1  0.999406  0.612961  0.000000  1
  Ho  Ho3  1  0.386444  0.387039  0.000000  1
  Tm  Tm4  1  0.999767  0.231115  0.500000  1
  Tm  Tm5  1  0.768652  0.768885  0.500000  1
  Re  Re6  1  0.998788  0.000000  0.000000  1
  Bi  Bi7  1  0.333280  0.665617  0.500000  1
  Bi  Bi8  1  0.667664  0.334383  0.500000  1
