# generated using pymatgen
data_SrLa6Dy3Si8O3
_symmetry_space_group_name_H-M   'P 1'
_cell_length_a   10.78633571
_cell_length_b   10.78633610
_cell_length_c   4.56752600
_cell_angle_alpha   90.00000000
_cell_angle_beta   90.00000000
_cell_angle_gamma   120.06449261
_symmetry_Int_Tables_number   1
_chemical_formula_structural   SrLa6Dy3Si8O3
_chemical_formula_sum   'Sr1 La6 Dy3 Si8 O3'
_cell_volume   459.91432766
_cell_formula_units_Z   1
loop_
 _symmetry_equiv_pos_site_id
 _symmetry_equiv_pos_as_xyz
  1  'x, y, z'
loop_
 _atom_site_type_symbol
 _atom_site_label
 _atom_site_symmetry_multiplicity
 _atom_site_fract_x
 _atom_site_fract_y
 _atom_site_fract_z
 _atom_site_occupancy
  Sr  Sr0  1  0.212222  0.787778  0.000000  1
  La  La1  1  0.576740  0.789035  0.000000  1
  La  La2  1  0.788460  0.576357  0.000000  1
  La  La3  1  0.000192  0.999808  0.000000  1
  La  La4  1  0.210965  0.423260  0.000000  1
  La  La5  1  0.423643  0.211540  0.000000  1
  La  La6  1  0.787851  0.212149  0.000000  1
  Dy  Dy7  1  0.001657  0.501048  0.500000  1
  Dy  Dy8  1  0.500581  0.499419  0.500000  1
  Dy  Dy9  1  0.498952  0.998343  0.500000  1
  Si  Si10  1  0.996734  0.779395  0.500000  1
  Si  Si11  1  0.999575  0.222864  0.500000  1
  Si  Si12  1  0.222745  0.224556  0.500000  1
  Si  Si13  1  0.777136  0.000425  0.500000  1
  Si  Si14  1  0.336900  0.663100  0.500000  1
  Si  Si15  1  0.220605  0.003266  0.500000  1
  Si  Si16  1  0.667269  0.332731  0.500000  1
  Si  Si17  1  0.775444  0.777255  0.500000  1
  O  O18  1  0.994148  0.492995  0.000000  1
  O  O19  1  0.501173  0.498827  0.000000  1
  O  O20  1  0.507005  0.005852  0.000000  1
