# generated using pymatgen
data_HoEr11ZnCo4Hg
_symmetry_space_group_name_H-M   'P 1'
_cell_length_a   8.21181345
_cell_length_b   8.20837411
_cell_length_c   8.21181470
_cell_angle_alpha   112.10051449
_cell_angle_beta   110.00238691
_cell_angle_gamma   106.37864825
_symmetry_Int_Tables_number   1
_chemical_formula_structural   HoEr11ZnCo4Hg
_chemical_formula_sum   'Ho1 Er11 Zn1 Co4 Hg1'
_cell_volume   424.93463328
_cell_formula_units_Z   1
loop_
 _symmetry_equiv_pos_site_id
 _symmetry_equiv_pos_as_xyz
  1  'x, y, z'
loop_
 _atom_site_type_symbol
 _atom_site_label
 _atom_site_symmetry_multiplicity
 _atom_site_fract_x
 _atom_site_fract_y
 _atom_site_fract_z
 _atom_site_occupancy
  Ho  Ho0  1  0.675524  0.986651  0.311126  1
  Er  Er1  1  0.430855  0.234326  0.196847  1
  Er  Er2  1  0.568839  0.765763  0.802656  1
  Er  Er3  1  0.037479  0.234326  0.803471  1
  Er  Er4  1  0.963108  0.765763  0.196925  1
  Er  Er5  1  0.181374  0.281817  0.462864  1
  Er  Er6  1  0.819027  0.718124  0.537310  1
  Er  Er7  1  0.180816  0.718124  0.899097  1
  Er  Er8  1  0.818950  0.281817  0.100443  1
  Er  Er9  1  0.324470  0.635971  0.311502  1
  Er  Er10  1  0.675428  0.364174  0.688746  1
  Er  Er11  1  0.324573  0.013100  0.688528  1
  Zn  Zn12  1  0.999631  0.999689  0.000058  1
  Co  Co13  1  0.341690  0.000202  0.342068  1
  Co  Co14  1  0.658132  0.000202  0.658512  1
  Co  Co15  1  0.115048  0.614841  0.499793  1
  Co  Co16  1  0.885160  0.385340  0.500180  1
  Hg  Hg17  1  0.499897  0.499770  0.999875  1
