# generated using pymatgen
data_YHo9In8(PdPt)2
_symmetry_space_group_name_H-M   'P 1'
_cell_length_a   3.60805400
_cell_length_b   8.15352855
_cell_length_c   18.23564828
_cell_angle_alpha   90.09824321
_cell_angle_beta   90.00000000
_cell_angle_gamma   90.00000000
_symmetry_Int_Tables_number   1
_chemical_formula_structural   YHo9In8(PdPt)2
_chemical_formula_sum   'Y1 Ho9 In8 Pd2 Pt2'
_cell_volume   536.46228363
_cell_formula_units_Z   1
loop_
 _symmetry_equiv_pos_site_id
 _symmetry_equiv_pos_as_xyz
  1  'x, y, z'
loop_
 _atom_site_type_symbol
 _atom_site_label
 _atom_site_symmetry_multiplicity
 _atom_site_fract_x
 _atom_site_fract_y
 _atom_site_fract_z
 _atom_site_occupancy
  Y  Y0  1  0.000000  0.000000  0.000000  1
  Ho  Ho1  1  0.000000  0.118204  0.415658  1
  Ho  Ho2  1  0.000000  0.881796  0.584342  1
  Ho  Ho3  1  0.000000  0.382904  0.914988  1
  Ho  Ho4  1  0.000000  0.617096  0.085012  1
  Ho  Ho5  1  0.000000  0.246183  0.219309  1
  Ho  Ho6  1  0.000000  0.753817  0.780691  1
  Ho  Ho7  1  0.000000  0.260525  0.720350  1
  Ho  Ho8  1  0.000000  0.739475  0.279650  1
  Ho  Ho9  1  0.000000  0.500000  0.500000  1
  In  In10  1  0.500000  0.422106  0.351237  1
  In  In11  1  0.500000  0.577894  0.648763  1
  In  In12  1  0.500000  0.075655  0.850212  1
  In  In13  1  0.500000  0.924345  0.149788  1
  In  In14  1  0.500000  0.292677  0.066592  1
  In  In15  1  0.500000  0.707323  0.933408  1
  In  In16  1  0.500000  0.206905  0.567079  1
  In  In17  1  0.500000  0.793095  0.432921  1
  Pd  Pd18  1  0.500000  0.024598  0.303586  1
  Pd  Pd19  1  0.500000  0.975402  0.696414  1
  Pt  Pt20  1  0.500000  0.475050  0.803383  1
  Pt  Pt21  1  0.500000  0.524950  0.196617  1
