# generated using pymatgen
data_Y4Er8CdCo5
_symmetry_space_group_name_H-M   'P 1'
_cell_length_a   8.24376132
_cell_length_b   8.24375983
_cell_length_c   8.24375953
_cell_angle_alpha   110.58736734
_cell_angle_beta   110.04655304
_cell_angle_gamma   107.79312595
_symmetry_Int_Tables_number   1
_chemical_formula_structural   Y4Er8CdCo5
_chemical_formula_sum   'Y4 Er8 Cd1 Co5'
_cell_volume   430.98855836
_cell_formula_units_Z   1
loop_
 _symmetry_equiv_pos_site_id
 _symmetry_equiv_pos_as_xyz
  1  'x, y, z'
loop_
 _atom_site_type_symbol
 _atom_site_label
 _atom_site_symmetry_multiplicity
 _atom_site_fract_x
 _atom_site_fract_y
 _atom_site_fract_z
 _atom_site_occupancy
  Y  Y0  1  0.288971  0.185799  0.474770  1
  Y  Y1  1  0.711029  0.814201  0.525230  1
  Y  Y2  1  0.288971  0.814201  0.103173  1
  Y  Y3  1  0.711029  0.185799  0.896827  1
  Er  Er4  1  0.621664  0.315380  0.306285  1
  Er  Er5  1  0.378336  0.684620  0.693715  1
  Er  Er6  1  0.009096  0.315380  0.693715  1
  Er  Er7  1  0.990904  0.684620  0.306285  1
  Er  Er8  1  0.210320  0.402896  0.192576  1
  Er  Er9  1  0.789680  0.597104  0.807424  1
  Er  Er10  1  0.210320  0.017744  0.807424  1
  Er  Er11  1  0.789680  0.982256  0.192576  1
  Cd  Cd12  1  0.500000  0.500000  0.000000  1
  Co  Co13  1  0.000000  0.378163  0.378163  1
  Co  Co14  1  0.000000  0.621837  0.621837  1
  Co  Co15  1  0.386419  0.886419  0.500000  1
  Co  Co16  1  0.613581  0.113581  0.500000  1
  Co  Co17  1  0.000000  0.000000  0.000000  1
