# generated using pymatgen
data_Pr5IrRh2
_symmetry_space_group_name_H-M   'P 1'
_cell_length_a   11.33598900
_cell_length_b   11.33598900
_cell_length_c   6.67066100
_cell_angle_alpha   90.00000000
_cell_angle_beta   90.00000000
_cell_angle_gamma   90.00000000
_symmetry_Int_Tables_number   1
_chemical_formula_structural   Pr5IrRh2
_chemical_formula_sum   'Pr20 Ir4 Rh8'
_cell_volume   857.21093445
_cell_formula_units_Z   4
loop_
 _symmetry_equiv_pos_site_id
 _symmetry_equiv_pos_as_xyz
  1  'x, y, z'
loop_
 _atom_site_type_symbol
 _atom_site_label
 _atom_site_symmetry_multiplicity
 _atom_site_fract_x
 _atom_site_fract_y
 _atom_site_fract_z
 _atom_site_occupancy
  Pr  Pr0  1  0.292244  0.091337  0.381461  1
  Pr  Pr1  1  0.292244  0.908663  0.881461  1
  Pr  Pr2  1  0.707756  0.091337  0.881461  1
  Pr  Pr3  1  0.707756  0.908663  0.381461  1
  Pr  Pr4  1  0.589279  0.790271  0.882935  1
  Pr  Pr5  1  0.589279  0.209729  0.382935  1
  Pr  Pr6  1  0.410721  0.790271  0.382935  1
  Pr  Pr7  1  0.410721  0.209729  0.882935  1
  Pr  Pr8  1  0.209729  0.410721  0.617065  1
  Pr  Pr9  1  0.209729  0.589279  0.117065  1
  Pr  Pr10  1  0.790271  0.410721  0.117065  1
  Pr  Pr11  1  0.790271  0.589279  0.617065  1
  Pr  Pr12  1  0.908663  0.707756  0.118539  1
  Pr  Pr13  1  0.908663  0.292244  0.618539  1
  Pr  Pr14  1  0.091337  0.707756  0.618539  1
  Pr  Pr15  1  0.091337  0.292244  0.118539  1
  Pr  Pr16  1  0.000000  0.000000  0.500000  1
  Pr  Pr17  1  0.000000  0.000000  0.000000  1
  Pr  Pr18  1  0.500000  0.500000  0.000000  1
  Pr  Pr19  1  0.500000  0.500000  0.500000  1
  Ir  Ir20  1  0.654719  0.345281  0.750000  1
  Ir  Ir21  1  0.654719  0.654719  0.250000  1
  Ir  Ir22  1  0.345281  0.345281  0.250000  1
  Ir  Ir23  1  0.345281  0.654719  0.750000  1
  Rh  Rh24  1  0.846648  0.153352  0.250000  1
  Rh  Rh25  1  0.846648  0.846648  0.750000  1
  Rh  Rh26  1  0.153352  0.153352  0.750000  1
  Rh  Rh27  1  0.153352  0.846648  0.250000  1
  Rh  Rh28  1  0.500000  0.000000  0.115917  1
  Rh  Rh29  1  0.500000  0.000000  0.615917  1
  Rh  Rh30  1  0.000000  0.500000  0.884083  1
  Rh  Rh31  1  0.000000  0.500000  0.384083  1
