# generated using pymatgen
data_Nd2Tm2P7Ir8
_symmetry_space_group_name_H-M   'P 1'
_cell_length_a   3.94696100
_cell_length_b   12.76876622
_cell_length_c   13.15469337
_cell_angle_alpha   80.82866447
_cell_angle_beta   90.00000000
_cell_angle_gamma   90.00000000
_symmetry_Int_Tables_number   1
_chemical_formula_structural   Nd2Tm2P7Ir8
_chemical_formula_sum   'Nd4 Tm4 P14 Ir16'
_cell_volume   654.49260256
_cell_formula_units_Z   2
loop_
 _symmetry_equiv_pos_site_id
 _symmetry_equiv_pos_as_xyz
  1  'x, y, z'
loop_
 _atom_site_type_symbol
 _atom_site_label
 _atom_site_symmetry_multiplicity
 _atom_site_fract_x
 _atom_site_fract_y
 _atom_site_fract_z
 _atom_site_occupancy
  Nd  Nd0  1  0.750000  0.719938  0.898247  1
  Nd  Nd1  1  0.250000  0.105421  0.787936  1
  Nd  Nd2  1  0.750000  0.894579  0.212064  1
  Nd  Nd3  1  0.250000  0.280062  0.101753  1
  Tm  Tm4  1  0.750000  0.791897  0.560098  1
  Tm  Tm5  1  0.250000  0.208103  0.439902  1
  Tm  Tm6  1  0.750000  0.479649  0.705589  1
  Tm  Tm7  1  0.250000  0.520351  0.294411  1
  P  P8  1  0.250000  0.906685  0.412329  1
  P  P9  1  0.750000  0.472082  0.130354  1
  P  P10  1  0.250000  0.527918  0.869646  1
  P  P11  1  0.750000  0.093315  0.587671  1
  P  P12  1  0.250000  0.741539  0.082313  1
  P  P13  1  0.750000  0.258461  0.917687  1
  P  P14  1  0.750000  0.158793  0.284692  1
  P  P15  1  0.250000  0.841207  0.715308  1
  P  P16  1  0.250000  0.051527  0.100674  1
  P  P17  1  0.750000  0.948473  0.899326  1
  P  P18  1  0.250000  0.316559  0.687192  1
  P  P19  1  0.750000  0.683441  0.312808  1
  P  P20  1  0.250000  0.608111  0.565882  1
  P  P21  1  0.750000  0.391889  0.434118  1
  Ir  Ir22  1  0.250000  0.990660  0.575668  1
  Ir  Ir23  1  0.750000  0.009340  0.424332  1
  Ir  Ir24  1  0.250000  0.660510  0.726911  1
  Ir  Ir25  1  0.750000  0.339490  0.273089  1
  Ir  Ir26  1  0.250000  0.550401  0.049153  1
  Ir  Ir27  1  0.750000  0.449599  0.950847  1
  Ir  Ir28  1  0.250000  0.064384  0.273891  1
  Ir  Ir29  1  0.750000  0.935616  0.726109  1
  Ir  Ir30  1  0.250000  0.422350  0.522451  1
  Ir  Ir31  1  0.750000  0.577650  0.477549  1
  Ir  Ir32  1  0.250000  0.914437  0.997679  1
  Ir  Ir33  1  0.750000  0.085563  0.002321  1
  Ir  Ir34  1  0.250000  0.728333  0.396789  1
  Ir  Ir35  1  0.750000  0.271667  0.603211  1
  Ir  Ir36  1  0.250000  0.344401  0.855525  1
  Ir  Ir37  1  0.750000  0.655599  0.144475  1
