# generated using pymatgen
data_Er6Lu2Re(TcB8)3
_symmetry_space_group_name_H-M   'P 1'
_cell_length_a   3.64932900
_cell_length_b   9.10492223
_cell_length_c   11.47456505
_cell_angle_alpha   90.03502455
_cell_angle_beta   90.00000000
_cell_angle_gamma   90.00000000
_symmetry_Int_Tables_number   1
_chemical_formula_structural   Er6Lu2Re(TcB8)3
_chemical_formula_sum   'Er6 Lu2 Re1 Tc3 B24'
_cell_volume   381.26365777
_cell_formula_units_Z   1
loop_
 _symmetry_equiv_pos_site_id
 _symmetry_equiv_pos_as_xyz
  1  'x, y, z'
loop_
 _atom_site_type_symbol
 _atom_site_label
 _atom_site_symmetry_multiplicity
 _atom_site_fract_x
 _atom_site_fract_y
 _atom_site_fract_z
 _atom_site_occupancy
  Er  Er0  1  0.000000  0.323854  0.413890  1
  Er  Er1  1  0.000000  0.676517  0.586004  1
  Er  Er2  1  0.000000  0.823015  0.085883  1
  Er  Er3  1  0.000000  0.177152  0.914420  1
  Er  Er4  1  0.000000  0.942588  0.369070  1
  Er  Er5  1  0.000000  0.057928  0.629989  1
  Lu  Lu6  1  0.000000  0.442658  0.130476  1
  Lu  Lu7  1  0.000000  0.556317  0.870096  1
  Re  Re8  1  0.000000  0.860527  0.820850  1
  Tc  Tc9  1  0.000000  0.638098  0.319664  1
  Tc  Tc10  1  0.000000  0.362023  0.680269  1
  Tc  Tc11  1  0.000000  0.139649  0.179285  1
  B  B12  1  0.500000  0.553079  0.432983  1
  B  B13  1  0.500000  0.447233  0.567053  1
  B  B14  1  0.500000  0.053501  0.066837  1
  B  B15  1  0.500000  0.946635  0.933502  1
  B  B16  1  0.500000  0.749054  0.418589  1
  B  B17  1  0.500000  0.251236  0.581280  1
  B  B18  1  0.500000  0.250593  0.081135  1
  B  B19  1  0.500000  0.748931  0.919090  1
  B  B20  1  0.500000  0.791607  0.264513  1
  B  B21  1  0.500000  0.208365  0.735288  1
  B  B22  1  0.500000  0.293117  0.234879  1
  B  B23  1  0.500000  0.706519  0.765318  1
  B  B24  1  0.500000  0.629345  0.184367  1
  B  B25  1  0.500000  0.370397  0.815664  1
  B  B26  1  0.500000  0.130847  0.314732  1
  B  B27  1  0.500000  0.869343  0.685131  1
  B  B28  1  0.500000  0.981688  0.211401  1
  B  B29  1  0.500000  0.018621  0.788362  1
  B  B30  1  0.500000  0.480854  0.287652  1
  B  B31  1  0.500000  0.519080  0.712513  1
  B  B32  1  0.500000  0.597795  0.027479  1
  B  B33  1  0.500000  0.401544  0.972782  1
  B  B34  1  0.500000  0.100260  0.471859  1
  B  B35  1  0.500000  0.900030  0.527696  1
