# generated using pymatgen
data_CaTiTeO6
_symmetry_space_group_name_H-M   'P 1'
_cell_length_a   5.21607100
_cell_length_b   5.21607126
_cell_length_c   5.08013200
_cell_angle_alpha   90.00000000
_cell_angle_beta   90.00000000
_cell_angle_gamma   120.00000472
_symmetry_Int_Tables_number   1
_chemical_formula_structural   CaTiTeO6
_chemical_formula_sum   'Ca1 Ti1 Te1 O6'
_cell_volume   119.69957758
_cell_formula_units_Z   1
loop_
 _symmetry_equiv_pos_site_id
 _symmetry_equiv_pos_as_xyz
  1  'x, y, z'
loop_
 _atom_site_type_symbol
 _atom_site_label
 _atom_site_symmetry_multiplicity
 _atom_site_fract_x
 _atom_site_fract_y
 _atom_site_fract_z
 _atom_site_occupancy
  Ca  Ca0  1  0.000000  0.000000  0.000000  1
  Ti  Ti1  1  0.333333  0.666667  0.500000  1
  Te  Te2  1  0.666668  0.333334  0.500000  1
  O  O3  1  0.628899  0.005024  0.286851  1
  O  O4  1  0.376125  0.371100  0.286851  1
  O  O5  1  0.994975  0.623875  0.286851  1
  O  O6  1  0.376124  0.005024  0.713149  1
  O  O7  1  0.994975  0.371100  0.713149  1
  O  O8  1  0.628898  0.623875  0.713149  1
