# generated using pymatgen
data_Rb4TeO5
_symmetry_space_group_name_H-M   'P 1'
_cell_length_a   6.48417101
_cell_length_b   10.57801201
_cell_length_c   17.49942800
_cell_angle_alpha   94.28468320
_cell_angle_beta   92.38099524
_cell_angle_gamma   96.46215845
_symmetry_Int_Tables_number   1
_chemical_formula_structural   Rb4TeO5
_chemical_formula_sum   'Rb24 Te6 O30'
_cell_volume   1187.80777688
_cell_formula_units_Z   6
loop_
 _symmetry_equiv_pos_site_id
 _symmetry_equiv_pos_as_xyz
  1  'x, y, z'
loop_
 _atom_site_type_symbol
 _atom_site_label
 _atom_site_symmetry_multiplicity
 _atom_site_fract_x
 _atom_site_fract_y
 _atom_site_fract_z
 _atom_site_occupancy
  Rb  Rb0  1  0.007703  0.514444  0.178442  1
  Rb  Rb1  1  0.992297  0.485556  0.821558  1
  Rb  Rb2  1  0.535711  0.197301  0.498080  1
  Rb  Rb3  1  0.464289  0.802699  0.501920  1
  Rb  Rb4  1  0.071366  0.684091  0.998387  1
  Rb  Rb5  1  0.928634  0.315909  0.001613  1
  Rb  Rb6  1  0.075509  0.853021  0.220452  1
  Rb  Rb7  1  0.924491  0.146979  0.779548  1
  Rb  Rb8  1  0.549542  0.998142  0.322115  1
  Rb  Rb9  1  0.450458  0.001858  0.677885  1
  Rb  Rb10  1  0.225282  0.027033  0.058229  1
  Rb  Rb11  1  0.774718  0.972967  0.941771  1
  Rb  Rb12  1  0.444342  0.402044  0.092237  1
  Rb  Rb13  1  0.555658  0.597956  0.907763  1
  Rb  Rb14  1  0.727797  0.382736  0.345395  1
  Rb  Rb15  1  0.272203  0.617264  0.654605  1
  Rb  Rb16  1  0.246144  0.460257  0.426294  1
  Rb  Rb17  1  0.753856  0.539743  0.573706  1
  Rb  Rb18  1  0.724371  0.098418  0.145300  1
  Rb  Rb19  1  0.275629  0.901582  0.854700  1
  Rb  Rb20  1  0.048248  0.085143  0.418991  1
  Rb  Rb21  1  0.951752  0.914857  0.581009  1
  Rb  Rb22  1  0.454580  0.661422  0.290835  1
  Rb  Rb23  1  0.545420  0.338578  0.709165  1
  Te  Te24  1  0.060699  0.275578  0.592883  1
  Te  Te25  1  0.939301  0.724422  0.407117  1
  Te  Te26  1  0.598322  0.759316  0.097720  1
  Te  Te27  1  0.401678  0.240684  0.902280  1
  Te  Te28  1  0.216852  0.235697  0.248465  1
  Te  Te29  1  0.783148  0.764303  0.751535  1
  O  O30  1  0.072625  0.681345  0.498980  1
  O  O31  1  0.927375  0.318655  0.501020  1
  O  O32  1  0.145268  0.137975  0.923918  1
  O  O33  1  0.854732  0.862025  0.076082  1
  O  O34  1  0.351674  0.220984  0.348525  1
  O  O35  1  0.648326  0.779016  0.651475  1
  O  O36  1  0.214898  0.132392  0.586505  1
  O  O37  1  0.785102  0.867608  0.413495  1
  O  O38  1  0.090996  0.260386  0.148043  1
  O  O39  1  0.909004  0.739614  0.851957  1
  O  O40  1  0.337955  0.093700  0.206593  1
  O  O41  1  0.662045  0.906300  0.793407  1
  O  O42  1  0.343052  0.660796  0.123000  1
  O  O43  1  0.656948  0.339204  0.877000  1
  O  O44  1  0.379992  0.154980  0.802273  1
  O  O45  1  0.620008  0.845020  0.197727  1
  O  O46  1  0.459860  0.820547  0.011656  1
  O  O47  1  0.540140  0.179453  0.988344  1
  O  O48  1  0.185163  0.836101  0.383877  1
  O  O49  1  0.814837  0.163899  0.616123  1
  O  O50  1  0.314431  0.382521  0.572126  1
  O  O51  1  0.685569  0.617479  0.427874  1
  O  O52  1  0.725881  0.607315  0.075235  1
  O  O53  1  0.274119  0.392685  0.924765  1
  O  O54  1  0.948614  0.193678  0.285976  1
  O  O55  1  0.051386  0.806322  0.714024  1
  O  O56  1  0.034200  0.379317  0.684590  1
  O  O57  1  0.965800  0.620683  0.315410  1
  O  O58  1  0.356422  0.405027  0.251111  1
  O  O59  1  0.643578  0.594973  0.748889  1
