# generated using pymatgen
data_Y3Ho5Re3RuC8
_symmetry_space_group_name_H-M   'P 1'
_cell_length_a   5.10312900
_cell_length_b   6.55659266
_cell_length_c   9.82057404
_cell_angle_alpha   90.12231114
_cell_angle_beta   90.00000000
_cell_angle_gamma   90.00000000
_symmetry_Int_Tables_number   1
_chemical_formula_structural   Y3Ho5Re3RuC8
_chemical_formula_sum   'Y3 Ho5 Re3 Ru1 C8'
_cell_volume   328.58719478
_cell_formula_units_Z   1
loop_
 _symmetry_equiv_pos_site_id
 _symmetry_equiv_pos_as_xyz
  1  'x, y, z'
loop_
 _atom_site_type_symbol
 _atom_site_label
 _atom_site_symmetry_multiplicity
 _atom_site_fract_x
 _atom_site_fract_y
 _atom_site_fract_z
 _atom_site_occupancy
  Y  Y0  1  0.250000  0.467452  0.784350  1
  Y  Y1  1  0.750000  0.033510  0.284436  1
  Y  Y2  1  0.750000  0.531513  0.213670  1
  Ho  Ho3  1  0.250000  0.968151  0.717066  1
  Ho  Ho4  1  0.250000  0.825905  0.055424  1
  Ho  Ho5  1  0.750000  0.678636  0.556955  1
  Ho  Ho6  1  0.250000  0.320373  0.442720  1
  Ho  Ho7  1  0.750000  0.178649  0.942396  1
  Re  Re8  1  0.750000  0.220318  0.632798  1
  Re  Re9  1  0.250000  0.779967  0.366031  1
  Re  Re10  1  0.750000  0.721254  0.866677  1
  Ru  Ru11  1  0.250000  0.279120  0.133787  1
  C  C12  1  0.250000  0.172530  0.950439  1
  C  C13  1  0.750000  0.823461  0.051528  1
  C  C14  1  0.250000  0.676146  0.550530  1
  C  C15  1  0.750000  0.323475  0.448592  1
  C  C16  1  0.250000  0.044985  0.259808  1
  C  C17  1  0.750000  0.453702  0.758939  1
  C  C18  1  0.250000  0.547672  0.243358  1
  C  C19  1  0.750000  0.953181  0.740497  1
