# generated using pymatgen
data_TmLu2Mg3Ga2Ag
_symmetry_space_group_name_H-M   'P 1'
_cell_length_a   7.28993600
_cell_length_b   7.29372922
_cell_length_c   4.30220800
_cell_angle_alpha   90.00000000
_cell_angle_beta   90.00000000
_cell_angle_gamma   119.98278877
_symmetry_Int_Tables_number   1
_chemical_formula_structural   TmLu2Mg3Ga2Ag
_chemical_formula_sum   'Tm1 Lu2 Mg3 Ga2 Ag1'
_cell_volume   198.13932596
_cell_formula_units_Z   1
loop_
 _symmetry_equiv_pos_site_id
 _symmetry_equiv_pos_as_xyz
  1  'x, y, z'
loop_
 _atom_site_type_symbol
 _atom_site_label
 _atom_site_symmetry_multiplicity
 _atom_site_fract_x
 _atom_site_fract_y
 _atom_site_fract_z
 _atom_site_occupancy
  Tm  Tm0  1  0.573828  0.000000  0.000000  1
  Lu  Lu1  1  0.999955  0.574082  0.000000  1
  Lu  Lu2  1  0.425873  0.425918  0.000000  1
  Mg  Mg3  1  0.000098  0.246291  0.500000  1
  Mg  Mg4  1  0.753807  0.753709  0.500000  1
  Mg  Mg5  1  0.246024  0.000000  0.500000  1
  Ga  Ga6  1  0.666821  0.333678  0.500000  1
  Ga  Ga7  1  0.333141  0.666322  0.500000  1
  Ag  Ag8  1  0.000452  0.000000  0.000000  1
