# generated using pymatgen
data_LaYZn5Sn
_symmetry_space_group_name_H-M   'P 1'
_cell_length_a   8.51346212
_cell_length_b   8.51346224
_cell_length_c   9.09633700
_cell_angle_alpha   90.00000000
_cell_angle_beta   90.00000000
_cell_angle_gamma   149.68660060
_symmetry_Int_Tables_number   1
_chemical_formula_structural   LaYZn5Sn
_chemical_formula_sum   'La2 Y2 Zn10 Sn2'
_cell_volume   332.76502646
_cell_formula_units_Z   2
loop_
 _symmetry_equiv_pos_site_id
 _symmetry_equiv_pos_as_xyz
  1  'x, y, z'
loop_
 _atom_site_type_symbol
 _atom_site_label
 _atom_site_symmetry_multiplicity
 _atom_site_fract_x
 _atom_site_fract_y
 _atom_site_fract_z
 _atom_site_occupancy
  La  La0  1  0.000000  0.000000  0.500000  1
  La  La1  1  0.000000  0.000000  0.000000  1
  Y  Y2  1  0.205779  0.794221  0.250000  1
  Y  Y3  1  0.794221  0.205779  0.750000  1
  Zn  Zn4  1  0.812340  0.187660  0.389374  1
  Zn  Zn5  1  0.187660  0.812340  0.610626  1
  Zn  Zn6  1  0.812340  0.187660  0.110626  1
  Zn  Zn7  1  0.187660  0.812340  0.889374  1
  Zn  Zn8  1  0.658724  0.341276  0.484074  1
  Zn  Zn9  1  0.341276  0.658724  0.515926  1
  Zn  Zn10  1  0.658724  0.341276  0.015926  1
  Zn  Zn11  1  0.341276  0.658724  0.984074  1
  Zn  Zn12  1  0.395160  0.604840  0.250000  1
  Zn  Zn13  1  0.604840  0.395160  0.750000  1
  Sn  Sn14  1  0.559747  0.440253  0.250000  1
  Sn  Sn15  1  0.440253  0.559747  0.750000  1
