# generated using pymatgen
data_Ca3Nd(Al3Pd)6
_symmetry_space_group_name_H-M   'P 1'
_cell_length_a   7.68512437
_cell_length_b   7.67788768
_cell_length_c   9.56535500
_cell_angle_alpha   90.00000000
_cell_angle_beta   90.00000000
_cell_angle_gamma   119.55381584
_symmetry_Int_Tables_number   1
_chemical_formula_structural   Ca3Nd(Al3Pd)6
_chemical_formula_sum   'Ca3 Nd1 Al18 Pd6'
_cell_volume   490.97511617
_cell_formula_units_Z   1
loop_
 _symmetry_equiv_pos_site_id
 _symmetry_equiv_pos_as_xyz
  1  'x, y, z'
loop_
 _atom_site_type_symbol
 _atom_site_label
 _atom_site_symmetry_multiplicity
 _atom_site_fract_x
 _atom_site_fract_y
 _atom_site_fract_z
 _atom_site_occupancy
  Ca  Ca0  1  0.994387  0.669803  0.250000  1
  Ca  Ca1  1  0.004116  0.330104  0.750000  1
  Ca  Ca2  1  0.671821  0.996481  0.250000  1
  Nd  Nd3  1  0.330744  0.003405  0.750000  1
  Al  Al4  1  0.132880  0.133287  0.250000  1
  Al  Al5  1  0.869737  0.868379  0.750000  1
  Al  Al6  1  0.001564  0.334936  0.074610  1
  Al  Al7  1  0.997231  0.662819  0.924032  1
  Al  Al8  1  0.997231  0.662819  0.575968  1
  Al  Al9  1  0.334845  0.000705  0.423769  1
  Al  Al10  1  0.001564  0.334936  0.425390  1
  Al  Al11  1  0.667572  0.999773  0.575573  1
  Al  Al12  1  0.667572  0.999773  0.924427  1
  Al  Al13  1  0.334845  0.000705  0.076231  1
  Al  Al14  1  0.332733  0.333762  0.556326  1
  Al  Al15  1  0.665876  0.665908  0.446957  1
  Al  Al16  1  0.665876  0.665908  0.053043  1
  Al  Al17  1  0.332733  0.333762  0.943674  1
  Al  Al18  1  0.339990  0.546204  0.250000  1
  Al  Al19  1  0.657371  0.454290  0.750000  1
  Al  Al20  1  0.544127  0.340740  0.250000  1
  Al  Al21  1  0.456114  0.662923  0.750000  1
  Pd  Pd22  1  0.671224  0.328411  0.000114  1
  Pd  Pd23  1  0.328390  0.671058  0.999620  1
  Pd  Pd24  1  0.328390  0.671058  0.500380  1
  Pd  Pd25  1  0.671224  0.328411  0.499886  1
  Pd  Pd26  1  0.999924  0.999820  0.000095  1
  Pd  Pd27  1  0.999924  0.999820  0.499905  1
