# generated using pymatgen
data_Hf8ZnIn4Pd7
_symmetry_space_group_name_H-M   'P 1'
_cell_length_a   7.48077916
_cell_length_b   7.48077916
_cell_length_c   6.87072105
_cell_angle_alpha   90.10009913
_cell_angle_beta   90.10009913
_cell_angle_gamma   90.35138337
_symmetry_Int_Tables_number   1
_chemical_formula_structural   Hf8ZnIn4Pd7
_chemical_formula_sum   'Hf8 Zn1 In4 Pd7'
_cell_volume   384.49127019
_cell_formula_units_Z   1
loop_
 _symmetry_equiv_pos_site_id
 _symmetry_equiv_pos_as_xyz
  1  'x, y, z'
loop_
 _atom_site_type_symbol
 _atom_site_label
 _atom_site_symmetry_multiplicity
 _atom_site_fract_x
 _atom_site_fract_y
 _atom_site_fract_z
 _atom_site_occupancy
  Hf  Hf0  1  0.146914  0.146914  0.998264  1
  Hf  Hf1  1  0.848771  0.848771  0.002671  1
  Hf  Hf2  1  0.650996  0.351374  0.505354  1
  Hf  Hf3  1  0.351374  0.650996  0.505354  1
  Hf  Hf4  1  0.693472  0.313403  0.994785  1
  Hf  Hf5  1  0.313403  0.693472  0.994785  1
  Hf  Hf6  1  0.812913  0.812913  0.497298  1
  Hf  Hf7  1  0.184607  0.184607  0.502717  1
  Zn  Zn8  1  0.372417  0.372417  0.208704  1
  In  In9  1  0.499376  0.000986  0.250564  1
  In  In10  1  0.499908  0.002376  0.746644  1
  In  In11  1  0.000986  0.499376  0.250564  1
  In  In12  1  0.002376  0.499908  0.746644  1
  Pd  Pd13  1  0.631434  0.631434  0.786987  1
  Pd  Pd14  1  0.622601  0.622601  0.216660  1
  Pd  Pd15  1  0.869519  0.128918  0.713719  1
  Pd  Pd16  1  0.869235  0.130464  0.285336  1
  Pd  Pd17  1  0.370317  0.370317  0.793896  1
  Pd  Pd18  1  0.130464  0.869235  0.285336  1
  Pd  Pd19  1  0.128918  0.869519  0.713719  1
