# generated using pymatgen
data_AlCr6Si5Ru12
_symmetry_space_group_name_H-M   'P 1'
_cell_length_a   4.19812600
_cell_length_b   5.94695700
_cell_length_c   12.56983800
_cell_angle_alpha   90.00000000
_cell_angle_beta   89.99947634
_cell_angle_gamma   90.00000000
_symmetry_Int_Tables_number   1
_chemical_formula_structural   AlCr6Si5Ru12
_chemical_formula_sum   'Al1 Cr6 Si5 Ru12'
_cell_volume   313.81951576
_cell_formula_units_Z   1
loop_
 _symmetry_equiv_pos_site_id
 _symmetry_equiv_pos_as_xyz
  1  'x, y, z'
loop_
 _atom_site_type_symbol
 _atom_site_label
 _atom_site_symmetry_multiplicity
 _atom_site_fract_x
 _atom_site_fract_y
 _atom_site_fract_z
 _atom_site_occupancy
  Al  Al0  1  0.000000  0.000000  0.000000  1
  Cr  Cr1  1  0.000000  0.500001  0.000000  1
  Cr  Cr2  1  0.500196  0.000000  0.164522  1
  Cr  Cr3  1  0.999666  0.500001  0.333911  1
  Cr  Cr4  1  0.500000  0.000000  0.500000  1
  Cr  Cr5  1  0.000335  0.500001  0.666089  1
  Cr  Cr6  1  0.499803  0.000000  0.835478  1
  Si  Si7  1  0.500052  0.500001  0.167650  1
  Si  Si8  1  0.000030  0.000000  0.333390  1
  Si  Si9  1  0.500000  0.500001  0.500000  1
  Si  Si10  1  0.999971  0.000000  0.666610  1
  Si  Si11  1  0.499949  0.500001  0.832350  1
  Ru  Ru12  1  0.500000  0.255820  0.000000  1
  Ru  Ru13  1  0.500000  0.744180  0.000000  1
  Ru  Ru14  1  0.000044  0.252197  0.169630  1
  Ru  Ru15  1  0.000044  0.747803  0.169630  1
  Ru  Ru16  1  0.499971  0.249604  0.334076  1
  Ru  Ru17  1  0.499971  0.750396  0.334076  1
  Ru  Ru18  1  0.000000  0.248710  0.500000  1
  Ru  Ru19  1  0.000000  0.751290  0.500000  1
  Ru  Ru20  1  0.500030  0.249604  0.665924  1
  Ru  Ru21  1  0.500030  0.750396  0.665924  1
  Ru  Ru22  1  0.999957  0.252197  0.830370  1
  Ru  Ru23  1  0.999957  0.747803  0.830370  1
