# generated using pymatgen
data_AcTh3(Al3Ir)6
_symmetry_space_group_name_H-M   'P 1'
_cell_length_a   7.68667939
_cell_length_b   7.69641859
_cell_length_c   9.58513700
_cell_angle_alpha   90.00000000
_cell_angle_beta   90.00000000
_cell_angle_gamma   119.45428919
_symmetry_Int_Tables_number   1
_chemical_formula_structural   AcTh3(Al3Ir)6
_chemical_formula_sum   'Ac1 Th3 Al18 Ir6'
_cell_volume   493.76283184
_cell_formula_units_Z   1
loop_
 _symmetry_equiv_pos_site_id
 _symmetry_equiv_pos_as_xyz
  1  'x, y, z'
loop_
 _atom_site_type_symbol
 _atom_site_label
 _atom_site_symmetry_multiplicity
 _atom_site_fract_x
 _atom_site_fract_y
 _atom_site_fract_z
 _atom_site_occupancy
  Ac  Ac0  1  0.993897  0.670762  0.250000  1
  Th  Th1  1  0.005091  0.328842  0.750000  1
  Th  Th2  1  0.671630  0.995202  0.250000  1
  Th  Th3  1  0.327880  0.004853  0.750000  1
  Al  Al4  1  0.133265  0.137289  0.250000  1
  Al  Al5  1  0.866294  0.867425  0.750000  1
  Al  Al6  1  0.005029  0.334422  0.072425  1
  Al  Al7  1  0.995253  0.664091  0.923206  1
  Al  Al8  1  0.995253  0.664091  0.576794  1
  Al  Al9  1  0.336631  0.005475  0.427787  1
  Al  Al10  1  0.005029  0.334422  0.427575  1
  Al  Al11  1  0.664228  0.996151  0.574905  1
  Al  Al12  1  0.664228  0.996151  0.925095  1
  Al  Al13  1  0.336631  0.005475  0.072213  1
  Al  Al14  1  0.335956  0.335879  0.548602  1
  Al  Al15  1  0.662840  0.664069  0.458028  1
  Al  Al16  1  0.662840  0.664069  0.041972  1
  Al  Al17  1  0.335956  0.335879  0.951398  1
  Al  Al18  1  0.348360  0.547161  0.250000  1
  Al  Al19  1  0.657698  0.453472  0.750000  1
  Al  Al20  1  0.541689  0.334601  0.250000  1
  Al  Al21  1  0.454074  0.659670  0.750000  1
  Ir  Ir22  1  0.670581  0.325674  0.997100  1
  Ir  Ir23  1  0.328619  0.671952  0.997074  1
  Ir  Ir24  1  0.328619  0.671952  0.502926  1
  Ir  Ir25  1  0.670581  0.325674  0.502900  1
  Ir  Ir26  1  0.000924  0.002647  0.996591  1
  Ir  Ir27  1  0.000924  0.002647  0.503409  1
