# generated using pymatgen
data_Sc4Mn2(GaTc)3
_symmetry_space_group_name_H-M   'P 1'
_cell_length_a   5.23551600
_cell_length_b   5.27817843
_cell_length_c   8.21413600
_cell_angle_alpha   90.00000000
_cell_angle_beta   90.00000000
_cell_angle_gamma   119.73298160
_symmetry_Int_Tables_number   1
_chemical_formula_structural   Sc4Mn2(GaTc)3
_chemical_formula_sum   'Sc4 Mn2 Ga3 Tc3'
_cell_volume   197.10531650
_cell_formula_units_Z   1
loop_
 _symmetry_equiv_pos_site_id
 _symmetry_equiv_pos_as_xyz
  1  'x, y, z'
loop_
 _atom_site_type_symbol
 _atom_site_label
 _atom_site_symmetry_multiplicity
 _atom_site_fract_x
 _atom_site_fract_y
 _atom_site_fract_z
 _atom_site_occupancy
  Sc  Sc0  1  0.335207  0.670415  0.057571  1
  Sc  Sc1  1  0.666844  0.333686  0.563913  1
  Sc  Sc2  1  0.335207  0.670415  0.442429  1
  Sc  Sc3  1  0.666844  0.333686  0.936087  1
  Mn  Mn4  1  0.982843  0.965685  0.500054  1
  Mn  Mn5  1  0.982843  0.965685  0.999946  1
  Ga  Ga6  1  0.345801  0.188549  0.250000  1
  Ga  Ga7  1  0.842749  0.188549  0.250000  1
  Ga  Ga8  1  0.166597  0.333194  0.750000  1
  Tc  Tc9  1  0.843786  0.687570  0.250000  1
  Tc  Tc10  1  0.171189  0.831282  0.750000  1
  Tc  Tc11  1  0.660092  0.831282  0.750000  1
