# generated using pymatgen
data_Tb10BiP2Pb5
_symmetry_space_group_name_H-M   'P 1'
_cell_length_a   9.21147401
_cell_length_b   9.21147376
_cell_length_c   6.80463800
_cell_angle_alpha   90.00000000
_cell_angle_beta   90.00000000
_cell_angle_gamma   119.99352203
_symmetry_Int_Tables_number   1
_chemical_formula_structural   Tb10BiP2Pb5
_chemical_formula_sum   'Tb10 Bi1 P2 Pb5'
_cell_volume   500.06015792
_cell_formula_units_Z   1
loop_
 _symmetry_equiv_pos_site_id
 _symmetry_equiv_pos_as_xyz
  1  'x, y, z'
loop_
 _atom_site_type_symbol
 _atom_site_label
 _atom_site_symmetry_multiplicity
 _atom_site_fract_x
 _atom_site_fract_y
 _atom_site_fract_z
 _atom_site_occupancy
  Tb  Tb0  1  0.763155  0.763155  0.750000  1
  Tb  Tb1  1  0.236269  0.998138  0.750000  1
  Tb  Tb2  1  0.998138  0.236269  0.750000  1
  Tb  Tb3  1  0.237221  0.237221  0.250000  1
  Tb  Tb4  1  0.762483  0.999592  0.250000  1
  Tb  Tb5  1  0.999592  0.762483  0.250000  1
  Tb  Tb6  1  0.667825  0.333027  0.001460  1
  Tb  Tb7  1  0.333027  0.667825  0.001460  1
  Tb  Tb8  1  0.333027  0.667825  0.498540  1
  Tb  Tb9  1  0.667825  0.333027  0.498540  1
  Bi  Bi10  1  0.399171  0.399171  0.750000  1
  P  P11  1  0.000522  0.000522  0.999539  1
  P  P12  1  0.000522  0.000522  0.500461  1
  Pb  Pb13  1  0.599555  0.000235  0.750000  1
  Pb  Pb14  1  0.000235  0.599555  0.750000  1
  Pb  Pb15  1  0.600826  0.600826  0.250000  1
  Pb  Pb16  1  0.400395  0.000211  0.250000  1
  Pb  Pb17  1  0.000211  0.400395  0.250000  1
