# generated using pymatgen
data_Tm5Lu3(Nb3Si4)4
_symmetry_space_group_name_H-M   'P 1'
_cell_length_a   7.02519682
_cell_length_b   7.02558423
_cell_length_c   12.93383506
_cell_angle_alpha   90.01170291
_cell_angle_beta   89.96937972
_cell_angle_gamma   90.02039010
_symmetry_Int_Tables_number   1
_chemical_formula_structural   Tm5Lu3(Nb3Si4)4
_chemical_formula_sum   'Tm5 Lu3 Nb12 Si16'
_cell_volume   638.36366669
_cell_formula_units_Z   1
loop_
 _symmetry_equiv_pos_site_id
 _symmetry_equiv_pos_as_xyz
  1  'x, y, z'
loop_
 _atom_site_type_symbol
 _atom_site_label
 _atom_site_symmetry_multiplicity
 _atom_site_fract_x
 _atom_site_fract_y
 _atom_site_fract_z
 _atom_site_occupancy
  Tm  Tm0  1  0.501105  0.841080  0.031900  1
  Tm  Tm1  1  0.840934  0.501286  0.968226  1
  Tm  Tm2  1  0.498957  0.158729  0.531811  1
  Tm  Tm3  1  0.340991  0.999583  0.781485  1
  Tm  Tm4  1  0.658652  0.000772  0.281874  1
  Lu  Lu5  1  0.999824  0.340853  0.218592  1
  Lu  Lu6  1  0.000463  0.658906  0.718245  1
  Lu  Lu7  1  0.158721  0.499323  0.468288  1
  Nb  Nb8  1  0.170635  0.171131  0.000101  1
  Nb  Nb9  1  0.829515  0.828597  0.500091  1
  Nb  Nb10  1  0.328662  0.670141  0.250179  1
  Nb  Nb11  1  0.670998  0.329716  0.749910  1
  Nb  Nb12  1  0.152732  0.992875  0.376064  1
  Nb  Nb13  1  0.847433  0.007207  0.876035  1
  Nb  Nb14  1  0.506940  0.652887  0.626020  1
  Nb  Nb15  1  0.346879  0.493888  0.873515  1
  Nb  Nb16  1  0.492908  0.347031  0.126427  1
  Nb  Nb17  1  0.653081  0.505856  0.373762  1
  Nb  Nb18  1  0.994070  0.153181  0.623570  1
  Nb  Nb19  1  0.006334  0.847139  0.123898  1
  Si  Si20  1  0.294536  0.045146  0.186532  1
  Si  Si21  1  0.705373  0.955010  0.686254  1
  Si  Si22  1  0.454826  0.794696  0.436281  1
  Si  Si23  1  0.204110  0.544633  0.063953  1
  Si  Si24  1  0.544835  0.205075  0.936259  1
  Si  Si25  1  0.796617  0.455247  0.563702  1
  Si  Si26  1  0.045093  0.296121  0.813249  1
  Si  Si27  1  0.955143  0.703366  0.313759  1
  Si  Si28  1  0.365140  0.294806  0.319424  1
  Si  Si29  1  0.634390  0.705742  0.818922  1
  Si  Si30  1  0.204853  0.864939  0.569235  1
  Si  Si31  1  0.133629  0.794970  0.930629  1
  Si  Si32  1  0.795092  0.134405  0.069567  1
  Si  Si33  1  0.866657  0.205367  0.430686  1
  Si  Si34  1  0.294248  0.367085  0.680583  1
  Si  Si35  1  0.705623  0.633210  0.180971  1
