# generated using pymatgen
data_Rb8CeSm3F20
_symmetry_space_group_name_H-M   'P 1'
_cell_length_a   7.01592598
_cell_length_b   7.66548300
_cell_length_c   11.56890063
_cell_angle_alpha   90.00000000
_cell_angle_beta   90.06066699
_cell_angle_gamma   90.00000000
_symmetry_Int_Tables_number   1
_chemical_formula_structural   Rb8CeSm3F20
_chemical_formula_sum   'Rb8 Ce1 Sm3 F20'
_cell_volume   622.18046399
_cell_formula_units_Z   1
loop_
 _symmetry_equiv_pos_site_id
 _symmetry_equiv_pos_as_xyz
  1  'x, y, z'
loop_
 _atom_site_type_symbol
 _atom_site_label
 _atom_site_symmetry_multiplicity
 _atom_site_fract_x
 _atom_site_fract_y
 _atom_site_fract_z
 _atom_site_occupancy
  Rb  Rb0  1  0.535264  0.996482  0.829400  1
  Rb  Rb1  1  0.464726  0.497397  0.170491  1
  Rb  Rb2  1  0.965044  0.996394  0.328792  1
  Rb  Rb3  1  0.034808  0.497652  0.671262  1
  Rb  Rb4  1  0.535264  0.503518  0.829400  1
  Rb  Rb5  1  0.464726  0.002603  0.170491  1
  Rb  Rb6  1  0.965044  0.503606  0.328792  1
  Rb  Rb7  1  0.034808  0.002348  0.671262  1
  Ce  Ce8  1  0.559564  0.250000  0.502455  1
  Sm  Sm9  1  0.437898  0.750000  0.497622  1
  Sm  Sm10  1  0.938625  0.250000  0.002299  1
  Sm  Sm11  1  0.061288  0.750000  0.997678  1
  F  F12  1  0.877930  0.750000  0.836004  1
  F  F13  1  0.122189  0.250000  0.164160  1
  F  F14  1  0.621912  0.750000  0.335946  1
  F  F15  1  0.374850  0.250000  0.667508  1
  F  F16  1  0.845534  0.250000  0.813447  1
  F  F17  1  0.154231  0.750000  0.186416  1
  F  F18  1  0.656634  0.250000  0.310706  1
  F  F19  1  0.345351  0.750000  0.686500  1
  F  F20  1  0.645240  0.960730  0.572814  1
  F  F21  1  0.353284  0.470532  0.426800  1
  F  F22  1  0.856869  0.966237  0.071266  1
  F  F23  1  0.143059  0.466269  0.928735  1
  F  F24  1  0.382960  0.750000  0.985908  1
  F  F25  1  0.617030  0.250000  0.013990  1
  F  F26  1  0.116006  0.750000  0.486232  1
  F  F27  1  0.891409  0.250000  0.514007  1
  F  F28  1  0.143059  0.033731  0.928735  1
  F  F29  1  0.856869  0.533763  0.071266  1
  F  F30  1  0.353284  0.029468  0.426800  1
  F  F31  1  0.645240  0.539270  0.572814  1
