# generated using pymatgen
data_Lu5ScFeTe2
_symmetry_space_group_name_H-M   'P 1'
_cell_length_a   8.02824486
_cell_length_b   8.12905326
_cell_length_c   3.91891500
_cell_angle_alpha   90.00000000
_cell_angle_beta   90.00000000
_cell_angle_gamma   120.41624380
_symmetry_Int_Tables_number   1
_chemical_formula_structural   Lu5ScFeTe2
_chemical_formula_sum   'Lu5 Sc1 Fe1 Te2'
_cell_volume   220.55664585
_cell_formula_units_Z   1
loop_
 _symmetry_equiv_pos_site_id
 _symmetry_equiv_pos_as_xyz
  1  'x, y, z'
loop_
 _atom_site_type_symbol
 _atom_site_label
 _atom_site_symmetry_multiplicity
 _atom_site_fract_x
 _atom_site_fract_y
 _atom_site_fract_z
 _atom_site_occupancy
  Lu  Lu0  1  0.232403  0.998608  0.500000  1
  Lu  Lu1  1  0.767597  0.766205  0.500000  1
  Lu  Lu2  1  0.621102  0.002779  0.000000  1
  Lu  Lu3  1  0.378898  0.381677  0.000000  1
  Lu  Lu4  1  0.000000  0.608546  0.000000  1
  Sc  Sc5  1  0.000000  0.229976  0.500000  1
  Fe  Fe6  1  0.000000  0.015734  0.000000  1
  Te  Te7  1  0.328831  0.662653  0.500000  1
  Te  Te8  1  0.671169  0.333822  0.500000  1
