# generated using pymatgen
data_Y4Al3(Ga5Ir2)3
_symmetry_space_group_name_H-M   'P 1'
_cell_length_a   7.58267205
_cell_length_b   7.58267244
_cell_length_c   9.51009501
_cell_angle_alpha   89.99710680
_cell_angle_beta   89.99710535
_cell_angle_gamma   119.72231713
_symmetry_Int_Tables_number   1
_chemical_formula_structural   Y4Al3(Ga5Ir2)3
_chemical_formula_sum   'Y4 Al3 Ga15 Ir6'
_cell_volume   474.86315402
_cell_formula_units_Z   1
loop_
 _symmetry_equiv_pos_site_id
 _symmetry_equiv_pos_as_xyz
  1  'x, y, z'
loop_
 _atom_site_type_symbol
 _atom_site_label
 _atom_site_symmetry_multiplicity
 _atom_site_fract_x
 _atom_site_fract_y
 _atom_site_fract_z
 _atom_site_occupancy
  Y  Y0  1  0.000191  0.670156  0.249910  1
  Y  Y1  1  0.000557  0.330421  0.749176  1
  Y  Y2  1  0.670156  0.000191  0.249910  1
  Y  Y3  1  0.330421  0.000557  0.749176  1
  Al  Al4  1  0.664662  0.664662  0.447868  1
  Al  Al5  1  0.668204  0.668204  0.052328  1
  Al  Al6  1  0.332292  0.332292  0.948444  1
  Ga  Ga7  1  0.127605  0.127605  0.249351  1
  Ga  Ga8  1  0.872356  0.872356  0.749453  1
  Ga  Ga9  1  0.000085  0.335291  0.078949  1
  Ga  Ga10  1  0.000031  0.664908  0.920785  1
  Ga  Ga11  1  0.999381  0.664775  0.579233  1
  Ga  Ga12  1  0.335678  0.001405  0.418961  1
  Ga  Ga13  1  0.001405  0.335678  0.418961  1
  Ga  Ga14  1  0.664775  0.999381  0.579233  1
  Ga  Ga15  1  0.664908  0.000031  0.920785  1
  Ga  Ga16  1  0.335291  0.000085  0.078949  1
  Ga  Ga17  1  0.329309  0.329309  0.563689  1
  Ga  Ga18  1  0.346686  0.549831  0.249860  1
  Ga  Ga19  1  0.656942  0.451587  0.750223  1
  Ga  Ga20  1  0.549831  0.346686  0.249860  1
  Ga  Ga21  1  0.451587  0.656942  0.750223  1
  Ir  Ir22  1  0.668757  0.330644  0.999696  1
  Ir  Ir23  1  0.330644  0.668757  0.999696  1
  Ir  Ir24  1  0.330542  0.671791  0.499160  1
  Ir  Ir25  1  0.671791  0.330542  0.499160  1
  Ir  Ir26  1  0.000172  0.000172  0.999257  1
  Ir  Ir27  1  0.995740  0.995740  0.497705  1
