# generated using pymatgen
data_Y2Er3InSb2
_symmetry_space_group_name_H-M   'P 1'
_cell_length_a   8.94317984
_cell_length_b   8.91299447
_cell_length_c   6.43479800
_cell_angle_alpha   90.00000000
_cell_angle_beta   90.00000000
_cell_angle_gamma   119.88840066
_symmetry_Int_Tables_number   1
_chemical_formula_structural   Y2Er3InSb2
_chemical_formula_sum   'Y4 Er6 In2 Sb4'
_cell_volume   444.70134115
_cell_formula_units_Z   2
loop_
 _symmetry_equiv_pos_site_id
 _symmetry_equiv_pos_as_xyz
  1  'x, y, z'
loop_
 _atom_site_type_symbol
 _atom_site_label
 _atom_site_symmetry_multiplicity
 _atom_site_fract_x
 _atom_site_fract_y
 _atom_site_fract_z
 _atom_site_occupancy
  Y  Y0  1  0.002496  0.760352  0.750000  1
  Y  Y1  1  0.002496  0.242146  0.250000  1
  Y  Y2  1  0.757794  0.759166  0.250000  1
  Y  Y3  1  0.757794  0.998628  0.750000  1
  Er  Er4  1  0.241807  0.237853  0.750000  1
  Er  Er5  1  0.241807  0.003955  0.250000  1
  Er  Er6  1  0.333910  0.666956  0.500000  1
  Er  Er7  1  0.663153  0.331576  0.000000  1
  Er  Er8  1  0.663153  0.331576  0.500000  1
  Er  Er9  1  0.333910  0.666956  0.000000  1
  In  In10  1  0.394004  0.998948  0.750000  1
  In  In11  1  0.394004  0.395056  0.250000  1
  Sb  Sb12  1  0.999569  0.608241  0.250000  1
  Sb  Sb13  1  0.999569  0.391328  0.750000  1
  Sb  Sb14  1  0.607265  0.606785  0.750000  1
  Sb  Sb15  1  0.607265  0.000480  0.250000  1
