# generated using pymatgen
data_La2NpS5
_symmetry_space_group_name_H-M   'P 1'
_cell_length_a   7.57808400
_cell_length_b   8.23108000
_cell_length_c   11.99406700
_cell_angle_alpha   90.00000000
_cell_angle_beta   90.00000000
_cell_angle_gamma   90.00000000
_symmetry_Int_Tables_number   1
_chemical_formula_structural   La2NpS5
_chemical_formula_sum   'La8 Np4 S20'
_cell_volume   748.13971209
_cell_formula_units_Z   4
loop_
 _symmetry_equiv_pos_site_id
 _symmetry_equiv_pos_as_xyz
  1  'x, y, z'
loop_
 _atom_site_type_symbol
 _atom_site_label
 _atom_site_symmetry_multiplicity
 _atom_site_fract_x
 _atom_site_fract_y
 _atom_site_fract_z
 _atom_site_occupancy
  La  La0  1  0.529453  0.501658  0.325279  1
  La  La1  1  0.970547  0.998342  0.825279  1
  La  La2  1  0.470547  0.001658  0.674721  1
  La  La3  1  0.029453  0.498342  0.174721  1
  La  La4  1  0.470547  0.498342  0.674721  1
  La  La5  1  0.029453  0.001658  0.174721  1
  La  La6  1  0.529453  0.998342  0.325279  1
  La  La7  1  0.970547  0.501658  0.825279  1
  Np  Np8  1  0.058452  0.750000  0.496108  1
  Np  Np9  1  0.441548  0.750000  0.996108  1
  Np  Np10  1  0.941548  0.250000  0.503892  1
  Np  Np11  1  0.558452  0.250000  0.003892  1
  S  S12  1  0.835966  0.965230  0.591947  1
  S  S13  1  0.664034  0.534770  0.091947  1
  S  S14  1  0.164034  0.465230  0.408053  1
  S  S15  1  0.335966  0.034770  0.908053  1
  S  S16  1  0.164034  0.034770  0.408053  1
  S  S17  1  0.335966  0.465230  0.908053  1
  S  S18  1  0.835966  0.534770  0.591947  1
  S  S19  1  0.664034  0.965230  0.091947  1
  S  S20  1  0.838192  0.750000  0.311430  1
  S  S21  1  0.661808  0.750000  0.811430  1
  S  S22  1  0.161808  0.250000  0.688570  1
  S  S23  1  0.338192  0.250000  0.188570  1
  S  S24  1  0.449858  0.750000  0.498088  1
  S  S25  1  0.050142  0.750000  0.998088  1
  S  S26  1  0.550142  0.250000  0.501912  1
  S  S27  1  0.949858  0.250000  0.001912  1
  S  S28  1  0.187371  0.750000  0.711680  1
  S  S29  1  0.312629  0.750000  0.211680  1
  S  S30  1  0.812629  0.250000  0.288320  1
  S  S31  1  0.687371  0.250000  0.788320  1
