# generated using pymatgen
data_Dy2ZnInRu
_symmetry_space_group_name_H-M   'P 1'
_cell_length_a   7.42321400
_cell_length_b   7.66338700
_cell_length_c   3.88996100
_cell_angle_alpha   90.00000000
_cell_angle_beta   90.00000000
_cell_angle_gamma   90.00000000
_symmetry_Int_Tables_number   1
_chemical_formula_structural   Dy2ZnInRu
_chemical_formula_sum   'Dy4 Zn2 In2 Ru2'
_cell_volume   221.28806229
_cell_formula_units_Z   2
loop_
 _symmetry_equiv_pos_site_id
 _symmetry_equiv_pos_as_xyz
  1  'x, y, z'
loop_
 _atom_site_type_symbol
 _atom_site_label
 _atom_site_symmetry_multiplicity
 _atom_site_fract_x
 _atom_site_fract_y
 _atom_site_fract_z
 _atom_site_occupancy
  Dy  Dy0  1  0.320882  0.853811  0.500000  1
  Dy  Dy1  1  0.820882  0.646189  0.500000  1
  Dy  Dy2  1  0.669888  0.191855  0.500000  1
  Dy  Dy3  1  0.169888  0.308145  0.500000  1
  Zn  Zn4  1  0.128918  0.612440  0.000000  1
  Zn  Zn5  1  0.628918  0.887560  0.000000  1
  In  In6  1  0.499460  0.500567  0.000000  1
  In  In7  1  0.999460  0.999433  0.000000  1
  Ru  Ru8  1  0.380853  0.124271  0.000000  1
  Ru  Ru9  1  0.880853  0.375729  0.000000  1
