# generated using pymatgen
data_Hf16Nb4Si15Au
_symmetry_space_group_name_H-M   'P 1'
_cell_length_a   6.78926298
_cell_length_b   6.95692017
_cell_length_c   13.44509864
_cell_angle_alpha   89.87332479
_cell_angle_beta   89.77169099
_cell_angle_gamma   90.07727557
_symmetry_Int_Tables_number   1
_chemical_formula_structural   Hf16Nb4Si15Au
_chemical_formula_sum   'Hf16 Nb4 Si15 Au1'
_cell_volume   635.03656796
_cell_formula_units_Z   1
loop_
 _symmetry_equiv_pos_site_id
 _symmetry_equiv_pos_as_xyz
  1  'x, y, z'
loop_
 _atom_site_type_symbol
 _atom_site_label
 _atom_site_symmetry_multiplicity
 _atom_site_fract_x
 _atom_site_fract_y
 _atom_site_fract_z
 _atom_site_occupancy
  Hf  Hf0  1  0.338987  0.676841  0.876054  1
  Hf  Hf1  1  0.838536  0.826153  0.875315  1
  Hf  Hf2  1  0.652202  0.328149  0.371951  1
  Hf  Hf3  1  0.998968  0.677776  0.094421  1
  Hf  Hf4  1  0.492591  0.816489  0.400530  1
  Hf  Hf5  1  0.501091  0.176908  0.903729  1
  Hf  Hf6  1  0.493223  0.183529  0.601153  1
  Hf  Hf7  1  0.001878  0.322877  0.904541  1
  Hf  Hf8  1  0.162906  0.175269  0.124119  1
  Hf  Hf9  1  0.165804  0.170219  0.374158  1
  Hf  Hf10  1  0.001124  0.669616  0.401461  1
  Hf  Hf11  1  0.662045  0.325414  0.123768  1
  Hf  Hf12  1  0.498662  0.824425  0.094096  1
  Hf  Hf13  1  0.006429  0.331796  0.601216  1
  Hf  Hf14  1  0.339077  0.673937  0.626243  1
  Hf  Hf15  1  0.842112  0.822426  0.627852  1
  Nb  Nb16  1  0.665116  0.501621  0.750986  1
  Nb  Nb17  1  0.166872  0.000267  0.752514  1
  Nb  Nb18  1  0.335025  0.498685  0.248685  1
  Nb  Nb19  1  0.834852  0.998526  0.241869  1
  Si  Si20  1  0.676287  0.532947  0.537646  1
  Si  Si21  1  0.173842  0.970047  0.961417  1
  Si  Si22  1  0.297245  0.361992  0.753005  1
  Si  Si23  1  0.828118  0.031714  0.038188  1
  Si  Si24  1  0.327458  0.470113  0.038708  1
  Si  Si25  1  0.462498  0.100649  0.247841  1
  Si  Si26  1  0.704371  0.641593  0.247265  1
  Si  Si27  1  0.960190  0.391686  0.249764  1
  Si  Si28  1  0.798169  0.141275  0.751008  1
  Si  Si29  1  0.673025  0.530165  0.960518  1
  Si  Si30  1  0.176822  0.969579  0.541010  1
  Si  Si31  1  0.040506  0.605186  0.752747  1
  Si  Si32  1  0.322784  0.464229  0.463936  1
  Si  Si33  1  0.539502  0.895594  0.750235  1
  Si  Si34  1  0.199626  0.858565  0.249109  1
  Au  Au35  1  0.822057  0.033745  0.462941  1
