# generated using pymatgen
data_CsHoTe3O8
_symmetry_space_group_name_H-M   'P 1'
_cell_length_a   6.08820143
_cell_length_b   8.01236102
_cell_length_c   11.70372247
_cell_angle_alpha   100.76227928
_cell_angle_beta   89.09276813
_cell_angle_gamma   110.10986102
_symmetry_Int_Tables_number   1
_chemical_formula_structural   CsHoTe3O8
_chemical_formula_sum   'Cs2 Ho2 Te6 O16'
_cell_volume   525.95733675
_cell_formula_units_Z   2
loop_
 _symmetry_equiv_pos_site_id
 _symmetry_equiv_pos_as_xyz
  1  'x, y, z'
loop_
 _atom_site_type_symbol
 _atom_site_label
 _atom_site_symmetry_multiplicity
 _atom_site_fract_x
 _atom_site_fract_y
 _atom_site_fract_z
 _atom_site_occupancy
  Cs  Cs0  1  0.819915  0.110797  0.163242  1
  Cs  Cs1  1  0.180085  0.889203  0.836758  1
  Ho  Ho2  1  0.500000  0.500000  0.000000  1
  Ho  Ho3  1  0.000000  0.500000  0.500000  1
  Te  Te4  1  0.212927  0.988944  0.420264  1
  Te  Te5  1  0.787073  0.011056  0.579736  1
  Te  Te6  1  0.079133  0.682445  0.153125  1
  Te  Te7  1  0.920867  0.317555  0.846875  1
  Te  Te8  1  0.510460  0.518305  0.333626  1
  Te  Te9  1  0.489540  0.481695  0.666374  1
  O  O10  1  0.180294  0.747723  0.424928  1
  O  O11  1  0.819706  0.252277  0.575072  1
  O  O12  1  0.230693  0.928734  0.236455  1
  O  O13  1  0.769307  0.071266  0.763545  1
  O  O14  1  0.888603  0.962109  0.399265  1
  O  O15  1  0.111397  0.037891  0.600735  1
  O  O16  1  0.290552  0.690773  0.033207  1
  O  O17  1  0.709448  0.309227  0.966793  1
  O  O18  1  0.840951  0.723608  0.074328  1
  O  O19  1  0.159049  0.276392  0.925672  1
  O  O20  1  0.409365  0.428011  0.174838  1
  O  O21  1  0.590635  0.571989  0.825162  1
  O  O22  1  0.245321  0.371311  0.401427  1
  O  O23  1  0.754679  0.628689  0.598573  1
  O  O24  1  0.723756  0.398042  0.348632  1
  O  O25  1  0.276244  0.601958  0.651368  1
