# generated using pymatgen
data_Hf3Cr2P3Ru
_symmetry_space_group_name_H-M   'P 1'
_cell_length_a   6.60865103
_cell_length_b   6.60979528
_cell_length_c   3.46884200
_cell_angle_alpha   90.00000000
_cell_angle_beta   90.00000000
_cell_angle_gamma   120.00572432
_symmetry_Int_Tables_number   1
_chemical_formula_structural   Hf3Cr2P3Ru
_chemical_formula_sum   'Hf3 Cr2 P3 Ru1'
_cell_volume   131.21724806
_cell_formula_units_Z   1
loop_
 _symmetry_equiv_pos_site_id
 _symmetry_equiv_pos_as_xyz
  1  'x, y, z'
loop_
 _atom_site_type_symbol
 _atom_site_label
 _atom_site_symmetry_multiplicity
 _atom_site_fract_x
 _atom_site_fract_y
 _atom_site_fract_z
 _atom_site_occupancy
  Hf  Hf0  1  0.000000  0.594974  0.500000  1
  Hf  Hf1  1  0.409808  0.408631  0.500000  1
  Hf  Hf2  1  0.590192  0.998824  0.500000  1
  Cr  Cr3  1  0.247313  0.000436  0.000000  1
  Cr  Cr4  1  0.752687  0.753123  0.000000  1
  P  P5  1  0.662902  0.334712  0.000000  1
  P  P6  1  0.337098  0.671811  0.000000  1
  P  P7  1  0.000000  0.993437  0.500000  1
  Ru  Ru8  1  0.000000  0.244051  0.000000  1
