# generated using pymatgen
data_Zr7Sc(Ta3Ge4)4
_symmetry_space_group_name_H-M   'P 1'
_cell_length_a   6.85097150
_cell_length_b   6.96612903
_cell_length_c   13.32196999
_cell_angle_alpha   90.03746412
_cell_angle_beta   89.97926028
_cell_angle_gamma   90.01809328
_symmetry_Int_Tables_number   1
_chemical_formula_structural   Zr7Sc(Ta3Ge4)4
_chemical_formula_sum   'Zr7 Sc1 Ta12 Ge16'
_cell_volume   635.78749666
_cell_formula_units_Z   1
loop_
 _symmetry_equiv_pos_site_id
 _symmetry_equiv_pos_as_xyz
  1  'x, y, z'
loop_
 _atom_site_type_symbol
 _atom_site_label
 _atom_site_symmetry_multiplicity
 _atom_site_fract_x
 _atom_site_fract_y
 _atom_site_fract_z
 _atom_site_occupancy
  Zr  Zr0  1  0.490328  0.326209  0.091234  1
  Zr  Zr1  1  0.988389  0.175233  0.408356  1
  Zr  Zr2  1  0.510991  0.674782  0.590992  1
  Zr  Zr3  1  0.011135  0.823731  0.908085  1
  Zr  Zr4  1  0.510493  0.675969  0.909076  1
  Zr  Zr5  1  0.011584  0.826162  0.590817  1
  Zr  Zr6  1  0.489080  0.324689  0.408554  1
  Sc  Sc7  1  0.989794  0.174099  0.091082  1
  Ta  Ta8  1  0.663433  0.010922  0.749897  1
  Ta  Ta9  1  0.163315  0.490393  0.750253  1
  Ta  Ta10  1  0.337432  0.989506  0.250470  1
  Ta  Ta11  1  0.836481  0.510722  0.251332  1
  Ta  Ta12  1  0.840729  0.334836  0.624788  1
  Ta  Ta13  1  0.341633  0.165015  0.875405  1
  Ta  Ta14  1  0.160373  0.665255  0.125322  1
  Ta  Ta15  1  0.659048  0.834137  0.375154  1
  Ta  Ta16  1  0.158667  0.666001  0.375555  1
  Ta  Ta17  1  0.656858  0.831871  0.124864  1
  Ta  Ta18  1  0.839167  0.335775  0.875051  1
  Ta  Ta19  1  0.341159  0.165441  0.624887  1
  Ge  Ge20  1  0.806446  0.651253  0.749822  1
  Ge  Ge21  1  0.306946  0.849392  0.750009  1
  Ge  Ge22  1  0.191755  0.347530  0.248393  1
  Ge  Ge23  1  0.694585  0.150923  0.248703  1
  Ge  Ge24  1  0.537801  0.388602  0.750078  1
  Ge  Ge25  1  0.038189  0.112735  0.750604  1
  Ge  Ge26  1  0.461149  0.610954  0.250671  1
  Ge  Ge27  1  0.961775  0.888429  0.249113  1
  Ge  Ge28  1  0.682482  0.039737  0.539622  1
  Ge  Ge29  1  0.182256  0.459898  0.960314  1
  Ge  Ge30  1  0.316158  0.961469  0.040135  1
  Ge  Ge31  1  0.817548  0.539729  0.460416  1
  Ge  Ge32  1  0.317143  0.961077  0.460054  1
  Ge  Ge33  1  0.819439  0.537937  0.040329  1
  Ge  Ge34  1  0.683849  0.039879  0.960931  1
  Ge  Ge35  1  0.182390  0.459706  0.539630  1
