# generated using pymatgen
data_Sc2Si14Ir5Ru
_symmetry_space_group_name_H-M   'P 1'
_cell_length_a   7.94105987
_cell_length_b   7.94105985
_cell_length_c   7.97242761
_cell_angle_alpha   56.80658303
_cell_angle_beta   56.80658224
_cell_angle_gamma   56.90318418
_symmetry_Int_Tables_number   1
_chemical_formula_structural   Sc2Si14Ir5Ru
_chemical_formula_sum   'Sc2 Si14 Ir5 Ru1'
_cell_volume   329.56086734
_cell_formula_units_Z   1
loop_
 _symmetry_equiv_pos_site_id
 _symmetry_equiv_pos_as_xyz
  1  'x, y, z'
loop_
 _atom_site_type_symbol
 _atom_site_label
 _atom_site_symmetry_multiplicity
 _atom_site_fract_x
 _atom_site_fract_y
 _atom_site_fract_z
 _atom_site_occupancy
  Sc  Sc0  1  0.000805  0.002026  0.998227  1
  Sc  Sc1  1  0.497974  0.499195  0.501773  1
  Si  Si2  1  0.753654  0.746346  0.750000  1
  Si  Si3  1  0.249721  0.250279  0.250000  1
  Si  Si4  1  0.850296  0.065723  0.672285  1
  Si  Si5  1  0.671758  0.851806  0.064973  1
  Si  Si6  1  0.065215  0.669657  0.850232  1
  Si  Si7  1  0.648194  0.828242  0.435027  1
  Si  Si8  1  0.434277  0.649704  0.827715  1
  Si  Si9  1  0.830343  0.434785  0.649768  1
  Si  Si10  1  0.171605  0.563873  0.354978  1
  Si  Si11  1  0.566385  0.350886  0.171552  1
  Si  Si12  1  0.348964  0.174727  0.566791  1
  Si  Si13  1  0.936127  0.328395  0.145022  1
  Si  Si14  1  0.325273  0.151036  0.933209  1
  Si  Si15  1  0.149114  0.933615  0.328448  1
  Ir  Ir16  1  0.250141  0.926227  0.573608  1
  Ir  Ir17  1  0.573773  0.249859  0.926392  1
  Ir  Ir18  1  0.924986  0.575014  0.250000  1
  Ir  Ir19  1  0.426110  0.750200  0.073646  1
  Ir  Ir20  1  0.749800  0.073890  0.426354  1
  Ru  Ru21  1  0.075485  0.424515  0.750000  1
