# generated using pymatgen
data_La2YCd3Sn2Au
_symmetry_space_group_name_H-M   'P 1'
_cell_length_a   7.78770800
_cell_length_b   7.68540416
_cell_length_c   4.62310900
_cell_angle_alpha   90.00000000
_cell_angle_beta   90.00000000
_cell_angle_gamma   120.44131609
_symmetry_Int_Tables_number   1
_chemical_formula_structural   La2YCd3Sn2Au
_chemical_formula_sum   'La2 Y1 Cd3 Sn2 Au1'
_cell_volume   238.55724029
_cell_formula_units_Z   1
loop_
 _symmetry_equiv_pos_site_id
 _symmetry_equiv_pos_as_xyz
  1  'x, y, z'
loop_
 _atom_site_type_symbol
 _atom_site_label
 _atom_site_symmetry_multiplicity
 _atom_site_fract_x
 _atom_site_fract_y
 _atom_site_fract_z
 _atom_site_occupancy
  La  La0  1  0.591310  0.593406  0.000000  1
  La  La1  1  0.997905  0.406594  0.000000  1
  Y  Y2  1  0.400078  0.000000  0.000000  1
  Cd  Cd3  1  0.763681  0.000000  0.500000  1
  Cd  Cd4  1  0.239387  0.238753  0.500000  1
  Cd  Cd5  1  0.000634  0.761247  0.500000  1
  Sn  Sn6  1  0.659513  0.321160  0.500000  1
  Sn  Sn7  1  0.338352  0.678840  0.500000  1
  Au  Au8  1  0.009140  0.000000  0.000000  1
