# generated using pymatgen
data_Ho4Tm4Lu4Co5Hg
_symmetry_space_group_name_H-M   'P 1'
_cell_length_a   8.16835438
_cell_length_b   8.16840461
_cell_length_c   8.16835300
_cell_angle_alpha   110.92826913
_cell_angle_beta   110.81979140
_cell_angle_gamma   106.70040875
_symmetry_Int_Tables_number   1
_chemical_formula_structural   Ho4Tm4Lu4Co5Hg
_chemical_formula_sum   'Ho4 Tm4 Lu4 Co5 Hg1'
_cell_volume   418.82015293
_cell_formula_units_Z   1
loop_
 _symmetry_equiv_pos_site_id
 _symmetry_equiv_pos_as_xyz
  1  'x, y, z'
loop_
 _atom_site_type_symbol
 _atom_site_label
 _atom_site_symmetry_multiplicity
 _atom_site_fract_x
 _atom_site_fract_y
 _atom_site_fract_z
 _atom_site_occupancy
  Ho  Ho0  1  0.287584  0.186012  0.473613  1
  Ho  Ho1  1  0.712416  0.813988  0.526387  1
  Ho  Ho2  1  0.287601  0.813988  0.101572  1
  Ho  Ho3  1  0.712399  0.186012  0.898428  1
  Tm  Tm4  1  0.214202  0.405915  0.191713  1
  Tm  Tm5  1  0.785798  0.594085  0.808287  1
  Tm  Tm6  1  0.214196  0.022400  0.808203  1
  Tm  Tm7  1  0.785804  0.977600  0.191797  1
  Lu  Lu8  1  0.621845  0.314921  0.306922  1
  Lu  Lu9  1  0.378155  0.685079  0.693078  1
  Lu  Lu10  1  0.007998  0.314921  0.693076  1
  Lu  Lu11  1  0.992002  0.685079  0.306924  1
  Co  Co12  1  0.000020  0.376421  0.376401  1
  Co  Co13  1  0.999980  0.623579  0.623599  1
  Co  Co14  1  0.386398  0.886501  0.500104  1
  Co  Co15  1  0.613602  0.113499  0.499896  1
  Co  Co16  1  0.000000  0.000000  0.000000  1
  Hg  Hg17  1  0.500000  0.500000  0.000000  1
