# generated using pymatgen
data_La5Zn2Ir2Ru
_symmetry_space_group_name_H-M   'P 1'
_cell_length_a   8.69168937
_cell_length_b   8.64653328
_cell_length_c   8.64116538
_cell_angle_alpha   109.32994756
_cell_angle_beta   109.96178222
_cell_angle_gamma   109.54606046
_symmetry_Int_Tables_number   1
_chemical_formula_structural   La5Zn2Ir2Ru
_chemical_formula_sum   'La10 Zn4 Ir4 Ru2'
_cell_volume   497.26991510
_cell_formula_units_Z   2
loop_
 _symmetry_equiv_pos_site_id
 _symmetry_equiv_pos_as_xyz
  1  'x, y, z'
loop_
 _atom_site_type_symbol
 _atom_site_label
 _atom_site_symmetry_multiplicity
 _atom_site_fract_x
 _atom_site_fract_y
 _atom_site_fract_z
 _atom_site_occupancy
  La  La0  1  0.250346  0.683884  0.439900  1
  La  La1  1  0.745319  0.813231  0.059283  1
  La  La2  1  0.435890  0.248248  0.685129  1
  La  La3  1  0.684313  0.439395  0.252166  1
  La  La4  1  0.062718  0.750546  0.814268  1
  La  La5  1  0.812046  0.059552  0.744370  1
  La  La6  1  0.220000  0.220169  0.220440  1
  La  La7  1  0.501983  0.998012  0.281105  1
  La  La8  1  0.284710  0.504025  0.002638  1
  La  La9  1  0.004095  0.283082  0.501613  1
  Zn  Zn10  1  0.498747  0.000107  0.910033  1
  Zn  Zn11  1  0.587541  0.588484  0.589522  1
  Zn  Zn12  1  0.909413  0.499778  0.000454  1
  Zn  Zn13  1  0.999037  0.909376  0.497353  1
  Ir  Ir14  1  0.251164  0.127527  0.877539  1
  Ir  Ir15  1  0.750315  0.373177  0.623542  1
  Ir  Ir16  1  0.875414  0.250511  0.125062  1
  Ir  Ir17  1  0.127698  0.877077  0.249827  1
  Ru  Ru18  1  0.626365  0.750987  0.375734  1
  Ru  Ru19  1  0.372892  0.622840  0.750025  1
