# generated using pymatgen
data_Sc6TaAl13Os7W2
_symmetry_space_group_name_H-M   'P 1'
_cell_length_a   8.83280145
_cell_length_b   8.83280072
_cell_length_c   8.84560000
_cell_angle_alpha   59.80381890
_cell_angle_beta   59.80382233
_cell_angle_gamma   59.86196961
_symmetry_Int_Tables_number   1
_chemical_formula_structural   Sc6TaAl13Os7W2
_chemical_formula_sum   'Sc6 Ta1 Al13 Os7 W2'
_cell_volume   486.02950463
_cell_formula_units_Z   1
loop_
 _symmetry_equiv_pos_site_id
 _symmetry_equiv_pos_as_xyz
  1  'x, y, z'
loop_
 _atom_site_type_symbol
 _atom_site_label
 _atom_site_symmetry_multiplicity
 _atom_site_fract_x
 _atom_site_fract_y
 _atom_site_fract_z
 _atom_site_occupancy
  Sc  Sc0  1  0.712284  0.712284  0.278070  1
  Sc  Sc1  1  0.291204  0.710596  0.289571  1
  Sc  Sc2  1  0.710596  0.291204  0.289571  1
  Sc  Sc3  1  0.289607  0.289607  0.711890  1
  Sc  Sc4  1  0.713162  0.277460  0.713818  1
  Sc  Sc5  1  0.277460  0.713162  0.713818  1
  Ta  Ta6  1  0.877430  0.877430  0.363221  1
  Al  Al7  1  0.880117  0.880117  0.880758  1
  Al  Al8  1  0.121296  0.121296  0.636959  1
  Al  Al9  1  0.120828  0.638219  0.121194  1
  Al  Al10  1  0.638219  0.120828  0.121194  1
  Al  Al11  1  0.121883  0.121883  0.122563  1
  Al  Al12  1  0.665926  0.665926  0.009219  1
  Al  Al13  1  0.665184  0.009685  0.666070  1
  Al  Al14  1  0.009685  0.665184  0.666070  1
  Al  Al15  1  0.657574  0.657574  0.657424  1
  Al  Al16  1  0.335401  0.335401  0.996516  1
  Al  Al17  1  0.335680  0.996735  0.335105  1
  Al  Al18  1  0.996735  0.335680  0.335105  1
  Al  Al19  1  0.335537  0.335537  0.335076  1
  Os  Os20  1  0.006197  0.006197  0.997744  1
  Os  Os21  1  0.998287  0.998287  0.499578  1
  Os  Os22  1  0.501887  0.996603  0.506960  1
  Os  Os23  1  0.996603  0.501887  0.506960  1
  Os  Os24  1  0.505018  0.505018  0.995691  1
  Os  Os25  1  0.998156  0.497053  0.998084  1
  Os  Os26  1  0.497053  0.998156  0.998084  1
  W  W27  1  0.875683  0.365312  0.876848  1
  W  W28  1  0.365312  0.875683  0.876848  1
