# generated using pymatgen
data_LiPrP6Pd20Pb
_symmetry_space_group_name_H-M   'P 1'
_cell_length_a   8.67868639
_cell_length_b   8.67868597
_cell_length_c   8.67868600
_cell_angle_alpha   59.99999988
_cell_angle_beta   60.00000149
_cell_angle_gamma   59.99999278
_symmetry_Int_Tables_number   1
_chemical_formula_structural   LiPrP6Pd20Pb
_chemical_formula_sum   'Li1 Pr1 P6 Pd20 Pb1'
_cell_volume   462.21807853
_cell_formula_units_Z   1
loop_
 _symmetry_equiv_pos_site_id
 _symmetry_equiv_pos_as_xyz
  1  'x, y, z'
loop_
 _atom_site_type_symbol
 _atom_site_label
 _atom_site_symmetry_multiplicity
 _atom_site_fract_x
 _atom_site_fract_y
 _atom_site_fract_z
 _atom_site_occupancy
  Li  Li0  1  0.000000  0.000000  0.000000  1
  Pr  Pr1  1  0.750000  0.750000  0.750000  1
  P  P2  1  0.738862  0.261138  0.261138  1
  P  P3  1  0.261138  0.738862  0.738862  1
  P  P4  1  0.261138  0.738862  0.261138  1
  P  P5  1  0.738862  0.261138  0.738862  1
  P  P6  1  0.261138  0.261138  0.738862  1
  P  P7  1  0.738862  0.738862  0.261138  1
  Pd  Pd8  1  0.383508  0.383508  0.383508  1
  Pd  Pd9  1  0.612007  0.612007  0.612007  1
  Pd  Pd10  1  0.383508  0.383508  0.849477  1
  Pd  Pd11  1  0.383508  0.849477  0.383508  1
  Pd  Pd12  1  0.612007  0.612007  0.163977  1
  Pd  Pd13  1  0.612007  0.163977  0.612007  1
  Pd  Pd14  1  0.849477  0.383508  0.383508  1
  Pd  Pd15  1  0.163977  0.612007  0.612007  1
  Pd  Pd16  1  0.345369  0.997973  0.997973  1
  Pd  Pd17  1  0.658684  0.997973  0.997973  1
  Pd  Pd18  1  0.997973  0.345369  0.658684  1
  Pd  Pd19  1  0.997973  0.658684  0.345369  1
  Pd  Pd20  1  0.997973  0.345369  0.997973  1
  Pd  Pd21  1  0.658684  0.997973  0.345369  1
  Pd  Pd22  1  0.997973  0.658684  0.997973  1
  Pd  Pd23  1  0.345369  0.997973  0.658684  1
  Pd  Pd24  1  0.997973  0.997973  0.345369  1
  Pd  Pd25  1  0.997973  0.997973  0.658684  1
  Pd  Pd26  1  0.658684  0.345369  0.997973  1
  Pd  Pd27  1  0.345369  0.658684  0.997973  1
  Pb  Pb28  1  0.250000  0.250000  0.250000  1
