# generated using pymatgen
data_Pr3NdTmRu2
_symmetry_space_group_name_H-M   'P 1'
_cell_length_a   6.61117314
_cell_length_b   7.32481591
_cell_length_c   8.82470131
_cell_angle_alpha   95.87555678
_cell_angle_beta   111.99857780
_cell_angle_gamma   89.99999826
_symmetry_Int_Tables_number   1
_chemical_formula_structural   Pr3NdTmRu2
_chemical_formula_sum   'Pr6 Nd2 Tm2 Ru4'
_cell_volume   393.80594985
_cell_formula_units_Z   2
loop_
 _symmetry_equiv_pos_site_id
 _symmetry_equiv_pos_as_xyz
  1  'x, y, z'
loop_
 _atom_site_type_symbol
 _atom_site_label
 _atom_site_symmetry_multiplicity
 _atom_site_fract_x
 _atom_site_fract_y
 _atom_site_fract_z
 _atom_site_occupancy
  Pr  Pr0  1  0.793487  0.083178  0.817571  1
  Pr  Pr1  1  0.975916  0.416822  0.182429  1
  Pr  Pr2  1  0.206923  0.915988  0.182501  1
  Pr  Pr3  1  0.024422  0.584012  0.817499  1
  Pr  Pr4  1  0.208106  0.186408  0.569897  1
  Pr  Pr5  1  0.638208  0.313592  0.430103  1
  Nd  Nd6  1  0.791691  0.813353  0.429599  1
  Nd  Nd7  1  0.362093  0.686647  0.570401  1
  Tm  Tm8  1  0.429678  0.250000  0.000000  1
  Tm  Tm9  1  0.570137  0.750000  0.000000  1
  Ru  Ru10  1  0.599949  0.428495  0.787927  1
  Ru  Ru11  1  0.812020  0.071505  0.212073  1
  Ru  Ru12  1  0.399949  0.572479  0.212531  1
  Ru  Ru13  1  0.187420  0.927521  0.787469  1
