# generated using pymatgen
data_TaOsPbF12
_symmetry_space_group_name_H-M   'P 1'
_cell_length_a   5.45930591
_cell_length_b   5.72516563
_cell_length_c   9.90446300
_cell_angle_alpha   91.25855033
_cell_angle_beta   104.75068459
_cell_angle_gamma   117.80038040
_symmetry_Int_Tables_number   1
_chemical_formula_structural   TaOsPbF12
_chemical_formula_sum   'Ta1 Os1 Pb1 F12'
_cell_volume   261.20501089
_cell_formula_units_Z   1
loop_
 _symmetry_equiv_pos_site_id
 _symmetry_equiv_pos_as_xyz
  1  'x, y, z'
loop_
 _atom_site_type_symbol
 _atom_site_label
 _atom_site_symmetry_multiplicity
 _atom_site_fract_x
 _atom_site_fract_y
 _atom_site_fract_z
 _atom_site_occupancy
  Ta  Ta0  1  0.433427  0.686205  0.143579  1
  Os  Os1  1  0.165220  0.507067  0.593701  1
  Pb  Pb2  1  0.012541  0.957971  0.888011  1
  F  F3  1  0.093614  0.585474  0.968109  1
  F  F4  1  0.526083  0.634774  0.751712  1
  F  F5  1  0.969006  0.242071  0.705918  1
  F  F6  1  0.091476  0.763195  0.688034  1
  F  F7  1  0.256207  0.266939  0.516277  1
  F  F8  1  0.367485  0.775791  0.496600  1
  F  F9  1  0.811479  0.377176  0.451474  1
  F  F10  1  0.764582  0.793610  0.296428  1
  F  F11  1  0.171964  0.427187  0.223338  1
  F  F12  1  0.346342  0.960190  0.183300  1
  F  F13  1  0.672103  0.922365  0.028927  1
  F  F14  1  0.466466  0.409977  0.042595  1
