# generated using pymatgen
data_Hf10CuSb5
_symmetry_space_group_name_H-M   'P 1'
_cell_length_a   5.53021025
_cell_length_b   8.28709993
_cell_length_c   8.28709977
_cell_angle_alpha   96.39207695
_cell_angle_beta   109.49130174
_cell_angle_gamma   70.50869615
_symmetry_Int_Tables_number   1
_chemical_formula_structural   Hf10CuSb5
_chemical_formula_sum   'Hf10 Cu1 Sb5'
_cell_volume   337.50993999
_cell_formula_units_Z   1
loop_
 _symmetry_equiv_pos_site_id
 _symmetry_equiv_pos_as_xyz
  1  'x, y, z'
loop_
 _atom_site_type_symbol
 _atom_site_label
 _atom_site_symmetry_multiplicity
 _atom_site_fract_x
 _atom_site_fract_y
 _atom_site_fract_z
 _atom_site_occupancy
  Hf  Hf0  1  0.931860  0.858299  0.706907  1
  Hf  Hf1  1  0.083251  0.141701  0.293093  1
  Hf  Hf2  1  0.416749  0.293093  0.141701  1
  Hf  Hf3  1  0.568140  0.706907  0.858299  1
  Hf  Hf4  1  0.224953  0.706907  0.141701  1
  Hf  Hf5  1  0.790158  0.293093  0.858299  1
  Hf  Hf6  1  0.275047  0.141701  0.706907  1
  Hf  Hf7  1  0.709842  0.858299  0.293093  1
  Hf  Hf8  1  0.250000  0.500000  0.500000  1
  Hf  Hf9  1  0.750000  0.500000  0.500000  1
  Cu  Cu10  1  0.250000  0.000000  0.000000  1
  Sb  Sb11  1  0.335570  0.828861  0.500000  1
  Sb  Sb12  1  0.664430  0.171139  0.500000  1
  Sb  Sb13  1  0.835570  0.500000  0.171139  1
  Sb  Sb14  1  0.164430  0.500000  0.828861  1
  Sb  Sb15  1  0.750000  0.000000  0.000000  1
