# generated using pymatgen
data_PrTh3(Ga3Rh)6
_symmetry_space_group_name_H-M   'P 1'
_cell_length_a   7.70599845
_cell_length_b   7.70572751
_cell_length_c   9.55506400
_cell_angle_alpha   90.00000000
_cell_angle_beta   90.00000000
_cell_angle_gamma   119.64241175
_symmetry_Int_Tables_number   1
_chemical_formula_structural   PrTh3(Ga3Rh)6
_chemical_formula_sum   'Pr1 Th3 Ga18 Rh6'
_cell_volume   493.12888013
_cell_formula_units_Z   1
loop_
 _symmetry_equiv_pos_site_id
 _symmetry_equiv_pos_as_xyz
  1  'x, y, z'
loop_
 _atom_site_type_symbol
 _atom_site_label
 _atom_site_symmetry_multiplicity
 _atom_site_fract_x
 _atom_site_fract_y
 _atom_site_fract_z
 _atom_site_occupancy
  Pr  Pr0  1  0.329205  0.004102  0.750000  1
  Th  Th1  1  0.996550  0.670473  0.250000  1
  Th  Th2  1  0.002807  0.329845  0.750000  1
  Th  Th3  1  0.670534  0.996534  0.250000  1
  Ga  Ga4  1  0.134349  0.133327  0.250000  1
  Ga  Ga5  1  0.868308  0.868494  0.750000  1
  Ga  Ga6  1  0.004228  0.335450  0.079382  1
  Ga  Ga7  1  0.998856  0.667190  0.920204  1
  Ga  Ga8  1  0.998856  0.667190  0.579796  1
  Ga  Ga9  1  0.335345  0.003392  0.422960  1
  Ga  Ga10  1  0.004228  0.335450  0.420618  1
  Ga  Ga11  1  0.662415  0.996547  0.579745  1
  Ga  Ga12  1  0.662415  0.996547  0.920255  1
  Ga  Ga13  1  0.335345  0.003392  0.077040  1
  Ga  Ga14  1  0.335302  0.333427  0.558755  1
  Ga  Ga15  1  0.663988  0.663972  0.443077  1
  Ga  Ga16  1  0.663988  0.663972  0.056923  1
  Ga  Ga17  1  0.335302  0.333427  0.941245  1
  Ga  Ga18  1  0.342482  0.544416  0.250000  1
  Ga  Ga19  1  0.658324  0.453231  0.750000  1
  Ga  Ga20  1  0.544527  0.341132  0.250000  1
  Ga  Ga21  1  0.453676  0.658927  0.750000  1
  Rh  Rh22  1  0.674573  0.330012  0.001723  1
  Rh  Rh23  1  0.327915  0.670410  0.001791  1
  Rh  Rh24  1  0.327915  0.670410  0.498209  1
  Rh  Rh25  1  0.674573  0.330012  0.498277  1
  Rh  Rh26  1  0.996998  0.999360  0.002384  1
  Rh  Rh27  1  0.996998  0.999360  0.497616  1
