# generated using pymatgen
data_Sc3Pa(Ni2Hg)2
_symmetry_space_group_name_H-M   'P 1'
_cell_length_a   7.23578494
_cell_length_b   7.23578623
_cell_length_c   3.37884300
_cell_angle_alpha   90.00000000
_cell_angle_beta   90.00000000
_cell_angle_gamma   92.40416018
_symmetry_Int_Tables_number   1
_chemical_formula_structural   Sc3Pa(Ni2Hg)2
_chemical_formula_sum   'Sc3 Pa1 Ni4 Hg2'
_cell_volume   176.74899420
_cell_formula_units_Z   1
loop_
 _symmetry_equiv_pos_site_id
 _symmetry_equiv_pos_as_xyz
  1  'x, y, z'
loop_
 _atom_site_type_symbol
 _atom_site_label
 _atom_site_symmetry_multiplicity
 _atom_site_fract_x
 _atom_site_fract_y
 _atom_site_fract_z
 _atom_site_occupancy
  Sc  Sc0  1  0.173123  0.333828  0.500000  1
  Sc  Sc1  1  0.833828  0.673123  0.500000  1
  Sc  Sc2  1  0.324500  0.824500  0.500000  1
  Pa  Pa3  1  0.669675  0.169675  0.500000  1
  Ni  Ni4  1  0.866839  0.366839  0.000000  1
  Ni  Ni5  1  0.384390  0.125820  0.000000  1
  Ni  Ni6  1  0.625820  0.884390  0.000000  1
  Ni  Ni7  1  0.114765  0.614765  0.000000  1
  Hg  Hg8  1  0.013185  0.993874  0.000000  1
  Hg  Hg9  1  0.493874  0.513185  0.000000  1
