# generated using pymatgen
data_Hf4TiRe7
_symmetry_space_group_name_H-M   'P 1'
_cell_length_a   5.30159100
_cell_length_b   5.30153798
_cell_length_c   8.63301300
_cell_angle_alpha   90.00112923
_cell_angle_beta   90.00005898
_cell_angle_gamma   119.99905050
_symmetry_Int_Tables_number   1
_chemical_formula_structural   Hf4TiRe7
_chemical_formula_sum   'Hf4 Ti1 Re7'
_cell_volume   210.13833130
_cell_formula_units_Z   1
loop_
 _symmetry_equiv_pos_site_id
 _symmetry_equiv_pos_as_xyz
  1  'x, y, z'
loop_
 _atom_site_type_symbol
 _atom_site_label
 _atom_site_symmetry_multiplicity
 _atom_site_fract_x
 _atom_site_fract_y
 _atom_site_fract_z
 _atom_site_occupancy
  Hf  Hf0  1  0.333327  0.666659  0.065701  1
  Hf  Hf1  1  0.333336  0.666671  0.441360  1
  Hf  Hf2  1  0.666665  0.333330  0.558640  1
  Hf  Hf3  1  0.666674  0.333342  0.934298  1
  Ti  Ti4  1  0.000000  0.000000  0.000000  1
  Re  Re5  1  0.341520  0.170754  0.250062  1
  Re  Re6  1  0.829238  0.170759  0.250064  1
  Re  Re7  1  0.829242  0.658482  0.250066  1
  Re  Re8  1  0.000000  0.000000  0.500000  1
  Re  Re9  1  0.170759  0.341519  0.749934  1
  Re  Re10  1  0.170761  0.829242  0.749936  1
  Re  Re11  1  0.658481  0.829247  0.749938  1
