# generated using pymatgen
data_Pr3In2Sn3
_symmetry_space_group_name_H-M   'P 1'
_cell_length_a   6.63088280
_cell_length_b   6.63088336
_cell_length_c   10.59135900
_cell_angle_alpha   90.00000000
_cell_angle_beta   90.00000000
_cell_angle_gamma   102.38047995
_symmetry_Int_Tables_number   1
_chemical_formula_structural   Pr3In2Sn3
_chemical_formula_sum   'Pr6 In4 Sn6'
_cell_volume   454.85795549
_cell_formula_units_Z   2
loop_
 _symmetry_equiv_pos_site_id
 _symmetry_equiv_pos_as_xyz
  1  'x, y, z'
loop_
 _atom_site_type_symbol
 _atom_site_label
 _atom_site_symmetry_multiplicity
 _atom_site_fract_x
 _atom_site_fract_y
 _atom_site_fract_z
 _atom_site_occupancy
  Pr  Pr0  1  0.641021  0.641021  0.250000  1
  Pr  Pr1  1  0.358979  0.358979  0.750000  1
  Pr  Pr2  1  0.799323  0.200677  0.000000  1
  Pr  Pr3  1  0.200677  0.799323  0.000000  1
  Pr  Pr4  1  0.200677  0.799323  0.500000  1
  Pr  Pr5  1  0.799323  0.200677  0.500000  1
  In  In6  1  0.313450  0.313450  0.044784  1
  In  In7  1  0.686550  0.686550  0.955216  1
  In  In8  1  0.686550  0.686550  0.544784  1
  In  In9  1  0.313450  0.313450  0.455216  1
  Sn  Sn10  1  0.082349  0.497267  0.250000  1
  Sn  Sn11  1  0.917651  0.502733  0.750000  1
  Sn  Sn12  1  0.497267  0.082349  0.250000  1
  Sn  Sn13  1  0.502733  0.917651  0.750000  1
  Sn  Sn14  1  0.024317  0.024317  0.250000  1
  Sn  Sn15  1  0.975683  0.975683  0.750000  1
