# generated using pymatgen
data_Nb6ZnPt3N2
_symmetry_space_group_name_H-M   'P 1'
_cell_length_a   7.07200084
_cell_length_b   7.06809600
_cell_length_c   7.06406906
_cell_angle_alpha   90.00000000
_cell_angle_beta   89.49159883
_cell_angle_gamma   90.00000000
_symmetry_Int_Tables_number   1
_chemical_formula_structural   Nb6ZnPt3N2
_chemical_formula_sum   'Nb12 Zn2 Pt6 N4'
_cell_volume   353.08769442
_cell_formula_units_Z   2
loop_
 _symmetry_equiv_pos_site_id
 _symmetry_equiv_pos_as_xyz
  1  'x, y, z'
loop_
 _atom_site_type_symbol
 _atom_site_label
 _atom_site_symmetry_multiplicity
 _atom_site_fract_x
 _atom_site_fract_y
 _atom_site_fract_z
 _atom_site_occupancy
  Nb  Nb0  1  0.791630  0.956180  0.373209  1
  Nb  Nb1  1  0.702809  0.045065  0.874667  1
  Nb  Nb2  1  0.208370  0.456180  0.126791  1
  Nb  Nb3  1  0.297191  0.545065  0.625333  1
  Nb  Nb4  1  0.954230  0.376642  0.796551  1
  Nb  Nb5  1  0.045770  0.876642  0.703449  1
  Nb  Nb6  1  0.456464  0.127252  0.204952  1
  Nb  Nb7  1  0.543536  0.627252  0.295048  1
  Nb  Nb8  1  0.378056  0.792378  0.950443  1
  Nb  Nb9  1  0.871130  0.703297  0.040323  1
  Nb  Nb10  1  0.128870  0.203297  0.459677  1
  Nb  Nb11  1  0.621944  0.292378  0.549557  1
  Zn  Zn12  1  0.935878  0.565060  0.429748  1
  Zn  Zn13  1  0.064122  0.065060  0.070252  1
  Pt  Pt14  1  0.175746  0.814717  0.310203  1
  Pt  Pt15  1  0.305666  0.181582  0.825067  1
  Pt  Pt16  1  0.824254  0.314717  0.189797  1
  Pt  Pt17  1  0.694334  0.681582  0.674933  1
  Pt  Pt18  1  0.565247  0.435142  0.937585  1
  Pt  Pt19  1  0.434753  0.935142  0.562415  1
  N  N20  1  0.874119  0.127142  0.626004  1
  N  N21  1  0.623066  0.875544  0.124250  1
  N  N22  1  0.125881  0.627142  0.873996  1
  N  N23  1  0.376934  0.375544  0.375750  1
