# generated using pymatgen
data_Eu4Zn3AgP6
_symmetry_space_group_name_H-M   'P 1'
_cell_length_a   7.97771942
_cell_length_b   7.97771909
_cell_length_c   11.57242432
_cell_angle_alpha   55.05755911
_cell_angle_beta   55.05756094
_cell_angle_gamma   30.05234052
_symmetry_Int_Tables_number   1
_chemical_formula_structural   Eu4Zn3AgP6
_chemical_formula_sum   'Eu4 Zn3 Ag1 P6'
_cell_volume   296.98280592
_cell_formula_units_Z   1
loop_
 _symmetry_equiv_pos_site_id
 _symmetry_equiv_pos_as_xyz
  1  'x, y, z'
loop_
 _atom_site_type_symbol
 _atom_site_label
 _atom_site_symmetry_multiplicity
 _atom_site_fract_x
 _atom_site_fract_y
 _atom_site_fract_z
 _atom_site_occupancy
  Eu  Eu0  1  0.268734  0.268734  0.333728  1
  Eu  Eu1  1  0.727958  0.727958  0.667368  1
  Eu  Eu2  1  0.391605  0.391605  0.949772  1
  Eu  Eu3  1  0.605729  0.605729  0.051425  1
  Zn  Zn4  1  0.956324  0.956324  0.318047  1
  Zn  Zn5  1  0.410749  0.410749  0.655885  1
  Zn  Zn6  1  0.592018  0.592018  0.344803  1
  Ag  Ag7  1  0.046992  0.046992  0.681373  1
  P  P8  1  0.071907  0.071907  0.888916  1
  P  P9  1  0.925561  0.925561  0.120801  1
  P  P10  1  0.153831  0.153831  0.196649  1
  P  P11  1  0.838687  0.838687  0.804374  1
  P  P12  1  0.387120  0.387120  0.462692  1
  P  P13  1  0.622784  0.622784  0.524167  1
