# generated using pymatgen
data_CeDyMgZnRh2
_symmetry_space_group_name_H-M   'P 1'
_cell_length_a   3.91570800
_cell_length_b   7.15753603
_cell_length_c   8.67331644
_cell_angle_alpha   93.13946284
_cell_angle_beta   90.00000000
_cell_angle_gamma   90.00000000
_symmetry_Int_Tables_number   1
_chemical_formula_structural   CeDyMgZnRh2
_chemical_formula_sum   'Ce2 Dy2 Mg2 Zn2 Rh4'
_cell_volume   242.72066214
_cell_formula_units_Z   2
loop_
 _symmetry_equiv_pos_site_id
 _symmetry_equiv_pos_as_xyz
  1  'x, y, z'
loop_
 _atom_site_type_symbol
 _atom_site_label
 _atom_site_symmetry_multiplicity
 _atom_site_fract_x
 _atom_site_fract_y
 _atom_site_fract_z
 _atom_site_occupancy
  Ce  Ce0  1  0.250000  0.532228  0.200391  1
  Ce  Ce1  1  0.750000  0.467772  0.799609  1
  Dy  Dy2  1  0.250000  0.051661  0.330647  1
  Dy  Dy3  1  0.750000  0.948339  0.669353  1
  Mg  Mg4  1  0.250000  0.133116  0.936608  1
  Mg  Mg5  1  0.750000  0.866884  0.063392  1
  Zn  Zn6  1  0.250000  0.633092  0.555222  1
  Zn  Zn7  1  0.750000  0.366908  0.444778  1
  Rh  Rh8  1  0.750000  0.743259  0.366178  1
  Rh  Rh9  1  0.250000  0.256741  0.633822  1
  Rh  Rh10  1  0.750000  0.265974  0.136731  1
  Rh  Rh11  1  0.250000  0.734026  0.863269  1
