# generated using pymatgen
data_Nd2Y3Er3(CdNi)2
_symmetry_space_group_name_H-M   'P 1'
_cell_length_a   9.63402131
_cell_length_b   9.63402181
_cell_length_c   9.63402100
_cell_angle_alpha   59.99999934
_cell_angle_beta   59.99999764
_cell_angle_gamma   60.00000211
_symmetry_Int_Tables_number   1
_chemical_formula_structural   Nd2Y3Er3(CdNi)2
_chemical_formula_sum   'Nd4 Y6 Er6 Cd4 Ni4'
_cell_volume   632.27762849
_cell_formula_units_Z   2
loop_
 _symmetry_equiv_pos_site_id
 _symmetry_equiv_pos_as_xyz
  1  'x, y, z'
loop_
 _atom_site_type_symbol
 _atom_site_label
 _atom_site_symmetry_multiplicity
 _atom_site_fract_x
 _atom_site_fract_y
 _atom_site_fract_z
 _atom_site_occupancy
  Nd  Nd0  1  0.600561  0.600561  0.600561  1
  Nd  Nd1  1  0.600561  0.600561  0.198316  1
  Nd  Nd2  1  0.600561  0.198316  0.600561  1
  Nd  Nd3  1  0.198316  0.600561  0.600561  1
  Y  Y4  1  0.185888  0.814112  0.814112  1
  Y  Y5  1  0.814112  0.185888  0.185888  1
  Y  Y6  1  0.814112  0.185888  0.814112  1
  Y  Y7  1  0.185888  0.814112  0.185888  1
  Y  Y8  1  0.814112  0.814112  0.185888  1
  Y  Y9  1  0.185888  0.185888  0.814112  1
  Er  Er10  1  0.064458  0.435542  0.435542  1
  Er  Er11  1  0.435542  0.064458  0.064458  1
  Er  Er12  1  0.435542  0.064458  0.435542  1
  Er  Er13  1  0.064458  0.435542  0.064458  1
  Er  Er14  1  0.435542  0.435542  0.064458  1
  Er  Er15  1  0.064458  0.064458  0.435542  1
  Cd  Cd16  1  0.831900  0.831900  0.831900  1
  Cd  Cd17  1  0.831900  0.831900  0.504300  1
  Cd  Cd18  1  0.831900  0.504300  0.831900  1
  Cd  Cd19  1  0.504300  0.831900  0.831900  1
  Ni  Ni20  1  0.390597  0.390597  0.390597  1
  Ni  Ni21  1  0.390597  0.390597  0.828212  1
  Ni  Ni22  1  0.390597  0.828212  0.390597  1
  Ni  Ni23  1  0.828212  0.390597  0.390597  1
