# generated using pymatgen
data_SrCePPt8
_symmetry_space_group_name_H-M   'P 1'
_cell_length_a   9.21711293
_cell_length_b   9.25591945
_cell_length_c   4.30004200
_cell_angle_alpha   90.00000000
_cell_angle_beta   90.00000000
_cell_angle_gamma   145.57266915
_symmetry_Int_Tables_number   1
_chemical_formula_structural   SrCePPt8
_chemical_formula_sum   'Sr1 Ce1 P1 Pt8'
_cell_volume   207.40186511
_cell_formula_units_Z   1
loop_
 _symmetry_equiv_pos_site_id
 _symmetry_equiv_pos_as_xyz
  1  'x, y, z'
loop_
 _atom_site_type_symbol
 _atom_site_label
 _atom_site_symmetry_multiplicity
 _atom_site_fract_x
 _atom_site_fract_y
 _atom_site_fract_z
 _atom_site_occupancy
  Sr  Sr0  1  0.615157  0.374481  0.500000  1
  Ce  Ce1  1  0.368897  0.624507  0.500000  1
  P  P2  1  0.223570  0.219318  0.000000  1
  Pt  Pt3  1  0.106038  0.884765  0.000000  1
  Pt  Pt4  1  0.896696  0.113803  0.000000  1
  Pt  Pt5  1  0.492387  0.979388  0.000000  1
  Pt  Pt6  1  0.994387  0.490047  0.000000  1
  Pt  Pt7  1  0.196655  0.790243  0.500000  1
  Pt  Pt8  1  0.794943  0.193609  0.500000  1
  Pt  Pt9  1  0.003715  0.006916  0.500000  1
  Pt  Pt10  1  0.621153  0.636523  0.000000  1
