# generated using pymatgen
data_Pr2Ho14Cd4IrPt3
_symmetry_space_group_name_H-M   'P 1'
_cell_length_a   9.69769614
_cell_length_b   9.66973970
_cell_length_c   9.65299500
_cell_angle_alpha   60.05726974
_cell_angle_beta   60.15236631
_cell_angle_gamma   60.03237437
_symmetry_Int_Tables_number   1
_chemical_formula_structural   Pr2Ho14Cd4IrPt3
_chemical_formula_sum   'Pr2 Ho14 Cd4 Ir1 Pt3'
_cell_volume   641.24290339
_cell_formula_units_Z   1
loop_
 _symmetry_equiv_pos_site_id
 _symmetry_equiv_pos_as_xyz
  1  'x, y, z'
loop_
 _atom_site_type_symbol
 _atom_site_label
 _atom_site_symmetry_multiplicity
 _atom_site_fract_x
 _atom_site_fract_y
 _atom_site_fract_z
 _atom_site_occupancy
  Pr  Pr0  1  0.569253  0.566599  0.932073  1
  Pr  Pr1  1  0.933481  0.933682  0.566418  1
  Ho  Ho2  1  0.352691  0.348347  0.347096  1
  Ho  Ho3  1  0.352691  0.348347  0.951866  1
  Ho  Ho4  1  0.354675  0.947532  0.348896  1
  Ho  Ho5  1  0.941014  0.354197  0.352395  1
  Ho  Ho6  1  0.808032  0.189167  0.188969  1
  Ho  Ho7  1  0.190827  0.810085  0.809694  1
  Ho  Ho8  1  0.190827  0.810085  0.189395  1
  Ho  Ho9  1  0.808032  0.189167  0.813831  1
  Ho  Ho10  1  0.191682  0.189318  0.809501  1
  Ho  Ho11  1  0.808254  0.814027  0.188860  1
  Ho  Ho12  1  0.940022  0.560317  0.561360  1
  Ho  Ho13  1  0.562085  0.939885  0.939224  1
  Ho  Ho14  1  0.562085  0.939885  0.558805  1
  Ho  Ho15  1  0.940022  0.560317  0.938301  1
  Cd  Cd16  1  0.581802  0.582387  0.577871  1
  Cd  Cd17  1  0.581802  0.582387  0.257939  1
  Cd  Cd18  1  0.577379  0.256302  0.583158  1
  Cd  Cd19  1  0.257615  0.577418  0.582483  1
  Ir  Ir20  1  0.573409  0.138446  0.144073  1
  Pt  Pt21  1  0.142182  0.144895  0.141521  1
  Pt  Pt22  1  0.142182  0.144895  0.571402  1
  Pt  Pt23  1  0.137956  0.572311  0.144866  1
