# generated using pymatgen
data_Er18Lu2(Pt3Rh)3
_symmetry_space_group_name_H-M   'P 1'
_cell_length_a   10.96690300
_cell_length_b   10.96798815
_cell_length_c   6.30564500
_cell_angle_alpha   90.00000000
_cell_angle_beta   90.00000000
_cell_angle_gamma   90.00943438
_symmetry_Int_Tables_number   1
_chemical_formula_structural   Er18Lu2(Pt3Rh)3
_chemical_formula_sum   'Er18 Lu2 Pt9 Rh3'
_cell_volume   758.47362919
_cell_formula_units_Z   1
loop_
 _symmetry_equiv_pos_site_id
 _symmetry_equiv_pos_as_xyz
  1  'x, y, z'
loop_
 _atom_site_type_symbol
 _atom_site_label
 _atom_site_symmetry_multiplicity
 _atom_site_fract_x
 _atom_site_fract_y
 _atom_site_fract_z
 _atom_site_occupancy
  Er  Er0  1  0.291669  0.087995  0.376639  1
  Er  Er1  1  0.291037  0.912046  0.872479  1
  Er  Er2  1  0.708963  0.087954  0.872479  1
  Er  Er3  1  0.708331  0.912005  0.376639  1
  Er  Er4  1  0.588283  0.792083  0.871953  1
  Er  Er5  1  0.588227  0.207212  0.376148  1
  Er  Er6  1  0.411773  0.792788  0.376148  1
  Er  Er7  1  0.411717  0.207917  0.871953  1
  Er  Er8  1  0.206249  0.412310  0.625666  1
  Er  Er9  1  0.206289  0.588308  0.126156  1
  Er  Er10  1  0.793711  0.411692  0.126156  1
  Er  Er11  1  0.793751  0.587690  0.625666  1
  Er  Er12  1  0.911877  0.707296  0.125530  1
  Er  Er13  1  0.912545  0.292765  0.625064  1
  Er  Er14  1  0.087455  0.707235  0.625064  1
  Er  Er15  1  0.088123  0.292704  0.125530  1
  Er  Er16  1  0.500000  0.500000  0.000823  1
  Er  Er17  1  0.500000  0.500000  0.500659  1
  Lu  Lu18  1  0.000000  0.000000  0.500644  1
  Lu  Lu19  1  0.000000  0.000000  0.000865  1
  Pt  Pt20  1  0.847272  0.151940  0.250178  1
  Pt  Pt21  1  0.847762  0.847596  0.750337  1
  Pt  Pt22  1  0.152238  0.152404  0.750337  1
  Pt  Pt23  1  0.152728  0.848060  0.250178  1
  Pt  Pt24  1  0.654317  0.345934  0.750317  1
  Pt  Pt25  1  0.653729  0.654587  0.250219  1
  Pt  Pt26  1  0.346271  0.345413  0.250219  1
  Pt  Pt27  1  0.345683  0.654066  0.750317  1
  Pt  Pt28  1  0.500000  0.000000  0.117078  1
  Rh  Rh29  1  0.500000  0.000000  0.617289  1
  Rh  Rh30  1  0.000000  0.500000  0.880834  1
  Rh  Rh31  1  0.000000  0.500000  0.380430  1
