# generated using pymatgen
data_Ho3Hg5
_symmetry_space_group_name_H-M   'P 1'
_cell_length_a   6.36794073
_cell_length_b   6.36794046
_cell_length_c   10.14731800
_cell_angle_alpha   90.00000000
_cell_angle_beta   90.00000000
_cell_angle_gamma   105.20053271
_symmetry_Int_Tables_number   1
_chemical_formula_structural   Ho3Hg5
_chemical_formula_sum   'Ho6 Hg10'
_cell_volume   397.08448394
_cell_formula_units_Z   2
loop_
 _symmetry_equiv_pos_site_id
 _symmetry_equiv_pos_as_xyz
  1  'x, y, z'
loop_
 _atom_site_type_symbol
 _atom_site_label
 _atom_site_symmetry_multiplicity
 _atom_site_fract_x
 _atom_site_fract_y
 _atom_site_fract_z
 _atom_site_occupancy
  Ho  Ho0  1  0.573934  0.573934  0.250000  1
  Ho  Ho1  1  0.426066  0.426066  0.750000  1
  Ho  Ho2  1  0.213645  0.786355  0.500000  1
  Ho  Ho3  1  0.213645  0.786355  0.000000  1
  Ho  Ho4  1  0.786355  0.213645  0.500000  1
  Ho  Ho5  1  0.786355  0.213645  0.000000  1
  Hg  Hg6  1  0.974920  0.974920  0.250000  1
  Hg  Hg7  1  0.025080  0.025080  0.750000  1
  Hg  Hg8  1  0.292759  0.292759  0.031266  1
  Hg  Hg9  1  0.707241  0.707241  0.968734  1
  Hg  Hg10  1  0.292759  0.292759  0.468734  1
  Hg  Hg11  1  0.707241  0.707241  0.531266  1
  Hg  Hg12  1  0.482557  0.039754  0.250000  1
  Hg  Hg13  1  0.960246  0.517443  0.750000  1
  Hg  Hg14  1  0.517443  0.960246  0.750000  1
  Hg  Hg15  1  0.039754  0.482557  0.250000  1
