# generated using pymatgen
data_CaSc6NiBr12
_symmetry_space_group_name_H-M   'P 1'
_cell_length_a   8.77140152
_cell_length_b   8.77140152
_cell_length_c   8.77140081
_cell_angle_alpha   106.42190897
_cell_angle_beta   106.42190606
_cell_angle_gamma   106.42190572
_symmetry_Int_Tables_number   1
_chemical_formula_structural   CaSc6NiBr12
_chemical_formula_sum   'Ca1 Sc6 Ni1 Br12'
_cell_volume   570.65215165
_cell_formula_units_Z   1
loop_
 _symmetry_equiv_pos_site_id
 _symmetry_equiv_pos_as_xyz
  1  'x, y, z'
loop_
 _atom_site_type_symbol
 _atom_site_label
 _atom_site_symmetry_multiplicity
 _atom_site_fract_x
 _atom_site_fract_y
 _atom_site_fract_z
 _atom_site_occupancy
  Ca  Ca0  1  0.500000  0.500000  0.500000  1
  Sc  Sc1  1  0.095832  0.022854  0.300773  1
  Sc  Sc2  1  0.022854  0.300773  0.095832  1
  Sc  Sc3  1  0.300773  0.095832  0.022854  1
  Sc  Sc4  1  0.904167  0.977146  0.699227  1
  Sc  Sc5  1  0.977146  0.699227  0.904167  1
  Sc  Sc6  1  0.699227  0.904167  0.977146  1
  Ni  Ni7  1  0.000000  0.000000  0.000000  1
  Br  Br8  1  0.074007  0.681270  0.218972  1
  Br  Br9  1  0.681270  0.218972  0.074007  1
  Br  Br10  1  0.218972  0.074007  0.681270  1
  Br  Br11  1  0.925993  0.318730  0.781028  1
  Br  Br12  1  0.318730  0.781028  0.925993  1
  Br  Br13  1  0.781028  0.925993  0.318730  1
  Br  Br14  1  0.444624  0.139266  0.368853  1
  Br  Br15  1  0.139266  0.368853  0.444624  1
  Br  Br16  1  0.368853  0.444624  0.139266  1
  Br  Br17  1  0.555376  0.860734  0.631147  1
  Br  Br18  1  0.860734  0.631147  0.555376  1
  Br  Br19  1  0.631147  0.555376  0.860734  1
