# generated using pymatgen
data_Pr6Al2GeS14
_symmetry_space_group_name_H-M   'P 1'
_cell_length_a   10.18396300
_cell_length_b   10.18396317
_cell_length_c   5.93851800
_cell_angle_alpha   90.00000000
_cell_angle_beta   90.00000000
_cell_angle_gamma   120.00000919
_symmetry_Int_Tables_number   1
_chemical_formula_structural   Pr6Al2GeS14
_chemical_formula_sum   'Pr6 Al2 Ge1 S14'
_cell_volume   533.38684633
_cell_formula_units_Z   1
loop_
 _symmetry_equiv_pos_site_id
 _symmetry_equiv_pos_as_xyz
  1  'x, y, z'
loop_
 _atom_site_type_symbol
 _atom_site_label
 _atom_site_symmetry_multiplicity
 _atom_site_fract_x
 _atom_site_fract_y
 _atom_site_fract_z
 _atom_site_occupancy
  Pr  Pr0  1  0.796452  0.695653  0.527930  1
  Pr  Pr1  1  0.899201  0.203548  0.527930  1
  Pr  Pr2  1  0.304347  0.100799  0.527930  1
  Pr  Pr3  1  0.526884  0.965848  0.041655  1
  Pr  Pr4  1  0.438963  0.473116  0.041655  1
  Pr  Pr5  1  0.034152  0.561037  0.041655  1
  Al  Al6  1  0.666667  0.333333  0.307071  1
  Al  Al7  1  0.333333  0.666667  0.455566  1
  Ge  Ge8  1  0.000000  0.000000  0.954122  1
  S  S9  1  0.000000  0.000000  0.324854  1
  S  S10  1  0.333333  0.666667  0.828658  1
  S  S11  1  0.079967  0.850621  0.801895  1
  S  S12  1  0.770654  0.920033  0.801895  1
  S  S13  1  0.149379  0.229346  0.801895  1
  S  S14  1  0.245274  0.813144  0.307929  1
  S  S15  1  0.567869  0.754726  0.307929  1
  S  S16  1  0.186856  0.432131  0.307929  1
  S  S17  1  0.902667  0.484835  0.533525  1
  S  S18  1  0.582170  0.097333  0.533525  1
  S  S19  1  0.515165  0.417830  0.533525  1
  S  S20  1  0.433130  0.190166  0.077647  1
  S  S21  1  0.757035  0.566870  0.077647  1
  S  S22  1  0.809834  0.242965  0.077647  1
