# generated using pymatgen
data_Y2ErTa(Co4P3)2
_symmetry_space_group_name_H-M   'P 1'
_cell_length_a   3.69913100
_cell_length_b   10.62121100
_cell_length_c   12.31231200
_cell_angle_alpha   90.00000000
_cell_angle_beta   90.00000000
_cell_angle_gamma   90.00000000
_symmetry_Int_Tables_number   1
_chemical_formula_structural   Y2ErTa(Co4P3)2
_chemical_formula_sum   'Y4 Er2 Ta2 Co16 P12'
_cell_volume   483.74151493
_cell_formula_units_Z   2
loop_
 _symmetry_equiv_pos_site_id
 _symmetry_equiv_pos_as_xyz
  1  'x, y, z'
loop_
 _atom_site_type_symbol
 _atom_site_label
 _atom_site_symmetry_multiplicity
 _atom_site_fract_x
 _atom_site_fract_y
 _atom_site_fract_z
 _atom_site_occupancy
  Y  Y0  1  0.000000  0.500000  0.526261  1
  Y  Y1  1  0.500000  0.000000  0.473214  1
  Y  Y2  1  0.000000  0.679510  0.794964  1
  Y  Y3  1  0.000000  0.320490  0.794964  1
  Er  Er4  1  0.500000  0.820974  0.205021  1
  Er  Er5  1  0.500000  0.179026  0.205021  1
  Ta  Ta6  1  0.500000  0.500000  0.156490  1
  Ta  Ta7  1  0.000000  0.000000  0.843764  1
  Co  Co8  1  0.500000  0.500000  0.702384  1
  Co  Co9  1  0.000000  0.000000  0.296848  1
  Co  Co10  1  0.000000  0.500000  0.987702  1
  Co  Co11  1  0.500000  0.000000  0.013856  1
  Co  Co12  1  0.500000  0.332334  0.993192  1
  Co  Co13  1  0.500000  0.667666  0.993192  1
  Co  Co14  1  0.000000  0.167040  0.008537  1
  Co  Co15  1  0.000000  0.832960  0.008537  1
  Co  Co16  1  0.500000  0.295125  0.431427  1
  Co  Co17  1  0.500000  0.704875  0.431427  1
  Co  Co18  1  0.000000  0.204405  0.567158  1
  Co  Co19  1  0.000000  0.795595  0.567158  1
  Co  Co20  1  0.500000  0.878010  0.705406  1
  Co  Co21  1  0.500000  0.121990  0.705406  1
  Co  Co22  1  0.000000  0.622705  0.293780  1
  Co  Co23  1  0.000000  0.377295  0.293780  1
  P  P24  1  0.500000  0.500000  0.882578  1
  P  P25  1  0.000000  0.000000  0.118740  1
  P  P26  1  0.500000  0.500000  0.356044  1
  P  P27  1  0.000000  0.000000  0.643767  1
  P  P28  1  0.500000  0.310761  0.615215  1
  P  P29  1  0.500000  0.689239  0.615215  1
  P  P30  1  0.000000  0.188798  0.383198  1
  P  P31  1  0.000000  0.811202  0.383198  1
  P  P32  1  0.500000  0.841353  0.893299  1
  P  P33  1  0.500000  0.158647  0.893299  1
  P  P34  1  0.000000  0.659534  0.107982  1
  P  P35  1  0.000000  0.340466  0.107982  1
