# generated using pymatgen
data_Er2TmU3(Ni3Sb4)2
_symmetry_space_group_name_H-M   'P 1'
_cell_length_a   8.09846840
_cell_length_b   8.08014718
_cell_length_c   8.08014771
_cell_angle_alpha   109.36630584
_cell_angle_beta   109.25140530
_cell_angle_gamma   109.70441359
_symmetry_Int_Tables_number   1
_chemical_formula_structural   Er2TmU3(Ni3Sb4)2
_chemical_formula_sum   'Er2 Tm1 U3 Ni6 Sb8'
_cell_volume   407.47757613
_cell_formula_units_Z   1
loop_
 _symmetry_equiv_pos_site_id
 _symmetry_equiv_pos_as_xyz
  1  'x, y, z'
loop_
 _atom_site_type_symbol
 _atom_site_label
 _atom_site_symmetry_multiplicity
 _atom_site_fract_x
 _atom_site_fract_y
 _atom_site_fract_z
 _atom_site_occupancy
  Er  Er0  1  0.874681  0.249526  0.124541  1
  Er  Er1  1  0.625319  0.749861  0.374845  1
  Tm  Tm2  1  0.250000  0.126149  0.876149  1
  U  U3  1  0.750000  0.373647  0.623647  1
  U  U4  1  0.122593  0.873462  0.249755  1
  U  U5  1  0.377407  0.627163  0.750869  1
  Ni  Ni6  1  0.378576  0.250758  0.620966  1
  Ni  Ni7  1  0.121424  0.742389  0.872182  1
  Ni  Ni8  1  0.250000  0.627301  0.377301  1
  Ni  Ni9  1  0.750000  0.870633  0.120633  1
  Ni  Ni10  1  0.630106  0.376998  0.263285  1
  Ni  Ni11  1  0.869894  0.133179  0.746892  1
  Sb  Sb12  1  0.659143  0.496315  0.001312  1
  Sb  Sb13  1  0.500246  0.997968  0.662188  1
  Sb  Sb14  1  0.999754  0.661941  0.497722  1
  Sb  Sb15  1  0.840857  0.842167  0.837170  1
  Sb  Sb16  1  0.500888  0.001878  0.160753  1
  Sb  Sb17  1  0.163052  0.500094  0.001758  1
  Sb  Sb18  1  0.999112  0.159864  0.500989  1
  Sb  Sb19  1  0.336948  0.338707  0.337043  1
