# generated using pymatgen
data_Zr3Mn5(Co2P3)2
_symmetry_space_group_name_H-M   'P 1'
_cell_length_a   3.60636400
_cell_length_b   10.59056000
_cell_length_c   12.10625700
_cell_angle_alpha   90.00000000
_cell_angle_beta   90.00000000
_cell_angle_gamma   90.00000000
_symmetry_Int_Tables_number   1
_chemical_formula_structural   Zr3Mn5(Co2P3)2
_chemical_formula_sum   'Zr6 Mn10 Co8 P12'
_cell_volume   462.37928951
_cell_formula_units_Z   2
loop_
 _symmetry_equiv_pos_site_id
 _symmetry_equiv_pos_as_xyz
  1  'x, y, z'
loop_
 _atom_site_type_symbol
 _atom_site_label
 _atom_site_symmetry_multiplicity
 _atom_site_fract_x
 _atom_site_fract_y
 _atom_site_fract_z
 _atom_site_occupancy
  Zr  Zr0  1  0.000000  0.500000  0.532530  1
  Zr  Zr1  1  0.500000  0.000000  0.467470  1
  Zr  Zr2  1  0.500000  0.822379  0.202675  1
  Zr  Zr3  1  0.500000  0.177621  0.202675  1
  Zr  Zr4  1  0.000000  0.677621  0.797325  1
  Zr  Zr5  1  0.000000  0.322379  0.797325  1
  Mn  Mn6  1  0.500000  0.297456  0.431640  1
  Mn  Mn7  1  0.500000  0.702544  0.431640  1
  Mn  Mn8  1  0.000000  0.202544  0.568360  1
  Mn  Mn9  1  0.000000  0.797456  0.568360  1
  Mn  Mn10  1  0.500000  0.880679  0.705487  1
  Mn  Mn11  1  0.500000  0.119321  0.705487  1
  Mn  Mn12  1  0.000000  0.619321  0.294513  1
  Mn  Mn13  1  0.000000  0.380679  0.294513  1
  Mn  Mn14  1  0.500000  0.500000  0.161227  1
  Mn  Mn15  1  0.000000  0.000000  0.838773  1
  Co  Co16  1  0.000000  0.500000  0.989610  1
  Co  Co17  1  0.500000  0.000000  0.010390  1
  Co  Co18  1  0.500000  0.333057  0.994146  1
  Co  Co19  1  0.500000  0.666943  0.994146  1
  Co  Co20  1  0.000000  0.166943  0.005854  1
  Co  Co21  1  0.000000  0.833057  0.005854  1
  Co  Co22  1  0.500000  0.500000  0.708273  1
  Co  Co23  1  0.000000  0.000000  0.291727  1
  P  P24  1  0.500000  0.321899  0.622617  1
  P  P25  1  0.500000  0.678101  0.622617  1
  P  P26  1  0.000000  0.178101  0.377383  1
  P  P27  1  0.000000  0.821899  0.377383  1
  P  P28  1  0.500000  0.500000  0.883184  1
  P  P29  1  0.000000  0.000000  0.116816  1
  P  P30  1  0.500000  0.842524  0.890436  1
  P  P31  1  0.500000  0.157476  0.890436  1
  P  P32  1  0.000000  0.657476  0.109564  1
  P  P33  1  0.000000  0.342524  0.109564  1
  P  P34  1  0.500000  0.500000  0.359488  1
  P  P35  1  0.000000  0.000000  0.640512  1
