# generated using pymatgen
data_SmY5(CI5)2
_symmetry_space_group_name_H-M   'P 1'
_cell_length_a   7.70655217
_cell_length_b   9.58526448
_cell_length_c   9.64350053
_cell_angle_alpha   106.81975104
_cell_angle_beta   96.30978355
_cell_angle_gamma   104.42614345
_symmetry_Int_Tables_number   1
_chemical_formula_structural   SmY5(CI5)2
_chemical_formula_sum   'Sm1 Y5 C2 I10'
_cell_volume   647.53333802
_cell_formula_units_Z   1
loop_
 _symmetry_equiv_pos_site_id
 _symmetry_equiv_pos_as_xyz
  1  'x, y, z'
loop_
 _atom_site_type_symbol
 _atom_site_label
 _atom_site_symmetry_multiplicity
 _atom_site_fract_x
 _atom_site_fract_y
 _atom_site_fract_z
 _atom_site_occupancy
  Sm  Sm0  1  0.106641  0.039582  0.778043  1
  Y  Y1  1  0.372160  0.131105  0.176341  1
  Y  Y2  1  0.895825  0.961206  0.217487  1
  Y  Y3  1  0.029154  0.744628  0.926143  1
  Y  Y4  1  0.971417  0.254640  0.073682  1
  Y  Y5  1  0.627653  0.868523  0.823491  1
  C  C6  1  0.908695  0.969810  0.960051  1
  C  C7  1  0.090229  0.029286  0.042099  1
  I  I8  1  0.196877  0.732728  0.651612  1
  I  I9  1  0.084959  0.369569  0.826275  1
  I  I10  1  0.456653  0.812015  0.093580  1
  I  I11  1  0.252913  0.083627  0.456009  1
  I  I12  1  0.548047  0.190140  0.908919  1
  I  I13  1  0.804734  0.260588  0.347746  1
  I  I14  1  0.342532  0.449577  0.270771  1
  I  I15  1  0.913209  0.638398  0.177543  1
  I  I16  1  0.657542  0.550258  0.729119  1
  I  I17  1  0.740762  0.914322  0.541090  1
