# generated using pymatgen
data_ScMo(SeO3)4
_symmetry_space_group_name_H-M   'P 1'
_cell_length_a   8.51677700
_cell_length_b   8.49979195
_cell_length_c   8.33759521
_cell_angle_alpha   89.93142940
_cell_angle_beta   90.00000000
_cell_angle_gamma   90.00000000
_symmetry_Int_Tables_number   1
_chemical_formula_structural   ScMo(SeO3)4
_chemical_formula_sum   'Sc2 Mo2 Se8 O24'
_cell_volume   603.56502699
_cell_formula_units_Z   2
loop_
 _symmetry_equiv_pos_site_id
 _symmetry_equiv_pos_as_xyz
  1  'x, y, z'
loop_
 _atom_site_type_symbol
 _atom_site_label
 _atom_site_symmetry_multiplicity
 _atom_site_fract_x
 _atom_site_fract_y
 _atom_site_fract_z
 _atom_site_occupancy
  Sc  Sc0  1  0.000000  0.500000  0.000000  1
  Sc  Sc1  1  0.500000  0.500000  0.500000  1
  Mo  Mo2  1  0.000000  0.000000  0.500000  1
  Mo  Mo3  1  0.500000  0.000000  0.000000  1
  Se  Se4  1  0.328496  0.674590  0.170388  1
  Se  Se5  1  0.828496  0.325410  0.329612  1
  Se  Se6  1  0.677780  0.831143  0.679675  1
  Se  Se7  1  0.177780  0.168857  0.820325  1
  Se  Se8  1  0.671504  0.325410  0.829612  1
  Se  Se9  1  0.171504  0.674590  0.670388  1
  Se  Se10  1  0.322220  0.168857  0.320325  1
  Se  Se11  1  0.822220  0.831143  0.179675  1
  O  O12  1  0.238457  0.549868  0.041592  1
  O  O13  1  0.738457  0.450132  0.458408  1
  O  O14  1  0.768046  0.959019  0.542306  1
  O  O15  1  0.268046  0.040981  0.957694  1
  O  O16  1  0.544146  0.967728  0.764092  1
  O  O17  1  0.467356  0.559845  0.256230  1
  O  O18  1  0.967356  0.440155  0.243770  1
  O  O19  1  0.044146  0.032272  0.735908  1
  O  O20  1  0.951598  0.221965  0.475091  1
  O  O21  1  0.553851  0.737515  0.554603  1
  O  O22  1  0.451598  0.778035  0.024909  1
  O  O23  1  0.053851  0.262485  0.945397  1
  O  O24  1  0.761543  0.450132  0.958408  1
  O  O25  1  0.261543  0.549868  0.541592  1
  O  O26  1  0.231954  0.040981  0.457694  1
  O  O27  1  0.731954  0.959019  0.042306  1
  O  O28  1  0.455854  0.032272  0.235908  1
  O  O29  1  0.532644  0.440155  0.743770  1
  O  O30  1  0.032644  0.559845  0.756230  1
  O  O31  1  0.955854  0.967728  0.264092  1
  O  O32  1  0.048402  0.778035  0.524909  1
  O  O33  1  0.446149  0.262485  0.445397  1
  O  O34  1  0.548402  0.221965  0.975091  1
  O  O35  1  0.946149  0.737515  0.054603  1
