# generated using pymatgen
data_YbTm3Os5Ru3
_symmetry_space_group_name_H-M   'P 1'
_cell_length_a   5.30405177
_cell_length_b   5.16219190
_cell_length_c   8.93346382
_cell_angle_alpha   90.00223198
_cell_angle_beta   89.95621202
_cell_angle_gamma   119.70056212
_symmetry_Int_Tables_number   1
_chemical_formula_structural   YbTm3Os5Ru3
_chemical_formula_sum   'Yb1 Tm3 Os5 Ru3'
_cell_volume   212.46860852
_cell_formula_units_Z   1
loop_
 _symmetry_equiv_pos_site_id
 _symmetry_equiv_pos_as_xyz
  1  'x, y, z'
loop_
 _atom_site_type_symbol
 _atom_site_label
 _atom_site_symmetry_multiplicity
 _atom_site_fract_x
 _atom_site_fract_y
 _atom_site_fract_z
 _atom_site_occupancy
  Yb  Yb0  1  0.666114  0.333158  0.936974  1
  Tm  Tm1  1  0.668420  0.334344  0.570769  1
  Tm  Tm2  1  0.332076  0.666089  0.432708  1
  Tm  Tm3  1  0.330424  0.665446  0.062630  1
  Os  Os4  1  0.171840  0.340287  0.748879  1
  Os  Os5  1  0.172306  0.830552  0.748537  1
  Os  Os6  1  0.659443  0.829026  0.748998  1
  Os  Os7  1  0.835851  0.662605  0.250344  1
  Os  Os8  1  0.835263  0.173927  0.250312  1
  Ru  Ru9  1  0.989762  0.995061  0.498259  1
  Ru  Ru10  1  0.988151  0.994297  0.000073  1
  Ru  Ru11  1  0.350348  0.175209  0.251517  1
