# generated using pymatgen
data_Nd2LuPa(GePt)4
_symmetry_space_group_name_H-M   'P 1'
_cell_length_a   4.42843500
_cell_length_b   7.28227347
_cell_length_c   7.59379638
_cell_angle_alpha   89.96112555
_cell_angle_beta   90.00000000
_cell_angle_gamma   90.00000000
_symmetry_Int_Tables_number   1
_chemical_formula_structural   Nd2LuPa(GePt)4
_chemical_formula_sum   'Nd2 Lu1 Pa1 Ge4 Pt4'
_cell_volume   244.89285069
_cell_formula_units_Z   1
loop_
 _symmetry_equiv_pos_site_id
 _symmetry_equiv_pos_as_xyz
  1  'x, y, z'
loop_
 _atom_site_type_symbol
 _atom_site_label
 _atom_site_symmetry_multiplicity
 _atom_site_fract_x
 _atom_site_fract_y
 _atom_site_fract_z
 _atom_site_occupancy
  Nd  Nd0  1  0.750000  0.495317  0.286150  1
  Nd  Nd1  1  0.250000  0.504345  0.708864  1
  Lu  Lu2  1  0.750000  0.997022  0.208821  1
  Pa  Pa3  1  0.250000  0.000857  0.797276  1
  Ge  Ge4  1  0.250000  0.703388  0.092851  1
  Ge  Ge5  1  0.250000  0.191225  0.410340  1
  Ge  Ge6  1  0.750000  0.812665  0.581857  1
  Ge  Ge7  1  0.750000  0.308686  0.912547  1
  Pt  Pt8  1  0.250000  0.256611  0.074465  1
  Pt  Pt9  1  0.250000  0.808047  0.416430  1
  Pt  Pt10  1  0.750000  0.187359  0.590852  1
  Pt  Pt11  1  0.750000  0.734477  0.919547  1
