# generated using pymatgen
data_Ba3MoBr2O5
_symmetry_space_group_name_H-M   'P 1'
_cell_length_a   7.88736186
_cell_length_b   7.88736177
_cell_length_c   11.80298700
_cell_angle_alpha   90.00000000
_cell_angle_beta   90.00000000
_cell_angle_gamma   135.63637044
_symmetry_Int_Tables_number   1
_chemical_formula_structural   Ba3MoBr2O5
_chemical_formula_sum   'Ba6 Mo2 Br4 O10'
_cell_volume   513.40829141
_cell_formula_units_Z   2
loop_
 _symmetry_equiv_pos_site_id
 _symmetry_equiv_pos_as_xyz
  1  'x, y, z'
loop_
 _atom_site_type_symbol
 _atom_site_label
 _atom_site_symmetry_multiplicity
 _atom_site_fract_x
 _atom_site_fract_y
 _atom_site_fract_z
 _atom_site_occupancy
  Ba  Ba0  1  0.342585  0.657415  0.959223  1
  Ba  Ba1  1  0.657415  0.342585  0.459223  1
  Ba  Ba2  1  0.342585  0.657415  0.540777  1
  Ba  Ba3  1  0.104321  0.895679  0.750000  1
  Ba  Ba4  1  0.657415  0.342585  0.040777  1
  Ba  Ba5  1  0.895679  0.104321  0.250000  1
  Mo  Mo6  1  0.244045  0.755955  0.250000  1
  Mo  Mo7  1  0.755955  0.244045  0.750000  1
  Br  Br8  1  0.502332  0.497668  0.750000  1
  Br  Br9  1  0.000000  0.000000  0.000000  1
  Br  Br10  1  0.000000  0.000000  0.500000  1
  Br  Br11  1  0.497668  0.502332  0.250000  1
  O  O12  1  0.500435  0.944366  0.137331  1
  O  O13  1  0.875675  0.124325  0.750000  1
  O  O14  1  0.944366  0.500435  0.637331  1
  O  O15  1  0.499565  0.055634  0.862669  1
  O  O16  1  0.124325  0.875675  0.250000  1
  O  O17  1  0.499565  0.055634  0.637331  1
  O  O18  1  0.944366  0.500435  0.862669  1
  O  O19  1  0.055634  0.499565  0.137331  1
  O  O20  1  0.500435  0.944366  0.362669  1
  O  O21  1  0.055634  0.499565  0.362669  1
