# generated using pymatgen
data_SrEr2(Al3Pd2)3
_symmetry_space_group_name_H-M   'P 1'
_cell_length_a   4.19662600
_cell_length_b   9.49637284
_cell_length_c   9.49724058
_cell_angle_alpha   120.00664578
_cell_angle_beta   90.00000000
_cell_angle_gamma   90.00000000
_symmetry_Int_Tables_number   1
_chemical_formula_structural   SrEr2(Al3Pd2)3
_chemical_formula_sum   'Sr1 Er2 Al9 Pd6'
_cell_volume   327.76079765
_cell_formula_units_Z   1
loop_
 _symmetry_equiv_pos_site_id
 _symmetry_equiv_pos_as_xyz
  1  'x, y, z'
loop_
 _atom_site_type_symbol
 _atom_site_label
 _atom_site_symmetry_multiplicity
 _atom_site_fract_x
 _atom_site_fract_y
 _atom_site_fract_z
 _atom_site_occupancy
  Sr  Sr0  1  0.000000  0.999986  0.999999  1
  Er  Er1  1  0.500000  0.333531  0.667032  1
  Er  Er2  1  0.500000  0.666446  0.332959  1
  Al  Al3  1  0.500000  0.310365  0.000065  1
  Al  Al4  1  0.500000  0.689506  0.689495  1
  Al  Al5  1  0.500000  0.000075  0.310529  1
  Al  Al6  1  0.500000  0.689628  0.999938  1
  Al  Al7  1  0.500000  0.310490  0.310512  1
  Al  Al8  1  0.500000  0.999917  0.689470  1
  Al  Al9  1  0.000000  0.499998  0.000002  1
  Al  Al10  1  0.000000  0.500001  0.499999  1
  Al  Al11  1  0.000000  0.000003  0.500004  1
  Pd  Pd12  1  0.000000  0.188639  0.377312  1
  Pd  Pd13  1  0.000000  0.188694  0.811842  1
  Pd  Pd14  1  0.000000  0.623097  0.811841  1
  Pd  Pd15  1  0.000000  0.811366  0.622690  1
  Pd  Pd16  1  0.000000  0.376874  0.188148  1
  Pd  Pd17  1  0.000000  0.811285  0.188163  1
