# generated using pymatgen
data_Hf2Zr14Nb4Si15Ge
_symmetry_space_group_name_H-M   'P 1'
_cell_length_a   6.83511615
_cell_length_b   7.02349758
_cell_length_c   13.49897917
_cell_angle_alpha   90.01461878
_cell_angle_beta   89.80887602
_cell_angle_gamma   90.01224169
_symmetry_Int_Tables_number   1
_chemical_formula_structural   Hf2Zr14Nb4Si15Ge
_chemical_formula_sum   'Hf2 Zr14 Nb4 Si15 Ge1'
_cell_volume   648.03404653
_cell_formula_units_Z   1
loop_
 _symmetry_equiv_pos_site_id
 _symmetry_equiv_pos_as_xyz
  1  'x, y, z'
loop_
 _atom_site_type_symbol
 _atom_site_label
 _atom_site_symmetry_multiplicity
 _atom_site_fract_x
 _atom_site_fract_y
 _atom_site_fract_z
 _atom_site_occupancy
  Hf  Hf0  1  0.336606  0.674522  0.624916  1
  Hf  Hf1  1  0.839664  0.823178  0.625617  1
  Zr  Zr2  1  0.336141  0.675800  0.875422  1
  Zr  Zr3  1  0.836355  0.824750  0.875291  1
  Zr  Zr4  1  0.661237  0.328194  0.375376  1
  Zr  Zr5  1  0.003492  0.677426  0.096213  1
  Zr  Zr6  1  0.497167  0.818811  0.402626  1
  Zr  Zr7  1  0.497172  0.177522  0.902058  1
  Zr  Zr8  1  0.497022  0.178934  0.598344  1
  Zr  Zr9  1  0.997455  0.322759  0.902771  1
  Zr  Zr10  1  0.164286  0.175842  0.123907  1
  Zr  Zr11  1  0.163768  0.174520  0.376340  1
  Zr  Zr12  1  0.001950  0.675100  0.403925  1
  Zr  Zr13  1  0.664607  0.325086  0.123931  1
  Zr  Zr14  1  0.503412  0.822047  0.096742  1
  Zr  Zr15  1  0.000387  0.325418  0.597523  1
  Nb  Nb16  1  0.664760  0.501685  0.749385  1
  Nb  Nb17  1  0.165043  0.998362  0.749349  1
  Nb  Nb18  1  0.335539  0.499096  0.250137  1
  Nb  Nb19  1  0.835402  0.001773  0.248673  1
  Si  Si20  1  0.671919  0.533273  0.539420  1
  Si  Si21  1  0.171228  0.969285  0.960776  1
  Si  Si22  1  0.295513  0.362245  0.750111  1
  Si  Si23  1  0.829294  0.031012  0.038503  1
  Si  Si24  1  0.329797  0.469043  0.038399  1
  Si  Si25  1  0.461728  0.105521  0.250015  1
  Si  Si26  1  0.705351  0.639379  0.249629  1
  Si  Si27  1  0.962155  0.393885  0.250309  1
  Si  Si28  1  0.796574  0.138406  0.749420  1
  Si  Si29  1  0.670873  0.531092  0.960693  1
  Si  Si30  1  0.176441  0.967129  0.539903  1
  Si  Si31  1  0.038943  0.606066  0.749742  1
  Si  Si32  1  0.325944  0.467246  0.463241  1
  Si  Si33  1  0.539119  0.893271  0.748789  1
  Si  Si34  1  0.203062  0.861277  0.249964  1
  Ge  Ge35  1  0.820594  0.031049  0.462541  1
