# generated using pymatgen
data_Dy8Hg2PtRh
_symmetry_space_group_name_H-M   'P 1'
_cell_length_a   9.60444958
_cell_length_b   9.61791461
_cell_length_c   9.61791385
_cell_angle_alpha   60.17623516
_cell_angle_beta   60.04630235
_cell_angle_gamma   60.04630284
_symmetry_Int_Tables_number   1
_chemical_formula_structural   Dy8Hg2PtRh
_chemical_formula_sum   'Dy16 Hg4 Pt2 Rh2'
_cell_volume   629.50442188
_cell_formula_units_Z   2
loop_
 _symmetry_equiv_pos_site_id
 _symmetry_equiv_pos_as_xyz
  1  'x, y, z'
loop_
 _atom_site_type_symbol
 _atom_site_label
 _atom_site_symmetry_multiplicity
 _atom_site_fract_x
 _atom_site_fract_y
 _atom_site_fract_z
 _atom_site_occupancy
  Dy  Dy0  1  0.690966  0.309034  0.309034  1
  Dy  Dy1  1  0.687555  0.693009  0.310046  1
  Dy  Dy2  1  0.309390  0.693009  0.310046  1
  Dy  Dy3  1  0.937202  0.935894  0.562491  1
  Dy  Dy4  1  0.147948  0.142291  0.561814  1
  Dy  Dy5  1  0.564413  0.935894  0.562491  1
  Dy  Dy6  1  0.151755  0.147490  0.147490  1
  Dy  Dy7  1  0.309390  0.310046  0.693009  1
  Dy  Dy8  1  0.937498  0.562502  0.562502  1
  Dy  Dy9  1  0.564413  0.562491  0.935894  1
  Dy  Dy10  1  0.564795  0.935205  0.935205  1
  Dy  Dy11  1  0.937202  0.562491  0.935894  1
  Dy  Dy12  1  0.147948  0.561814  0.142291  1
  Dy  Dy13  1  0.311390  0.688610  0.688610  1
  Dy  Dy14  1  0.687555  0.310046  0.693009  1
  Dy  Dy15  1  0.553265  0.147490  0.147490  1
  Hg  Hg16  1  0.914244  0.915384  0.256128  1
  Hg  Hg17  1  0.256526  0.914864  0.914864  1
  Hg  Hg18  1  0.914244  0.256128  0.915384  1
  Hg  Hg19  1  0.913746  0.914864  0.914864  1
  Pt  Pt20  1  0.354369  0.357181  0.357181  1
  Pt  Pt21  1  0.931269  0.357181  0.357181  1
  Rh  Rh22  1  0.356460  0.358349  0.928732  1
  Rh  Rh23  1  0.356460  0.928732  0.358349  1
