# generated using pymatgen
data_Tb8Ti9Re(Si8W)2
_symmetry_space_group_name_H-M   'P 1'
_cell_length_a   7.00386457
_cell_length_b   7.00386369
_cell_length_c   12.88859210
_cell_angle_alpha   90.03696928
_cell_angle_beta   89.96303074
_cell_angle_gamma   89.90636643
_symmetry_Int_Tables_number   1
_chemical_formula_structural   Tb8Ti9Re(Si8W)2
_chemical_formula_sum   'Tb8 Ti9 Re1 Si16 W2'
_cell_volume   632.23734254
_cell_formula_units_Z   1
loop_
 _symmetry_equiv_pos_site_id
 _symmetry_equiv_pos_as_xyz
  1  'x, y, z'
loop_
 _atom_site_type_symbol
 _atom_site_label
 _atom_site_symmetry_multiplicity
 _atom_site_fract_x
 _atom_site_fract_y
 _atom_site_fract_z
 _atom_site_occupancy
  Tb  Tb0  1  0.339935  0.002401  0.467137  1
  Tb  Tb1  1  0.498030  0.841143  0.718686  1
  Tb  Tb2  1  0.500268  0.159344  0.216510  1
  Tb  Tb3  1  0.841143  0.498030  0.281314  1
  Tb  Tb4  1  0.159344  0.500268  0.783490  1
  Tb  Tb5  1  0.659641  0.999494  0.967862  1
  Tb  Tb6  1  0.002401  0.339935  0.532863  1
  Tb  Tb7  1  0.999494  0.659641  0.032138  1
  Ti  Ti8  1  0.674802  0.674802  0.500000  1
  Ti  Ti9  1  0.152387  0.007749  0.876645  1
  Ti  Ti10  1  0.490686  0.655494  0.125930  1
  Ti  Ti11  1  0.508392  0.345597  0.629079  1
  Ti  Ti12  1  0.655494  0.490686  0.874070  1
  Ti  Ti13  1  0.345597  0.508392  0.370921  1
  Ti  Ti14  1  0.846773  0.991292  0.375837  1
  Ti  Ti15  1  0.007749  0.152387  0.123355  1
  Ti  Ti16  1  0.991292  0.846773  0.624163  1
  Re  Re17  1  0.327095  0.327095  0.000000  1
  Si  Si18  1  0.199419  0.129065  0.685239  1
  Si  Si19  1  0.372039  0.697654  0.934935  1
  Si  Si20  1  0.629470  0.298812  0.435589  1
  Si  Si21  1  0.697654  0.372039  0.065065  1
  Si  Si22  1  0.298812  0.629470  0.564411  1
  Si  Si23  1  0.800515  0.870313  0.185552  1
  Si  Si24  1  0.129065  0.199419  0.314761  1
  Si  Si25  1  0.870313  0.800515  0.814448  1
  Si  Si26  1  0.290274  0.954001  0.064797  1
  Si  Si27  1  0.546690  0.791283  0.315805  1
  Si  Si28  1  0.452009  0.209158  0.817060  1
  Si  Si29  1  0.791283  0.546690  0.684195  1
  Si  Si30  1  0.209158  0.452009  0.182940  1
  Si  Si31  1  0.708345  0.048493  0.566789  1
  Si  Si32  1  0.954001  0.290274  0.935203  1
  Si  Si33  1  0.048493  0.708345  0.433211  1
  W  W34  1  0.174879  0.827053  0.248353  1
  W  W35  1  0.827053  0.174879  0.751647  1
