# generated using pymatgen
data_TbY2Th(Ga3Rh)6
_symmetry_space_group_name_H-M   'P 1'
_cell_length_a   7.61725204
_cell_length_b   7.62524509
_cell_length_c   9.53569500
_cell_angle_alpha   90.00000000
_cell_angle_beta   90.00000000
_cell_angle_gamma   119.75455438
_symmetry_Int_Tables_number   1
_chemical_formula_structural   TbY2Th(Ga3Rh)6
_chemical_formula_sum   'Tb1 Y2 Th1 Ga18 Rh6'
_cell_volume   480.84371179
_cell_formula_units_Z   1
loop_
 _symmetry_equiv_pos_site_id
 _symmetry_equiv_pos_as_xyz
  1  'x, y, z'
loop_
 _atom_site_type_symbol
 _atom_site_label
 _atom_site_symmetry_multiplicity
 _atom_site_fract_x
 _atom_site_fract_y
 _atom_site_fract_z
 _atom_site_occupancy
  Tb  Tb0  1  0.668778  0.997805  0.250000  1
  Y  Y1  1  0.001993  0.332145  0.750000  1
  Y  Y2  1  0.331801  0.001764  0.750000  1
  Th  Th3  1  0.997669  0.668110  0.250000  1
  Ga  Ga4  1  0.332014  0.331921  0.564689  1
  Ga  Ga5  1  0.663200  0.667953  0.439965  1
  Ga  Ga6  1  0.663200  0.667953  0.060035  1
  Ga  Ga7  1  0.332014  0.331921  0.935311  1
  Ga  Ga8  1  0.342191  0.546213  0.250000  1
  Ga  Ga9  1  0.659610  0.451845  0.750000  1
  Ga  Ga10  1  0.542433  0.336638  0.250000  1
  Ga  Ga11  1  0.452671  0.660813  0.750000  1
  Ga  Ga12  1  0.000051  0.328937  0.076858  1
  Ga  Ga13  1  0.999228  0.665375  0.915488  1
  Ga  Ga14  1  0.999228  0.665375  0.584512  1
  Ga  Ga15  1  0.339622  0.005173  0.422887  1
  Ga  Ga16  1  0.000051  0.328937  0.423142  1
  Ga  Ga17  1  0.665560  0.000123  0.579970  1
  Ga  Ga18  1  0.665560  0.000123  0.920030  1
  Ga  Ga19  1  0.339622  0.005173  0.077113  1
  Ga  Ga20  1  0.125951  0.128140  0.250000  1
  Ga  Ga21  1  0.877516  0.878661  0.750000  1
  Rh  Rh22  1  0.000595  0.997868  0.000794  1
  Rh  Rh23  1  0.000595  0.997868  0.499206  1
  Rh  Rh24  1  0.673296  0.331033  0.000658  1
  Rh  Rh25  1  0.326127  0.670551  0.000708  1
  Rh  Rh26  1  0.326127  0.670551  0.499292  1
  Rh  Rh27  1  0.673296  0.331033  0.499342  1
