# generated using pymatgen
data_LuHfAsRh5
_symmetry_space_group_name_H-M   'P 1'
_cell_length_a   4.08601000
_cell_length_b   5.64032990
_cell_length_c   11.02474274
_cell_angle_alpha   89.90576287
_cell_angle_beta   90.00000000
_cell_angle_gamma   90.00000000
_symmetry_Int_Tables_number   1
_chemical_formula_structural   LuHfAsRh5
_chemical_formula_sum   'Lu2 Hf2 As2 Rh10'
_cell_volume   254.08077669
_cell_formula_units_Z   2
loop_
 _symmetry_equiv_pos_site_id
 _symmetry_equiv_pos_as_xyz
  1  'x, y, z'
loop_
 _atom_site_type_symbol
 _atom_site_label
 _atom_site_symmetry_multiplicity
 _atom_site_fract_x
 _atom_site_fract_y
 _atom_site_fract_z
 _atom_site_occupancy
  Lu  Lu0  1  0.500000  0.322994  0.359551  1
  Lu  Lu1  1  0.500000  0.677006  0.640449  1
  Hf  Hf2  1  0.500000  0.173306  0.857168  1
  Hf  Hf3  1  0.500000  0.826694  0.142832  1
  As  As4  1  0.000000  0.000000  0.500000  1
  As  As5  1  0.000000  0.500000  0.000000  1
  Rh  Rh6  1  0.500000  0.313302  0.100721  1
  Rh  Rh7  1  0.500000  0.686698  0.899279  1
  Rh  Rh8  1  0.500000  0.818063  0.390196  1
  Rh  Rh9  1  0.500000  0.181937  0.609804  1
  Rh  Rh10  1  0.000000  0.935530  0.748633  1
  Rh  Rh11  1  0.000000  0.064470  0.251367  1
  Rh  Rh12  1  0.000000  0.429238  0.761813  1
  Rh  Rh13  1  0.000000  0.570762  0.238187  1
  Rh  Rh14  1  0.000000  0.500000  0.500000  1
  Rh  Rh15  1  0.000000  0.000000  0.000000  1
