# generated using pymatgen
data_Gd8In4Ga7Ge
_symmetry_space_group_name_H-M   'P 1'
_cell_length_a   7.30311502
_cell_length_b   7.30311499
_cell_length_c   8.96175800
_cell_angle_alpha   90.00417375
_cell_angle_beta   90.00417375
_cell_angle_gamma   90.45469969
_symmetry_Int_Tables_number   1
_chemical_formula_structural   Gd8In4Ga7Ge
_chemical_formula_sum   'Gd8 In4 Ga7 Ge1'
_cell_volume   477.96468936
_cell_formula_units_Z   1
loop_
 _symmetry_equiv_pos_site_id
 _symmetry_equiv_pos_as_xyz
  1  'x, y, z'
loop_
 _atom_site_type_symbol
 _atom_site_label
 _atom_site_symmetry_multiplicity
 _atom_site_fract_x
 _atom_site_fract_y
 _atom_site_fract_z
 _atom_site_occupancy
  Gd  Gd0  1  0.828303  0.172716  0.498794  1
  Gd  Gd1  1  0.172716  0.828303  0.498794  1
  Gd  Gd2  1  0.326725  0.326725  0.001554  1
  Gd  Gd3  1  0.671480  0.671480  0.998087  1
  Gd  Gd4  1  0.671671  0.671671  0.501800  1
  Gd  Gd5  1  0.327242  0.327242  0.498700  1
  Gd  Gd6  1  0.172661  0.828279  0.001191  1
  Gd  Gd7  1  0.828279  0.172661  0.001191  1
  In  In8  1  0.503660  0.999579  0.250203  1
  In  In9  1  0.999117  0.499946  0.749550  1
  In  In10  1  0.499946  0.999117  0.749550  1
  In  In11  1  0.999579  0.503660  0.250203  1
  Ga  Ga12  1  0.625600  0.377420  0.249874  1
  Ga  Ga13  1  0.377420  0.625600  0.249874  1
  Ga  Ga14  1  0.126311  0.126311  0.750166  1
  Ga  Ga15  1  0.874807  0.874807  0.749897  1
  Ga  Ga16  1  0.372766  0.624946  0.750206  1
  Ga  Ga17  1  0.624946  0.372766  0.750206  1
  Ga  Ga18  1  0.874255  0.874255  0.250096  1
  Ge  Ge19  1  0.122518  0.122518  0.250064  1
