# generated using pymatgen
data_MgCo6As3P
_symmetry_space_group_name_H-M   'P 1'
_cell_length_a   6.77722803
_cell_length_b   6.77472527
_cell_length_c   3.46391800
_cell_angle_alpha   90.00000000
_cell_angle_beta   90.00000000
_cell_angle_gamma   120.02366812
_symmetry_Int_Tables_number   1
_chemical_formula_structural   MgCo6As3P
_chemical_formula_sum   'Mg1 Co6 As3 P1'
_cell_volume   137.70141226
_cell_formula_units_Z   1
loop_
 _symmetry_equiv_pos_site_id
 _symmetry_equiv_pos_as_xyz
  1  'x, y, z'
loop_
 _atom_site_type_symbol
 _atom_site_label
 _atom_site_symmetry_multiplicity
 _atom_site_fract_x
 _atom_site_fract_y
 _atom_site_fract_z
 _atom_site_occupancy
  Mg  Mg0  1  0.000595  0.999944  0.000000  1
  Co  Co1  1  0.205262  0.794635  0.500000  1
  Co  Co2  1  0.205518  0.410914  0.500000  1
  Co  Co3  1  0.530174  0.060651  0.000000  1
  Co  Co4  1  0.939203  0.469655  0.000000  1
  Co  Co5  1  0.530219  0.469596  0.000000  1
  Co  Co6  1  0.589007  0.794384  0.500000  1
  As  As7  1  0.814675  0.185396  0.500000  1
  As  As8  1  0.370836  0.185526  0.500000  1
  As  As9  1  0.814605  0.629206  0.500000  1
  P  P10  1  0.333238  0.666763  0.000000  1
