# generated using pymatgen
data_CeSmDy3(FeB3)2
_symmetry_space_group_name_H-M   'P 1'
_cell_length_a   5.44455172
_cell_length_b   5.44455091
_cell_length_c   8.07398180
_cell_angle_alpha   70.29565550
_cell_angle_beta   70.29567133
_cell_angle_gamma   59.99998635
_symmetry_Int_Tables_number   1
_chemical_formula_structural   CeSmDy3(FeB3)2
_chemical_formula_sum   'Ce1 Sm1 Dy3 Fe2 B6'
_cell_volume   190.91904804
_cell_formula_units_Z   1
loop_
 _symmetry_equiv_pos_site_id
 _symmetry_equiv_pos_as_xyz
  1  'x, y, z'
loop_
 _atom_site_type_symbol
 _atom_site_label
 _atom_site_symmetry_multiplicity
 _atom_site_fract_x
 _atom_site_fract_y
 _atom_site_fract_z
 _atom_site_occupancy
  Ce  Ce0  1  0.001368  0.001368  0.995895  1
  Sm  Sm1  1  0.254634  0.254634  0.236098  1
  Dy  Dy2  1  0.747197  0.747197  0.758409  1
  Dy  Dy3  1  0.415172  0.415172  0.754486  1
  Dy  Dy4  1  0.584796  0.584796  0.245610  1
  Fe  Fe5  1  0.110615  0.110615  0.668155  1
  Fe  Fe6  1  0.888590  0.888590  0.334230  1
  B  B7  1  0.165926  0.832452  0.501186  1
  B  B8  1  0.832452  0.500436  0.501186  1
  B  B9  1  0.500436  0.165926  0.501186  1
  B  B10  1  0.165926  0.500436  0.501186  1
  B  B11  1  0.500436  0.832452  0.501186  1
  B  B12  1  0.832452  0.165926  0.501186  1
