# generated using pymatgen
data_DyYB6Os
_symmetry_space_group_name_H-M   'P 1'
_cell_length_a   3.66088700
_cell_length_b   9.16806600
_cell_length_c   11.54846600
_cell_angle_alpha   90.00000000
_cell_angle_beta   90.00000000
_cell_angle_gamma   90.00000000
_symmetry_Int_Tables_number   1
_chemical_formula_structural   DyYB6Os
_chemical_formula_sum   'Dy4 Y4 B24 Os4'
_cell_volume   387.60409345
_cell_formula_units_Z   4
loop_
 _symmetry_equiv_pos_site_id
 _symmetry_equiv_pos_as_xyz
  1  'x, y, z'
loop_
 _atom_site_type_symbol
 _atom_site_label
 _atom_site_symmetry_multiplicity
 _atom_site_fract_x
 _atom_site_fract_y
 _atom_site_fract_z
 _atom_site_occupancy
  Dy  Dy0  1  0.000000  0.943902  0.372655  1
  Dy  Dy1  1  0.000000  0.056098  0.627345  1
  Dy  Dy2  1  0.000000  0.443902  0.127345  1
  Dy  Dy3  1  0.000000  0.556098  0.872655  1
  Y  Y4  1  0.000000  0.322322  0.413963  1
  Y  Y5  1  0.000000  0.677678  0.586037  1
  Y  Y6  1  0.000000  0.822322  0.086037  1
  Y  Y7  1  0.000000  0.177678  0.913963  1
  B  B8  1  0.500000  0.554135  0.432924  1
  B  B9  1  0.500000  0.445865  0.567076  1
  B  B10  1  0.500000  0.054135  0.067076  1
  B  B11  1  0.500000  0.945865  0.932924  1
  B  B12  1  0.500000  0.747784  0.419612  1
  B  B13  1  0.500000  0.252216  0.580388  1
  B  B14  1  0.500000  0.247784  0.080388  1
  B  B15  1  0.500000  0.752216  0.919612  1
  B  B16  1  0.500000  0.790858  0.266591  1
  B  B17  1  0.500000  0.209142  0.733409  1
  B  B18  1  0.500000  0.290858  0.233409  1
  B  B19  1  0.500000  0.709142  0.766591  1
  B  B20  1  0.500000  0.631906  0.185556  1
  B  B21  1  0.500000  0.368094  0.814444  1
  B  B22  1  0.500000  0.131906  0.314444  1
  B  B23  1  0.500000  0.868094  0.685556  1
  B  B24  1  0.500000  0.983813  0.212950  1
  B  B25  1  0.500000  0.016187  0.787050  1
  B  B26  1  0.500000  0.483813  0.287050  1
  B  B27  1  0.500000  0.516187  0.712950  1
  B  B28  1  0.500000  0.608079  0.029950  1
  B  B29  1  0.500000  0.391921  0.970050  1
  B  B30  1  0.500000  0.108079  0.470050  1
  B  B31  1  0.500000  0.891921  0.529950  1
  Os  Os32  1  0.000000  0.637379  0.321467  1
  Os  Os33  1  0.000000  0.362621  0.678533  1
  Os  Os34  1  0.000000  0.137379  0.178533  1
  Os  Os35  1  0.000000  0.862621  0.821467  1
