# generated using pymatgen
data_Tb6ZrCo16P12Ru
_symmetry_space_group_name_H-M   'P 1'
_cell_length_a   3.72053800
_cell_length_b   10.61215200
_cell_length_c   12.35564600
_cell_angle_alpha   90.00000000
_cell_angle_beta   90.00000000
_cell_angle_gamma   90.00000000
_symmetry_Int_Tables_number   1
_chemical_formula_structural   Tb6ZrCo16P12Ru
_chemical_formula_sum   'Tb6 Zr1 Co16 P12 Ru1'
_cell_volume   487.83691804
_cell_formula_units_Z   1
loop_
 _symmetry_equiv_pos_site_id
 _symmetry_equiv_pos_as_xyz
  1  'x, y, z'
loop_
 _atom_site_type_symbol
 _atom_site_label
 _atom_site_symmetry_multiplicity
 _atom_site_fract_x
 _atom_site_fract_y
 _atom_site_fract_z
 _atom_site_occupancy
  Tb  Tb0  1  0.000000  0.500000  0.528777  1
  Tb  Tb1  1  0.500000  0.000000  0.475278  1
  Tb  Tb2  1  0.500000  0.820716  0.207231  1
  Tb  Tb3  1  0.500000  0.179284  0.207231  1
  Tb  Tb4  1  0.000000  0.682916  0.795402  1
  Tb  Tb5  1  0.000000  0.317084  0.795402  1
  Zr  Zr6  1  0.500000  0.500000  0.154228  1
  Co  Co7  1  0.500000  0.500000  0.703615  1
  Co  Co8  1  0.000000  0.000000  0.296615  1
  Co  Co9  1  0.000000  0.500000  0.983477  1
  Co  Co10  1  0.500000  0.000000  0.013259  1
  Co  Co11  1  0.500000  0.327127  0.988184  1
  Co  Co12  1  0.500000  0.672873  0.988184  1
  Co  Co13  1  0.000000  0.162028  0.005224  1
  Co  Co14  1  0.000000  0.837972  0.005224  1
  Co  Co15  1  0.500000  0.294296  0.434979  1
  Co  Co16  1  0.500000  0.705704  0.434979  1
  Co  Co17  1  0.000000  0.201728  0.570404  1
  Co  Co18  1  0.000000  0.798272  0.570404  1
  Co  Co19  1  0.500000  0.880292  0.706409  1
  Co  Co20  1  0.500000  0.119708  0.706409  1
  Co  Co21  1  0.000000  0.622614  0.297681  1
  Co  Co22  1  0.000000  0.377386  0.297681  1
  P  P23  1  0.500000  0.500000  0.882235  1
  P  P24  1  0.000000  0.000000  0.117319  1
  P  P25  1  0.500000  0.500000  0.361093  1
  P  P26  1  0.000000  0.000000  0.649265  1
  P  P27  1  0.500000  0.309568  0.617308  1
  P  P28  1  0.500000  0.690432  0.617308  1
  P  P29  1  0.000000  0.189052  0.386322  1
  P  P30  1  0.000000  0.810948  0.386322  1
  P  P31  1  0.500000  0.850245  0.890242  1
  P  P32  1  0.500000  0.149755  0.890242  1
  P  P33  1  0.000000  0.663889  0.099661  1
  P  P34  1  0.000000  0.336111  0.099661  1
  Ru  Ru35  1  0.000000  0.000000  0.836746  1
