# generated using pymatgen
data_Li(Tc3P2)2
_symmetry_space_group_name_H-M   'P 1'
_cell_length_a   7.55335900
_cell_length_b   7.55335844
_cell_length_c   3.05643600
_cell_angle_alpha   90.00000000
_cell_angle_beta   90.00000000
_cell_angle_gamma   119.99998930
_symmetry_Int_Tables_number   1
_chemical_formula_structural   Li(Tc3P2)2
_chemical_formula_sum   'Li1 Tc6 P4'
_cell_volume   151.01712772
_cell_formula_units_Z   1
loop_
 _symmetry_equiv_pos_site_id
 _symmetry_equiv_pos_as_xyz
  1  'x, y, z'
loop_
 _atom_site_type_symbol
 _atom_site_label
 _atom_site_symmetry_multiplicity
 _atom_site_fract_x
 _atom_site_fract_y
 _atom_site_fract_z
 _atom_site_occupancy
  Li  Li0  1  0.000000  0.000000  0.000000  1
  Tc  Tc1  1  0.194254  0.805746  0.500000  1
  Tc  Tc2  1  0.194254  0.388508  0.500000  1
  Tc  Tc3  1  0.542511  0.085022  0.000000  1
  Tc  Tc4  1  0.914978  0.457489  0.000000  1
  Tc  Tc5  1  0.542511  0.457489  0.000000  1
  Tc  Tc6  1  0.611492  0.805746  0.500000  1
  P  P7  1  0.829245  0.170755  0.500000  1
  P  P8  1  0.341510  0.170755  0.500000  1
  P  P9  1  0.333333  0.666667  0.000000  1
  P  P10  1  0.829245  0.658490  0.500000  1
