# generated using pymatgen
data_Ac2Sm(InRh)3
_symmetry_space_group_name_H-M   'P 1'
_cell_length_a   7.64796800
_cell_length_b   7.77705685
_cell_length_c   4.22636300
_cell_angle_alpha   90.00000000
_cell_angle_beta   90.00000000
_cell_angle_gamma   119.45241409
_symmetry_Int_Tables_number   1
_chemical_formula_structural   Ac2Sm(InRh)3
_chemical_formula_sum   'Ac2 Sm1 In3 Rh3'
_cell_volume   218.89144141
_cell_formula_units_Z   1
loop_
 _symmetry_equiv_pos_site_id
 _symmetry_equiv_pos_as_xyz
  1  'x, y, z'
loop_
 _atom_site_type_symbol
 _atom_site_label
 _atom_site_symmetry_multiplicity
 _atom_site_fract_x
 _atom_site_fract_y
 _atom_site_fract_z
 _atom_site_occupancy
  Ac  Ac0  1  0.000466  0.413873  0.500000  1
  Ac  Ac1  1  0.586593  0.586127  0.500000  1
  Sm  Sm2  1  0.407326  0.000000  0.500000  1
  In  In3  1  0.245537  0.233461  0.000000  1
  In  In4  1  0.012077  0.766539  0.000000  1
  In  In5  1  0.745348  0.000000  0.000000  1
  Rh  Rh6  1  0.336512  0.671394  0.000000  1
  Rh  Rh7  1  0.001021  0.000000  0.500000  1
  Rh  Rh8  1  0.665120  0.328606  0.000000  1
