# generated using pymatgen
data_Cs4Y6GeBr18
_symmetry_space_group_name_H-M   'P 1'
_cell_length_a   11.23427412
_cell_length_b   11.55849244
_cell_length_c   11.65111700
_cell_angle_alpha   118.21924120
_cell_angle_beta   100.46796789
_cell_angle_gamma   104.30666480
_symmetry_Int_Tables_number   1
_chemical_formula_structural   Cs4Y6GeBr18
_chemical_formula_sum   'Cs4 Y6 Ge1 Br18'
_cell_volume   1210.21978772
_cell_formula_units_Z   1
loop_
 _symmetry_equiv_pos_site_id
 _symmetry_equiv_pos_as_xyz
  1  'x, y, z'
loop_
 _atom_site_type_symbol
 _atom_site_label
 _atom_site_symmetry_multiplicity
 _atom_site_fract_x
 _atom_site_fract_y
 _atom_site_fract_z
 _atom_site_occupancy
  Cs  Cs0  1  0.669911  0.544446  0.234433  1
  Cs  Cs1  1  0.330089  0.455554  0.765567  1
  Cs  Cs2  1  0.709963  0.233227  0.575386  1
  Cs  Cs3  1  0.290037  0.766773  0.424614  1
  Y  Y4  1  0.172634  0.066061  0.259530  1
  Y  Y5  1  0.827366  0.933939  0.740470  1
  Y  Y6  1  0.840967  0.137259  0.145672  1
  Y  Y7  1  0.159033  0.862741  0.854328  1
  Y  Y8  1  0.163295  0.267727  0.049775  1
  Y  Y9  1  0.836705  0.732273  0.950225  1
  Ge  Ge10  1  0.000000  0.000000  0.000000  1
  Br  Br11  1  0.007498  0.400860  0.192575  1
  Br  Br12  1  0.992502  0.599140  0.807425  1
  Br  Br13  1  0.327167  0.332085  0.307830  1
  Br  Br14  1  0.672833  0.667915  0.692170  1
  Br  Br15  1  0.333203  0.525476  0.105142  1
  Br  Br16  1  0.666797  0.474524  0.894858  1
  Br  Br17  1  0.005790  0.800461  0.207962  1
  Br  Br18  1  0.994210  0.199539  0.792038  1
  Br  Br19  1  0.695406  0.270309  0.287060  1
  Br  Br20  1  0.304594  0.729691  0.712940  1
  Br  Br21  1  0.314560  0.130068  0.906428  1
  Br  Br22  1  0.685440  0.869932  0.093572  1
  Br  Br23  1  0.016392  0.200321  0.400415  1
  Br  Br24  1  0.983608  0.799679  0.599585  1
  Br  Br25  1  0.317821  0.923679  0.111130  1
  Br  Br26  1  0.682179  0.076321  0.888870  1
  Br  Br27  1  0.343896  0.125058  0.505049  1
  Br  Br28  1  0.656104  0.874942  0.494951  1
