# generated using pymatgen
data_Gd2RuN3
_symmetry_space_group_name_H-M   'P 1'
_cell_length_a   3.42243497
_cell_length_b   3.78746489
_cell_length_c   6.88171840
_cell_angle_alpha   105.98142585
_cell_angle_beta   104.43433167
_cell_angle_gamma   90.02225519
_symmetry_Int_Tables_number   1
_chemical_formula_structural   Gd2RuN3
_chemical_formula_sum   'Gd2 Ru1 N3'
_cell_volume   82.82015213
_cell_formula_units_Z   1
loop_
 _symmetry_equiv_pos_site_id
 _symmetry_equiv_pos_as_xyz
  1  'x, y, z'
loop_
 _atom_site_type_symbol
 _atom_site_label
 _atom_site_symmetry_multiplicity
 _atom_site_fract_x
 _atom_site_fract_y
 _atom_site_fract_z
 _atom_site_occupancy
  Gd  Gd0  1  0.348479  0.348440  0.696857  1
  Gd  Gd1  1  0.651521  0.651560  0.303143  1
  Ru  Ru2  1  0.000000  0.000000  0.000000  1
  N  N3  1  0.165605  0.165619  0.331207  1
  N  N4  1  0.834394  0.834381  0.668793  1
  N  N5  1  0.000000  0.500000  0.000000  1
