# generated using pymatgen
data_Tb7Tm3Si5P
_symmetry_space_group_name_H-M   'P 1'
_cell_length_a   8.42568955
_cell_length_b   8.42523113
_cell_length_c   6.27686138
_cell_angle_alpha   89.98140127
_cell_angle_beta   90.03952603
_cell_angle_gamma   120.05919886
_symmetry_Int_Tables_number   1
_chemical_formula_structural   Tb7Tm3Si5P
_chemical_formula_sum   'Tb7 Tm3 Si5 P1'
_cell_volume   385.65677482
_cell_formula_units_Z   1
loop_
 _symmetry_equiv_pos_site_id
 _symmetry_equiv_pos_as_xyz
  1  'x, y, z'
loop_
 _atom_site_type_symbol
 _atom_site_label
 _atom_site_symmetry_multiplicity
 _atom_site_fract_x
 _atom_site_fract_y
 _atom_site_fract_z
 _atom_site_occupancy
  Tb  Tb0  1  0.665920  0.333707  0.499445  1
  Tb  Tb1  1  0.753380  0.753343  0.249321  1
  Tb  Tb2  1  0.245440  0.001259  0.249085  1
  Tb  Tb3  1  0.001321  0.245302  0.249378  1
  Tb  Tb4  1  0.245153  0.245153  0.750905  1
  Tb  Tb5  1  0.755503  0.000798  0.750684  1
  Tb  Tb6  1  0.000985  0.755607  0.750757  1
  Tm  Tm7  1  0.333631  0.666524  0.500391  1
  Tm  Tm8  1  0.333711  0.666068  0.999979  1
  Tm  Tm9  1  0.666257  0.333704  0.000067  1
  Si  Si10  1  0.604797  0.998263  0.247266  1
  Si  Si11  1  0.001807  0.606310  0.247319  1
  Si  Si12  1  0.605253  0.607010  0.752468  1
  Si  Si13  1  0.394377  0.998809  0.752925  1
  Si  Si14  1  0.002194  0.395911  0.752690  1
  P  P15  1  0.390270  0.392234  0.247319  1
