# generated using pymatgen
data_Tm3In3Ni2Au
_symmetry_space_group_name_H-M   'P 1'
_cell_length_a   7.62358900
_cell_length_b   7.62358861
_cell_length_c   3.70024200
_cell_angle_alpha   90.00000000
_cell_angle_beta   90.00000000
_cell_angle_gamma   120.00000604
_symmetry_Int_Tables_number   1
_chemical_formula_structural   Tm3In3Ni2Au
_chemical_formula_sum   'Tm3 In3 Ni2 Au1'
_cell_volume   186.24287224
_cell_formula_units_Z   1
loop_
 _symmetry_equiv_pos_site_id
 _symmetry_equiv_pos_as_xyz
  1  'x, y, z'
loop_
 _atom_site_type_symbol
 _atom_site_label
 _atom_site_symmetry_multiplicity
 _atom_site_fract_x
 _atom_site_fract_y
 _atom_site_fract_z
 _atom_site_occupancy
  Tm  Tm0  1  0.417696  0.398099  0.500000  1
  Tm  Tm1  1  0.601901  0.019597  0.500000  1
  Tm  Tm2  1  0.980403  0.582304  0.500000  1
  In  In3  1  0.748267  0.745552  0.000000  1
  In  In4  1  0.254448  0.002715  0.000000  1
  In  In5  1  0.997285  0.251733  0.000000  1
  Ni  Ni6  1  0.666667  0.333333  0.000000  1
  Ni  Ni7  1  0.000000  0.000000  0.500000  1
  Au  Au8  1  0.333333  0.666667  0.000000  1
