# generated using pymatgen
data_Er2CrPtF14
_symmetry_space_group_name_H-M   'P 1'
_cell_length_a   5.48660400
_cell_length_b   8.77686951
_cell_length_c   11.76242069
_cell_angle_alpha   62.85364734
_cell_angle_beta   90.00000000
_cell_angle_gamma   90.00000000
_symmetry_Int_Tables_number   1
_chemical_formula_structural   Er2CrPtF14
_chemical_formula_sum   'Er4 Cr2 Pt2 F28'
_cell_volume   504.02703217
_cell_formula_units_Z   2
loop_
 _symmetry_equiv_pos_site_id
 _symmetry_equiv_pos_as_xyz
  1  'x, y, z'
loop_
 _atom_site_type_symbol
 _atom_site_label
 _atom_site_symmetry_multiplicity
 _atom_site_fract_x
 _atom_site_fract_y
 _atom_site_fract_z
 _atom_site_occupancy
  Er  Er0  1  0.761798  0.811737  0.762769  1
  Er  Er1  1  0.261798  0.188263  0.737231  1
  Er  Er2  1  0.237026  0.188269  0.230023  1
  Er  Er3  1  0.737026  0.811731  0.269977  1
  Cr  Cr4  1  0.756530  0.274855  0.954923  1
  Cr  Cr5  1  0.256530  0.725145  0.545077  1
  Pt  Pt6  1  0.242491  0.729116  0.042679  1
  Pt  Pt7  1  0.742491  0.270884  0.457321  1
  F  F8  1  0.436446  0.700097  0.913466  1
  F  F9  1  0.936446  0.299903  0.586534  1
  F  F10  1  0.555279  0.291380  0.074353  1
  F  F11  1  0.055279  0.708620  0.425647  1
  F  F12  1  0.437354  0.281218  0.541984  1
  F  F13  1  0.937354  0.718782  0.958016  1
  F  F14  1  0.541781  0.719352  0.454804  1
  F  F15  1  0.041781  0.280648  0.045196  1
  F  F16  1  0.770274  0.510354  0.863330  1
  F  F17  1  0.270274  0.489646  0.636670  1
  F  F18  1  0.229528  0.478734  0.143441  1
  F  F19  1  0.729528  0.521266  0.356559  1
  F  F20  1  0.755921  0.041441  0.046033  1
  F  F21  1  0.255921  0.958559  0.453967  1
  F  F22  1  0.244719  0.979858  0.949851  1
  F  F23  1  0.744719  0.020142  0.550149  1
  F  F24  1  0.982682  0.725681  0.642640  1
  F  F25  1  0.482682  0.274319  0.857360  1
  F  F26  1  0.041947  0.268707  0.366358  1
  F  F27  1  0.541947  0.731293  0.133642  1
  F  F28  1  0.052982  0.750890  0.176909  1
  F  F29  1  0.552982  0.249110  0.323091  1
  F  F30  1  0.954286  0.257386  0.832318  1
  F  F31  1  0.454286  0.742614  0.667682  1
  F  F32  1  0.416295  0.971818  0.229074  1
  F  F33  1  0.916295  0.028182  0.270926  1
  F  F34  1  0.582662  0.028229  0.766557  1
  F  F35  1  0.082662  0.971771  0.733443  1
