# generated using pymatgen
data_Ta5Nb(AlRu2)6
_symmetry_space_group_name_H-M   'P 1'
_cell_length_a   4.38653501
_cell_length_b   6.19414200
_cell_length_c   13.12977702
_cell_angle_alpha   90.00000000
_cell_angle_beta   90.00622445
_cell_angle_gamma   90.00000000
_symmetry_Int_Tables_number   1
_chemical_formula_structural   Ta5Nb(AlRu2)6
_chemical_formula_sum   'Ta5 Nb1 Al6 Ru12'
_cell_volume   356.74681536
_cell_formula_units_Z   1
loop_
 _symmetry_equiv_pos_site_id
 _symmetry_equiv_pos_as_xyz
  1  'x, y, z'
loop_
 _atom_site_type_symbol
 _atom_site_label
 _atom_site_symmetry_multiplicity
 _atom_site_fract_x
 _atom_site_fract_y
 _atom_site_fract_z
 _atom_site_occupancy
  Ta  Ta0  1  0.499826  0.000000  0.166538  1
  Ta  Ta1  1  0.999829  0.500000  0.333248  1
  Ta  Ta2  1  0.500000  0.000000  0.500000  1
  Ta  Ta3  1  0.000171  0.500000  0.666751  1
  Ta  Ta4  1  0.500174  0.000000  0.833462  1
  Nb  Nb5  1  0.000000  0.500000  0.000000  1
  Al  Al6  1  0.000000  0.000000  0.000000  1
  Al  Al7  1  0.499793  0.500000  0.166661  1
  Al  Al8  1  0.999785  0.000000  0.333273  1
  Al  Al9  1  0.500000  0.500000  0.500000  1
  Al  Al10  1  0.000215  0.000000  0.666726  1
  Al  Al11  1  0.500207  0.500000  0.833338  1
  Ru  Ru12  1  0.500000  0.249099  0.000000  1
  Ru  Ru13  1  0.500000  0.750901  0.000000  1
  Ru  Ru14  1  0.999850  0.249132  0.167137  1
  Ru  Ru15  1  0.999850  0.750867  0.167137  1
  Ru  Ru16  1  0.499841  0.250289  0.333397  1
  Ru  Ru17  1  0.499841  0.749710  0.333397  1
  Ru  Ru18  1  0.000000  0.249714  0.500000  1
  Ru  Ru19  1  0.000000  0.750285  0.500000  1
  Ru  Ru20  1  0.500159  0.250289  0.666603  1
  Ru  Ru21  1  0.500159  0.749710  0.666603  1
  Ru  Ru22  1  0.000150  0.249132  0.832863  1
  Ru  Ru23  1  0.000150  0.750867  0.832863  1
