# generated using pymatgen
data_Ba2In4PtRh
_symmetry_space_group_name_H-M   'P 1'
_cell_length_a   6.30757569
_cell_length_b   6.30757543
_cell_length_c   8.17635400
_cell_angle_alpha   90.00000000
_cell_angle_beta   90.00000000
_cell_angle_gamma   137.54661278
_symmetry_Int_Tables_number   1
_chemical_formula_structural   Ba2In4PtRh
_chemical_formula_sum   'Ba2 In4 Pt1 Rh1'
_cell_volume   219.57457981
_cell_formula_units_Z   1
loop_
 _symmetry_equiv_pos_site_id
 _symmetry_equiv_pos_as_xyz
  1  'x, y, z'
loop_
 _atom_site_type_symbol
 _atom_site_label
 _atom_site_symmetry_multiplicity
 _atom_site_fract_x
 _atom_site_fract_y
 _atom_site_fract_z
 _atom_site_occupancy
  Ba  Ba0  1  0.051218  0.948782  0.250000  1
  Ba  Ba1  1  0.947251  0.052749  0.750000  1
  In  In2  1  0.664766  0.335234  0.553289  1
  In  In3  1  0.334708  0.665292  0.440928  1
  In  In4  1  0.664766  0.335234  0.946711  1
  In  In5  1  0.334708  0.665292  0.059072  1
  Pt  Pt6  1  0.221379  0.778621  0.750000  1
  Rh  Rh7  1  0.781207  0.218793  0.250000  1
