# generated using pymatgen
data_La7PaAl2(Ga3Rh4)2
_symmetry_space_group_name_H-M   'P 1'
_cell_length_a   4.21506400
_cell_length_b   7.34740664
_cell_length_c   16.24139529
_cell_angle_alpha   89.60815072
_cell_angle_beta   90.00000000
_cell_angle_gamma   90.00000000
_symmetry_Int_Tables_number   1
_chemical_formula_structural   La7PaAl2(Ga3Rh4)2
_chemical_formula_sum   'La7 Pa1 Al2 Ga6 Rh8'
_cell_volume   502.98082558
_cell_formula_units_Z   1
loop_
 _symmetry_equiv_pos_site_id
 _symmetry_equiv_pos_as_xyz
  1  'x, y, z'
loop_
 _atom_site_type_symbol
 _atom_site_label
 _atom_site_symmetry_multiplicity
 _atom_site_fract_x
 _atom_site_fract_y
 _atom_site_fract_z
 _atom_site_occupancy
  La  La0  1  0.750000  0.470508  0.217606  1
  La  La1  1  0.750000  0.967710  0.282104  1
  La  La2  1  0.250000  0.033977  0.722367  1
  La  La3  1  0.250000  0.654576  0.558909  1
  La  La4  1  0.750000  0.333267  0.440077  1
  La  La5  1  0.750000  0.844334  0.058701  1
  La  La6  1  0.250000  0.169681  0.939804  1
  Pa  Pa7  1  0.250000  0.535537  0.779539  1
  Al  Al8  1  0.750000  0.502445  0.939288  1
  Al  Al9  1  0.750000  0.990992  0.563485  1
  Ga  Ga10  1  0.250000  0.637875  0.350780  1
  Ga  Ga11  1  0.750000  0.357431  0.649498  1
  Ga  Ga12  1  0.750000  0.855175  0.849811  1
  Ga  Ga13  1  0.250000  0.139117  0.148853  1
  Ga  Ga14  1  0.250000  0.508561  0.060161  1
  Ga  Ga15  1  0.250000  0.999071  0.439839  1
  Rh  Rh16  1  0.250000  0.762704  0.179407  1
  Rh  Rh17  1  0.750000  0.285108  0.815142  1
  Rh  Rh18  1  0.750000  0.719066  0.692211  1
  Rh  Rh19  1  0.250000  0.261876  0.319229  1
  Rh  Rh20  1  0.250000  0.710582  0.919608  1
  Rh  Rh21  1  0.750000  0.276188  0.070037  1
  Rh  Rh22  1  0.750000  0.773815  0.431207  1
  Rh  Rh23  1  0.250000  0.210401  0.572334  1
