# generated using pymatgen
data_Y3HoCo16(P3Ru)4
_symmetry_space_group_name_H-M   'P 1'
_cell_length_a   3.69304700
_cell_length_b   10.40428007
_cell_length_c   11.78779808
_cell_angle_alpha   90.01318279
_cell_angle_beta   90.00000000
_cell_angle_gamma   90.00000000
_symmetry_Int_Tables_number   1
_chemical_formula_structural   Y3HoCo16(P3Ru)4
_chemical_formula_sum   'Y3 Ho1 Co16 P12 Ru4'
_cell_volume   452.92839200
_cell_formula_units_Z   1
loop_
 _symmetry_equiv_pos_site_id
 _symmetry_equiv_pos_as_xyz
  1  'x, y, z'
loop_
 _atom_site_type_symbol
 _atom_site_label
 _atom_site_symmetry_multiplicity
 _atom_site_fract_x
 _atom_site_fract_y
 _atom_site_fract_z
 _atom_site_occupancy
  Y  Y0  1  0.750000  0.086044  0.796100  1
  Y  Y1  1  0.750000  0.413970  0.296021  1
  Y  Y2  1  0.250000  0.585968  0.703965  1
  Ho  Ho3  1  0.250000  0.914057  0.203879  1
  Co  Co4  1  0.250000  0.091258  0.989777  1
  Co  Co5  1  0.750000  0.908658  0.010637  1
  Co  Co6  1  0.750000  0.591343  0.510316  1
  Co  Co7  1  0.250000  0.408651  0.489680  1
  Co  Co8  1  0.250000  0.278739  0.676709  1
  Co  Co9  1  0.750000  0.721459  0.323190  1
  Co  Co10  1  0.750000  0.778731  0.823349  1
  Co  Co11  1  0.250000  0.221178  0.176709  1
  Co  Co12  1  0.250000  0.613179  0.202390  1
  Co  Co13  1  0.750000  0.386909  0.797603  1
  Co  Co14  1  0.750000  0.112836  0.297470  1
  Co  Co15  1  0.250000  0.886917  0.702414  1
  Co  Co16  1  0.250000  0.034862  0.430515  1
  Co  Co17  1  0.750000  0.965066  0.569243  1
  Co  Co18  1  0.750000  0.534995  0.069308  1
  Co  Co19  1  0.250000  0.465064  0.930709  1
  P  P20  1  0.250000  0.080154  0.611856  1
  P  P21  1  0.750000  0.919830  0.387828  1
  P  P22  1  0.750000  0.580139  0.888166  1
  P  P23  1  0.250000  0.419852  0.111849  1
  P  P24  1  0.250000  0.228368  0.367112  1
  P  P25  1  0.750000  0.771662  0.632898  1
  P  P26  1  0.750000  0.728680  0.133016  1
  P  P27  1  0.250000  0.271672  0.867094  1
  P  P28  1  0.250000  0.903928  0.890234  1
  P  P29  1  0.750000  0.095805  0.109891  1
  P  P30  1  0.750000  0.403924  0.609773  1
  P  P31  1  0.250000  0.596058  0.390245  1
  Ru  Ru32  1  0.250000  0.783433  0.492100  1
  Ru  Ru33  1  0.750000  0.216565  0.507850  1
  Ru  Ru34  1  0.750000  0.283396  0.007902  1
  Ru  Ru35  1  0.250000  0.716649  0.992203  1
