# generated using pymatgen
data_Mg3Al5Pt16
_symmetry_space_group_name_H-M   'P 1'
_cell_length_a   16.52022734
_cell_length_b   3.99534300
_cell_length_c   5.53901316
_cell_angle_alpha   90.00000000
_cell_angle_beta   89.82921555
_cell_angle_gamma   90.00000000
_symmetry_Int_Tables_number   1
_chemical_formula_structural   Mg3Al5Pt16
_chemical_formula_sum   'Mg3 Al5 Pt16'
_cell_volume   365.59525974
_cell_formula_units_Z   1
loop_
 _symmetry_equiv_pos_site_id
 _symmetry_equiv_pos_as_xyz
  1  'x, y, z'
loop_
 _atom_site_type_symbol
 _atom_site_label
 _atom_site_symmetry_multiplicity
 _atom_site_fract_x
 _atom_site_fract_y
 _atom_site_fract_z
 _atom_site_occupancy
  Mg  Mg0  1  0.090016  0.000000  0.304534  1
  Mg  Mg1  1  0.248826  0.000000  0.792646  1
  Mg  Mg2  1  0.749743  0.000000  0.205232  1
  Al  Al3  1  0.407525  0.000000  0.309748  1
  Al  Al4  1  0.592912  0.000000  0.690403  1
  Al  Al5  1  0.908851  0.000000  0.690064  1
  Al  Al6  1  0.000927  0.499999  0.006671  1
  Al  Al7  1  0.500351  0.499999  0.999837  1
  Pt  Pt8  1  0.252416  0.000000  0.282241  1
  Pt  Pt9  1  0.749901  0.000000  0.718036  1
  Pt  Pt10  1  0.166504  0.499999  0.547143  1
  Pt  Pt11  1  0.335076  0.499999  0.548160  1
  Pt  Pt12  1  0.665222  0.499999  0.451914  1
  Pt  Pt13  1  0.832736  0.499999  0.450971  1
  Pt  Pt14  1  0.160846  0.499999  0.042988  1
  Pt  Pt15  1  0.344898  0.499999  0.047120  1
  Pt  Pt16  1  0.655745  0.499999  0.951484  1
  Pt  Pt17  1  0.843520  0.499999  0.947955  1
  Pt  Pt18  1  0.997195  0.499999  0.509240  1
  Pt  Pt19  1  0.500143  0.499999  0.499775  1
  Pt  Pt20  1  0.068183  0.000000  0.801219  1
  Pt  Pt21  1  0.433153  0.000000  0.797104  1
  Pt  Pt22  1  0.567242  0.000000  0.202910  1
  Pt  Pt23  1  0.928068  0.000000  0.202599  1
