# generated using pymatgen
data_Ce5Y11(HoIr3)4
_symmetry_space_group_name_H-M   'P 1'
_cell_length_a   11.01288522
_cell_length_b   11.01506271
_cell_length_c   6.31168289
_cell_angle_alpha   89.65020199
_cell_angle_beta   89.97498062
_cell_angle_gamma   89.95192645
_symmetry_Int_Tables_number   1
_chemical_formula_structural   Ce5Y11(HoIr3)4
_chemical_formula_sum   'Ce5 Y11 Ho4 Ir12'
_cell_volume   765.64062843
_cell_formula_units_Z   1
loop_
 _symmetry_equiv_pos_site_id
 _symmetry_equiv_pos_as_xyz
  1  'x, y, z'
loop_
 _atom_site_type_symbol
 _atom_site_label
 _atom_site_symmetry_multiplicity
 _atom_site_fract_x
 _atom_site_fract_y
 _atom_site_fract_z
 _atom_site_occupancy
  Ce  Ce0  1  0.294162  0.091522  0.382641  1
  Ce  Ce1  1  0.290348  0.909014  0.882720  1
  Ce  Ce2  1  0.708102  0.095384  0.883680  1
  Ce  Ce3  1  0.707224  0.910672  0.383153  1
  Ce  Ce4  1  0.590231  0.786495  0.883634  1
  Y  Y5  1  0.588478  0.213295  0.379559  1
  Y  Y6  1  0.409524  0.786003  0.378231  1
  Y  Y7  1  0.412189  0.212864  0.878167  1
  Y  Y8  1  0.208483  0.413038  0.622864  1
  Y  Y9  1  0.207256  0.586590  0.122255  1
  Y  Y10  1  0.792090  0.412975  0.120967  1
  Y  Y11  1  0.791707  0.586157  0.619921  1
  Y  Y12  1  0.913158  0.708897  0.118339  1
  Y  Y13  1  0.912973  0.291131  0.617243  1
  Y  Y14  1  0.087518  0.708419  0.619108  1
  Y  Y15  1  0.087881  0.291059  0.118288  1
  Ho  Ho16  1  0.999600  0.999839  0.497112  1
  Ho  Ho17  1  0.999628  0.000851  0.996442  1
  Ho  Ho18  1  0.498529  0.497375  0.006770  1
  Ho  Ho19  1  0.500506  0.499753  0.505652  1
  Ir  Ir20  1  0.845615  0.151737  0.242698  1
  Ir  Ir21  1  0.841501  0.849922  0.745270  1
  Ir  Ir22  1  0.156247  0.150481  0.741600  1
  Ir  Ir23  1  0.154753  0.848925  0.243791  1
  Ir  Ir24  1  0.652694  0.346608  0.754352  1
  Ir  Ir25  1  0.652070  0.655689  0.246551  1
  Ir  Ir26  1  0.348054  0.345303  0.257108  1
  Ir  Ir27  1  0.349340  0.654491  0.757464  1
  Ir  Ir28  1  0.499791  0.998895  0.120369  1
  Ir  Ir29  1  0.500133  0.997053  0.623549  1
  Ir  Ir30  1  0.000315  0.499632  0.874625  1
  Ir  Ir31  1  0.999900  0.499931  0.375880  1
