# generated using pymatgen
data_Zr8Ta12ZnSi15
_symmetry_space_group_name_H-M   'P 1'
_cell_length_a   6.89508121
_cell_length_b   6.87627716
_cell_length_c   12.76693872
_cell_angle_alpha   90.10889306
_cell_angle_beta   89.90925836
_cell_angle_gamma   89.98800309
_symmetry_Int_Tables_number   1
_chemical_formula_structural   Zr8Ta12ZnSi15
_chemical_formula_sum   'Zr8 Ta12 Zn1 Si15'
_cell_volume   605.31048118
_cell_formula_units_Z   1
loop_
 _symmetry_equiv_pos_site_id
 _symmetry_equiv_pos_as_xyz
  1  'x, y, z'
loop_
 _atom_site_type_symbol
 _atom_site_label
 _atom_site_symmetry_multiplicity
 _atom_site_fract_x
 _atom_site_fract_y
 _atom_site_fract_z
 _atom_site_occupancy
  Zr  Zr0  1  0.000214  0.659986  0.030599  1
  Zr  Zr1  1  0.997460  0.337405  0.531789  1
  Zr  Zr2  1  0.660054  0.000746  0.969740  1
  Zr  Zr3  1  0.160139  0.498479  0.781656  1
  Zr  Zr4  1  0.837976  0.500313  0.279407  1
  Zr  Zr5  1  0.499415  0.159094  0.218834  1
  Zr  Zr6  1  0.500050  0.839850  0.719093  1
  Zr  Zr7  1  0.345115  0.999876  0.469412  1
  Ta  Ta8  1  0.352730  0.502234  0.374963  1
  Ta  Ta9  1  0.844375  0.998833  0.371752  1
  Ta  Ta10  1  0.004169  0.153483  0.126274  1
  Ta  Ta11  1  0.993717  0.847150  0.629601  1
  Ta  Ta12  1  0.653449  0.494907  0.876870  1
  Ta  Ta13  1  0.503675  0.348615  0.623893  1
  Ta  Ta14  1  0.495127  0.652911  0.123440  1
  Ta  Ta15  1  0.153811  0.004041  0.873442  1
  Ta  Ta16  1  0.665195  0.670097  0.501520  1
  Ta  Ta17  1  0.830418  0.169434  0.749935  1
  Ta  Ta18  1  0.171500  0.832646  0.248365  1
  Ta  Ta19  1  0.330377  0.330525  0.000302  1
  Zn  Zn20  1  0.041730  0.699148  0.435679  1
  Si  Si21  1  0.956527  0.298283  0.936353  1
  Si  Si22  1  0.703217  0.043679  0.563109  1
  Si  Si23  1  0.200192  0.457116  0.187667  1
  Si  Si24  1  0.798820  0.543556  0.686498  1
  Si  Si25  1  0.456628  0.201152  0.813176  1
  Si  Si26  1  0.543972  0.798519  0.313758  1
  Si  Si27  1  0.298809  0.956800  0.062975  1
  Si  Si28  1  0.864426  0.791905  0.823077  1
  Si  Si29  1  0.135713  0.207657  0.324051  1
  Si  Si30  1  0.792869  0.863883  0.177862  1
  Si  Si31  1  0.288954  0.636260  0.570509  1
  Si  Si32  1  0.707712  0.364712  0.072616  1
  Si  Si33  1  0.638322  0.293838  0.427704  1
  Si  Si34  1  0.365018  0.707569  0.926923  1
  Si  Si35  1  0.208127  0.135300  0.677154  1
