# generated using pymatgen
data_Tm19ZnRh12
_symmetry_space_group_name_H-M   'P 1'
_cell_length_a   10.73011600
_cell_length_b   10.73011600
_cell_length_c   6.25688600
_cell_angle_alpha   90.00000000
_cell_angle_beta   90.00000000
_cell_angle_gamma   90.00000000
_symmetry_Int_Tables_number   1
_chemical_formula_structural   Tm19ZnRh12
_chemical_formula_sum   'Tm19 Zn1 Rh12'
_cell_volume   720.38900588
_cell_formula_units_Z   1
loop_
 _symmetry_equiv_pos_site_id
 _symmetry_equiv_pos_as_xyz
  1  'x, y, z'
loop_
 _atom_site_type_symbol
 _atom_site_label
 _atom_site_symmetry_multiplicity
 _atom_site_fract_x
 _atom_site_fract_y
 _atom_site_fract_z
 _atom_site_occupancy
  Tm  Tm0  1  0.278579  0.082482  0.379602  1
  Tm  Tm1  1  0.291956  0.911177  0.881779  1
  Tm  Tm2  1  0.708044  0.088823  0.881779  1
  Tm  Tm3  1  0.721421  0.917518  0.379602  1
  Tm  Tm4  1  0.590122  0.792596  0.878903  1
  Tm  Tm5  1  0.586160  0.206980  0.376811  1
  Tm  Tm6  1  0.413840  0.793020  0.376811  1
  Tm  Tm7  1  0.409878  0.207404  0.878903  1
  Tm  Tm8  1  0.206980  0.413840  0.623189  1
  Tm  Tm9  1  0.207404  0.590122  0.121097  1
  Tm  Tm10  1  0.792596  0.409878  0.121097  1
  Tm  Tm11  1  0.793020  0.586160  0.623189  1
  Tm  Tm12  1  0.911177  0.708044  0.118221  1
  Tm  Tm13  1  0.917518  0.278579  0.620398  1
  Tm  Tm14  1  0.082482  0.721421  0.620398  1
  Tm  Tm15  1  0.088823  0.291956  0.118221  1
  Tm  Tm16  1  0.000000  0.000000  0.000000  1
  Tm  Tm17  1  0.500000  0.500000  0.000000  1
  Tm  Tm18  1  0.500000  0.500000  0.500000  1
  Zn  Zn19  1  0.000000  0.000000  0.500000  1
  Rh  Rh20  1  0.847562  0.154332  0.246159  1
  Rh  Rh21  1  0.845668  0.847562  0.753841  1
  Rh  Rh22  1  0.154332  0.152438  0.753841  1
  Rh  Rh23  1  0.152438  0.845668  0.246159  1
  Rh  Rh24  1  0.654711  0.346015  0.746887  1
  Rh  Rh25  1  0.653985  0.654711  0.253113  1
  Rh  Rh26  1  0.346015  0.345289  0.253113  1
  Rh  Rh27  1  0.345289  0.653985  0.746887  1
  Rh  Rh28  1  0.500000  0.000000  0.124673  1
  Rh  Rh29  1  0.500000  0.000000  0.621643  1
  Rh  Rh30  1  0.000000  0.500000  0.875327  1
  Rh  Rh31  1  0.000000  0.500000  0.378357  1
