# generated using pymatgen
data_TbDy7Hf11Si16Os
_symmetry_space_group_name_H-M   'P 1'
_cell_length_a   7.24251585
_cell_length_b   7.24266392
_cell_length_c   13.24986410
_cell_angle_alpha   89.87414665
_cell_angle_beta   90.11683964
_cell_angle_gamma   90.02823330
_symmetry_Int_Tables_number   1
_chemical_formula_structural   TbDy7Hf11Si16Os
_chemical_formula_sum   'Tb1 Dy7 Hf11 Si16 Os1'
_cell_volume   695.01985080
_cell_formula_units_Z   1
loop_
 _symmetry_equiv_pos_site_id
 _symmetry_equiv_pos_as_xyz
  1  'x, y, z'
loop_
 _atom_site_type_symbol
 _atom_site_label
 _atom_site_symmetry_multiplicity
 _atom_site_fract_x
 _atom_site_fract_y
 _atom_site_fract_z
 _atom_site_occupancy
  Tb  Tb0  1  0.654802  0.005262  0.282615  1
  Dy  Dy1  1  0.998831  0.343714  0.211727  1
  Dy  Dy2  1  0.005127  0.654705  0.717379  1
  Dy  Dy3  1  0.155820  0.494713  0.465241  1
  Dy  Dy4  1  0.501794  0.846586  0.032593  1
  Dy  Dy5  1  0.846623  0.501845  0.967280  1
  Dy  Dy6  1  0.494688  0.155815  0.534872  1
  Dy  Dy7  1  0.343663  0.998770  0.788245  1
  Hf  Hf8  1  0.824826  0.824783  0.500055  1
  Hf  Hf9  1  0.324318  0.674789  0.247883  1
  Hf  Hf10  1  0.674858  0.324390  0.752115  1
  Hf  Hf11  1  0.147113  0.997854  0.371971  1
  Hf  Hf12  1  0.852843  0.004252  0.878472  1
  Hf  Hf13  1  0.502827  0.647179  0.625398  1
  Hf  Hf14  1  0.351513  0.496698  0.877198  1
  Hf  Hf15  1  0.496602  0.351568  0.122741  1
  Hf  Hf16  1  0.647200  0.502885  0.374662  1
  Hf  Hf17  1  0.997903  0.147012  0.628075  1
  Hf  Hf18  1  0.004299  0.852789  0.121465  1
  Si  Si19  1  0.360097  0.295395  0.315360  1
  Si  Si20  1  0.639148  0.705003  0.818396  1
  Si  Si21  1  0.205612  0.861476  0.567010  1
  Si  Si22  1  0.136757  0.794410  0.931116  1
  Si  Si23  1  0.794486  0.136767  0.068809  1
  Si  Si24  1  0.861641  0.205753  0.433124  1
  Si  Si25  1  0.295260  0.360244  0.684631  1
  Si  Si26  1  0.705042  0.638926  0.181563  1
  Si  Si27  1  0.292705  0.054268  0.180038  1
  Si  Si28  1  0.703820  0.950692  0.686111  1
  Si  Si29  1  0.449282  0.796343  0.434861  1
  Si  Si30  1  0.206213  0.547627  0.064399  1
  Si  Si31  1  0.547627  0.206206  0.935573  1
  Si  Si32  1  0.796473  0.449438  0.565237  1
  Si  Si33  1  0.054226  0.292927  0.819897  1
  Si  Si34  1  0.950793  0.703728  0.313890  1
  Os  Os35  1  0.175173  0.175190  0.999999  1
