# generated using pymatgen
data_Yb2Gd6Be3Si12Pd
_symmetry_space_group_name_H-M   'P 1'
_cell_length_a   7.95502000
_cell_length_b   7.95502051
_cell_length_c   8.29305800
_cell_angle_alpha   90.00000000
_cell_angle_beta   90.00000000
_cell_angle_gamma   119.99999787
_symmetry_Int_Tables_number   1
_chemical_formula_structural   Yb2Gd6Be3Si12Pd
_chemical_formula_sum   'Yb2 Gd6 Be3 Si12 Pd1'
_cell_volume   454.49375853
_cell_formula_units_Z   1
loop_
 _symmetry_equiv_pos_site_id
 _symmetry_equiv_pos_as_xyz
  1  'x, y, z'
loop_
 _atom_site_type_symbol
 _atom_site_label
 _atom_site_symmetry_multiplicity
 _atom_site_fract_x
 _atom_site_fract_y
 _atom_site_fract_z
 _atom_site_occupancy
  Yb  Yb0  1  0.000000  0.000000  0.248378  1
  Yb  Yb1  1  0.000000  0.000000  0.751545  1
  Gd  Gd2  1  0.502056  0.004112  0.248210  1
  Gd  Gd3  1  0.501911  0.003823  0.751775  1
  Gd  Gd4  1  0.995888  0.497944  0.248210  1
  Gd  Gd5  1  0.996177  0.498089  0.751775  1
  Gd  Gd6  1  0.502056  0.497944  0.248210  1
  Gd  Gd7  1  0.501911  0.498089  0.751775  1
  Be  Be8  1  0.333333  0.666667  0.000809  1
  Be  Be9  1  0.666667  0.333333  0.999837  1
  Be  Be10  1  0.666667  0.333333  0.500013  1
  Si  Si11  1  0.173320  0.346639  0.999979  1
  Si  Si12  1  0.827370  0.654742  0.999945  1
  Si  Si13  1  0.653361  0.826680  0.999979  1
  Si  Si14  1  0.829258  0.658517  0.500039  1
  Si  Si15  1  0.345258  0.172630  0.999945  1
  Si  Si16  1  0.166154  0.332307  0.499944  1
  Si  Si17  1  0.173320  0.826680  0.999979  1
  Si  Si18  1  0.341483  0.170742  0.500039  1
  Si  Si19  1  0.827370  0.172630  0.999945  1
  Si  Si20  1  0.667693  0.833846  0.499944  1
  Si  Si21  1  0.829258  0.170742  0.500039  1
  Si  Si22  1  0.166154  0.833846  0.499944  1
  Pd  Pd23  1  0.333333  0.666667  0.499741  1
