# generated using pymatgen
data_Er6Al12Ga5Si7Os8
_symmetry_space_group_name_H-M   'P 1'
_cell_length_a   8.66513134
_cell_length_b   8.65284016
_cell_length_c   9.54053900
_cell_angle_alpha   90.00000000
_cell_angle_beta   90.00000000
_cell_angle_gamma   120.20089499
_symmetry_Int_Tables_number   1
_chemical_formula_structural   Er6Al12Ga5Si7Os8
_chemical_formula_sum   'Er6 Al12 Ga5 Si7 Os8'
_cell_volume   618.23650510
_cell_formula_units_Z   1
loop_
 _symmetry_equiv_pos_site_id
 _symmetry_equiv_pos_as_xyz
  1  'x, y, z'
loop_
 _atom_site_type_symbol
 _atom_site_label
 _atom_site_symmetry_multiplicity
 _atom_site_fract_x
 _atom_site_fract_y
 _atom_site_fract_z
 _atom_site_occupancy
  Er  Er0  1  0.192684  0.385715  0.250000  1
  Er  Er1  1  0.807042  0.615726  0.750000  1
  Er  Er2  1  0.614155  0.807545  0.250000  1
  Er  Er3  1  0.385707  0.192172  0.750000  1
  Er  Er4  1  0.193960  0.806917  0.250000  1
  Er  Er5  1  0.805626  0.191672  0.750000  1
  Al  Al6  1  0.165010  0.331677  0.574879  1
  Al  Al7  1  0.833945  0.669486  0.421964  1
  Al  Al8  1  0.669320  0.834758  0.575753  1
  Al  Al9  1  0.833945  0.669486  0.078036  1
  Al  Al10  1  0.331294  0.165725  0.423388  1
  Al  Al11  1  0.165010  0.331677  0.925121  1
  Al  Al12  1  0.164921  0.833627  0.574417  1
  Al  Al13  1  0.331294  0.165725  0.076612  1
  Al  Al14  1  0.834612  0.163958  0.422326  1
  Al  Al15  1  0.669320  0.834758  0.924247  1
  Al  Al16  1  0.834612  0.163958  0.077674  1
  Al  Al17  1  0.164921  0.833627  0.925583  1
  Ga  Ga18  1  0.122858  0.563824  0.750000  1
  Ga  Ga19  1  0.562357  0.437143  0.250000  1
  Ga  Ga20  1  0.438562  0.565287  0.750000  1
  Ga  Ga21  1  0.000048  0.998689  0.250000  1
  Ga  Ga22  1  0.999850  0.001334  0.750000  1
  Si  Si23  1  0.333817  0.665240  0.045284  1
  Si  Si24  1  0.666948  0.335368  0.956356  1
  Si  Si25  1  0.666948  0.335368  0.543644  1
  Si  Si26  1  0.333817  0.665240  0.454716  1
  Si  Si27  1  0.565064  0.124001  0.250000  1
  Si  Si28  1  0.437795  0.875853  0.750000  1
  Si  Si29  1  0.874606  0.434459  0.250000  1
  Os  Os30  1  0.500817  0.000815  0.000792  1
  Os  Os31  1  0.998195  0.498911  0.009069  1
  Os  Os32  1  0.500817  0.000815  0.499208  1
  Os  Os33  1  0.500423  0.500158  0.999989  1
  Os  Os34  1  0.998195  0.498911  0.490931  1
  Os  Os35  1  0.500423  0.500158  0.500011  1
  Os  Os36  1  0.000541  0.000110  0.999829  1
  Os  Os37  1  0.000541  0.000110  0.500171  1
