# generated using pymatgen
data_Tm8Al4Ga7Si
_symmetry_space_group_name_H-M   'P 1'
_cell_length_a   6.95876406
_cell_length_b   6.95876278
_cell_length_c   8.54482600
_cell_angle_alpha   89.99235920
_cell_angle_beta   89.99235097
_cell_angle_gamma   90.57524198
_symmetry_Int_Tables_number   1
_chemical_formula_structural   Tm8Al4Ga7Si
_chemical_formula_sum   'Tm8 Al4 Ga7 Si1'
_cell_volume   413.75711104
_cell_formula_units_Z   1
loop_
 _symmetry_equiv_pos_site_id
 _symmetry_equiv_pos_as_xyz
  1  'x, y, z'
loop_
 _atom_site_type_symbol
 _atom_site_label
 _atom_site_symmetry_multiplicity
 _atom_site_fract_x
 _atom_site_fract_y
 _atom_site_fract_z
 _atom_site_occupancy
  Tm  Tm0  1  0.828519  0.173482  0.497406  1
  Tm  Tm1  1  0.173482  0.828519  0.497406  1
  Tm  Tm2  1  0.326204  0.326204  0.002947  1
  Tm  Tm3  1  0.672305  0.672305  0.999035  1
  Tm  Tm4  1  0.672277  0.672277  0.500882  1
  Tm  Tm5  1  0.326253  0.326253  0.497201  1
  Tm  Tm6  1  0.173405  0.828164  0.002651  1
  Tm  Tm7  1  0.828164  0.173405  0.002651  1
  Al  Al8  1  0.498607  0.001266  0.250317  1
  Al  Al9  1  0.999974  0.499531  0.749401  1
  Al  Al10  1  0.499531  0.999974  0.749401  1
  Al  Al11  1  0.001266  0.498607  0.250317  1
  Ga  Ga12  1  0.629226  0.373048  0.250058  1
  Ga  Ga13  1  0.373048  0.629226  0.250058  1
  Ga  Ga14  1  0.131188  0.131188  0.750186  1
  Ga  Ga15  1  0.870196  0.870196  0.749989  1
  Ga  Ga16  1  0.367738  0.629590  0.750025  1
  Ga  Ga17  1  0.629590  0.367738  0.750025  1
  Ga  Ga18  1  0.873279  0.873279  0.250011  1
  Si  Si19  1  0.125749  0.125749  0.250032  1
