# generated using pymatgen
data_Nd10Tl6Se
_symmetry_space_group_name_H-M   'P 1'
_cell_length_a   6.78845301
_cell_length_b   9.52360346
_cell_length_c   9.52312651
_cell_angle_alpha   120.03504748
_cell_angle_beta   90.00369832
_cell_angle_gamma   90.00337896
_symmetry_Int_Tables_number   1
_chemical_formula_structural   Nd10Tl6Se
_chemical_formula_sum   'Nd10 Tl6 Se1'
_cell_volume   533.00197505
_cell_formula_units_Z   1
loop_
 _symmetry_equiv_pos_site_id
 _symmetry_equiv_pos_as_xyz
  1  'x, y, z'
loop_
 _atom_site_type_symbol
 _atom_site_label
 _atom_site_symmetry_multiplicity
 _atom_site_fract_x
 _atom_site_fract_y
 _atom_site_fract_z
 _atom_site_occupancy
  Nd  Nd0  1  0.499999  0.333337  0.666657  1
  Nd  Nd1  1  0.500001  0.666654  0.333339  1
  Nd  Nd2  1  0.000001  0.666712  0.333287  1
  Nd  Nd3  1  0.000004  0.333284  0.666714  1
  Nd  Nd4  1  0.750996  0.251102  0.999955  1
  Nd  Nd5  1  0.751063  0.748838  0.748856  1
  Nd  Nd6  1  0.750999  0.999991  0.251127  1
  Nd  Nd7  1  0.249000  0.748883  0.000009  1
  Nd  Nd8  1  0.248934  0.251148  0.251162  1
  Nd  Nd9  1  0.248999  0.000048  0.748894  1
  Tl  Tl10  1  0.751034  0.605426  0.999921  1
  Tl  Tl11  1  0.751066  0.394589  0.394729  1
  Tl  Tl12  1  0.751034  0.000210  0.605562  1
  Tl  Tl13  1  0.248965  0.394432  0.999792  1
  Tl  Tl14  1  0.248935  0.605273  0.605418  1
  Tl  Tl15  1  0.248968  0.000074  0.394581  1
  Se  Se16  1  0.500000  0.000001  0.000000  1
