# generated using pymatgen
data_Ac2BC11
_symmetry_space_group_name_H-M   'P 1'
_cell_length_a   4.38771333
_cell_length_b   4.38771341
_cell_length_c   10.20209902
_cell_angle_alpha   91.35628615
_cell_angle_beta   88.64371121
_cell_angle_gamma   120.02407317
_symmetry_Int_Tables_number   1
_chemical_formula_structural   Ac2BC11
_chemical_formula_sum   'Ac2 B1 C11'
_cell_volume   169.99221597
_cell_formula_units_Z   1
loop_
 _symmetry_equiv_pos_site_id
 _symmetry_equiv_pos_as_xyz
  1  'x, y, z'
loop_
 _atom_site_type_symbol
 _atom_site_label
 _atom_site_symmetry_multiplicity
 _atom_site_fract_x
 _atom_site_fract_y
 _atom_site_fract_z
 _atom_site_occupancy
  Ac  Ac0  1  0.331200  0.688056  0.250763  1
  Ac  Ac1  1  0.688056  0.331200  0.749237  1
  B  B2  1  0.326961  0.326961  0.500000  1
  C  C3  1  0.660999  0.993969  0.499672  1
  C  C4  1  0.993969  0.660999  0.500328  1
  C  C5  1  0.672566  0.672566  0.500000  1
  C  C6  1  0.983142  0.328342  0.496764  1
  C  C7  1  0.328342  0.983142  0.503236  1
  C  C8  1  0.668726  0.668726  0.000000  1
  C  C9  1  0.336251  0.002609  0.999227  1
  C  C10  1  0.002609  0.336251  0.000773  1
  C  C11  1  0.336035  0.336035  0.000000  1
  C  C12  1  0.002424  0.668720  0.000455  1
  C  C13  1  0.668720  0.002424  0.999545  1
