# generated using pymatgen
data_Pu3Sn(PN3)4
_symmetry_space_group_name_H-M   'P 1'
_cell_length_a   6.82463202
_cell_length_b   6.82463256
_cell_length_c   5.39622400
_cell_angle_alpha   78.97483967
_cell_angle_beta   78.97484734
_cell_angle_gamma   86.20285005
_symmetry_Int_Tables_number   1
_chemical_formula_structural   Pu3Sn(PN3)4
_chemical_formula_sum   'Pu3 Sn1 P4 N12'
_cell_volume   242.02578186
_cell_formula_units_Z   1
loop_
 _symmetry_equiv_pos_site_id
 _symmetry_equiv_pos_as_xyz
  1  'x, y, z'
loop_
 _atom_site_type_symbol
 _atom_site_label
 _atom_site_symmetry_multiplicity
 _atom_site_fract_x
 _atom_site_fract_y
 _atom_site_fract_z
 _atom_site_occupancy
  Pu  Pu0  1  0.673562  0.326438  0.750000  1
  Pu  Pu1  1  0.906030  0.093970  0.250000  1
  Pu  Pu2  1  0.318609  0.681391  0.250000  1
  Sn  Sn3  1  0.103641  0.896359  0.750000  1
  P  P4  1  0.200230  0.378640  0.764663  1
  P  P5  1  0.377313  0.203274  0.270335  1
  P  P6  1  0.796726  0.622687  0.229665  1
  P  P7  1  0.621360  0.799770  0.735337  1
  N  N8  1  0.316344  0.372831  0.016901  1
  N  N9  1  0.024415  0.213619  0.837451  1
  N  N10  1  0.983322  0.776338  0.147907  1
  N  N11  1  0.374671  0.324921  0.513855  1
  N  N12  1  0.604469  0.140678  0.162138  1
  N  N13  1  0.396654  0.868957  0.845120  1
  N  N14  1  0.859322  0.395531  0.337862  1
  N  N15  1  0.675079  0.625329  0.986145  1
  N  N16  1  0.786381  0.975585  0.662549  1
  N  N17  1  0.131043  0.603346  0.654880  1
  N  N18  1  0.223662  0.016678  0.352093  1
  N  N19  1  0.627169  0.683656  0.483099  1
