# generated using pymatgen
data_Ho3AlGa4Ni
_symmetry_space_group_name_H-M   'P 1'
_cell_length_a   6.82830800
_cell_length_b   6.87320162
_cell_length_c   4.23596900
_cell_angle_alpha   90.00000000
_cell_angle_beta   90.00000000
_cell_angle_gamma   119.78417723
_symmetry_Int_Tables_number   1
_chemical_formula_structural   Ho3AlGa4Ni
_chemical_formula_sum   'Ho3 Al1 Ga4 Ni1'
_cell_volume   172.54245814
_cell_formula_units_Z   1
loop_
 _symmetry_equiv_pos_site_id
 _symmetry_equiv_pos_as_xyz
  1  'x, y, z'
loop_
 _atom_site_type_symbol
 _atom_site_label
 _atom_site_symmetry_multiplicity
 _atom_site_fract_x
 _atom_site_fract_y
 _atom_site_fract_z
 _atom_site_occupancy
  Ho  Ho0  1  0.594058  0.000000  0.000000  1
  Ho  Ho1  1  0.999207  0.591970  0.000000  1
  Ho  Ho2  1  0.407237  0.408030  0.000000  1
  Al  Al3  1  0.228588  0.000000  0.500000  1
  Ga  Ga4  1  0.003327  0.238779  0.500000  1
  Ga  Ga5  1  0.764547  0.761221  0.500000  1
  Ga  Ga6  1  0.334156  0.670285  0.500000  1
  Ga  Ga7  1  0.663872  0.329715  0.500000  1
  Ni  Ni8  1  0.005008  0.000000  0.000000  1
