# generated using pymatgen
data_Nd2Al8SiIr3
_symmetry_space_group_name_H-M   'P 1'
_cell_length_a   7.58542618
_cell_length_b   7.56672241
_cell_length_c   9.56042393
_cell_angle_alpha   89.97108951
_cell_angle_beta   89.82865784
_cell_angle_gamma   119.60354614
_symmetry_Int_Tables_number   1
_chemical_formula_structural   Nd2Al8SiIr3
_chemical_formula_sum   'Nd4 Al16 Si2 Ir6'
_cell_volume   477.10465223
_cell_formula_units_Z   2
loop_
 _symmetry_equiv_pos_site_id
 _symmetry_equiv_pos_as_xyz
  1  'x, y, z'
loop_
 _atom_site_type_symbol
 _atom_site_label
 _atom_site_symmetry_multiplicity
 _atom_site_fract_x
 _atom_site_fract_y
 _atom_site_fract_z
 _atom_site_occupancy
  Nd  Nd0  1  0.995171  0.665777  0.244489  1
  Nd  Nd1  1  0.004829  0.334223  0.755511  1
  Nd  Nd2  1  0.673474  0.999513  0.246986  1
  Nd  Nd3  1  0.326526  0.000487  0.753014  1
  Al  Al4  1  0.130780  0.129666  0.250223  1
  Al  Al5  1  0.869220  0.870334  0.749777  1
  Al  Al6  1  0.997678  0.665886  0.567779  1
  Al  Al7  1  0.334786  0.001103  0.427648  1
  Al  Al8  1  0.002322  0.334114  0.432221  1
  Al  Al9  1  0.665214  0.998897  0.572352  1
  Al  Al10  1  0.661476  0.994273  0.924229  1
  Al  Al11  1  0.338524  0.005727  0.075771  1
  Al  Al12  1  0.334265  0.333408  0.551153  1
  Al  Al13  1  0.665735  0.666592  0.448847  1
  Al  Al14  1  0.662263  0.665148  0.052117  1
  Al  Al15  1  0.337737  0.334852  0.947883  1
  Al  Al16  1  0.340312  0.546972  0.249672  1
  Al  Al17  1  0.659688  0.453028  0.750328  1
  Al  Al18  1  0.546029  0.341045  0.249950  1
  Al  Al19  1  0.453971  0.658955  0.750050  1
  Si  Si20  1  0.003663  0.328455  0.074144  1
  Si  Si21  1  0.996337  0.671545  0.925856  1
  Ir  Ir22  1  0.688378  0.337799  0.001068  1
  Ir  Ir23  1  0.311622  0.662201  0.998932  1
  Ir  Ir24  1  0.328144  0.669926  0.500202  1
  Ir  Ir25  1  0.671856  0.330074  0.499798  1
  Ir  Ir26  1  0.000000  0.000000  0.000000  1
  Ir  Ir27  1  0.000000  0.000000  0.500000  1
