# generated using pymatgen
data_Co5Ni3Mo12(WC)4
_symmetry_space_group_name_H-M   'P 1'
_cell_length_a   8.01842715
_cell_length_b   8.01842788
_cell_length_c   8.01842701
_cell_angle_alpha   59.93711551
_cell_angle_beta   59.93712283
_cell_angle_gamma   59.93711767
_symmetry_Int_Tables_number   1
_chemical_formula_structural   Co5Ni3Mo12(WC)4
_chemical_formula_sum   'Co5 Ni3 Mo12 W4 C4'
_cell_volume   364.02628818
_cell_formula_units_Z   1
loop_
 _symmetry_equiv_pos_site_id
 _symmetry_equiv_pos_as_xyz
  1  'x, y, z'
loop_
 _atom_site_type_symbol
 _atom_site_label
 _atom_site_symmetry_multiplicity
 _atom_site_fract_x
 _atom_site_fract_y
 _atom_site_fract_z
 _atom_site_occupancy
  Co  Co0  1  0.830545  0.830545  0.830545  1
  Co  Co1  1  0.829590  0.829590  0.510194  1
  Co  Co2  1  0.510194  0.829590  0.829590  1
  Co  Co3  1  0.829590  0.510194  0.829590  1
  Co  Co4  1  0.418208  0.418208  0.418208  1
  Ni  Ni5  1  0.417092  0.417092  0.749847  1
  Ni  Ni6  1  0.417092  0.749847  0.417092  1
  Ni  Ni7  1  0.749847  0.417092  0.417092  1
  Mo  Mo8  1  0.439014  0.061098  0.061098  1
  Mo  Mo9  1  0.064656  0.437235  0.437235  1
  Mo  Mo10  1  0.061098  0.439014  0.061098  1
  Mo  Mo11  1  0.061098  0.061098  0.439014  1
  Mo  Mo12  1  0.437235  0.064656  0.437235  1
  Mo  Mo13  1  0.437235  0.437235  0.064656  1
  Mo  Mo14  1  0.185995  0.814112  0.185995  1
  Mo  Mo15  1  0.813123  0.187025  0.813123  1
  Mo  Mo16  1  0.814112  0.185995  0.185995  1
  Mo  Mo17  1  0.185995  0.185995  0.814112  1
  Mo  Mo18  1  0.187025  0.813123  0.813123  1
  Mo  Mo19  1  0.813123  0.813123  0.187025  1
  W  W20  1  0.625696  0.625696  0.625696  1
  W  W21  1  0.624215  0.624215  0.124107  1
  W  W22  1  0.124107  0.624215  0.624215  1
  W  W23  1  0.624215  0.124107  0.624215  1
  C  C24  1  0.125832  0.125832  0.125832  1
  C  C25  1  0.125161  0.125161  0.623740  1
  C  C26  1  0.623740  0.125161  0.125161  1
  C  C27  1  0.125161  0.623740  0.125161  1
