# generated using pymatgen
data_TbEuEr5PtI12
_symmetry_space_group_name_H-M   'P 1'
_cell_length_a   9.77193458
_cell_length_b   9.78870657
_cell_length_c   9.76879083
_cell_angle_alpha   106.55154030
_cell_angle_beta   106.41617371
_cell_angle_gamma   106.43674530
_symmetry_Int_Tables_number   1
_chemical_formula_structural   TbEuEr5PtI12
_chemical_formula_sum   'Tb1 Eu1 Er5 Pt1 I12'
_cell_volume   789.21924898
_cell_formula_units_Z   1
loop_
 _symmetry_equiv_pos_site_id
 _symmetry_equiv_pos_as_xyz
  1  'x, y, z'
loop_
 _atom_site_type_symbol
 _atom_site_label
 _atom_site_symmetry_multiplicity
 _atom_site_fract_x
 _atom_site_fract_y
 _atom_site_fract_z
 _atom_site_occupancy
  Tb  Tb0  1  0.977761  0.698960  0.903744  1
  Eu  Eu1  1  0.499807  0.500294  0.500060  1
  Er  Er2  1  0.095012  0.022990  0.297080  1
  Er  Er3  1  0.296932  0.095890  0.022710  1
  Er  Er4  1  0.022366  0.295728  0.094972  1
  Er  Er5  1  0.904906  0.976700  0.702853  1
  Er  Er6  1  0.703550  0.905794  0.977669  1
  Pt  Pt7  1  0.000338  0.999842  0.000121  1
  I  I8  1  0.074554  0.675550  0.225248  1
  I  I9  1  0.221284  0.073630  0.674884  1
  I  I10  1  0.674994  0.222157  0.073656  1
  I  I11  1  0.925600  0.322147  0.777445  1
  I  I12  1  0.778910  0.927296  0.325196  1
  I  I13  1  0.328503  0.781149  0.927593  1
  I  I14  1  0.450494  0.139154  0.371953  1
  I  I15  1  0.371550  0.451074  0.138753  1
  I  I16  1  0.138777  0.372237  0.451164  1
  I  I17  1  0.549644  0.861644  0.628175  1
  I  I18  1  0.625481  0.549662  0.861193  1
  I  I19  1  0.859539  0.628102  0.545534  1
