# generated using pymatgen
data_Tm3ScMn4O14
_symmetry_space_group_name_H-M   'P 1'
_cell_length_a   6.99921126
_cell_length_b   6.99918505
_cell_length_c   6.96934192
_cell_angle_alpha   59.86087837
_cell_angle_beta   59.86100599
_cell_angle_gamma   60.00263275
_symmetry_Int_Tables_number   1
_chemical_formula_structural   Tm3ScMn4O14
_chemical_formula_sum   'Tm3 Sc1 Mn4 O14'
_cell_volume   240.91615610
_cell_formula_units_Z   1
loop_
 _symmetry_equiv_pos_site_id
 _symmetry_equiv_pos_as_xyz
  1  'x, y, z'
loop_
 _atom_site_type_symbol
 _atom_site_label
 _atom_site_symmetry_multiplicity
 _atom_site_fract_x
 _atom_site_fract_y
 _atom_site_fract_z
 _atom_site_occupancy
  Tm  Tm0  1  0.499996  0.500001  0.500000  1
  Tm  Tm1  1  0.999995  0.500002  0.500000  1
  Tm  Tm2  1  0.499986  0.999997  0.500007  1
  Sc  Sc3  1  0.499995  0.499997  0.000004  1
  Mn  Mn4  1  0.999983  0.000005  0.000014  1
  Mn  Mn5  1  0.000010  0.999975  0.499995  1
  Mn  Mn6  1  0.500007  0.000015  0.999990  1
  Mn  Mn7  1  0.000014  0.499999  0.999991  1
  O  O8  1  0.916370  0.916376  0.333716  1
  O  O9  1  0.667195  0.667194  0.080162  1
  O  O10  1  0.332799  0.914551  0.919844  1
  O  O11  1  0.914542  0.332804  0.919852  1
  O  O12  1  0.333540  0.916372  0.333713  1
  O  O13  1  0.916379  0.333530  0.333718  1
  O  O14  1  0.083622  0.083626  0.666291  1
  O  O15  1  0.085457  0.667205  0.080154  1
  O  O16  1  0.379935  0.379936  0.360195  1
  O  O17  1  0.620054  0.620055  0.639820  1
  O  O18  1  0.332812  0.332811  0.919829  1
  O  O19  1  0.667198  0.085460  0.080156  1
  O  O20  1  0.083630  0.666460  0.666278  1
  O  O21  1  0.666477  0.083629  0.666268  1
