# generated using pymatgen
data_Li4Tm2ThSn4
_symmetry_space_group_name_H-M   'P 1'
_cell_length_a   8.63859720
_cell_length_b   8.63859847
_cell_length_c   8.63859900
_cell_angle_alpha   148.68307879
_cell_angle_beta   131.82374589
_cell_angle_gamma   58.59080861
_symmetry_Int_Tables_number   1
_chemical_formula_structural   Li4Tm2ThSn4
_chemical_formula_sum   'Li4 Tm2 Th1 Sn4'
_cell_volume   247.72946769
_cell_formula_units_Z   1
loop_
 _symmetry_equiv_pos_site_id
 _symmetry_equiv_pos_as_xyz
  1  'x, y, z'
loop_
 _atom_site_type_symbol
 _atom_site_label
 _atom_site_symmetry_multiplicity
 _atom_site_fract_x
 _atom_site_fract_y
 _atom_site_fract_z
 _atom_site_occupancy
  Li  Li0  1  0.981249  0.672391  0.308857  1
  Li  Li1  1  0.013237  0.325979  0.687257  1
  Li  Li2  1  0.363535  0.672391  0.691143  1
  Li  Li3  1  0.638722  0.325979  0.312743  1
  Tm  Tm4  1  0.001675  0.001675  0.000000  1
  Tm  Tm5  1  0.627804  0.127804  0.500000  1
  Th  Th6  1  0.373136  0.873136  0.500000  1
  Sn  Sn7  1  0.707725  0.500593  0.207132  1
  Sn  Sn8  1  0.293460  0.500593  0.792868  1
  Sn  Sn9  1  0.212416  0.212416  0.000000  1
  Sn  Sn10  1  0.787042  0.787042  0.000000  1
