# generated using pymatgen
data_Lu5Ga3O
_symmetry_space_group_name_H-M   'P 1'
_cell_length_a   8.73161116
_cell_length_b   8.73161180
_cell_length_c   8.73161174
_cell_angle_alpha   128.97258137
_cell_angle_beta   128.97257331
_cell_angle_gamma   75.05470479
_symmetry_Int_Tables_number   1
_chemical_formula_structural   Lu5Ga3O
_chemical_formula_sum   'Lu10 Ga6 O2'
_cell_volume   391.79154180
_cell_formula_units_Z   2
loop_
 _symmetry_equiv_pos_site_id
 _symmetry_equiv_pos_as_xyz
  1  'x, y, z'
loop_
 _atom_site_type_symbol
 _atom_site_label
 _atom_site_symmetry_multiplicity
 _atom_site_fract_x
 _atom_site_fract_y
 _atom_site_fract_z
 _atom_site_occupancy
  Lu  Lu0  1  0.493302  0.308981  0.500000  1
  Lu  Lu1  1  0.808981  0.993302  0.500000  1
  Lu  Lu2  1  0.993302  0.493302  0.184321  1
  Lu  Lu3  1  0.308981  0.808981  0.815679  1
  Lu  Lu4  1  0.509255  0.693534  0.500000  1
  Lu  Lu5  1  0.193534  0.009255  0.500000  1
  Lu  Lu6  1  0.009255  0.509255  0.815721  1
  Lu  Lu7  1  0.693534  0.193534  0.184279  1
  Lu  Lu8  1  0.501269  0.501269  0.000000  1
  Lu  Lu9  1  0.001269  0.001269  0.000000  1
  Ga  Ga10  1  0.129330  0.373181  0.500000  1
  Ga  Ga11  1  0.873181  0.629330  0.500000  1
  Ga  Ga12  1  0.629330  0.129330  0.756148  1
  Ga  Ga13  1  0.373181  0.873181  0.243852  1
  Ga  Ga14  1  0.751306  0.751306  0.000000  1
  Ga  Ga15  1  0.251306  0.251306  0.000000  1
  O  O16  1  0.751262  0.251262  0.500000  1
  O  O17  1  0.251262  0.751262  0.500000  1
