# generated using pymatgen
data_CsSc3CI6
_symmetry_space_group_name_H-M   'P 1'
_cell_length_a   9.24868501
_cell_length_b   9.38617616
_cell_length_c   9.54360988
_cell_angle_alpha   71.65439244
_cell_angle_beta   84.02683205
_cell_angle_gamma   89.26161361
_symmetry_Int_Tables_number   1
_chemical_formula_structural   CsSc3CI6
_chemical_formula_sum   'Cs2 Sc6 C2 I12'
_cell_volume   781.92888013
_cell_formula_units_Z   2
loop_
 _symmetry_equiv_pos_site_id
 _symmetry_equiv_pos_as_xyz
  1  'x, y, z'
loop_
 _atom_site_type_symbol
 _atom_site_label
 _atom_site_symmetry_multiplicity
 _atom_site_fract_x
 _atom_site_fract_y
 _atom_site_fract_z
 _atom_site_occupancy
  Cs  Cs0  1  0.462112  0.369616  0.326978  1
  Cs  Cs1  1  0.537970  0.630412  0.673024  1
  Sc  Sc2  1  0.926110  0.776080  0.003197  1
  Sc  Sc3  1  0.073939  0.224035  0.996773  1
  Sc  Sc4  1  0.771420  0.075373  0.000426  1
  Sc  Sc5  1  0.228478  0.924520  0.999599  1
  Sc  Sc6  1  0.970827  0.901226  0.306512  1
  Sc  Sc7  1  0.029213  0.098753  0.693503  1
  C  C8  1  0.007380  0.024344  0.921683  1
  C  C9  1  0.992588  0.975627  0.078327  1
  I  I10  1  0.067675  0.193391  0.329936  1
  I  I11  1  0.932320  0.806617  0.670057  1
  I  I12  1  0.196263  0.613548  0.998064  1
  I  I13  1  0.803719  0.386469  0.001914  1
  I  I14  1  0.386906  0.193051  0.001884  1
  I  I15  1  0.613079  0.806946  0.998119  1
  I  I16  1  0.668720  0.999347  0.323588  1
  I  I17  1  0.331274  0.000653  0.676405  1
  I  I18  1  0.268390  0.790506  0.321357  1
  I  I19  1  0.731609  0.209492  0.678632  1
  I  I20  1  0.862302  0.603540  0.324759  1
  I  I21  1  0.137703  0.396455  0.675261  1
