# generated using pymatgen
data_CaHo(Ga2Ag)2
_symmetry_space_group_name_H-M   'P 1'
_cell_length_a   4.36568800
_cell_length_b   6.99035892
_cell_length_c   10.40188784
_cell_angle_alpha   90.63381788
_cell_angle_beta   90.00000000
_cell_angle_gamma   90.00000000
_symmetry_Int_Tables_number   1
_chemical_formula_structural   CaHo(Ga2Ag)2
_chemical_formula_sum   'Ca2 Ho2 Ga8 Ag4'
_cell_volume   317.42254085
_cell_formula_units_Z   2
loop_
 _symmetry_equiv_pos_site_id
 _symmetry_equiv_pos_as_xyz
  1  'x, y, z'
loop_
 _atom_site_type_symbol
 _atom_site_label
 _atom_site_symmetry_multiplicity
 _atom_site_fract_x
 _atom_site_fract_y
 _atom_site_fract_z
 _atom_site_occupancy
  Ca  Ca0  1  0.750000  0.723961  0.327550  1
  Ca  Ca1  1  0.250000  0.276039  0.672450  1
  Ho  Ho2  1  0.250000  0.776980  0.828439  1
  Ho  Ho3  1  0.750000  0.223020  0.171561  1
  Ga  Ga4  1  0.250000  0.703168  0.535963  1
  Ga  Ga5  1  0.750000  0.296832  0.464037  1
  Ga  Ga6  1  0.750000  0.796373  0.035065  1
  Ga  Ga7  1  0.250000  0.203627  0.964935  1
  Ga  Ga8  1  0.250000  0.927781  0.150167  1
  Ga  Ga9  1  0.750000  0.072219  0.849833  1
  Ga  Ga10  1  0.750000  0.574221  0.651954  1
  Ga  Ga11  1  0.250000  0.425779  0.348046  1
  Ag  Ag12  1  0.250000  0.541843  0.098820  1
  Ag  Ag13  1  0.750000  0.458157  0.901180  1
  Ag  Ag14  1  0.750000  0.959018  0.599371  1
  Ag  Ag15  1  0.250000  0.040982  0.400629  1
