# generated using pymatgen
data_Cs3KRe2O9
_symmetry_space_group_name_H-M   'P 1'
_cell_length_a   6.64597335
_cell_length_b   6.64597281
_cell_length_c   15.42244400
_cell_angle_alpha   90.00000000
_cell_angle_beta   90.00000000
_cell_angle_gamma   60.05465319
_symmetry_Int_Tables_number   1
_chemical_formula_structural   Cs3KRe2O9
_chemical_formula_sum   'Cs6 K2 Re4 O18'
_cell_volume   590.25530773
_cell_formula_units_Z   2
loop_
 _symmetry_equiv_pos_site_id
 _symmetry_equiv_pos_as_xyz
  1  'x, y, z'
loop_
 _atom_site_type_symbol
 _atom_site_label
 _atom_site_symmetry_multiplicity
 _atom_site_fract_x
 _atom_site_fract_y
 _atom_site_fract_z
 _atom_site_occupancy
  Cs  Cs0  1  0.333064  0.333064  0.109982  1
  Cs  Cs1  1  0.999659  0.999659  0.250000  1
  Cs  Cs2  1  0.333064  0.333064  0.390018  1
  Cs  Cs3  1  0.666936  0.666936  0.609982  1
  Cs  Cs4  1  0.000341  0.000341  0.750000  1
  Cs  Cs5  1  0.666936  0.666936  0.890019  1
  K  K6  1  0.000000  0.000000  0.000000  1
  K  K7  1  0.000000  0.000000  0.500000  1
  Re  Re8  1  0.666377  0.666377  0.154711  1
  Re  Re9  1  0.666377  0.666377  0.345289  1
  Re  Re10  1  0.333623  0.333623  0.654711  1
  Re  Re11  1  0.333623  0.333623  0.845289  1
  O  O12  1  0.804740  0.389346  0.100959  1
  O  O13  1  0.389346  0.804740  0.100959  1
  O  O14  1  0.804920  0.804920  0.100898  1
  O  O15  1  0.916550  0.541160  0.250000  1
  O  O16  1  0.541220  0.541220  0.250000  1
  O  O17  1  0.541160  0.916550  0.250000  1
  O  O18  1  0.804920  0.804920  0.399103  1
  O  O19  1  0.804740  0.389346  0.399042  1
  O  O20  1  0.389346  0.804740  0.399042  1
  O  O21  1  0.610653  0.195259  0.600958  1
  O  O22  1  0.195259  0.610653  0.600958  1
  O  O23  1  0.195079  0.195079  0.600898  1
  O  O24  1  0.458839  0.083450  0.750000  1
  O  O25  1  0.458780  0.458780  0.750000  1
  O  O26  1  0.083450  0.458839  0.750000  1
  O  O27  1  0.195079  0.195079  0.899103  1
  O  O28  1  0.610653  0.195259  0.899042  1
  O  O29  1  0.195259  0.610653  0.899042  1
