# generated using pymatgen
data_TbNd8HoPb6
_symmetry_space_group_name_H-M   'P 1'
_cell_length_a   9.35165900
_cell_length_b   9.35165989
_cell_length_c   6.85555200
_cell_angle_alpha   90.00000000
_cell_angle_beta   90.00000000
_cell_angle_gamma   120.00000039
_symmetry_Int_Tables_number   1
_chemical_formula_structural   TbNd8HoPb6
_chemical_formula_sum   'Tb1 Nd8 Ho1 Pb6'
_cell_volume   519.21881923
_cell_formula_units_Z   1
loop_
 _symmetry_equiv_pos_site_id
 _symmetry_equiv_pos_as_xyz
  1  'x, y, z'
loop_
 _atom_site_type_symbol
 _atom_site_label
 _atom_site_symmetry_multiplicity
 _atom_site_fract_x
 _atom_site_fract_y
 _atom_site_fract_z
 _atom_site_occupancy
  Tb  Tb0  1  0.333333  0.666667  0.000000  1
  Nd  Nd1  1  0.666667  0.333333  0.500000  1
  Nd  Nd2  1  0.666667  0.333333  0.000000  1
  Nd  Nd3  1  0.238918  0.999597  0.250304  1
  Nd  Nd4  1  0.238918  0.239320  0.749696  1
  Nd  Nd5  1  0.000403  0.761082  0.749696  1
  Nd  Nd6  1  0.000403  0.239320  0.250304  1
  Nd  Nd7  1  0.760680  0.761082  0.250304  1
  Nd  Nd8  1  0.760680  0.999597  0.749696  1
  Ho  Ho9  1  0.333333  0.666667  0.500000  1
  Pb  Pb10  1  0.600967  0.995350  0.251598  1
  Pb  Pb11  1  0.600967  0.605616  0.748402  1
  Pb  Pb12  1  0.004650  0.399033  0.748402  1
  Pb  Pb13  1  0.004650  0.605616  0.251598  1
  Pb  Pb14  1  0.394384  0.399033  0.251598  1
  Pb  Pb15  1  0.394384  0.995350  0.748402  1
