# generated using pymatgen
data_Nd5SmRhBr10
_symmetry_space_group_name_H-M   'P 1'
_cell_length_a   7.63685696
_cell_length_b   9.54738864
_cell_length_c   9.49919114
_cell_angle_alpha   107.75261393
_cell_angle_beta   96.81363217
_cell_angle_gamma   105.48887786
_symmetry_Int_Tables_number   1
_chemical_formula_structural   Nd5SmRhBr10
_chemical_formula_sum   'Nd5 Sm1 Rh1 Br10'
_cell_volume   620.38216456
_cell_formula_units_Z   1
loop_
 _symmetry_equiv_pos_site_id
 _symmetry_equiv_pos_as_xyz
  1  'x, y, z'
loop_
 _atom_site_type_symbol
 _atom_site_label
 _atom_site_symmetry_multiplicity
 _atom_site_fract_x
 _atom_site_fract_y
 _atom_site_fract_z
 _atom_site_occupancy
  Nd  Nd0  1  0.466367  0.803208  0.595055  1
  Nd  Nd1  1  0.135299  0.360221  0.315217  1
  Nd  Nd2  1  0.864577  0.637713  0.684113  1
  Nd  Nd3  1  0.625793  0.549456  0.256847  1
  Nd  Nd4  1  0.373178  0.451019  0.742791  1
  Sm  Sm5  1  0.534022  0.200999  0.406473  1
  Rh  Rh6  1  0.499613  0.500105  0.499880  1
  Br  Br7  1  0.159399  0.047919  0.231038  1
  Br  Br8  1  0.847844  0.951668  0.771035  1
  Br  Br9  1  0.252011  0.418835  0.044938  1
  Br  Br10  1  0.746717  0.580625  0.954874  1
  Br  Br11  1  0.709068  0.245128  0.155772  1
  Br  Br12  1  0.287261  0.752445  0.847038  1
  Br  Br13  1  0.044907  0.673732  0.414836  1
  Br  Br14  1  0.951902  0.322791  0.582495  1
  Br  Br15  1  0.416728  0.132955  0.670336  1
  Br  Br16  1  0.585310  0.871181  0.327258  1
