# generated using pymatgen
data_Tb3Ho7In8(CuPd)2
_symmetry_space_group_name_H-M   'P 1'
_cell_length_a   3.63002800
_cell_length_b   8.09178277
_cell_length_c   18.14675805
_cell_angle_alpha   90.01842144
_cell_angle_beta   90.00000000
_cell_angle_gamma   90.00000000
_symmetry_Int_Tables_number   1
_chemical_formula_structural   Tb3Ho7In8(CuPd)2
_chemical_formula_sum   'Tb3 Ho7 In8 Cu2 Pd2'
_cell_volume   533.03191972
_cell_formula_units_Z   1
loop_
 _symmetry_equiv_pos_site_id
 _symmetry_equiv_pos_as_xyz
  1  'x, y, z'
loop_
 _atom_site_type_symbol
 _atom_site_label
 _atom_site_symmetry_multiplicity
 _atom_site_fract_x
 _atom_site_fract_y
 _atom_site_fract_z
 _atom_site_occupancy
  Tb  Tb0  1  0.000000  0.500576  0.499910  1
  Tb  Tb1  1  0.000000  0.999395  0.999812  1
  Tb  Tb2  1  0.000000  0.742809  0.281111  1
  Ho  Ho3  1  0.000000  0.256775  0.719387  1
  Ho  Ho4  1  0.000000  0.757958  0.781237  1
  Ho  Ho5  1  0.000000  0.241331  0.218445  1
  Ho  Ho6  1  0.000000  0.618209  0.083902  1
  Ho  Ho7  1  0.000000  0.381031  0.915638  1
  Ho  Ho8  1  0.000000  0.882001  0.583890  1
  Ho  Ho9  1  0.000000  0.119302  0.416767  1
  In  In10  1  0.500000  0.705113  0.931400  1
  In  In11  1  0.500000  0.293709  0.068234  1
  In  In12  1  0.500000  0.794636  0.432953  1
  In  In13  1  0.500000  0.207202  0.568037  1
  In  In14  1  0.500000  0.578082  0.651924  1
  In  In15  1  0.500000  0.420849  0.348193  1
  In  In16  1  0.500000  0.921452  0.149070  1
  In  In17  1  0.500000  0.078177  0.850540  1
  Cu  Cu18  1  0.500000  0.524774  0.196219  1
  Cu  Cu19  1  0.500000  0.473259  0.803268  1
  Pd  Pd20  1  0.500000  0.972473  0.697051  1
  Pd  Pd21  1  0.500000  0.030887  0.303014  1
