# generated using pymatgen
data_Ca(HO2)2
_symmetry_space_group_name_H-M   'P 1'
_cell_length_a   3.63396319
_cell_length_b   6.30536113
_cell_length_c   9.14695822
_cell_angle_alpha   103.58418546
_cell_angle_beta   74.34967864
_cell_angle_gamma   149.98223298
_symmetry_Int_Tables_number   1
_chemical_formula_structural   Ca(HO2)2
_chemical_formula_sum   'Ca1 H2 O4'
_cell_volume   100.96287756
_cell_formula_units_Z   1
loop_
 _symmetry_equiv_pos_site_id
 _symmetry_equiv_pos_as_xyz
  1  'x, y, z'
loop_
 _atom_site_type_symbol
 _atom_site_label
 _atom_site_symmetry_multiplicity
 _atom_site_fract_x
 _atom_site_fract_y
 _atom_site_fract_z
 _atom_site_occupancy
  Ca  Ca0  1  0.028589  0.858743  0.939360  1
  H  H1  1  0.874593  0.196329  0.177890  1
  H  H2  1  0.180925  0.520172  0.700894  1
  O  O3  1  0.643590  0.841778  0.375714  1
  O  O4  1  0.943604  0.193379  0.067927  1
  O  O5  1  0.540509  0.922300  0.500605  1
  O  O6  1  0.113933  0.524344  0.810836  1
