# generated using pymatgen
data_Y3Ho3Al20(SiRu2)4
_symmetry_space_group_name_H-M   'P 1'
_cell_length_a   8.68336500
_cell_length_b   8.68322278
_cell_length_c   9.62507900
_cell_angle_alpha   90.00000000
_cell_angle_beta   90.00000000
_cell_angle_gamma   120.00097011
_symmetry_Int_Tables_number   1
_chemical_formula_structural   Y3Ho3Al20(SiRu2)4
_chemical_formula_sum   'Y3 Ho3 Al20 Si4 Ru8'
_cell_volume   628.49190610
_cell_formula_units_Z   1
loop_
 _symmetry_equiv_pos_site_id
 _symmetry_equiv_pos_as_xyz
  1  'x, y, z'
loop_
 _atom_site_type_symbol
 _atom_site_label
 _atom_site_symmetry_multiplicity
 _atom_site_fract_x
 _atom_site_fract_y
 _atom_site_fract_z
 _atom_site_occupancy
  Y  Y0  1  0.194989  0.390170  0.250000  1
  Y  Y1  1  0.804819  0.609669  0.750000  1
  Y  Y2  1  0.609833  0.804996  0.250000  1
  Ho  Ho3  1  0.390693  0.195279  0.750000  1
  Ho  Ho4  1  0.195297  0.804727  0.250000  1
  Ho  Ho5  1  0.804585  0.195289  0.750000  1
  Al  Al6  1  0.164911  0.329830  0.577324  1
  Al  Al7  1  0.835176  0.670096  0.422789  1
  Al  Al8  1  0.670089  0.835169  0.577220  1
  Al  Al9  1  0.835176  0.670096  0.077211  1
  Al  Al10  1  0.329914  0.164832  0.422938  1
  Al  Al11  1  0.164911  0.329830  0.922676  1
  Al  Al12  1  0.165081  0.835154  0.577069  1
  Al  Al13  1  0.329914  0.164832  0.077062  1
  Al  Al14  1  0.835001  0.165001  0.423040  1
  Al  Al15  1  0.670089  0.835169  0.922780  1
  Al  Al16  1  0.835001  0.165001  0.076960  1
  Al  Al17  1  0.165081  0.835154  0.922931  1
  Al  Al18  1  0.563313  0.126910  0.250000  1
  Al  Al19  1  0.436633  0.873269  0.750000  1
  Al  Al20  1  0.873069  0.436677  0.250000  1
  Al  Al21  1  0.126959  0.563336  0.750000  1
  Al  Al22  1  0.563591  0.436408  0.250000  1
  Al  Al23  1  0.436357  0.563348  0.750000  1
  Al  Al24  1  0.000225  0.999769  0.250000  1
  Al  Al25  1  0.000217  0.000450  0.750000  1
  Si  Si26  1  0.333175  0.666802  0.036829  1
  Si  Si27  1  0.666515  0.333044  0.962919  1
  Si  Si28  1  0.666515  0.333044  0.537081  1
  Si  Si29  1  0.333175  0.666802  0.463171  1
  Ru  Ru30  1  0.499972  0.000083  0.999892  1
  Ru  Ru31  1  0.999958  0.499979  0.999995  1
  Ru  Ru32  1  0.499972  0.000083  0.500108  1
  Ru  Ru33  1  0.499968  0.499889  0.999896  1
  Ru  Ru34  1  0.999958  0.499979  0.500005  1
  Ru  Ru35  1  0.499968  0.499889  0.500104  1
  Ru  Ru36  1  0.999948  0.999973  0.000029  1
  Ru  Ru37  1  0.999948  0.999973  0.499971  1
