# generated using pymatgen
data_Hf4Nb2Al16PtRh6
_symmetry_space_group_name_H-M   'P 1'
_cell_length_a   8.61621116
_cell_length_b   8.67759983
_cell_length_c   8.67760086
_cell_angle_alpha   59.60481314
_cell_angle_beta   60.23374820
_cell_angle_gamma   60.23374371
_symmetry_Int_Tables_number   1
_chemical_formula_structural   Hf4Nb2Al16PtRh6
_chemical_formula_sum   'Hf4 Nb2 Al16 Pt1 Rh6'
_cell_volume   458.98989696
_cell_formula_units_Z   1
loop_
 _symmetry_equiv_pos_site_id
 _symmetry_equiv_pos_as_xyz
  1  'x, y, z'
loop_
 _atom_site_type_symbol
 _atom_site_label
 _atom_site_symmetry_multiplicity
 _atom_site_fract_x
 _atom_site_fract_y
 _atom_site_fract_z
 _atom_site_occupancy
  Hf  Hf0  1  0.316986  0.683198  0.316801  1
  Hf  Hf1  1  0.316986  0.316801  0.683198  1
  Hf  Hf2  1  0.683013  0.316801  0.683198  1
  Hf  Hf3  1  0.683013  0.683198  0.316801  1
  Nb  Nb4  1  0.680385  0.319614  0.319614  1
  Nb  Nb5  1  0.319614  0.680385  0.680385  1
  Al  Al6  1  0.343692  0.334898  0.334898  1
  Al  Al7  1  0.336793  0.339732  0.986681  1
  Al  Al8  1  0.986512  0.334898  0.334898  1
  Al  Al9  1  0.336793  0.986681  0.339732  1
  Al  Al10  1  0.656308  0.665102  0.665102  1
  Al  Al11  1  0.663207  0.660268  0.013319  1
  Al  Al12  1  0.663207  0.013319  0.660268  1
  Al  Al13  1  0.013488  0.665102  0.665102  1
  Al  Al14  1  0.117947  0.120404  0.120404  1
  Al  Al15  1  0.122486  0.113149  0.641880  1
  Al  Al16  1  0.641246  0.120404  0.120404  1
  Al  Al17  1  0.122486  0.641880  0.113149  1
  Al  Al18  1  0.882052  0.879595  0.879595  1
  Al  Al19  1  0.877513  0.886850  0.358123  1
  Al  Al20  1  0.877513  0.358123  0.886850  1
  Al  Al21  1  0.358757  0.879595  0.879595  1
  Pt  Pt22  1  0.000000  0.500000  0.500000  1
  Rh  Rh23  1  0.000000  0.000000  0.000000  1
  Rh  Rh24  1  0.500000  0.000000  0.000000  1
  Rh  Rh25  1  0.000000  0.500000  0.000000  1
  Rh  Rh26  1  0.000000  0.000000  0.500000  1
  Rh  Rh27  1  0.500000  0.000000  0.500000  1
  Rh  Rh28  1  0.500000  0.500000  0.000000  1
