# generated using pymatgen
data_Tb5Ce3Sm2(Al2Ru3)2
_symmetry_space_group_name_H-M   'P 1'
_cell_length_a   8.47547713
_cell_length_b   8.48724480
_cell_length_c   8.48294995
_cell_angle_alpha   110.32681164
_cell_angle_beta   110.16493596
_cell_angle_gamma   110.11559323
_symmetry_Int_Tables_number   1
_chemical_formula_structural   Tb5Ce3Sm2(Al2Ru3)2
_chemical_formula_sum   'Tb5 Ce3 Sm2 Al4 Ru6'
_cell_volume   456.57749953
_cell_formula_units_Z   1
loop_
 _symmetry_equiv_pos_site_id
 _symmetry_equiv_pos_as_xyz
  1  'x, y, z'
loop_
 _atom_site_type_symbol
 _atom_site_label
 _atom_site_symmetry_multiplicity
 _atom_site_fract_x
 _atom_site_fract_y
 _atom_site_fract_z
 _atom_site_occupancy
  Tb  Tb0  1  0.781269  0.781021  0.781863  1
  Tb  Tb1  1  0.314139  0.565613  0.753559  1
  Tb  Tb2  1  0.752350  0.312777  0.566125  1
  Tb  Tb3  1  0.565673  0.752332  0.311702  1
  Tb  Tb4  1  0.720507  0.507944  0.993008  1
  Ce  Ce5  1  0.252787  0.200698  0.943652  1
  Ce  Ce6  1  0.943399  0.253365  0.200323  1
  Ce  Ce7  1  0.200783  0.944012  0.253044  1
  Sm  Sm8  1  0.992588  0.721947  0.505905  1
  Sm  Sm9  1  0.507884  0.994559  0.722958  1
  Al  Al10  1  0.412612  0.411311  0.411608  1
  Al  Al11  1  0.092786  0.495966  0.003594  1
  Al  Al12  1  0.004135  0.095472  0.496341  1
  Al  Al13  1  0.496693  0.003791  0.095803  1
  Ru  Ru14  1  0.906838  0.119532  0.752701  1
  Ru  Ru15  1  0.753025  0.904998  0.119563  1
  Ru  Ru16  1  0.119690  0.752815  0.908044  1
  Ru  Ru17  1  0.223019  0.590670  0.365225  1
  Ru  Ru18  1  0.367521  0.225424  0.593835  1
  Ru  Ru19  1  0.592302  0.365751  0.221147  1
