# generated using pymatgen
data_Dy6Ho3Er11(CoBi2)4
_symmetry_space_group_name_H-M   'P 1'
_cell_length_a   7.94222073
_cell_length_b   8.85532400
_cell_length_c   12.34713921
_cell_angle_alpha   90.00000000
_cell_angle_beta   90.03504611
_cell_angle_gamma   90.00000000
_symmetry_Int_Tables_number   1
_chemical_formula_structural   Dy6Ho3Er11(CoBi2)4
_chemical_formula_sum   'Dy6 Ho3 Er11 Co4 Bi8'
_cell_volume   868.38571757
_cell_formula_units_Z   1
loop_
 _symmetry_equiv_pos_site_id
 _symmetry_equiv_pos_as_xyz
  1  'x, y, z'
loop_
 _atom_site_type_symbol
 _atom_site_label
 _atom_site_symmetry_multiplicity
 _atom_site_fract_x
 _atom_site_fract_y
 _atom_site_fract_z
 _atom_site_occupancy
  Dy  Dy0  1  0.152715  0.750000  0.199939  1
  Dy  Dy1  1  0.884926  0.750000  0.811134  1
  Dy  Dy2  1  0.115137  0.250000  0.188885  1
  Dy  Dy3  1  0.384714  0.250000  0.688957  1
  Dy  Dy4  1  0.615733  0.750000  0.311059  1
  Dy  Dy5  1  0.053406  0.750000  0.498117  1
  Ho  Ho6  1  0.946221  0.250000  0.502210  1
  Ho  Ho7  1  0.553856  0.250000  0.002127  1
  Ho  Ho8  1  0.446954  0.750000  0.997541  1
  Er  Er9  1  0.347895  0.750000  0.700020  1
  Er  Er10  1  0.652249  0.250000  0.300173  1
  Er  Er11  1  0.847778  0.250000  0.800645  1
  Er  Er12  1  0.674640  0.538075  0.563308  1
  Er  Er13  1  0.325430  0.461681  0.436703  1
  Er  Er14  1  0.174696  0.461573  0.936636  1
  Er  Er15  1  0.325430  0.038319  0.436703  1
  Er  Er16  1  0.824745  0.537457  0.062888  1
  Er  Er17  1  0.674640  0.961925  0.563308  1
  Er  Er18  1  0.824745  0.962543  0.062888  1
  Er  Er19  1  0.174696  0.038427  0.936636  1
  Co  Co20  1  0.065596  0.750000  0.992277  1
  Co  Co21  1  0.934185  0.250000  0.007201  1
  Co  Co22  1  0.565491  0.250000  0.507460  1
  Co  Co23  1  0.434426  0.750000  0.492586  1
  Bi  Bi24  1  0.571157  0.509453  0.826790  1
  Bi  Bi25  1  0.429560  0.489956  0.173025  1
  Bi  Bi26  1  0.071336  0.490149  0.673581  1
  Bi  Bi27  1  0.429560  0.010044  0.173025  1
  Bi  Bi28  1  0.927795  0.508526  0.326904  1
  Bi  Bi29  1  0.571157  0.990547  0.826790  1
  Bi  Bi30  1  0.927795  0.991474  0.326904  1
  Bi  Bi31  1  0.071336  0.009851  0.673581  1
