# generated using pymatgen
data_Er3TiFeCo7P6
_symmetry_space_group_name_H-M   'P 1'
_cell_length_a   3.70562700
_cell_length_b   10.63564900
_cell_length_c   12.22633300
_cell_angle_alpha   90.00000000
_cell_angle_beta   90.00000000
_cell_angle_gamma   90.00000000
_symmetry_Int_Tables_number   1
_chemical_formula_structural   Er3TiFeCo7P6
_chemical_formula_sum   'Er6 Ti2 Fe2 Co14 P12'
_cell_volume   481.86115635
_cell_formula_units_Z   2
loop_
 _symmetry_equiv_pos_site_id
 _symmetry_equiv_pos_as_xyz
  1  'x, y, z'
loop_
 _atom_site_type_symbol
 _atom_site_label
 _atom_site_symmetry_multiplicity
 _atom_site_fract_x
 _atom_site_fract_y
 _atom_site_fract_z
 _atom_site_occupancy
  Er  Er0  1  0.750000  0.250000  0.474571  1
  Er  Er1  1  0.250000  0.750000  0.525429  1
  Er  Er2  1  0.250000  0.928380  0.796153  1
  Er  Er3  1  0.250000  0.571620  0.796153  1
  Er  Er4  1  0.750000  0.071620  0.203847  1
  Er  Er5  1  0.750000  0.428380  0.203847  1
  Ti  Ti6  1  0.250000  0.250000  0.846261  1
  Ti  Ti7  1  0.750000  0.750000  0.153739  1
  Fe  Fe8  1  0.750000  0.250000  0.011554  1
  Fe  Fe9  1  0.250000  0.750000  0.988446  1
  Co  Co10  1  0.250000  0.250000  0.296873  1
  Co  Co11  1  0.750000  0.750000  0.703127  1
  Co  Co12  1  0.250000  0.419393  0.004994  1
  Co  Co13  1  0.250000  0.080607  0.004994  1
  Co  Co14  1  0.750000  0.580607  0.995006  1
  Co  Co15  1  0.750000  0.919393  0.995006  1
  Co  Co16  1  0.250000  0.454052  0.567902  1
  Co  Co17  1  0.250000  0.045948  0.567902  1
  Co  Co18  1  0.750000  0.545948  0.432098  1
  Co  Co19  1  0.750000  0.954052  0.432098  1
  Co  Co20  1  0.250000  0.871583  0.294756  1
  Co  Co21  1  0.250000  0.628417  0.294756  1
  Co  Co22  1  0.750000  0.128417  0.705244  1
  Co  Co23  1  0.750000  0.371583  0.705244  1
  P  P24  1  0.250000  0.250000  0.113768  1
  P  P25  1  0.750000  0.750000  0.886232  1
  P  P26  1  0.250000  0.250000  0.646021  1
  P  P27  1  0.750000  0.750000  0.353979  1
  P  P28  1  0.250000  0.439772  0.383362  1
  P  P29  1  0.250000  0.060228  0.383362  1
  P  P30  1  0.750000  0.560228  0.616638  1
  P  P31  1  0.750000  0.939772  0.616638  1
  P  P32  1  0.250000  0.907004  0.106958  1
  P  P33  1  0.250000  0.592996  0.106958  1
  P  P34  1  0.750000  0.092996  0.893042  1
  P  P35  1  0.750000  0.407004  0.893042  1
