# generated using pymatgen
data_La4ErIn2Pb
_symmetry_space_group_name_H-M   'P 1'
_cell_length_a   9.45326365
_cell_length_b   9.45405891
_cell_length_c   9.45326500
_cell_angle_alpha   96.50594200
_cell_angle_beta   96.58165843
_cell_angle_gamma   140.53383260
_symmetry_Int_Tables_number   1
_chemical_formula_structural   La4ErIn2Pb
_chemical_formula_sum   'La8 Er2 In4 Pb2'
_cell_volume   505.49418811
_cell_formula_units_Z   2
loop_
 _symmetry_equiv_pos_site_id
 _symmetry_equiv_pos_as_xyz
  1  'x, y, z'
loop_
 _atom_site_type_symbol
 _atom_site_label
 _atom_site_symmetry_multiplicity
 _atom_site_fract_x
 _atom_site_fract_y
 _atom_site_fract_z
 _atom_site_occupancy
  La  La0  1  0.910379  0.222696  0.133148  1
  La  La1  1  0.223472  0.088838  0.312342  1
  La  La2  1  0.777324  0.910259  0.687592  1
  La  La3  1  0.089168  0.776582  0.865750  1
  La  La4  1  0.722667  0.410259  0.132935  1
  La  La5  1  0.276496  0.588838  0.865366  1
  La  La6  1  0.589548  0.722696  0.312317  1
  La  La7  1  0.410832  0.276582  0.687413  1
  Er  Er8  1  0.750017  0.251488  0.501457  1
  Er  Er9  1  0.250033  0.751488  0.501471  1
  In  In10  1  0.749996  0.750658  0.000619  1
  In  In11  1  0.250039  0.250658  0.000663  1
  In  In12  1  0.845419  0.653803  0.499215  1
  In  In13  1  0.654589  0.153803  0.808385  1
  Pb  Pb14  1  0.346674  0.845675  0.192330  1
  Pb  Pb15  1  0.153346  0.345675  0.499001  1
