# generated using pymatgen
data_Th2Co3B8Os5
_symmetry_space_group_name_H-M   'P 1'
_cell_length_a   7.45501708
_cell_length_b   7.37003533
_cell_length_c   3.95785817
_cell_angle_alpha   90.05041817
_cell_angle_beta   89.70795196
_cell_angle_gamma   89.39118583
_symmetry_Int_Tables_number   1
_chemical_formula_structural   Th2Co3B8Os5
_chemical_formula_sum   'Th2 Co3 B8 Os5'
_cell_volume   217.44433146
_cell_formula_units_Z   1
loop_
 _symmetry_equiv_pos_site_id
 _symmetry_equiv_pos_as_xyz
  1  'x, y, z'
loop_
 _atom_site_type_symbol
 _atom_site_label
 _atom_site_symmetry_multiplicity
 _atom_site_fract_x
 _atom_site_fract_y
 _atom_site_fract_z
 _atom_site_occupancy
  Th  Th0  1  0.249545  0.250747  0.301046  1
  Th  Th1  1  0.756817  0.749215  0.817310  1
  Co  Co2  1  0.379138  0.630358  0.138572  1
  Co  Co3  1  0.108407  0.858585  0.129883  1
  Co  Co4  1  0.132116  0.612984  0.628691  1
  B  B5  1  0.920110  0.017037  0.350060  1
  B  B6  1  0.576122  0.481291  0.351928  1
  B  B7  1  0.519230  0.085482  0.854136  1
  B  B8  1  0.983917  0.419908  0.849576  1
  B  B9  1  0.088757  0.940383  0.631001  1
  B  B10  1  0.406386  0.562944  0.636107  1
  B  B11  1  0.449955  0.910958  0.135725  1
  B  B12  1  0.061430  0.590597  0.132853  1
  Os  Os13  1  0.361682  0.875536  0.634047  1
  Os  Os14  1  0.595228  0.362597  0.852434  1
  Os  Os15  1  0.907033  0.143345  0.852672  1
  Os  Os16  1  0.857680  0.408936  0.351900  1
  Os  Os17  1  0.646447  0.099098  0.352060  1
