# generated using pymatgen
data_Hf8Ti7Ge16Mo5
_symmetry_space_group_name_H-M   'P 1'
_cell_length_a   6.71261783
_cell_length_b   6.84738266
_cell_length_c   13.10922078
_cell_angle_alpha   90.03842537
_cell_angle_beta   90.03593585
_cell_angle_gamma   90.05889878
_symmetry_Int_Tables_number   1
_chemical_formula_structural   Hf8Ti7Ge16Mo5
_chemical_formula_sum   'Hf8 Ti7 Ge16 Mo5'
_cell_volume   602.54985441
_cell_formula_units_Z   1
loop_
 _symmetry_equiv_pos_site_id
 _symmetry_equiv_pos_as_xyz
  1  'x, y, z'
loop_
 _atom_site_type_symbol
 _atom_site_label
 _atom_site_symmetry_multiplicity
 _atom_site_fract_x
 _atom_site_fract_y
 _atom_site_fract_z
 _atom_site_occupancy
  Hf  Hf0  1  0.487535  0.672375  0.590107  1
  Hf  Hf1  1  0.988095  0.824287  0.910865  1
  Hf  Hf2  1  0.510546  0.325520  0.090431  1
  Hf  Hf3  1  0.011270  0.176668  0.409360  1
  Hf  Hf4  1  0.511362  0.324297  0.409320  1
  Hf  Hf5  1  0.010162  0.174185  0.089763  1
  Hf  Hf6  1  0.488416  0.674687  0.910917  1
  Hf  Hf7  1  0.990662  0.822747  0.589950  1
  Ti  Ti8  1  0.659420  0.163068  0.626037  1
  Ti  Ti9  1  0.161256  0.337441  0.874085  1
  Ti  Ti10  1  0.339667  0.836353  0.125294  1
  Ti  Ti11  1  0.838414  0.662272  0.375050  1
  Ti  Ti12  1  0.339643  0.838719  0.375527  1
  Ti  Ti13  1  0.838662  0.662758  0.124947  1
  Ti  Ti14  1  0.662500  0.162296  0.874481  1
  Ge  Ge15  1  0.684287  0.958150  0.460016  1
  Ge  Ge16  1  0.182495  0.542037  0.040806  1
  Ge  Ge17  1  0.316989  0.042339  0.958925  1
  Ge  Ge18  1  0.818235  0.457518  0.540760  1
  Ge  Ge19  1  0.317800  0.042912  0.540949  1
  Ge  Ge20  1  0.817056  0.457463  0.959236  1
  Ge  Ge21  1  0.681677  0.957770  0.040687  1
  Ge  Ge22  1  0.182095  0.545404  0.457531  1
  Ge  Ge23  1  0.464577  0.382922  0.751641  1
  Ge  Ge24  1  0.966192  0.116992  0.749223  1
  Ge  Ge25  1  0.534646  0.616689  0.250083  1
  Ge  Ge26  1  0.035108  0.882826  0.250085  1
  Ge  Ge27  1  0.693519  0.849219  0.750000  1
  Ge  Ge28  1  0.192604  0.650968  0.751654  1
  Ge  Ge29  1  0.305723  0.149252  0.249602  1
  Ge  Ge30  1  0.806097  0.350156  0.249195  1
  Mo  Mo31  1  0.164676  0.342685  0.622931  1
  Mo  Mo32  1  0.834655  0.491730  0.749666  1
  Mo  Mo33  1  0.337886  0.006771  0.749040  1
  Mo  Mo34  1  0.163176  0.506690  0.250658  1
  Mo  Mo35  1  0.662897  0.991835  0.251181  1
