# generated using pymatgen
data_Tb9Sm8Ho3Sn16
_symmetry_space_group_name_H-M   'P 1'
_cell_length_a   8.10349106
_cell_length_b   8.26429606
_cell_length_c   15.61564000
_cell_angle_alpha   90.00000000
_cell_angle_beta   90.00000000
_cell_angle_gamma   90.01417010
_symmetry_Int_Tables_number   1
_chemical_formula_structural   Tb9Sm8Ho3Sn16
_chemical_formula_sum   'Tb9 Sm8 Ho3 Sn16'
_cell_volume   1045.77390212
_cell_formula_units_Z   1
loop_
 _symmetry_equiv_pos_site_id
 _symmetry_equiv_pos_as_xyz
  1  'x, y, z'
loop_
 _atom_site_type_symbol
 _atom_site_label
 _atom_site_symmetry_multiplicity
 _atom_site_fract_x
 _atom_site_fract_y
 _atom_site_fract_z
 _atom_site_occupancy
  Tb  Tb0  1  0.365846  0.835836  0.878038  1
  Tb  Tb1  1  0.865592  0.664371  0.621967  1
  Tb  Tb2  1  0.634277  0.164225  0.378005  1
  Tb  Tb3  1  0.134288  0.335773  0.122131  1
  Tb  Tb4  1  0.634277  0.164225  0.121995  1
  Tb  Tb5  1  0.134288  0.335773  0.377869  1
  Tb  Tb6  1  0.365846  0.835836  0.621962  1
  Tb  Tb7  1  0.865592  0.664371  0.878033  1
  Tb  Tb8  1  0.197936  0.502463  0.750000  1
  Sm  Sm9  1  0.518315  0.320520  0.902283  1
  Sm  Sm10  1  0.018101  0.179217  0.597710  1
  Sm  Sm11  1  0.481749  0.679353  0.402167  1
  Sm  Sm12  1  0.981799  0.820649  0.097755  1
  Sm  Sm13  1  0.481749  0.679353  0.097833  1
  Sm  Sm14  1  0.981799  0.820649  0.402245  1
  Sm  Sm15  1  0.518315  0.320520  0.597717  1
  Sm  Sm16  1  0.018101  0.179217  0.902290  1
  Ho  Ho17  1  0.698160  0.997412  0.750000  1
  Ho  Ho18  1  0.801901  0.497481  0.250000  1
  Ho  Ho19  1  0.301935  0.002534  0.250000  1
  Sn  Sn20  1  0.296004  0.037023  0.042165  1
  Sn  Sn21  1  0.796020  0.463091  0.457824  1
  Sn  Sn22  1  0.703937  0.962943  0.542096  1
  Sn  Sn23  1  0.203938  0.537123  0.958222  1
  Sn  Sn24  1  0.703937  0.962943  0.957904  1
  Sn  Sn25  1  0.203938  0.537123  0.541778  1
  Sn  Sn26  1  0.296004  0.037023  0.457835  1
  Sn  Sn27  1  0.796020  0.463091  0.042176  1
  Sn  Sn28  1  0.565056  0.620908  0.750000  1
  Sn  Sn29  1  0.064066  0.879666  0.750000  1
  Sn  Sn30  1  0.435805  0.379264  0.250000  1
  Sn  Sn31  1  0.935703  0.120704  0.250000  1
  Sn  Sn32  1  0.326851  0.143863  0.750000  1
  Sn  Sn33  1  0.826553  0.355250  0.750000  1
  Sn  Sn34  1  0.673215  0.855567  0.250000  1
  Sn  Sn35  1  0.173085  0.644642  0.250000  1
