# generated using pymatgen
data_Ho4TmTh3(MgRu)2
_symmetry_space_group_name_H-M   'P 1'
_cell_length_a   9.72104790
_cell_length_b   9.78459082
_cell_length_c   9.78707437
_cell_angle_alpha   59.56248250
_cell_angle_beta   60.20606381
_cell_angle_gamma   60.23145701
_symmetry_Int_Tables_number   1
_chemical_formula_structural   Ho4TmTh3(MgRu)2
_chemical_formula_sum   'Ho8 Tm2 Th6 Mg4 Ru4'
_cell_volume   658.19683359
_cell_formula_units_Z   2
loop_
 _symmetry_equiv_pos_site_id
 _symmetry_equiv_pos_as_xyz
  1  'x, y, z'
loop_
 _atom_site_type_symbol
 _atom_site_label
 _atom_site_symmetry_multiplicity
 _atom_site_fract_x
 _atom_site_fract_y
 _atom_site_fract_z
 _atom_site_occupancy
  Ho  Ho0  1  0.189039  0.189039  0.810961  1
  Ho  Ho1  1  0.810961  0.810961  0.189039  1
  Ho  Ho2  1  0.933588  0.566412  0.566412  1
  Ho  Ho3  1  0.566412  0.933588  0.933588  1
  Ho  Ho4  1  0.563761  0.936239  0.563761  1
  Ho  Ho5  1  0.936239  0.563761  0.936239  1
  Ho  Ho6  1  0.563567  0.563567  0.936433  1
  Ho  Ho7  1  0.936433  0.936433  0.563567  1
  Tm  Tm8  1  0.189293  0.810707  0.189293  1
  Tm  Tm9  1  0.810707  0.189293  0.810707  1
  Th  Th10  1  0.342910  0.349459  0.348827  1
  Th  Th11  1  0.349459  0.342910  0.958803  1
  Th  Th12  1  0.348827  0.958803  0.342910  1
  Th  Th13  1  0.958803  0.348827  0.349459  1
  Th  Th14  1  0.816547  0.183453  0.183453  1
  Th  Th15  1  0.183453  0.816547  0.816547  1
  Mg  Mg16  1  0.582450  0.579111  0.579387  1
  Mg  Mg17  1  0.579111  0.582450  0.259052  1
  Mg  Mg18  1  0.579387  0.259052  0.582450  1
  Mg  Mg19  1  0.259052  0.579387  0.579111  1
  Ru  Ru20  1  0.129038  0.147391  0.148424  1
  Ru  Ru21  1  0.147391  0.129038  0.575144  1
  Ru  Ru22  1  0.148424  0.575144  0.129038  1
  Ru  Ru23  1  0.575144  0.148424  0.147391  1
