# generated using pymatgen
data_Ho2Tm3Bi2Ir
_symmetry_space_group_name_H-M   'P 1'
_cell_length_a   7.89772800
_cell_length_b   8.97378600
_cell_length_c   12.44470600
_cell_angle_alpha   90.00000000
_cell_angle_beta   90.00000000
_cell_angle_gamma   90.00000000
_symmetry_Int_Tables_number   1
_chemical_formula_structural   Ho2Tm3Bi2Ir
_chemical_formula_sum   'Ho8 Tm12 Bi8 Ir4'
_cell_volume   881.98768680
_cell_formula_units_Z   4
loop_
 _symmetry_equiv_pos_site_id
 _symmetry_equiv_pos_as_xyz
  1  'x, y, z'
loop_
 _atom_site_type_symbol
 _atom_site_label
 _atom_site_symmetry_multiplicity
 _atom_site_fract_x
 _atom_site_fract_y
 _atom_site_fract_z
 _atom_site_occupancy
  Ho  Ho0  1  0.375655  0.750000  0.691571  1
  Ho  Ho1  1  0.624345  0.250000  0.308429  1
  Ho  Ho2  1  0.875655  0.250000  0.808429  1
  Ho  Ho3  1  0.124345  0.750000  0.191571  1
  Ho  Ho4  1  0.945474  0.750000  0.501586  1
  Ho  Ho5  1  0.054526  0.250000  0.498414  1
  Ho  Ho6  1  0.445474  0.250000  0.998414  1
  Ho  Ho7  1  0.554526  0.750000  0.001586  1
  Tm  Tm8  1  0.840037  0.750000  0.793710  1
  Tm  Tm9  1  0.159963  0.250000  0.206290  1
  Tm  Tm10  1  0.340037  0.250000  0.706290  1
  Tm  Tm11  1  0.659963  0.750000  0.293710  1
  Tm  Tm12  1  0.673659  0.042584  0.566460  1
  Tm  Tm13  1  0.326341  0.957416  0.433540  1
  Tm  Tm14  1  0.173659  0.957416  0.933540  1
  Tm  Tm15  1  0.326341  0.542584  0.433540  1
  Tm  Tm16  1  0.826341  0.042584  0.066460  1
  Tm  Tm17  1  0.673659  0.457416  0.566460  1
  Tm  Tm18  1  0.826341  0.457416  0.066460  1
  Tm  Tm19  1  0.173659  0.542584  0.933540  1
  Bi  Bi20  1  0.565615  0.491139  0.826546  1
  Bi  Bi21  1  0.434385  0.508861  0.173454  1
  Bi  Bi22  1  0.065615  0.508861  0.673454  1
  Bi  Bi23  1  0.434385  0.991139  0.173454  1
  Bi  Bi24  1  0.934385  0.491139  0.326546  1
  Bi  Bi25  1  0.565615  0.008861  0.826546  1
  Bi  Bi26  1  0.934385  0.008861  0.326546  1
  Bi  Bi27  1  0.065615  0.991139  0.673454  1
  Ir  Ir28  1  0.571777  0.750000  0.508032  1
  Ir  Ir29  1  0.428223  0.250000  0.491968  1
  Ir  Ir30  1  0.071777  0.250000  0.991968  1
  Ir  Ir31  1  0.928223  0.750000  0.008032  1
