# generated using pymatgen
data_TmCrF7
_symmetry_space_group_name_H-M   'P 1'
_cell_length_a   5.50211000
_cell_length_b   5.77924707
_cell_length_c   8.02748357
_cell_angle_alpha   103.18543462
_cell_angle_beta   90.00000000
_cell_angle_gamma   90.00000000
_symmetry_Int_Tables_number   1
_chemical_formula_structural   TmCrF7
_chemical_formula_sum   'Tm2 Cr2 F14'
_cell_volume   248.52895291
_cell_formula_units_Z   2
loop_
 _symmetry_equiv_pos_site_id
 _symmetry_equiv_pos_as_xyz
  1  'x, y, z'
loop_
 _atom_site_type_symbol
 _atom_site_label
 _atom_site_symmetry_multiplicity
 _atom_site_fract_x
 _atom_site_fract_y
 _atom_site_fract_z
 _atom_site_occupancy
  Tm  Tm0  1  0.699459  0.653921  0.691990  1
  Tm  Tm1  1  0.199459  0.346079  0.308010  1
  Cr  Cr2  1  0.709005  0.814548  0.224326  1
  Cr  Cr3  1  0.209005  0.185452  0.775674  1
  F  F4  1  0.899676  0.452839  0.483062  1
  F  F5  1  0.399676  0.547161  0.516938  1
  F  F6  1  0.421587  0.935833  0.770277  1
  F  F7  1  0.921587  0.064167  0.229723  1
  F  F8  1  0.947169  0.963893  0.759810  1
  F  F9  1  0.447169  0.036107  0.240190  1
  F  F10  1  0.001306  0.440298  0.792358  1
  F  F11  1  0.501306  0.559702  0.207642  1
  F  F12  1  0.702777  0.765013  0.989248  1
  F  F13  1  0.202777  0.234987  0.010752  1
  F  F14  1  0.709724  0.870129  0.457198  1
  F  F15  1  0.209724  0.129871  0.542802  1
  F  F16  1  0.485657  0.386620  0.789744  1
  F  F17  1  0.985657  0.613380  0.210256  1
