# generated using pymatgen
data_YbTmGa2(BIr3)2
_symmetry_space_group_name_H-M   'P 1'
_cell_length_a   5.51662000
_cell_length_b   5.51662131
_cell_length_c   7.07221400
_cell_angle_alpha   90.00000000
_cell_angle_beta   90.00000000
_cell_angle_gamma   120.00000413
_symmetry_Int_Tables_number   1
_chemical_formula_structural   YbTmGa2(BIr3)2
_chemical_formula_sum   'Yb1 Tm1 Ga2 B2 Ir6'
_cell_volume   186.39413791
_cell_formula_units_Z   1
loop_
 _symmetry_equiv_pos_site_id
 _symmetry_equiv_pos_as_xyz
  1  'x, y, z'
loop_
 _atom_site_type_symbol
 _atom_site_label
 _atom_site_symmetry_multiplicity
 _atom_site_fract_x
 _atom_site_fract_y
 _atom_site_fract_z
 _atom_site_occupancy
  Yb  Yb0  1  0.000000  0.000000  0.000000  1
  Tm  Tm1  1  0.000000  0.000000  0.500000  1
  Ga  Ga2  1  0.666667  0.333333  0.000000  1
  Ga  Ga3  1  0.333333  0.666667  0.000000  1
  B  B4  1  0.666667  0.333333  0.500000  1
  B  B5  1  0.333333  0.666667  0.500000  1
  Ir  Ir6  1  0.500000  0.500000  0.709358  1
  Ir  Ir7  1  0.500000  0.000000  0.709358  1
  Ir  Ir8  1  0.000000  0.500000  0.709358  1
  Ir  Ir9  1  0.500000  0.500000  0.290642  1
  Ir  Ir10  1  0.500000  0.000000  0.290642  1
  Ir  Ir11  1  0.000000  0.500000  0.290642  1
