# generated using pymatgen
data_YTm11TcOs3
_symmetry_space_group_name_H-M   'P 1'
_cell_length_a   7.37972324
_cell_length_b   8.90163800
_cell_length_c   6.22955899
_cell_angle_alpha   90.00000000
_cell_angle_beta   90.15024406
_cell_angle_gamma   90.00000000
_symmetry_Int_Tables_number   1
_chemical_formula_structural   YTm11TcOs3
_chemical_formula_sum   'Y1 Tm11 Tc1 Os3'
_cell_volume   409.22844493
_cell_formula_units_Z   1
loop_
 _symmetry_equiv_pos_site_id
 _symmetry_equiv_pos_as_xyz
  1  'x, y, z'
loop_
 _atom_site_type_symbol
 _atom_site_label
 _atom_site_symmetry_multiplicity
 _atom_site_fract_x
 _atom_site_fract_y
 _atom_site_fract_z
 _atom_site_occupancy
  Y  Y0  1  0.039209  0.250000  0.625030  1
  Tm  Tm1  1  0.959559  0.750000  0.371216  1
  Tm  Tm2  1  0.460364  0.750000  0.129449  1
  Tm  Tm3  1  0.539589  0.250000  0.875410  1
  Tm  Tm4  1  0.174998  0.061661  0.162874  1
  Tm  Tm5  1  0.823902  0.937386  0.834412  1
  Tm  Tm6  1  0.326334  0.936824  0.664966  1
  Tm  Tm7  1  0.823902  0.562614  0.834412  1
  Tm  Tm8  1  0.674416  0.061902  0.334534  1
  Tm  Tm9  1  0.174998  0.438339  0.162874  1
  Tm  Tm10  1  0.674416  0.438098  0.334534  1
  Tm  Tm11  1  0.326334  0.563176  0.664966  1
  Tc  Tc12  1  0.384722  0.250000  0.462395  1
  Os  Os13  1  0.619038  0.750000  0.538345  1
  Os  Os14  1  0.117944  0.750000  0.962326  1
  Os  Os15  1  0.880274  0.250000  0.042258  1
