# generated using pymatgen
data_Pu2OsC2
_symmetry_space_group_name_H-M   'P 1'
_cell_length_a   5.17933400
_cell_length_b   6.38104900
_cell_length_c   9.74647500
_cell_angle_alpha   90.00000000
_cell_angle_beta   90.00000000
_cell_angle_gamma   90.00000000
_symmetry_Int_Tables_number   1
_chemical_formula_structural   Pu2OsC2
_chemical_formula_sum   'Pu8 Os4 C8'
_cell_volume   322.11694462
_cell_formula_units_Z   4
loop_
 _symmetry_equiv_pos_site_id
 _symmetry_equiv_pos_as_xyz
  1  'x, y, z'
loop_
 _atom_site_type_symbol
 _atom_site_label
 _atom_site_symmetry_multiplicity
 _atom_site_fract_x
 _atom_site_fract_y
 _atom_site_fract_z
 _atom_site_occupancy
  Pu  Pu0  1  0.250000  0.694179  0.545347  1
  Pu  Pu1  1  0.750000  0.305821  0.454653  1
  Pu  Pu2  1  0.750000  0.805821  0.045347  1
  Pu  Pu3  1  0.250000  0.194179  0.954653  1
  Pu  Pu4  1  0.250000  0.528201  0.218939  1
  Pu  Pu5  1  0.750000  0.471799  0.781061  1
  Pu  Pu6  1  0.750000  0.971799  0.718939  1
  Pu  Pu7  1  0.250000  0.028201  0.281061  1
  Os  Os8  1  0.250000  0.723866  0.866850  1
  Os  Os9  1  0.750000  0.276134  0.133150  1
  Os  Os10  1  0.750000  0.776134  0.366850  1
  Os  Os11  1  0.250000  0.223866  0.633150  1
  C  C12  1  0.250000  0.465071  0.754700  1
  C  C13  1  0.750000  0.534929  0.245300  1
  C  C14  1  0.750000  0.034929  0.254700  1
  C  C15  1  0.250000  0.965071  0.745300  1
  C  C16  1  0.250000  0.832717  0.057159  1
  C  C17  1  0.750000  0.167283  0.942841  1
  C  C18  1  0.750000  0.667283  0.557159  1
  C  C19  1  0.250000  0.332717  0.442841  1
