# generated using pymatgen
data_Er19Th(Ir2Os)4
_symmetry_space_group_name_H-M   'P 1'
_cell_length_a   10.80960506
_cell_length_b   10.78305109
_cell_length_c   6.38090569
_cell_angle_alpha   90.16019329
_cell_angle_beta   89.75590796
_cell_angle_gamma   90.07890481
_symmetry_Int_Tables_number   1
_chemical_formula_structural   Er19Th(Ir2Os)4
_chemical_formula_sum   'Er19 Th1 Ir8 Os4'
_cell_volume   743.75135879
_cell_formula_units_Z   1
loop_
 _symmetry_equiv_pos_site_id
 _symmetry_equiv_pos_as_xyz
  1  'x, y, z'
loop_
 _atom_site_type_symbol
 _atom_site_label
 _atom_site_symmetry_multiplicity
 _atom_site_fract_x
 _atom_site_fract_y
 _atom_site_fract_z
 _atom_site_occupancy
  Er  Er0  1  0.293600  0.911230  0.876655  1
  Er  Er1  1  0.706827  0.085705  0.878785  1
  Er  Er2  1  0.706650  0.912591  0.377320  1
  Er  Er3  1  0.586235  0.793082  0.877981  1
  Er  Er4  1  0.592409  0.207364  0.377928  1
  Er  Er5  1  0.416192  0.788686  0.376977  1
  Er  Er6  1  0.416151  0.207839  0.876730  1
  Er  Er7  1  0.205500  0.415335  0.622154  1
  Er  Er8  1  0.204941  0.585753  0.121762  1
  Er  Er9  1  0.793792  0.415664  0.121951  1
  Er  Er10  1  0.793528  0.586431  0.623167  1
  Er  Er11  1  0.914389  0.706542  0.123098  1
  Er  Er12  1  0.913649  0.294345  0.619764  1
  Er  Er13  1  0.085318  0.706154  0.623464  1
  Er  Er14  1  0.083094  0.295899  0.119469  1
  Er  Er15  1  0.995208  0.998716  0.501517  1
  Er  Er16  1  0.000535  0.000106  0.000271  1
  Er  Er17  1  0.499693  0.500476  0.002374  1
  Er  Er18  1  0.501639  0.498491  0.502858  1
  Th  Th19  1  0.293930  0.086694  0.376876  1
  Ir  Ir20  1  0.848015  0.153051  0.247843  1
  Ir  Ir21  1  0.846574  0.847919  0.752738  1
  Ir  Ir22  1  0.152523  0.151636  0.744837  1
  Ir  Ir23  1  0.153198  0.850002  0.253373  1
  Ir  Ir24  1  0.652632  0.347844  0.752150  1
  Ir  Ir25  1  0.651756  0.652259  0.250156  1
  Ir  Ir26  1  0.346796  0.347491  0.251349  1
  Ir  Ir27  1  0.348639  0.651044  0.751061  1
  Os  Os28  1  0.497764  0.999882  0.125464  1
  Os  Os29  1  0.500313  0.999484  0.622693  1
  Os  Os30  1  0.999256  0.500921  0.873061  1
  Os  Os31  1  0.999254  0.501364  0.374178  1
