# generated using pymatgen
data_Rb2SeOF4
_symmetry_space_group_name_H-M   'P 1'
_cell_length_a   7.91644654
_cell_length_b   7.91644612
_cell_length_c   6.88735300
_cell_angle_alpha   90.00000000
_cell_angle_beta   90.00000000
_cell_angle_gamma   132.55307381
_symmetry_Int_Tables_number   1
_chemical_formula_structural   Rb2SeOF4
_chemical_formula_sum   'Rb4 Se2 O2 F8'
_cell_volume   317.96168801
_cell_formula_units_Z   2
loop_
 _symmetry_equiv_pos_site_id
 _symmetry_equiv_pos_as_xyz
  1  'x, y, z'
loop_
 _atom_site_type_symbol
 _atom_site_label
 _atom_site_symmetry_multiplicity
 _atom_site_fract_x
 _atom_site_fract_y
 _atom_site_fract_z
 _atom_site_occupancy
  Rb  Rb0  1  0.447611  0.552389  0.250000  1
  Rb  Rb1  1  0.243862  0.756138  0.750000  1
  Rb  Rb2  1  0.756138  0.243862  0.250000  1
  Rb  Rb3  1  0.552389  0.447611  0.750000  1
  Se  Se4  1  0.120164  0.879836  0.250000  1
  Se  Se5  1  0.879836  0.120164  0.750000  1
  O  O6  1  0.233053  0.766947  0.250000  1
  O  O7  1  0.766947  0.233053  0.750000  1
  F  F8  1  0.340354  0.116122  0.045504  1
  F  F9  1  0.659646  0.883878  0.954496  1
  F  F10  1  0.883878  0.659646  0.454496  1
  F  F11  1  0.116122  0.340354  0.954496  1
  F  F12  1  0.659646  0.883878  0.545504  1
  F  F13  1  0.883878  0.659646  0.045504  1
  F  F14  1  0.116122  0.340354  0.545504  1
  F  F15  1  0.340354  0.116122  0.454496  1
