# generated using pymatgen
data_U2Cd17Ru4
_symmetry_space_group_name_H-M   'P 1'
_cell_length_a   8.65337851
_cell_length_b   8.65337871
_cell_length_c   8.65337731
_cell_angle_alpha   108.43637211
_cell_angle_beta   109.99109977
_cell_angle_gamma   109.99111053
_symmetry_Int_Tables_number   1
_chemical_formula_structural   U2Cd17Ru4
_chemical_formula_sum   'U2 Cd17 Ru4'
_cell_volume   498.68829568
_cell_formula_units_Z   1
loop_
 _symmetry_equiv_pos_site_id
 _symmetry_equiv_pos_as_xyz
  1  'x, y, z'
loop_
 _atom_site_type_symbol
 _atom_site_label
 _atom_site_symmetry_multiplicity
 _atom_site_fract_x
 _atom_site_fract_y
 _atom_site_fract_z
 _atom_site_occupancy
  U  U0  1  0.000000  0.365855  0.365855  1
  U  U1  1  0.000000  0.634145  0.634145  1
  Cd  Cd2  1  0.000000  0.000000  0.000000  1
  Cd  Cd3  1  0.344598  0.500000  0.844598  1
  Cd  Cd4  1  0.655402  0.500000  0.155402  1
  Cd  Cd5  1  0.655402  0.155402  0.500000  1
  Cd  Cd6  1  0.344598  0.844598  0.500000  1
  Cd  Cd7  1  0.435333  0.146047  0.146047  1
  Cd  Cd8  1  0.564667  0.710713  0.710713  1
  Cd  Cd9  1  0.000000  0.853953  0.289287  1
  Cd  Cd10  1  0.000000  0.289287  0.853953  1
  Cd  Cd11  1  0.344216  0.245203  0.482856  1
  Cd  Cd12  1  0.655784  0.138640  0.900986  1
  Cd  Cd13  1  0.237652  0.754797  0.099014  1
  Cd  Cd14  1  0.762348  0.861360  0.517144  1
  Cd  Cd15  1  0.762348  0.517144  0.861360  1
  Cd  Cd16  1  0.237652  0.099014  0.754797  1
  Cd  Cd17  1  0.344216  0.482856  0.245203  1
  Cd  Cd18  1  0.655784  0.900986  0.138640  1
  Ru  Ru19  1  0.679451  0.499158  0.499158  1
  Ru  Ru20  1  0.320549  0.819706  0.819706  1
  Ru  Ru21  1  0.000000  0.500842  0.180294  1
  Ru  Ru22  1  0.000000  0.180294  0.500842  1
