# generated using pymatgen
data_Dy4Zr2Pb5
_symmetry_space_group_name_H-M   'P 1'
_cell_length_a   6.33683003
_cell_length_b   9.42334228
_cell_length_c   11.59549896
_cell_angle_alpha   113.97488631
_cell_angle_beta   105.85746711
_cell_angle_gamma   90.00000055
_symmetry_Int_Tables_number   1
_chemical_formula_structural   Dy4Zr2Pb5
_chemical_formula_sum   'Dy8 Zr4 Pb10'
_cell_volume   603.72392373
_cell_formula_units_Z   2
loop_
 _symmetry_equiv_pos_site_id
 _symmetry_equiv_pos_as_xyz
  1  'x, y, z'
loop_
 _atom_site_type_symbol
 _atom_site_label
 _atom_site_symmetry_multiplicity
 _atom_site_fract_x
 _atom_site_fract_y
 _atom_site_fract_z
 _atom_site_occupancy
  Dy  Dy0  1  0.439404  0.671375  0.878806  1
  Dy  Dy1  1  0.560596  0.328625  0.121194  1
  Dy  Dy2  1  0.939404  0.207431  0.878806  1
  Dy  Dy3  1  0.060596  0.792569  0.121194  1
  Dy  Dy4  1  0.145877  0.258369  0.291755  1
  Dy  Dy5  1  0.854123  0.741631  0.708245  1
  Dy  Dy6  1  0.645877  0.033387  0.291755  1
  Dy  Dy7  1  0.354123  0.966613  0.708245  1
  Zr  Zr8  1  0.555599  0.305599  0.611197  1
  Zr  Zr9  1  0.444401  0.694401  0.388803  1
  Zr  Zr10  1  0.944401  0.694401  0.388803  1
  Zr  Zr11  1  0.055599  0.305599  0.611197  1
  Pb  Pb12  1  0.290244  0.590697  0.580487  1
  Pb  Pb13  1  0.709756  0.409303  0.419513  1
  Pb  Pb14  1  0.790244  0.989790  0.580487  1
  Pb  Pb15  1  0.209756  0.010210  0.419513  1
  Pb  Pb16  1  0.250000  0.000000  0.000000  1
  Pb  Pb17  1  0.750000  0.000000  0.000000  1
  Pb  Pb18  1  0.076865  0.475416  0.153731  1
  Pb  Pb19  1  0.923135  0.524584  0.846269  1
  Pb  Pb20  1  0.576865  0.678315  0.153731  1
  Pb  Pb21  1  0.423135  0.321685  0.846269  1
