# generated using pymatgen
data_Tb6Al17Co2Si7Os6
_symmetry_space_group_name_H-M   'P 1'
_cell_length_a   8.68432416
_cell_length_b   8.67238793
_cell_length_c   9.40055600
_cell_angle_alpha   90.00000000
_cell_angle_beta   90.00000000
_cell_angle_gamma   120.12653884
_symmetry_Int_Tables_number   1
_chemical_formula_structural   Tb6Al17Co2Si7Os6
_chemical_formula_sum   'Tb6 Al17 Co2 Si7 Os6'
_cell_volume   612.35563324
_cell_formula_units_Z   1
loop_
 _symmetry_equiv_pos_site_id
 _symmetry_equiv_pos_as_xyz
  1  'x, y, z'
loop_
 _atom_site_type_symbol
 _atom_site_label
 _atom_site_symmetry_multiplicity
 _atom_site_fract_x
 _atom_site_fract_y
 _atom_site_fract_z
 _atom_site_occupancy
  Tb  Tb0  1  0.194617  0.390089  0.250000  1
  Tb  Tb1  1  0.806088  0.612023  0.750000  1
  Tb  Tb2  1  0.608731  0.805431  0.250000  1
  Tb  Tb3  1  0.389420  0.192557  0.750000  1
  Tb  Tb4  1  0.196730  0.804633  0.250000  1
  Tb  Tb5  1  0.802489  0.193346  0.750000  1
  Al  Al6  1  0.160962  0.322583  0.577989  1
  Al  Al7  1  0.837802  0.677877  0.420089  1
  Al  Al8  1  0.677909  0.838404  0.577240  1
  Al  Al9  1  0.837802  0.677877  0.079911  1
  Al  Al10  1  0.322493  0.162225  0.421566  1
  Al  Al11  1  0.160962  0.322583  0.922011  1
  Al  Al12  1  0.160209  0.837967  0.575861  1
  Al  Al13  1  0.322493  0.162225  0.078434  1
  Al  Al14  1  0.838928  0.160680  0.421637  1
  Al  Al15  1  0.677909  0.838404  0.922760  1
  Al  Al16  1  0.838928  0.160680  0.078363  1
  Al  Al17  1  0.160209  0.837967  0.924139  1
  Al  Al18  1  0.127530  0.567431  0.750000  1
  Al  Al19  1  0.565502  0.433867  0.250000  1
  Al  Al20  1  0.438969  0.568090  0.750000  1
  Al  Al21  1  0.999979  0.999129  0.250000  1
  Al  Al22  1  0.999852  0.001072  0.750000  1
  Co  Co23  1  0.999872  0.000045  0.999429  1
  Co  Co24  1  0.999872  0.000045  0.500571  1
  Si  Si25  1  0.333037  0.664691  0.035668  1
  Si  Si26  1  0.666065  0.335435  0.963563  1
  Si  Si27  1  0.666065  0.335435  0.536437  1
  Si  Si28  1  0.333037  0.664691  0.464332  1
  Si  Si29  1  0.566769  0.126361  0.250000  1
  Si  Si30  1  0.436385  0.872460  0.750000  1
  Si  Si31  1  0.873580  0.432990  0.250000  1
  Os  Os32  1  0.500833  0.001312  0.000998  1
  Os  Os33  1  0.998008  0.499053  0.006062  1
  Os  Os34  1  0.500833  0.001312  0.499002  1
  Os  Os35  1  0.500561  0.499988  0.000343  1
  Os  Os36  1  0.998008  0.499053  0.493938  1
  Os  Os37  1  0.500561  0.499988  0.499657  1
