# generated using pymatgen
data_Cs7KPr2(NpI10)2
_symmetry_space_group_name_H-M   'P 1'
_cell_length_a   9.79018150
_cell_length_b   10.19996328
_cell_length_c   15.49680543
_cell_angle_alpha   89.90639233
_cell_angle_beta   89.35141734
_cell_angle_gamma   90.62376812
_symmetry_Int_Tables_number   1
_chemical_formula_structural   Cs7KPr2(NpI10)2
_chemical_formula_sum   'Cs7 K1 Pr2 Np2 I20'
_cell_volume   1547.30987811
_cell_formula_units_Z   1
loop_
 _symmetry_equiv_pos_site_id
 _symmetry_equiv_pos_as_xyz
  1  'x, y, z'
loop_
 _atom_site_type_symbol
 _atom_site_label
 _atom_site_symmetry_multiplicity
 _atom_site_fract_x
 _atom_site_fract_y
 _atom_site_fract_z
 _atom_site_occupancy
  Cs  Cs0  1  0.433657  0.506498  0.674242  1
  Cs  Cs1  1  0.932176  0.492927  0.828497  1
  Cs  Cs2  1  0.566309  0.006307  0.327444  1
  Cs  Cs3  1  0.065155  0.992956  0.171363  1
  Cs  Cs4  1  0.565906  0.494095  0.327138  1
  Cs  Cs5  1  0.064152  0.507461  0.168690  1
  Cs  Cs6  1  0.434577  0.993284  0.672680  1
  K  K7  1  0.934436  0.001770  0.827417  1
  Pr  Pr8  1  0.072998  0.250329  0.497964  1
  Pr  Pr9  1  0.426895  0.247672  0.995036  1
  Np  Np10  1  0.928997  0.750334  0.504503  1
  Np  Np11  1  0.571777  0.751790  0.001822  1
  I  I12  1  0.598855  0.747809  0.511802  1
  I  I13  1  0.337351  0.951774  0.933878  1
  I  I14  1  0.839178  0.042850  0.569665  1
  I  I15  1  0.662652  0.458173  0.065444  1
  I  I16  1  0.095081  0.243400  0.983293  1
  I  I17  1  0.655551  0.757705  0.805277  1
  I  I18  1  0.903004  0.759529  0.006901  1
  I  I19  1  0.402992  0.250884  0.489839  1
  I  I20  1  0.101362  0.755176  0.677066  1
  I  I21  1  0.142305  0.241411  0.698942  1
  I  I22  1  0.349164  0.251144  0.194476  1
  I  I23  1  0.852858  0.749898  0.306624  1
  I  I24  1  0.659829  0.044695  0.067887  1
  I  I25  1  0.613945  0.245784  0.825684  1
  I  I26  1  0.892446  0.249953  0.326931  1
  I  I27  1  0.393764  0.751126  0.173152  1
  I  I28  1  0.838922  0.456954  0.569293  1
  I  I29  1  0.340889  0.544375  0.931670  1
  I  I30  1  0.160040  0.955377  0.431783  1
  I  I31  1  0.162777  0.546561  0.433591  1
