# generated using pymatgen
data_SrLi3Ac3MgPb4
_symmetry_space_group_name_H-M   'P 1'
_cell_length_a   5.03040500
_cell_length_b   8.28500220
_cell_length_c   8.73437506
_cell_angle_alpha   90.37842992
_cell_angle_beta   90.00000000
_cell_angle_gamma   90.00000000
_symmetry_Int_Tables_number   1
_chemical_formula_structural   SrLi3Ac3MgPb4
_chemical_formula_sum   'Sr1 Li3 Ac3 Mg1 Pb4'
_cell_volume   364.01388014
_cell_formula_units_Z   1
loop_
 _symmetry_equiv_pos_site_id
 _symmetry_equiv_pos_as_xyz
  1  'x, y, z'
loop_
 _atom_site_type_symbol
 _atom_site_label
 _atom_site_symmetry_multiplicity
 _atom_site_fract_x
 _atom_site_fract_y
 _atom_site_fract_z
 _atom_site_occupancy
  Sr  Sr0  1  0.250000  0.000288  0.789675  1
  Li  Li1  1  0.250000  0.676388  0.073816  1
  Li  Li2  1  0.250000  0.155836  0.434901  1
  Li  Li3  1  0.750000  0.841346  0.577610  1
  Ac  Ac4  1  0.750000  0.993526  0.209000  1
  Ac  Ac5  1  0.750000  0.502760  0.289372  1
  Ac  Ac6  1  0.250000  0.509417  0.702955  1
  Mg  Mg7  1  0.750000  0.326104  0.918882  1
  Pb  Pb8  1  0.250000  0.275154  0.103947  1
  Pb  Pb9  1  0.250000  0.780584  0.404169  1
  Pb  Pb10  1  0.750000  0.223978  0.587573  1
  Pb  Pb11  1  0.750000  0.714619  0.908101  1
