# generated using pymatgen
data_Ce4AgSnRh4
_symmetry_space_group_name_H-M   'P 1'
_cell_length_a   7.64026400
_cell_length_b   7.64026400
_cell_length_c   3.72236000
_cell_angle_alpha   90.00000000
_cell_angle_beta   90.00000000
_cell_angle_gamma   90.00000000
_symmetry_Int_Tables_number   1
_chemical_formula_structural   Ce4AgSnRh4
_chemical_formula_sum   'Ce4 Ag1 Sn1 Rh4'
_cell_volume   217.28768022
_cell_formula_units_Z   1
loop_
 _symmetry_equiv_pos_site_id
 _symmetry_equiv_pos_as_xyz
  1  'x, y, z'
loop_
 _atom_site_type_symbol
 _atom_site_label
 _atom_site_symmetry_multiplicity
 _atom_site_fract_x
 _atom_site_fract_y
 _atom_site_fract_z
 _atom_site_occupancy
  Ce  Ce0  1  0.671747  0.170471  0.500000  1
  Ce  Ce1  1  0.328253  0.829529  0.500000  1
  Ce  Ce2  1  0.170471  0.328253  0.500000  1
  Ce  Ce3  1  0.829529  0.671747  0.500000  1
  Ag  Ag4  1  0.500000  0.500000  0.000000  1
  Sn  Sn5  1  0.000000  0.000000  0.000000  1
  Rh  Rh6  1  0.134954  0.637103  0.000000  1
  Rh  Rh7  1  0.865046  0.362897  0.000000  1
  Rh  Rh8  1  0.637103  0.865046  0.000000  1
  Rh  Rh9  1  0.362897  0.134954  0.000000  1
