# generated using pymatgen
data_Hf12Th8Si15Se
_symmetry_space_group_name_H-M   'P 1'
_cell_length_a   7.40430931
_cell_length_b   7.37921527
_cell_length_c   13.64058849
_cell_angle_alpha   90.04987949
_cell_angle_beta   89.63447047
_cell_angle_gamma   90.07444632
_symmetry_Int_Tables_number   1
_chemical_formula_structural   Hf12Th8Si15Se
_chemical_formula_sum   'Hf12 Th8 Si15 Se1'
_cell_volume   745.27829588
_cell_formula_units_Z   1
loop_
 _symmetry_equiv_pos_site_id
 _symmetry_equiv_pos_as_xyz
  1  'x, y, z'
loop_
 _atom_site_type_symbol
 _atom_site_label
 _atom_site_symmetry_multiplicity
 _atom_site_fract_x
 _atom_site_fract_y
 _atom_site_fract_z
 _atom_site_occupancy
  Hf  Hf0  1  0.672942  0.327462  0.749766  1
  Hf  Hf1  1  0.328817  0.671082  0.249477  1
  Hf  Hf2  1  0.827578  0.827265  0.500145  1
  Hf  Hf3  1  0.177180  0.173154  0.999596  1
  Hf  Hf4  1  0.496560  0.343543  0.123400  1
  Hf  Hf5  1  0.503139  0.655520  0.624832  1
  Hf  Hf6  1  0.839811  0.004544  0.875213  1
  Hf  Hf7  1  0.156356  0.996660  0.375056  1
  Hf  Hf8  1  0.656427  0.501665  0.374718  1
  Hf  Hf9  1  0.340162  0.502671  0.873175  1
  Hf  Hf10  1  0.008189  0.837920  0.127752  1
  Hf  Hf11  1  0.996318  0.155596  0.624707  1
  Th  Th12  1  0.497384  0.157590  0.533590  1
  Th  Th13  1  0.502489  0.844729  0.032058  1
  Th  Th14  1  0.657466  0.000819  0.285076  1
  Th  Th15  1  0.338247  0.994215  0.781427  1
  Th  Th16  1  0.840909  0.502003  0.967218  1
  Th  Th17  1  0.158672  0.496830  0.467198  1
  Th  Th18  1  0.001663  0.659306  0.716653  1
  Th  Th19  1  0.003266  0.346704  0.219619  1
  Si  Si20  1  0.201445  0.868752  0.565974  1
  Si  Si21  1  0.631845  0.702147  0.816451  1
  Si  Si22  1  0.369842  0.298539  0.316058  1
  Si  Si23  1  0.868187  0.201174  0.433743  1
  Si  Si24  1  0.129299  0.800652  0.934478  1
  Si  Si25  1  0.701517  0.630386  0.182699  1
  Si  Si26  1  0.297100  0.368332  0.683167  1
  Si  Si27  1  0.529316  0.214030  0.926694  1
  Si  Si28  1  0.455939  0.790008  0.435305  1
  Si  Si29  1  0.708208  0.955894  0.685205  1
  Si  Si30  1  0.292106  0.044718  0.185760  1
  Si  Si31  1  0.791512  0.456091  0.564939  1
  Si  Si32  1  0.210331  0.544258  0.064545  1
  Si  Si33  1  0.956578  0.708849  0.316675  1
  Si  Si34  1  0.043172  0.291116  0.814693  1
  Se  Se35  1  0.810026  0.125776  0.072938  1
