# generated using pymatgen
data_NaLa2Nd4OsBr12
_symmetry_space_group_name_H-M   'P 1'
_cell_length_a   9.61668834
_cell_length_b   9.62648101
_cell_length_c   9.61523169
_cell_angle_alpha   106.98320318
_cell_angle_beta   107.23862744
_cell_angle_gamma   107.38873026
_symmetry_Int_Tables_number   1
_chemical_formula_structural   NaLa2Nd4OsBr12
_chemical_formula_sum   'Na1 La2 Nd4 Os1 Br12'
_cell_volume   737.14618547
_cell_formula_units_Z   1
loop_
 _symmetry_equiv_pos_site_id
 _symmetry_equiv_pos_as_xyz
  1  'x, y, z'
loop_
 _atom_site_type_symbol
 _atom_site_label
 _atom_site_symmetry_multiplicity
 _atom_site_fract_x
 _atom_site_fract_y
 _atom_site_fract_z
 _atom_site_occupancy
  Na  Na0  1  0.499942  0.500003  0.500153  1
  La  La1  1  0.112369  0.321061  0.030910  1
  La  La2  1  0.321557  0.031690  0.112842  1
  Nd  Nd3  1  0.031707  0.111054  0.319577  1
  Nd  Nd4  1  0.967947  0.887429  0.680162  1
  Nd  Nd5  1  0.681840  0.967976  0.887654  1
  Nd  Nd6  1  0.886373  0.681878  0.968195  1
  Os  Os7  1  0.003040  0.002051  0.000512  1
  Br  Br8  1  0.213807  0.682197  0.070334  1
  Br  Br9  1  0.458570  0.376051  0.157870  1
  Br  Br10  1  0.687104  0.071436  0.216638  1
  Br  Br11  1  0.928964  0.782402  0.314321  1
  Br  Br12  1  0.155189  0.452468  0.375696  1
  Br  Br13  1  0.370870  0.156826  0.457362  1
  Br  Br14  1  0.628449  0.845194  0.547569  1
  Br  Br15  1  0.844874  0.547490  0.629605  1
  Br  Br16  1  0.069338  0.213896  0.680086  1
  Br  Br17  1  0.313692  0.926889  0.778599  1
  Br  Br18  1  0.546616  0.628648  0.844868  1
  Br  Br19  1  0.777752  0.313364  0.927050  1
