# generated using pymatgen
data_SnBiF7
_symmetry_space_group_name_H-M   'P 1'
_cell_length_a   5.77554800
_cell_length_b   9.27776002
_cell_length_c   12.37989391
_cell_angle_alpha   61.95421270
_cell_angle_beta   90.00000000
_cell_angle_gamma   90.00000000
_symmetry_Int_Tables_number   1
_chemical_formula_structural   SnBiF7
_chemical_formula_sum   'Sn4 Bi4 F28'
_cell_volume   585.46841222
_cell_formula_units_Z   4
loop_
 _symmetry_equiv_pos_site_id
 _symmetry_equiv_pos_as_xyz
  1  'x, y, z'
loop_
 _atom_site_type_symbol
 _atom_site_label
 _atom_site_symmetry_multiplicity
 _atom_site_fract_x
 _atom_site_fract_y
 _atom_site_fract_z
 _atom_site_occupancy
  Sn  Sn0  1  0.743334  0.273254  0.457241  1
  Sn  Sn1  1  0.243334  0.726746  0.042759  1
  Sn  Sn2  1  0.256666  0.726746  0.542759  1
  Sn  Sn3  1  0.756666  0.273254  0.957241  1
  Bi  Bi4  1  0.741002  0.815197  0.263247  1
  Bi  Bi5  1  0.241002  0.184803  0.236753  1
  Bi  Bi6  1  0.258998  0.184803  0.736753  1
  Bi  Bi7  1  0.758998  0.815197  0.763247  1
  F  F8  1  0.448438  0.709950  0.919376  1
  F  F9  1  0.948438  0.290050  0.580624  1
  F  F10  1  0.551562  0.290050  0.080624  1
  F  F11  1  0.051562  0.709950  0.419376  1
  F  F12  1  0.452736  0.280794  0.544601  1
  F  F13  1  0.952736  0.719206  0.955399  1
  F  F14  1  0.547264  0.719206  0.455399  1
  F  F15  1  0.047264  0.280794  0.044601  1
  F  F16  1  0.770100  0.515463  0.860809  1
  F  F17  1  0.270100  0.484537  0.639191  1
  F  F18  1  0.229900  0.484537  0.139191  1
  F  F19  1  0.729900  0.515463  0.360809  1
  F  F20  1  0.759183  0.028025  0.053828  1
  F  F21  1  0.259183  0.971975  0.446172  1
  F  F22  1  0.240817  0.971975  0.946172  1
  F  F23  1  0.740817  0.028025  0.553828  1
  F  F24  1  0.979979  0.730993  0.639391  1
  F  F25  1  0.479979  0.269007  0.860609  1
  F  F26  1  0.020021  0.269007  0.360609  1
  F  F27  1  0.520021  0.730993  0.139391  1
  F  F28  1  0.047165  0.744996  0.170064  1
  F  F29  1  0.547165  0.255004  0.329936  1
  F  F30  1  0.952835  0.255004  0.829936  1
  F  F31  1  0.452835  0.744996  0.670064  1
  F  F32  1  0.413656  0.969050  0.232313  1
  F  F33  1  0.913656  0.030950  0.267687  1
  F  F34  1  0.586344  0.030950  0.767687  1
  F  F35  1  0.086344  0.969050  0.732313  1
