# generated using pymatgen
data_Nb3FeCoReN
_symmetry_space_group_name_H-M   'P 1'
_cell_length_a   8.13399002
_cell_length_b   8.13399008
_cell_length_c   8.13399000
_cell_angle_alpha   60.00000032
_cell_angle_beta   60.00000009
_cell_angle_gamma   59.99999794
_symmetry_Int_Tables_number   1
_chemical_formula_structural   Nb3FeCoReN
_chemical_formula_sum   'Nb12 Fe4 Co4 Re4 N4'
_cell_volume   380.53613653
_cell_formula_units_Z   4
loop_
 _symmetry_equiv_pos_site_id
 _symmetry_equiv_pos_as_xyz
  1  'x, y, z'
loop_
 _atom_site_type_symbol
 _atom_site_label
 _atom_site_symmetry_multiplicity
 _atom_site_fract_x
 _atom_site_fract_y
 _atom_site_fract_z
 _atom_site_occupancy
  Nb  Nb0  1  0.806127  0.806127  0.193873  1
  Nb  Nb1  1  0.193873  0.193873  0.806127  1
  Nb  Nb2  1  0.806127  0.193873  0.806127  1
  Nb  Nb3  1  0.193873  0.806127  0.193873  1
  Nb  Nb4  1  0.193873  0.806127  0.806127  1
  Nb  Nb5  1  0.806127  0.193873  0.193873  1
  Nb  Nb6  1  0.442864  0.442864  0.057136  1
  Nb  Nb7  1  0.057136  0.057136  0.442864  1
  Nb  Nb8  1  0.442864  0.057136  0.442864  1
  Nb  Nb9  1  0.057136  0.442864  0.057136  1
  Nb  Nb10  1  0.057136  0.442864  0.442864  1
  Nb  Nb11  1  0.442864  0.057136  0.057136  1
  Fe  Fe12  1  0.728287  0.423904  0.423904  1
  Fe  Fe13  1  0.423904  0.728287  0.423904  1
  Fe  Fe14  1  0.423904  0.423904  0.728287  1
  Fe  Fe15  1  0.423904  0.423904  0.423904  1
  Co  Co16  1  0.518196  0.827268  0.827268  1
  Co  Co17  1  0.827268  0.518196  0.827268  1
  Co  Co18  1  0.827268  0.827268  0.518196  1
  Co  Co19  1  0.827268  0.827268  0.827268  1
  Re  Re20  1  0.125018  0.624994  0.624994  1
  Re  Re21  1  0.624994  0.125018  0.624994  1
  Re  Re22  1  0.624994  0.624994  0.125018  1
  Re  Re23  1  0.624994  0.624994  0.624994  1
  N  N24  1  0.624640  0.125120  0.125120  1
  N  N25  1  0.125120  0.624640  0.125120  1
  N  N26  1  0.125120  0.125120  0.624640  1
  N  N27  1  0.125120  0.125120  0.125120  1
