# generated using pymatgen
data_Er2Tm9ThCo4
_symmetry_space_group_name_H-M   'P 1'
_cell_length_a   6.15802831
_cell_length_b   6.86243102
_cell_length_c   9.35638613
_cell_angle_alpha   90.00247767
_cell_angle_beta   89.98075704
_cell_angle_gamma   91.00205401
_symmetry_Int_Tables_number   1
_chemical_formula_structural   Er2Tm9ThCo4
_chemical_formula_sum   'Er2 Tm9 Th1 Co4'
_cell_volume   395.33144810
_cell_formula_units_Z   1
loop_
 _symmetry_equiv_pos_site_id
 _symmetry_equiv_pos_as_xyz
  1  'x, y, z'
loop_
 _atom_site_type_symbol
 _atom_site_label
 _atom_site_symmetry_multiplicity
 _atom_site_fract_x
 _atom_site_fract_y
 _atom_site_fract_z
 _atom_site_occupancy
  Er  Er0  1  0.174521  0.175088  0.067918  1
  Er  Er1  1  0.358188  0.957144  0.749831  1
  Tm  Tm2  1  0.327387  0.675401  0.066388  1
  Tm  Tm3  1  0.174487  0.174931  0.432256  1
  Tm  Tm4  1  0.676619  0.323749  0.569516  1
  Tm  Tm5  1  0.822742  0.827679  0.930091  1
  Tm  Tm6  1  0.676554  0.323853  0.930354  1
  Tm  Tm7  1  0.822824  0.827733  0.569867  1
  Tm  Tm8  1  0.327201  0.675424  0.433563  1
  Tm  Tm9  1  0.639508  0.041480  0.250190  1
  Tm  Tm10  1  0.143161  0.456654  0.749830  1
  Th  Th11  1  0.848336  0.552969  0.250128  1
  Co  Co12  1  0.043574  0.872406  0.250086  1
  Co  Co13  1  0.464421  0.388270  0.250174  1
  Co  Co14  1  0.953328  0.114397  0.749779  1
  Co  Co15  1  0.547149  0.612819  0.750030  1
