# generated using pymatgen
data_Dy4Er(Tm5Sb4)3
_symmetry_space_group_name_H-M   'P 1'
_cell_length_a   7.99717588
_cell_length_b   9.20586500
_cell_length_c   11.63906800
_cell_angle_alpha   90.00000000
_cell_angle_beta   90.02692420
_cell_angle_gamma   90.00000000
_symmetry_Int_Tables_number   1
_chemical_formula_structural   Dy4Er(Tm5Sb4)3
_chemical_formula_sum   'Dy4 Er1 Tm15 Sb12'
_cell_volume   856.87881765
_cell_formula_units_Z   1
loop_
 _symmetry_equiv_pos_site_id
 _symmetry_equiv_pos_as_xyz
  1  'x, y, z'
loop_
 _atom_site_type_symbol
 _atom_site_label
 _atom_site_symmetry_multiplicity
 _atom_site_fract_x
 _atom_site_fract_y
 _atom_site_fract_z
 _atom_site_occupancy
  Dy  Dy0  1  0.314998  0.250000  0.219361  1
  Dy  Dy1  1  0.815043  0.250000  0.280657  1
  Dy  Dy2  1  0.685287  0.750000  0.780475  1
  Dy  Dy3  1  0.185086  0.750000  0.719358  1
  Er  Er4  1  0.352273  0.750000  0.215234  1
  Tm  Tm5  1  0.852058  0.750000  0.284336  1
  Tm  Tm6  1  0.647728  0.250000  0.784399  1
  Tm  Tm7  1  0.147643  0.250000  0.715753  1
  Tm  Tm8  1  0.692319  0.561692  0.060044  1
  Tm  Tm9  1  0.192297  0.938337  0.439969  1
  Tm  Tm10  1  0.307667  0.061664  0.939880  1
  Tm  Tm11  1  0.807750  0.438294  0.560269  1
  Tm  Tm12  1  0.307667  0.438336  0.939880  1
  Tm  Tm13  1  0.807750  0.061706  0.560269  1
  Tm  Tm14  1  0.692319  0.938308  0.060044  1
  Tm  Tm15  1  0.192297  0.561663  0.439969  1
  Tm  Tm16  1  0.474179  0.250000  0.488935  1
  Tm  Tm17  1  0.974091  0.250000  0.011153  1
  Tm  Tm18  1  0.525924  0.750000  0.511415  1
  Tm  Tm19  1  0.025853  0.750000  0.988780  1
  Sb  Sb20  1  0.408389  0.750000  0.959275  1
  Sb  Sb21  1  0.908272  0.750000  0.539786  1
  Sb  Sb22  1  0.591698  0.250000  0.039815  1
  Sb  Sb23  1  0.091721  0.250000  0.460252  1
  Sb  Sb24  1  0.565979  0.994754  0.327279  1
  Sb  Sb25  1  0.065369  0.505343  0.172951  1
  Sb  Sb26  1  0.434245  0.494462  0.673032  1
  Sb  Sb27  1  0.934254  0.005506  0.827085  1
  Sb  Sb28  1  0.434245  0.005538  0.673032  1
  Sb  Sb29  1  0.934254  0.494494  0.827085  1
  Sb  Sb30  1  0.565979  0.505246  0.327279  1
  Sb  Sb31  1  0.065369  0.994657  0.172951  1
