# generated using pymatgen
data_Y4Al18Ir5Au
_symmetry_space_group_name_H-M   'P 1'
_cell_length_a   7.59433508
_cell_length_b   7.59433504
_cell_length_c   9.48641351
_cell_angle_alpha   89.98113128
_cell_angle_beta   89.98112987
_cell_angle_gamma   119.61370709
_symmetry_Int_Tables_number   1
_chemical_formula_structural   Y4Al18Ir5Au
_chemical_formula_sum   'Y4 Al18 Ir5 Au1'
_cell_volume   475.65216965
_cell_formula_units_Z   1
loop_
 _symmetry_equiv_pos_site_id
 _symmetry_equiv_pos_as_xyz
  1  'x, y, z'
loop_
 _atom_site_type_symbol
 _atom_site_label
 _atom_site_symmetry_multiplicity
 _atom_site_fract_x
 _atom_site_fract_y
 _atom_site_fract_z
 _atom_site_occupancy
  Y  Y0  1  0.995692  0.673045  0.251144  1
  Y  Y1  1  0.004308  0.326955  0.748856  1
  Y  Y2  1  0.673045  0.995692  0.251144  1
  Y  Y3  1  0.326955  0.004308  0.748856  1
  Al  Al4  1  0.134941  0.134941  0.256400  1
  Al  Al5  1  0.865059  0.865059  0.743600  1
  Al  Al6  1  0.001439  0.344259  0.079106  1
  Al  Al7  1  0.998561  0.655741  0.920894  1
  Al  Al8  1  0.000238  0.664795  0.573324  1
  Al  Al9  1  0.335205  0.999762  0.426676  1
  Al  Al10  1  0.999762  0.335205  0.426676  1
  Al  Al11  1  0.664795  0.000238  0.573324  1
  Al  Al12  1  0.655741  0.998561  0.920894  1
  Al  Al13  1  0.344259  0.001439  0.079106  1
  Al  Al14  1  0.333180  0.333180  0.552064  1
  Al  Al15  1  0.666820  0.666820  0.447936  1
  Al  Al16  1  0.657982  0.657982  0.058480  1
  Al  Al17  1  0.342018  0.342018  0.941520  1
  Al  Al18  1  0.339086  0.549573  0.251344  1
  Al  Al19  1  0.660914  0.450427  0.748656  1
  Al  Al20  1  0.549573  0.339086  0.251344  1
  Al  Al21  1  0.450427  0.660914  0.748656  1
  Ir  Ir22  1  0.671695  0.328305  0.000000  1
  Ir  Ir23  1  0.328305  0.671695  0.000000  1
  Ir  Ir24  1  0.328352  0.671648  0.500000  1
  Ir  Ir25  1  0.671648  0.328352  0.500000  1
  Ir  Ir26  1  0.000000  0.000000  0.500000  1
  Au  Au27  1  0.000000  0.000000  0.000000  1
