# generated using pymatgen
data_Rb2Ce(TeO4)3
_symmetry_space_group_name_H-M   'P 1'
_cell_length_a   7.72570995
_cell_length_b   7.36244242
_cell_length_c   7.72575911
_cell_angle_alpha   90.00000181
_cell_angle_beta   56.91361790
_cell_angle_gamma   118.45638742
_symmetry_Int_Tables_number   1
_chemical_formula_structural   Rb2Ce(TeO4)3
_chemical_formula_sum   'Rb2 Ce1 Te3 O12'
_cell_volume   302.84775824
_cell_formula_units_Z   1
loop_
 _symmetry_equiv_pos_site_id
 _symmetry_equiv_pos_as_xyz
  1  'x, y, z'
loop_
 _atom_site_type_symbol
 _atom_site_label
 _atom_site_symmetry_multiplicity
 _atom_site_fract_x
 _atom_site_fract_y
 _atom_site_fract_z
 _atom_site_occupancy
  Rb  Rb0  1  0.230933  0.112794  0.615497  1
  Rb  Rb1  1  0.769067  0.881861  0.384503  1
  Ce  Ce2  1  0.000000  0.496991  0.000000  1
  Te  Te3  1  0.500128  0.497401  0.000030  1
  Te  Te4  1  0.499872  0.997273  0.999970  1
  Te  Te5  1  0.000000  0.497359  0.500000  1
  O  O6  1  0.636941  0.815849  0.918885  1
  O  O7  1  0.864004  0.429380  0.346200  1
  O  O8  1  0.278212  0.429349  0.932001  1
  O  O9  1  0.237450  0.815854  0.318451  1
  O  O10  1  0.278218  0.843581  0.932012  1
  O  O11  1  0.237357  0.416240  0.318455  1
  O  O12  1  0.363059  0.178906  0.081115  1
  O  O13  1  0.135996  0.565377  0.653800  1
  O  O14  1  0.721782  0.565362  0.067988  1
  O  O15  1  0.762643  0.178884  0.681545  1
  O  O16  1  0.721788  0.151137  0.067999  1
  O  O17  1  0.762550  0.578404  0.681549  1
