# generated using pymatgen
data_EuTh7TiSe17
_symmetry_space_group_name_H-M   'P 1'
_cell_length_a   8.64155432
_cell_length_b   8.65818017
_cell_length_c   11.47419400
_cell_angle_alpha   80.79449032
_cell_angle_beta   80.48793198
_cell_angle_gamma   65.37772249
_symmetry_Int_Tables_number   1
_chemical_formula_structural   EuTh7TiSe17
_chemical_formula_sum   'Eu1 Th7 Ti1 Se17'
_cell_volume   765.72453688
_cell_formula_units_Z   1
loop_
 _symmetry_equiv_pos_site_id
 _symmetry_equiv_pos_as_xyz
  1  'x, y, z'
loop_
 _atom_site_type_symbol
 _atom_site_label
 _atom_site_symmetry_multiplicity
 _atom_site_fract_x
 _atom_site_fract_y
 _atom_site_fract_z
 _atom_site_occupancy
  Eu  Eu0  1  0.812861  0.304221  0.295418  1
  Th  Th1  1  0.300272  0.818021  0.296824  1
  Th  Th2  1  0.182587  0.698176  0.701671  1
  Th  Th3  1  0.702343  0.184620  0.700438  1
  Th  Th4  1  0.206190  0.202081  0.539203  1
  Th  Th5  1  0.794473  0.791335  0.461133  1
  Th  Th6  1  0.677409  0.680173  0.985769  1
  Th  Th7  1  0.319195  0.326467  0.016938  1
  Ti  Ti8  1  0.999435  0.012753  0.007475  1
  Se  Se9  1  0.832499  0.426442  0.539268  1
  Se  Se10  1  0.429119  0.821811  0.531305  1
  Se  Se11  1  0.173992  0.568469  0.469431  1
  Se  Se12  1  0.573249  0.162735  0.477964  1
  Se  Se13  1  0.943583  0.323159  0.020369  1
  Se  Se14  1  0.319951  0.947708  0.026598  1
  Se  Se15  1  0.053559  0.678698  0.967154  1
  Se  Se16  1  0.679495  0.059846  0.968953  1
  Se  Se17  1  0.223899  0.195202  0.276800  1
  Se  Se18  1  0.791148  0.793415  0.725133  1
  Se  Se19  1  0.059504  0.050827  0.775654  1
  Se  Se20  1  0.948306  0.931385  0.224360  1
  Se  Se21  1  0.307498  0.306757  0.751426  1
  Se  Se22  1  0.682569  0.710429  0.244692  1
  Se  Se23  1  0.516591  0.517685  0.833855  1
  Se  Se24  1  0.465176  0.499294  0.155963  1
  Se  Se25  1  0.005101  0.988290  0.506200  1
