# generated using pymatgen
data_Pr4CrFe2RhO12
_symmetry_space_group_name_H-M   'P 1'
_cell_length_a   5.53320906
_cell_length_b   5.69759379
_cell_length_c   7.88659814
_cell_angle_alpha   90.30109231
_cell_angle_beta   90.12076160
_cell_angle_gamma   89.98145074
_symmetry_Int_Tables_number   1
_chemical_formula_structural   Pr4CrFe2RhO12
_chemical_formula_sum   'Pr4 Cr1 Fe2 Rh1 O12'
_cell_volume   248.62871844
_cell_formula_units_Z   1
loop_
 _symmetry_equiv_pos_site_id
 _symmetry_equiv_pos_as_xyz
  1  'x, y, z'
loop_
 _atom_site_type_symbol
 _atom_site_label
 _atom_site_symmetry_multiplicity
 _atom_site_fract_x
 _atom_site_fract_y
 _atom_site_fract_z
 _atom_site_occupancy
  Pr  Pr0  1  0.011805  0.945467  0.750140  1
  Pr  Pr1  1  0.515132  0.553725  0.249788  1
  Pr  Pr2  1  0.484868  0.446275  0.750212  1
  Pr  Pr3  1  0.988195  0.054533  0.249860  1
  Cr  Cr4  1  0.500000  0.000000  0.000000  1
  Fe  Fe5  1  0.500000  0.000000  0.500000  1
  Fe  Fe6  1  0.000000  0.500000  0.000000  1
  Rh  Rh7  1  0.000000  0.500000  0.500000  1
  O  O8  1  0.700248  0.290564  0.450283  1
  O  O9  1  0.206202  0.202589  0.549049  1
  O  O10  1  0.793217  0.793680  0.047645  1
  O  O11  1  0.294258  0.707391  0.952807  1
  O  O12  1  0.299752  0.709436  0.549717  1
  O  O13  1  0.793798  0.797411  0.450951  1
  O  O14  1  0.206783  0.206320  0.952355  1
  O  O15  1  0.705742  0.292609  0.047193  1
  O  O16  1  0.093329  0.473745  0.246439  1
  O  O17  1  0.588766  0.025204  0.750583  1
  O  O18  1  0.411234  0.974796  0.249417  1
  O  O19  1  0.906671  0.526255  0.753561  1
