# generated using pymatgen
data_Yb6Er2Cu3Si12Pd
_symmetry_space_group_name_H-M   'P 1'
_cell_length_a   8.12268000
_cell_length_b   8.12268067
_cell_length_c   8.11973400
_cell_angle_alpha   90.00000000
_cell_angle_beta   90.00000000
_cell_angle_gamma   119.99999727
_symmetry_Int_Tables_number   1
_chemical_formula_structural   Yb6Er2Cu3Si12Pd
_chemical_formula_sum   'Yb6 Er2 Cu3 Si12 Pd1'
_cell_volume   463.94999020
_cell_formula_units_Z   1
loop_
 _symmetry_equiv_pos_site_id
 _symmetry_equiv_pos_as_xyz
  1  'x, y, z'
loop_
 _atom_site_type_symbol
 _atom_site_label
 _atom_site_symmetry_multiplicity
 _atom_site_fract_x
 _atom_site_fract_y
 _atom_site_fract_z
 _atom_site_occupancy
  Yb  Yb0  1  0.499784  0.999568  0.251915  1
  Yb  Yb1  1  0.499248  0.998495  0.748110  1
  Yb  Yb2  1  0.000432  0.500216  0.251915  1
  Yb  Yb3  1  0.001505  0.500752  0.748110  1
  Yb  Yb4  1  0.499784  0.500216  0.251915  1
  Yb  Yb5  1  0.499248  0.500752  0.748110  1
  Er  Er6  1  0.000000  0.000000  0.250550  1
  Er  Er7  1  0.000000  0.000000  0.749291  1
  Cu  Cu8  1  0.333333  0.666667  0.001395  1
  Cu  Cu9  1  0.666667  0.333333  0.999031  1
  Cu  Cu10  1  0.666667  0.333333  0.500882  1
  Si  Si11  1  0.166450  0.332902  0.999989  1
  Si  Si12  1  0.833907  0.667814  0.999946  1
  Si  Si13  1  0.667098  0.833550  0.999989  1
  Si  Si14  1  0.834499  0.668998  0.500256  1
  Si  Si15  1  0.332186  0.166093  0.999946  1
  Si  Si16  1  0.164169  0.328338  0.499780  1
  Si  Si17  1  0.166450  0.833550  0.999989  1
  Si  Si18  1  0.331002  0.165501  0.500256  1
  Si  Si19  1  0.833907  0.166093  0.999946  1
  Si  Si20  1  0.671662  0.835831  0.499780  1
  Si  Si21  1  0.834499  0.165501  0.500256  1
  Si  Si22  1  0.164169  0.835831  0.499780  1
  Pd  Pd23  1  0.333333  0.666667  0.498868  1
