# generated using pymatgen
data_CuNiAg8(TeO6)2
_symmetry_space_group_name_H-M   'P 1'
_cell_length_a   9.12629300
_cell_length_b   9.12629397
_cell_length_c   5.53995777
_cell_angle_alpha   62.36804629
_cell_angle_beta   62.36804977
_cell_angle_gamma   67.34248666
_symmetry_Int_Tables_number   1
_chemical_formula_structural   CuNiAg8(TeO6)2
_chemical_formula_sum   'Cu1 Ni1 Ag8 Te2 O12'
_cell_volume   353.55792887
_cell_formula_units_Z   1
loop_
 _symmetry_equiv_pos_site_id
 _symmetry_equiv_pos_as_xyz
  1  'x, y, z'
loop_
 _atom_site_type_symbol
 _atom_site_label
 _atom_site_symmetry_multiplicity
 _atom_site_fract_x
 _atom_site_fract_y
 _atom_site_fract_z
 _atom_site_occupancy
  Cu  Cu0  1  0.077661  0.922339  0.750000  1
  Ni  Ni1  1  0.920089  0.079911  0.250000  1
  Ag  Ag2  1  0.428203  0.571797  0.750000  1
  Ag  Ag3  1  0.354436  0.144905  0.998820  1
  Ag  Ag4  1  0.568746  0.431254  0.250000  1
  Ag  Ag5  1  0.147031  0.345430  0.537111  1
  Ag  Ag6  1  0.855095  0.645564  0.501180  1
  Ag  Ag7  1  0.654570  0.852969  0.962889  1
  Ag  Ag8  1  0.494260  0.999280  0.494768  1
  Ag  Ag9  1  0.000720  0.505740  0.005232  1
  Te  Te10  1  0.771421  0.228579  0.750000  1
  Te  Te11  1  0.226665  0.773335  0.250000  1
  O  O12  1  0.455075  0.726687  0.244852  1
  O  O13  1  0.722334  0.452066  0.761248  1
  O  O14  1  0.993875  0.835386  0.244096  1
  O  O15  1  0.547934  0.277666  0.738752  1
  O  O16  1  0.273313  0.544925  0.255148  1
  O  O17  1  0.870048  0.303567  0.320917  1
  O  O18  1  0.296228  0.862814  0.817580  1
  O  O19  1  0.696433  0.129952  0.179083  1
  O  O20  1  0.164614  0.006125  0.255904  1
  O  O21  1  0.843840  0.999778  0.708590  1
  O  O22  1  0.137186  0.703772  0.682420  1
  O  O23  1  0.000222  0.156160  0.791410  1
