# generated using pymatgen
data_TbEu2BeO5
_symmetry_space_group_name_H-M   'P 1'
_cell_length_a   6.53724800
_cell_length_b   7.12894000
_cell_length_c   9.51378500
_cell_angle_alpha   90.00000000
_cell_angle_beta   90.00000000
_cell_angle_gamma   90.00000000
_symmetry_Int_Tables_number   1
_chemical_formula_structural   TbEu2BeO5
_chemical_formula_sum   'Tb4 Eu8 Be4 O20'
_cell_volume   443.37709449
_cell_formula_units_Z   4
loop_
 _symmetry_equiv_pos_site_id
 _symmetry_equiv_pos_as_xyz
  1  'x, y, z'
loop_
 _atom_site_type_symbol
 _atom_site_label
 _atom_site_symmetry_multiplicity
 _atom_site_fract_x
 _atom_site_fract_y
 _atom_site_fract_z
 _atom_site_occupancy
  Tb  Tb0  1  0.407995  0.750000  0.979885  1
  Tb  Tb1  1  0.092005  0.750000  0.479885  1
  Tb  Tb2  1  0.592005  0.250000  0.020115  1
  Tb  Tb3  1  0.907995  0.250000  0.520115  1
  Eu  Eu4  1  0.918509  0.520627  0.825880  1
  Eu  Eu5  1  0.418509  0.020627  0.674120  1
  Eu  Eu6  1  0.581491  0.979373  0.325880  1
  Eu  Eu7  1  0.081491  0.479373  0.174120  1
  Eu  Eu8  1  0.418509  0.479373  0.674120  1
  Eu  Eu9  1  0.918509  0.979373  0.825880  1
  Eu  Eu10  1  0.581491  0.520627  0.325880  1
  Eu  Eu11  1  0.081491  0.020627  0.174120  1
  Be  Be12  1  0.193737  0.250000  0.899817  1
  Be  Be13  1  0.806263  0.750000  0.100183  1
  Be  Be14  1  0.306263  0.250000  0.399817  1
  Be  Be15  1  0.693737  0.750000  0.600183  1
  O  O16  1  0.131206  0.250000  0.724560  1
  O  O17  1  0.314322  0.443801  0.932865  1
  O  O18  1  0.838076  0.250000  0.283273  1
  O  O19  1  0.661924  0.250000  0.783273  1
  O  O20  1  0.685678  0.943801  0.067135  1
  O  O21  1  0.314322  0.056199  0.932865  1
  O  O22  1  0.368794  0.250000  0.224560  1
  O  O23  1  0.477509  0.750000  0.509746  1
  O  O24  1  0.868794  0.750000  0.275440  1
  O  O25  1  0.338076  0.750000  0.216727  1
  O  O26  1  0.022491  0.750000  0.009746  1
  O  O27  1  0.814322  0.556199  0.567135  1
  O  O28  1  0.522491  0.250000  0.490254  1
  O  O29  1  0.161924  0.750000  0.716727  1
  O  O30  1  0.685678  0.556199  0.067135  1
  O  O31  1  0.185678  0.443801  0.432865  1
  O  O32  1  0.814322  0.943801  0.567135  1
  O  O33  1  0.631206  0.750000  0.775440  1
  O  O34  1  0.977509  0.250000  0.990254  1
  O  O35  1  0.185678  0.056199  0.432865  1
