# generated using pymatgen
data_Sm4Y12CdNi4Ag3
_symmetry_space_group_name_H-M   'P 1'
_cell_length_a   9.53211459
_cell_length_b   9.54248419
_cell_length_c   9.54303202
_cell_angle_alpha   59.99807770
_cell_angle_beta   59.95587042
_cell_angle_gamma   59.95555845
_symmetry_Int_Tables_number   1
_chemical_formula_structural   Sm4Y12CdNi4Ag3
_chemical_formula_sum   'Sm4 Y12 Cd1 Ni4 Ag3'
_cell_volume   613.37314084
_cell_formula_units_Z   1
loop_
 _symmetry_equiv_pos_site_id
 _symmetry_equiv_pos_as_xyz
  1  'x, y, z'
loop_
 _atom_site_type_symbol
 _atom_site_label
 _atom_site_symmetry_multiplicity
 _atom_site_fract_x
 _atom_site_fract_y
 _atom_site_fract_z
 _atom_site_occupancy
  Sm  Sm0  1  0.602178  0.601189  0.601183  1
  Sm  Sm1  1  0.602172  0.601190  0.195443  1
  Sm  Sm2  1  0.602175  0.195438  0.601187  1
  Sm  Sm3  1  0.191935  0.602691  0.602677  1
  Y  Y4  1  0.062010  0.437867  0.437867  1
  Y  Y5  1  0.437325  0.062404  0.062408  1
  Y  Y6  1  0.437323  0.062420  0.437856  1
  Y  Y7  1  0.061995  0.437865  0.062267  1
  Y  Y8  1  0.437322  0.437857  0.062422  1
  Y  Y9  1  0.062001  0.062264  0.437864  1
  Y  Y10  1  0.183406  0.814621  0.814623  1
  Y  Y11  1  0.814519  0.185381  0.185378  1
  Y  Y12  1  0.814513  0.185382  0.814720  1
  Y  Y13  1  0.183404  0.814630  0.187340  1
  Y  Y14  1  0.814515  0.814720  0.185379  1
  Y  Y15  1  0.183403  0.187343  0.814629  1
  Cd  Cd16  1  0.512860  0.829041  0.829046  1
  Ni  Ni17  1  0.391984  0.393106  0.393100  1
  Ni  Ni18  1  0.391985  0.393058  0.821889  1
  Ni  Ni19  1  0.392002  0.821876  0.393054  1
  Ni  Ni20  1  0.822126  0.392617  0.392623  1
  Ag  Ag21  1  0.832946  0.833024  0.833030  1
  Ag  Ag22  1  0.832955  0.833022  0.500984  1
  Ag  Ag23  1  0.832945  0.500994  0.833032  1
