# generated using pymatgen
data_Nd3YB4I5
_symmetry_space_group_name_H-M   'P 1'
_cell_length_a   9.83477660
_cell_length_b   9.83477528
_cell_length_c   9.96012877
_cell_angle_alpha   74.87221171
_cell_angle_beta   74.87221423
_cell_angle_gamma   25.38673310
_symmetry_Int_Tables_number   1
_chemical_formula_structural   Nd3YB4I5
_chemical_formula_sum   'Nd3 Y1 B4 I5'
_cell_volume   397.96981371
_cell_formula_units_Z   1
loop_
 _symmetry_equiv_pos_site_id
 _symmetry_equiv_pos_as_xyz
  1  'x, y, z'
loop_
 _atom_site_type_symbol
 _atom_site_label
 _atom_site_symmetry_multiplicity
 _atom_site_fract_x
 _atom_site_fract_y
 _atom_site_fract_z
 _atom_site_occupancy
  Nd  Nd0  1  0.496805  0.496805  0.251610  1
  Nd  Nd1  1  0.133331  0.133331  0.930946  1
  Nd  Nd2  1  0.867933  0.867933  0.063550  1
  Y  Y3  1  0.504420  0.504420  0.757648  1
  B  B4  1  0.315674  0.685642  0.999527  1
  B  B5  1  0.685642  0.315674  0.999527  1
  B  B6  1  0.000028  0.000028  0.094802  1
  B  B7  1  0.001349  0.001349  0.903324  1
  I  I8  1  0.672757  0.672757  0.676095  1
  I  I9  1  0.324328  0.324328  0.318385  1
  I  I10  1  0.332392  0.332392  0.839854  1
  I  I11  1  0.674155  0.674155  0.146719  1
  I  I12  1  0.005482  0.005482  0.508217  1
