# generated using pymatgen
data_Th3Sb4Ir3
_symmetry_space_group_name_H-M   'P 1'
_cell_length_a   8.56029240
_cell_length_b   8.56029264
_cell_length_c   8.56029300
_cell_angle_alpha   109.47122148
_cell_angle_beta   109.47122206
_cell_angle_gamma   109.47121529
_symmetry_Int_Tables_number   1
_chemical_formula_structural   Th3Sb4Ir3
_chemical_formula_sum   'Th6 Sb8 Ir6'
_cell_volume   482.88527975
_cell_formula_units_Z   2
loop_
 _symmetry_equiv_pos_site_id
 _symmetry_equiv_pos_as_xyz
  1  'x, y, z'
loop_
 _atom_site_type_symbol
 _atom_site_label
 _atom_site_symmetry_multiplicity
 _atom_site_fract_x
 _atom_site_fract_y
 _atom_site_fract_z
 _atom_site_occupancy
  Th  Th0  1  0.375000  0.250000  0.625000  1
  Th  Th1  1  0.750000  0.875000  0.125000  1
  Th  Th2  1  0.250000  0.625000  0.375000  1
  Th  Th3  1  0.625000  0.375000  0.250000  1
  Th  Th4  1  0.875000  0.125000  0.750000  1
  Th  Th5  1  0.125000  0.750000  0.875000  1
  Sb  Sb6  1  0.000000  0.328804  0.500000  1
  Sb  Sb7  1  0.828804  0.500000  0.000000  1
  Sb  Sb8  1  0.500000  0.000000  0.828804  1
  Sb  Sb9  1  0.671196  0.671196  0.671196  1
  Sb  Sb10  1  0.171196  0.171196  0.171196  1
  Sb  Sb11  1  0.328804  0.500000  0.000000  1
  Sb  Sb12  1  0.500000  0.000000  0.328804  1
  Sb  Sb13  1  0.000000  0.828804  0.500000  1
  Ir  Ir14  1  0.125000  0.875000  0.250000  1
  Ir  Ir15  1  0.625000  0.750000  0.375000  1
  Ir  Ir16  1  0.875000  0.250000  0.125000  1
  Ir  Ir17  1  0.250000  0.125000  0.875000  1
  Ir  Ir18  1  0.750000  0.375000  0.625000  1
  Ir  Ir19  1  0.375000  0.625000  0.750000  1
