# generated using pymatgen
data_Lu3ScAl8
_symmetry_space_group_name_H-M   'P 1'
_cell_length_a   9.46490876
_cell_length_b   9.46490816
_cell_length_c   9.46490787
_cell_angle_alpha   33.51082463
_cell_angle_beta   33.51082973
_cell_angle_gamma   33.51082549
_symmetry_Int_Tables_number   1
_chemical_formula_structural   Lu3ScAl8
_chemical_formula_sum   'Lu3 Sc1 Al8'
_cell_volume   230.18970485
_cell_formula_units_Z   1
loop_
 _symmetry_equiv_pos_site_id
 _symmetry_equiv_pos_as_xyz
  1  'x, y, z'
loop_
 _atom_site_type_symbol
 _atom_site_label
 _atom_site_symmetry_multiplicity
 _atom_site_fract_x
 _atom_site_fract_y
 _atom_site_fract_z
 _atom_site_occupancy
  Lu  Lu0  1  0.374905  0.374905  0.374905  1
  Lu  Lu1  1  0.999233  0.999233  0.999233  1
  Lu  Lu2  1  0.500607  0.500607  0.500607  1
  Sc  Sc3  1  0.874895  0.874895  0.874895  1
  Al  Al4  1  0.437011  0.935633  0.437011  1
  Al  Al5  1  0.938014  0.439579  0.938014  1
  Al  Al6  1  0.437011  0.437011  0.935633  1
  Al  Al7  1  0.938014  0.938014  0.439579  1
  Al  Al8  1  0.187657  0.187657  0.187657  1
  Al  Al9  1  0.687444  0.687444  0.687444  1
  Al  Al10  1  0.935633  0.437011  0.437011  1
  Al  Al11  1  0.439579  0.938014  0.938014  1
