# generated using pymatgen
data_YbTmI26
_symmetry_space_group_name_H-M   'P 1'
_cell_length_a   12.99042724
_cell_length_b   11.50498632
_cell_length_c   15.20418352
_cell_angle_alpha   121.88963660
_cell_angle_beta   88.89814147
_cell_angle_gamma   103.74695987
_symmetry_Int_Tables_number   1
_chemical_formula_structural   YbTmI26
_chemical_formula_sum   'Yb1 Tm1 I26'
_cell_volume   1858.46498467
_cell_formula_units_Z   1
loop_
 _symmetry_equiv_pos_site_id
 _symmetry_equiv_pos_as_xyz
  1  'x, y, z'
loop_
 _atom_site_type_symbol
 _atom_site_label
 _atom_site_symmetry_multiplicity
 _atom_site_fract_x
 _atom_site_fract_y
 _atom_site_fract_z
 _atom_site_occupancy
  Yb  Yb0  1  0.664308  0.125925  0.064451  1
  Tm  Tm1  1  0.336529  0.874882  0.936560  1
  I  I2  1  0.381666  0.657838  0.975297  1
  I  I3  1  0.610429  0.340847  0.016138  1
  I  I4  1  0.581956  0.809097  0.392628  1
  I  I5  1  0.422990  0.192582  0.603147  1
  I  I6  1  0.734691  0.694835  0.012482  1
  I  I7  1  0.264289  0.308970  0.990957  1
  I  I8  1  0.715133  0.963884  0.167887  1
  I  I9  1  0.282164  0.034578  0.839561  1
  I  I10  1  0.435229  0.130984  0.137884  1
  I  I11  1  0.544984  0.858622  0.854451  1
  I  I12  1  0.229471  0.655347  0.709440  1
  I  I13  1  0.776032  0.350694  0.297339  1
  I  I14  1  0.115905  0.826498  0.992270  1
  I  I15  1  0.898103  0.170115  0.012186  1
  I  I16  1  0.085249  0.079673  0.201428  1
  I  I17  1  0.919621  0.921157  0.806124  1
  I  I18  1  0.276982  0.917168  0.458526  1
  I  I19  1  0.725942  0.085657  0.539211  1
  I  I20  1  0.323988  0.417873  0.648219  1
  I  I21  1  0.685701  0.584564  0.349816  1
  I  I22  1  0.858862  0.372815  0.696716  1
  I  I23  1  0.144517  0.628207  0.302823  1
  I  I24  1  0.939346  0.702728  0.603795  1
  I  I25  1  0.051564  0.296312  0.394054  1
  I  I26  1  0.255585  0.628142  0.129699  1
  I  I27  1  0.738764  0.370001  0.866914  1
