# generated using pymatgen
data_ErTm19(Cd3Ru)2
_symmetry_space_group_name_H-M   'P 1'
_cell_length_a   9.45104109
_cell_length_b   9.45104132
_cell_length_c   9.71797900
_cell_angle_alpha   90.00000000
_cell_angle_beta   90.00000000
_cell_angle_gamma   120.01622043
_symmetry_Int_Tables_number   1
_chemical_formula_structural   ErTm19(Cd3Ru)2
_chemical_formula_sum   'Er1 Tm19 Cd6 Ru2'
_cell_volume   751.61405684
_cell_formula_units_Z   1
loop_
 _symmetry_equiv_pos_site_id
 _symmetry_equiv_pos_as_xyz
  1  'x, y, z'
loop_
 _atom_site_type_symbol
 _atom_site_label
 _atom_site_symmetry_multiplicity
 _atom_site_fract_x
 _atom_site_fract_y
 _atom_site_fract_z
 _atom_site_occupancy
  Er  Er0  1  0.540546  0.459454  0.250000  1
  Tm  Tm1  1  0.000003  0.999997  0.499977  1
  Tm  Tm2  1  0.000003  0.999997  0.000023  1
  Tm  Tm3  1  0.209989  0.790011  0.441113  1
  Tm  Tm4  1  0.209717  0.419983  0.441138  1
  Tm  Tm5  1  0.580017  0.790283  0.441138  1
  Tm  Tm6  1  0.790044  0.209956  0.558873  1
  Tm  Tm7  1  0.790231  0.580115  0.559032  1
  Tm  Tm8  1  0.419885  0.209769  0.559032  1
  Tm  Tm9  1  0.790044  0.209956  0.941127  1
  Tm  Tm10  1  0.790231  0.580115  0.940968  1
  Tm  Tm11  1  0.419885  0.209769  0.940968  1
  Tm  Tm12  1  0.209989  0.790011  0.058887  1
  Tm  Tm13  1  0.209717  0.419983  0.058862  1
  Tm  Tm14  1  0.580017  0.790283  0.058862  1
  Tm  Tm15  1  0.540476  0.080643  0.250000  1
  Tm  Tm16  1  0.919357  0.459524  0.250000  1
  Tm  Tm17  1  0.459518  0.540482  0.750000  1
  Tm  Tm18  1  0.459461  0.918932  0.750000  1
  Tm  Tm19  1  0.081068  0.540539  0.750000  1
  Cd  Cd20  1  0.885445  0.114555  0.250000  1
  Cd  Cd21  1  0.885775  0.771220  0.250000  1
  Cd  Cd22  1  0.228780  0.114225  0.250000  1
  Cd  Cd23  1  0.114528  0.885472  0.750000  1
  Cd  Cd24  1  0.114529  0.229090  0.750000  1
  Cd  Cd25  1  0.770910  0.885471  0.750000  1
  Ru  Ru26  1  0.333243  0.666757  0.250000  1
  Ru  Ru27  1  0.666589  0.333411  0.750000  1
