# generated using pymatgen
data_Dy3YFe2(AuO7)2
_symmetry_space_group_name_H-M   'P 1'
_cell_length_a   7.29537676
_cell_length_b   7.34230709
_cell_length_c   7.29140377
_cell_angle_alpha   59.76861044
_cell_angle_beta   59.50520925
_cell_angle_gamma   59.78694602
_symmetry_Int_Tables_number   1
_chemical_formula_structural   Dy3YFe2(AuO7)2
_chemical_formula_sum   'Dy3 Y1 Fe2 Au2 O14'
_cell_volume   274.20161586
_cell_formula_units_Z   1
loop_
 _symmetry_equiv_pos_site_id
 _symmetry_equiv_pos_as_xyz
  1  'x, y, z'
loop_
 _atom_site_type_symbol
 _atom_site_label
 _atom_site_symmetry_multiplicity
 _atom_site_fract_x
 _atom_site_fract_y
 _atom_site_fract_z
 _atom_site_occupancy
  Dy  Dy0  1  0.500002  0.000000  0.500000  1
  Dy  Dy1  1  0.000000  0.500000  0.500000  1
  Dy  Dy2  1  0.500001  0.500000  0.500001  1
  Y  Y3  1  0.499999  0.499999  0.000002  1
  Fe  Fe4  1  0.999998  0.500007  0.999998  1
  Fe  Fe5  1  0.999998  0.999999  0.999998  1
  Au  Au6  1  0.499999  0.000001  0.000001  1
  Au  Au7  1  0.000000  0.000000  0.499999  1
  O  O8  1  0.622509  0.627766  0.621960  1
  O  O9  1  0.377491  0.372234  0.378043  1
  O  O10  1  0.341060  0.912448  0.907200  1
  O  O11  1  0.092559  0.660521  0.658631  1
  O  O12  1  0.915646  0.334880  0.914594  1
  O  O13  1  0.907442  0.911711  0.341367  1
  O  O14  1  0.341060  0.339292  0.907198  1
  O  O15  1  0.340541  0.909364  0.340741  1
  O  O16  1  0.907440  0.339481  0.341368  1
  O  O17  1  0.658940  0.660709  0.092803  1
  O  O18  1  0.092559  0.088288  0.658631  1
  O  O19  1  0.658942  0.087551  0.092800  1
  O  O20  1  0.659459  0.090637  0.659260  1
  O  O21  1  0.084355  0.665119  0.085406  1
