# generated using pymatgen
data_K8CrGaFe2F20
_symmetry_space_group_name_H-M   'P 1'
_cell_length_a   5.74585500
_cell_length_b   7.53304299
_cell_length_c   11.71879282
_cell_angle_alpha   89.86783370
_cell_angle_beta   90.00000000
_cell_angle_gamma   90.00000000
_symmetry_Int_Tables_number   1
_chemical_formula_structural   K8CrGaFe2F20
_chemical_formula_sum   'K8 Cr1 Ga1 Fe2 F20'
_cell_volume   507.23221586
_cell_formula_units_Z   1
loop_
 _symmetry_equiv_pos_site_id
 _symmetry_equiv_pos_as_xyz
  1  'x, y, z'
loop_
 _atom_site_type_symbol
 _atom_site_label
 _atom_site_symmetry_multiplicity
 _atom_site_fract_x
 _atom_site_fract_y
 _atom_site_fract_z
 _atom_site_occupancy
  K  K0  1  0.250000  0.151991  0.585675  1
  K  K1  1  0.250000  0.651054  0.913888  1
  K  K2  1  0.750000  0.844463  0.416890  1
  K  K3  1  0.750000  0.344894  0.083653  1
  K  K4  1  0.250000  0.489768  0.273171  1
  K  K5  1  0.250000  0.990072  0.227778  1
  K  K6  1  0.750000  0.511302  0.726868  1
  K  K7  1  0.750000  0.010975  0.772234  1
  Cr  Cr8  1  0.250000  0.165805  0.940854  1
  Ga  Ga9  1  0.250000  0.670055  0.561398  1
  Fe  Fe10  1  0.750000  0.331198  0.438779  1
  Fe  Fe11  1  0.750000  0.830094  0.061590  1
  F  F12  1  0.003387  0.501134  0.500232  1
  F  F13  1  0.499139  0.000469  0.999621  1
  F  F14  1  0.496613  0.501134  0.500232  1
  F  F15  1  0.000861  0.000469  0.999621  1
  F  F16  1  0.250000  0.532248  0.694659  1
  F  F17  1  0.250000  0.032594  0.801487  1
  F  F18  1  0.750000  0.472634  0.302942  1
  F  F19  1  0.750000  0.972223  0.196692  1
  F  F20  1  0.250000  0.773997  0.411846  1
  F  F21  1  0.250000  0.279228  0.091250  1
  F  F22  1  0.750000  0.224230  0.591245  1
  F  F23  1  0.750000  0.724308  0.908957  1
  F  F24  1  0.007491  0.820437  0.610882  1
  F  F25  1  0.491386  0.321274  0.888308  1
  F  F26  1  0.506050  0.177559  0.387572  1
  F  F27  1  0.994598  0.677561  0.112457  1
  F  F28  1  0.993950  0.177559  0.387572  1
  F  F29  1  0.505402  0.677561  0.112457  1
  F  F30  1  0.492509  0.820437  0.610882  1
  F  F31  1  0.008614  0.321274  0.888308  1
