# generated using pymatgen
data_Nd5Co12P12Ru7
_symmetry_space_group_name_H-M   'P 1'
_cell_length_a   12.35719024
_cell_length_b   12.32822205
_cell_length_c   3.79474500
_cell_angle_alpha   90.00000000
_cell_angle_beta   90.00000000
_cell_angle_gamma   119.85194463
_symmetry_Int_Tables_number   1
_chemical_formula_structural   Nd5Co12P12Ru7
_chemical_formula_sum   'Nd5 Co12 P12 Ru7'
_cell_volume   501.39431365
_cell_formula_units_Z   1
loop_
 _symmetry_equiv_pos_site_id
 _symmetry_equiv_pos_as_xyz
  1  'x, y, z'
loop_
 _atom_site_type_symbol
 _atom_site_label
 _atom_site_symmetry_multiplicity
 _atom_site_fract_x
 _atom_site_fract_y
 _atom_site_fract_z
 _atom_site_occupancy
  Nd  Nd0  1  0.665874  0.332688  0.000000  1
  Nd  Nd1  1  0.336759  0.666775  0.000000  1
  Nd  Nd2  1  0.184283  0.183904  0.500000  1
  Nd  Nd3  1  0.817693  0.000899  0.500000  1
  Nd  Nd4  1  0.999312  0.817087  0.500000  1
  Co  Co5  1  0.827328  0.199712  0.000000  1
  Co  Co6  1  0.797709  0.627234  0.000000  1
  Co  Co7  1  0.373598  0.171255  0.000000  1
  Co  Co8  1  0.199597  0.826376  0.000000  1
  Co  Co9  1  0.624536  0.803736  0.000000  1
  Co  Co10  1  0.179657  0.376353  0.000000  1
  Co  Co11  1  0.517158  0.871479  0.500000  1
  Co  Co12  1  0.357127  0.485934  0.500000  1
  Co  Co13  1  0.715437  0.718207  0.500000  1
  Co  Co14  1  0.283091  0.998761  0.500000  1
  Co  Co15  1  0.001307  0.283124  0.500000  1
  Co  Co16  1  0.000398  0.999688  0.000000  1
  P  P17  1  0.364022  0.370640  0.000000  1
  P  P18  1  0.631488  0.994679  0.000000  1
  P  P19  1  0.000720  0.632719  0.000000  1
  P  P20  1  0.839449  0.311920  0.500000  1
  P  P21  1  0.684784  0.526748  0.500000  1
  P  P22  1  0.473224  0.160747  0.500000  1
  P  P23  1  0.317856  0.840190  0.500000  1
  P  P24  1  0.524697  0.688177  0.500000  1
  P  P25  1  0.164943  0.473425  0.500000  1
  P  P26  1  0.816087  0.817979  0.000000  1
  P  P27  1  0.182618  0.999687  0.000000  1
  P  P28  1  0.002267  0.184040  0.000000  1
  Ru  Ru29  1  0.550050  0.558481  0.000000  1
  Ru  Ru30  1  0.442607  0.991741  0.000000  1
  Ru  Ru31  1  0.001261  0.444208  0.000000  1
  Ru  Ru32  1  0.642789  0.120945  0.500000  1
  Ru  Ru33  1  0.872946  0.518456  0.500000  1
  Ru  Ru34  1  0.477307  0.356783  0.500000  1
  Ru  Ru35  1  0.130020  0.645228  0.500000  1
