# generated using pymatgen
data_YCo3(Ni3B2)3
_symmetry_space_group_name_H-M   'P 1'
_cell_length_a   5.99326934
_cell_length_b   5.99326923
_cell_length_c   5.99327039
_cell_angle_alpha   104.40246811
_cell_angle_beta   104.40245414
_cell_angle_gamma   104.40248360
_symmetry_Int_Tables_number   1
_chemical_formula_structural   YCo3(Ni3B2)3
_chemical_formula_sum   'Y1 Co3 Ni9 B6'
_cell_volume   190.56558934
_cell_formula_units_Z   1
loop_
 _symmetry_equiv_pos_site_id
 _symmetry_equiv_pos_as_xyz
  1  'x, y, z'
loop_
 _atom_site_type_symbol
 _atom_site_label
 _atom_site_symmetry_multiplicity
 _atom_site_fract_x
 _atom_site_fract_y
 _atom_site_fract_z
 _atom_site_occupancy
  Y  Y0  1  0.000000  0.000000  0.000000  1
  Co  Co1  1  0.866708  0.133292  0.500000  1
  Co  Co2  1  0.133292  0.500000  0.866708  1
  Co  Co3  1  0.500000  0.866708  0.133292  1
  Ni  Ni4  1  0.868749  0.500000  0.131251  1
  Ni  Ni5  1  0.500000  0.131251  0.868749  1
  Ni  Ni6  1  0.131251  0.868749  0.500000  1
  Ni  Ni7  1  0.813720  0.548069  0.546061  1
  Ni  Ni8  1  0.548069  0.546061  0.813720  1
  Ni  Ni9  1  0.546061  0.813720  0.548069  1
  Ni  Ni10  1  0.186280  0.453939  0.451931  1
  Ni  Ni11  1  0.453939  0.451931  0.186280  1
  Ni  Ni12  1  0.451931  0.186280  0.453939  1
  B  B13  1  0.328965  0.764115  0.770389  1
  B  B14  1  0.764115  0.770389  0.328965  1
  B  B15  1  0.770389  0.328965  0.764115  1
  B  B16  1  0.671035  0.229611  0.235885  1
  B  B17  1  0.229611  0.235885  0.671035  1
  B  B18  1  0.235885  0.671035  0.229611  1
