# generated using pymatgen
data_Ho8ReSi4B16W
_symmetry_space_group_name_H-M   'P 1'
_cell_length_a   7.08835000
_cell_length_b   7.08835000
_cell_length_c   7.55580200
_cell_angle_alpha   90.00000000
_cell_angle_beta   90.00000000
_cell_angle_gamma   90.00000000
_symmetry_Int_Tables_number   1
_chemical_formula_structural   Ho8ReSi4B16W
_chemical_formula_sum   'Ho8 Re1 Si4 B16 W1'
_cell_volume   379.63904799
_cell_formula_units_Z   1
loop_
 _symmetry_equiv_pos_site_id
 _symmetry_equiv_pos_as_xyz
  1  'x, y, z'
loop_
 _atom_site_type_symbol
 _atom_site_label
 _atom_site_symmetry_multiplicity
 _atom_site_fract_x
 _atom_site_fract_y
 _atom_site_fract_z
 _atom_site_occupancy
  Ho  Ho0  1  0.678993  0.179362  0.237740  1
  Ho  Ho1  1  0.321007  0.820638  0.762260  1
  Ho  Ho2  1  0.321007  0.820638  0.237740  1
  Ho  Ho3  1  0.820638  0.678993  0.237740  1
  Ho  Ho4  1  0.820638  0.678993  0.762260  1
  Ho  Ho5  1  0.678993  0.179362  0.762260  1
  Ho  Ho6  1  0.179362  0.321007  0.762260  1
  Ho  Ho7  1  0.179362  0.321007  0.237740  1
  Re  Re8  1  0.000000  0.000000  0.500000  1
  Si  Si9  1  0.124916  0.625500  0.500000  1
  Si  Si10  1  0.875084  0.374500  0.500000  1
  Si  Si11  1  0.374500  0.124916  0.500000  1
  Si  Si12  1  0.625500  0.875084  0.500000  1
  B  B13  1  0.171869  0.039295  0.000000  1
  B  B14  1  0.828131  0.960705  0.000000  1
  B  B15  1  0.960705  0.171869  0.000000  1
  B  B16  1  0.328301  0.540162  0.000000  1
  B  B17  1  0.039295  0.828131  0.000000  1
  B  B18  1  0.671699  0.459838  0.000000  1
  B  B19  1  0.540162  0.671699  0.000000  1
  B  B20  1  0.459838  0.328301  0.000000  1
  B  B21  1  0.090515  0.590886  0.000000  1
  B  B22  1  0.909485  0.409114  0.000000  1
  B  B23  1  0.409114  0.090515  0.000000  1
  B  B24  1  0.590886  0.909485  0.000000  1
  B  B25  1  0.000000  0.000000  0.177555  1
  B  B26  1  0.000000  0.000000  0.822445  1
  B  B27  1  0.500000  0.500000  0.821576  1
  B  B28  1  0.500000  0.500000  0.178424  1
  W  W29  1  0.500000  0.500000  0.500000  1
