# generated using pymatgen
data_Sc3In3Pd2Pt
_symmetry_space_group_name_H-M   'P 1'
_cell_length_a   7.68958700
_cell_length_b   7.68958789
_cell_length_c   3.47443200
_cell_angle_alpha   90.00000000
_cell_angle_beta   90.00000000
_cell_angle_gamma   119.99999188
_symmetry_Int_Tables_number   1
_chemical_formula_structural   Sc3In3Pd2Pt
_chemical_formula_sum   'Sc3 In3 Pd2 Pt1'
_cell_volume   177.91827673
_cell_formula_units_Z   1
loop_
 _symmetry_equiv_pos_site_id
 _symmetry_equiv_pos_as_xyz
  1  'x, y, z'
loop_
 _atom_site_type_symbol
 _atom_site_label
 _atom_site_symmetry_multiplicity
 _atom_site_fract_x
 _atom_site_fract_y
 _atom_site_fract_z
 _atom_site_occupancy
  Sc  Sc0  1  0.598028  0.994094  0.000000  1
  Sc  Sc1  1  0.396065  0.401972  0.000000  1
  Sc  Sc2  1  0.005906  0.603935  0.000000  1
  In  In3  1  0.728187  0.725020  0.500000  1
  In  In4  1  0.996833  0.271813  0.500000  1
  In  In5  1  0.274980  0.003167  0.500000  1
  Pd  Pd6  1  0.666667  0.333333  0.500000  1
  Pd  Pd7  1  0.000000  0.000000  0.000000  1
  Pt  Pt8  1  0.333333  0.666667  0.500000  1
