# generated using pymatgen
data_TbYb3(Sn5Pd3)2
_symmetry_space_group_name_H-M   'P 1'
_cell_length_a   13.55276226
_cell_length_b   13.55276319
_cell_length_c   7.39696600
_cell_angle_alpha   89.93675496
_cell_angle_beta   90.06324504
_cell_angle_gamma   160.42538725
_symmetry_Int_Tables_number   1
_chemical_formula_structural   TbYb3(Sn5Pd3)2
_chemical_formula_sum   'Tb1 Yb3 Sn10 Pd6'
_cell_volume   455.19560190
_cell_formula_units_Z   1
loop_
 _symmetry_equiv_pos_site_id
 _symmetry_equiv_pos_as_xyz
  1  'x, y, z'
loop_
 _atom_site_type_symbol
 _atom_site_label
 _atom_site_symmetry_multiplicity
 _atom_site_fract_x
 _atom_site_fract_y
 _atom_site_fract_z
 _atom_site_occupancy
  Tb  Tb0  1  0.521916  0.478084  0.238218  1
  Yb  Yb1  1  0.173838  0.826162  0.756052  1
  Yb  Yb2  1  0.825813  0.174187  0.254923  1
  Yb  Yb3  1  0.476965  0.523035  0.735707  1
  Sn  Sn4  1  0.881434  0.118566  0.730537  1
  Sn  Sn5  1  0.118538  0.881462  0.225828  1
  Sn  Sn6  1  0.704131  0.295869  0.051241  1
  Sn  Sn7  1  0.296806  0.703194  0.553696  1
  Sn  Sn8  1  0.598266  0.401734  0.608513  1
  Sn  Sn9  1  0.402245  0.597755  0.109108  1
  Sn  Sn10  1  0.953649  0.046351  0.401350  1
  Sn  Sn11  1  0.046128  0.953872  0.901333  1
  Sn  Sn12  1  0.290117  0.709883  0.976496  1
  Sn  Sn13  1  0.709618  0.290382  0.477159  1
  Pd  Pd14  1  0.051455  0.948545  0.518396  1
  Pd  Pd15  1  0.949222  0.050778  0.020654  1
  Pd  Pd16  1  0.777633  0.222367  0.769467  1
  Pd  Pd17  1  0.222077  0.777923  0.272198  1
  Pd  Pd18  1  0.396118  0.603882  0.475775  1
  Pd  Pd19  1  0.604029  0.395971  0.979349  1
