# generated using pymatgen
data_UPaB6W
_symmetry_space_group_name_H-M   'P 1'
_cell_length_a   3.73478100
_cell_length_b   9.30800000
_cell_length_c   11.41030300
_cell_angle_alpha   90.00000000
_cell_angle_beta   90.00000000
_cell_angle_gamma   90.00000000
_symmetry_Int_Tables_number   1
_chemical_formula_structural   UPaB6W
_chemical_formula_sum   'U4 Pa4 B24 W4'
_cell_volume   396.66026036
_cell_formula_units_Z   4
loop_
 _symmetry_equiv_pos_site_id
 _symmetry_equiv_pos_as_xyz
  1  'x, y, z'
loop_
 _atom_site_type_symbol
 _atom_site_label
 _atom_site_symmetry_multiplicity
 _atom_site_fract_x
 _atom_site_fract_y
 _atom_site_fract_z
 _atom_site_occupancy
  U  U0  1  0.000000  0.956036  0.395130  1
  U  U1  1  0.000000  0.043964  0.604870  1
  U  U2  1  0.000000  0.456036  0.104870  1
  U  U3  1  0.000000  0.543964  0.895130  1
  Pa  Pa4  1  0.000000  0.334168  0.407852  1
  Pa  Pa5  1  0.000000  0.665832  0.592148  1
  Pa  Pa6  1  0.000000  0.834168  0.092148  1
  Pa  Pa7  1  0.000000  0.165832  0.907852  1
  B  B8  1  0.500000  0.550828  0.432130  1
  B  B9  1  0.500000  0.449172  0.567870  1
  B  B10  1  0.500000  0.050828  0.067870  1
  B  B11  1  0.500000  0.949172  0.932130  1
  B  B12  1  0.500000  0.744263  0.423522  1
  B  B13  1  0.500000  0.255737  0.576478  1
  B  B14  1  0.500000  0.244263  0.076478  1
  B  B15  1  0.500000  0.755737  0.923522  1
  B  B16  1  0.500000  0.803166  0.273875  1
  B  B17  1  0.500000  0.196834  0.726125  1
  B  B18  1  0.500000  0.303166  0.226125  1
  B  B19  1  0.500000  0.696834  0.773875  1
  B  B20  1  0.500000  0.643808  0.187729  1
  B  B21  1  0.500000  0.356192  0.812271  1
  B  B22  1  0.500000  0.143808  0.312271  1
  B  B23  1  0.500000  0.856192  0.687729  1
  B  B24  1  0.500000  0.986964  0.219302  1
  B  B25  1  0.500000  0.013036  0.780698  1
  B  B26  1  0.500000  0.486964  0.280698  1
  B  B27  1  0.500000  0.513036  0.719302  1
  B  B28  1  0.500000  0.639671  0.038668  1
  B  B29  1  0.500000  0.360329  0.961332  1
  B  B30  1  0.500000  0.139671  0.461332  1
  B  B31  1  0.500000  0.860329  0.538668  1
  W  W32  1  0.000000  0.645708  0.319536  1
  W  W33  1  0.000000  0.354292  0.680464  1
  W  W34  1  0.000000  0.145708  0.180464  1
  W  W35  1  0.000000  0.854292  0.819536  1
