# generated using pymatgen
data_Sm2Dy3Ho(SbO7)2
_symmetry_space_group_name_H-M   'P 1'
_cell_length_a   6.49554601
_cell_length_b   6.49647007
_cell_length_c   7.58475200
_cell_angle_alpha   90.00000000
_cell_angle_beta   90.00000000
_cell_angle_gamma   109.27713377
_symmetry_Int_Tables_number   1
_chemical_formula_structural   Sm2Dy3Ho(SbO7)2
_chemical_formula_sum   'Sm2 Dy3 Ho1 Sb2 O14'
_cell_volume   302.11727561
_cell_formula_units_Z   1
loop_
 _symmetry_equiv_pos_site_id
 _symmetry_equiv_pos_as_xyz
  1  'x, y, z'
loop_
 _atom_site_type_symbol
 _atom_site_label
 _atom_site_symmetry_multiplicity
 _atom_site_fract_x
 _atom_site_fract_y
 _atom_site_fract_z
 _atom_site_occupancy
  Sm  Sm0  1  0.499923  0.499973  0.500082  1
  Sm  Sm1  1  0.499923  0.499973  0.999918  1
  Dy  Dy2  1  0.531563  0.000538  0.750000  1
  Dy  Dy3  1  0.000490  0.531488  0.250000  1
  Dy  Dy4  1  0.468486  0.999518  0.250000  1
  Ho  Ho5  1  0.999207  0.468785  0.750000  1
  Sb  Sb6  1  0.999992  0.999963  0.500193  1
  Sb  Sb7  1  0.999992  0.999963  0.999807  1
  O  O8  1  0.678876  0.929598  0.470606  1
  O  O9  1  0.929942  0.678596  0.529938  1
  O  O10  1  0.678876  0.929598  0.029394  1
  O  O11  1  0.929942  0.678596  0.970062  1
  O  O12  1  0.321208  0.070383  0.529394  1
  O  O13  1  0.070180  0.321279  0.471089  1
  O  O14  1  0.321208  0.070383  0.970606  1
  O  O15  1  0.070180  0.321279  0.028911  1
  O  O16  1  0.931002  0.069552  0.750000  1
  O  O17  1  0.069007  0.930875  0.250000  1
  O  O18  1  0.364570  0.633620  0.750000  1
  O  O19  1  0.634122  0.365804  0.250000  1
  O  O20  1  0.641264  0.360232  0.750000  1
  O  O21  1  0.360048  0.640006  0.250000  1
