# generated using pymatgen
data_Nd2Sm2Te3N2
_symmetry_space_group_name_H-M   'P 1'
_cell_length_a   7.39969200
_cell_length_b   11.32469800
_cell_length_c   11.76556900
_cell_angle_alpha   90.00000000
_cell_angle_beta   90.00000000
_cell_angle_gamma   90.00000000
_symmetry_Int_Tables_number   1
_chemical_formula_structural   Nd2Sm2Te3N2
_chemical_formula_sum   'Nd8 Sm8 Te12 N8'
_cell_volume   985.94617796
_cell_formula_units_Z   4
loop_
 _symmetry_equiv_pos_site_id
 _symmetry_equiv_pos_as_xyz
  1  'x, y, z'
loop_
 _atom_site_type_symbol
 _atom_site_label
 _atom_site_symmetry_multiplicity
 _atom_site_fract_x
 _atom_site_fract_y
 _atom_site_fract_z
 _atom_site_occupancy
  Nd  Nd0  1  0.146710  0.389691  0.951314  1
  Nd  Nd1  1  0.353290  0.889691  0.048686  1
  Nd  Nd2  1  0.853290  0.610309  0.451314  1
  Nd  Nd3  1  0.146710  0.389691  0.548686  1
  Nd  Nd4  1  0.353290  0.889691  0.451314  1
  Nd  Nd5  1  0.646710  0.110309  0.548686  1
  Nd  Nd6  1  0.853290  0.610309  0.048686  1
  Nd  Nd7  1  0.646710  0.110309  0.951314  1
  Sm  Sm8  1  0.411193  0.157652  0.250000  1
  Sm  Sm9  1  0.737201  0.467674  0.750000  1
  Sm  Sm10  1  0.762799  0.967674  0.250000  1
  Sm  Sm11  1  0.262799  0.532326  0.250000  1
  Sm  Sm12  1  0.088807  0.657652  0.750000  1
  Sm  Sm13  1  0.911193  0.342348  0.250000  1
  Sm  Sm14  1  0.237201  0.032326  0.750000  1
  Sm  Sm15  1  0.588807  0.842348  0.750000  1
  Te  Te16  1  0.065877  0.135562  0.082601  1
  Te  Te17  1  0.079279  0.776159  0.250000  1
  Te  Te18  1  0.565877  0.364438  0.082601  1
  Te  Te19  1  0.579279  0.723841  0.250000  1
  Te  Te20  1  0.934123  0.864438  0.917399  1
  Te  Te21  1  0.434123  0.635562  0.917399  1
  Te  Te22  1  0.920721  0.223841  0.750000  1
  Te  Te23  1  0.934123  0.864438  0.582601  1
  Te  Te24  1  0.065877  0.135562  0.417399  1
  Te  Te25  1  0.434123  0.635562  0.582601  1
  Te  Te26  1  0.565877  0.364438  0.417399  1
  Te  Te27  1  0.420721  0.276159  0.750000  1
  N  N28  1  0.447331  0.967606  0.623031  1
  N  N29  1  0.552669  0.032394  0.123031  1
  N  N30  1  0.947331  0.532394  0.623031  1
  N  N31  1  0.052669  0.467606  0.376969  1
  N  N32  1  0.947331  0.532394  0.876969  1
  N  N33  1  0.052669  0.467606  0.123031  1
  N  N34  1  0.552669  0.032394  0.376969  1
  N  N35  1  0.447331  0.967606  0.876969  1
