# generated using pymatgen
data_Zr6Zn17Ag5AuC
_symmetry_space_group_name_H-M   'P 1'
_cell_length_a   8.80121880
_cell_length_b   8.82427240
_cell_length_c   8.81699800
_cell_angle_alpha   60.02828164
_cell_angle_beta   59.94084519
_cell_angle_gamma   60.02378249
_symmetry_Int_Tables_number   1
_chemical_formula_structural   Zr6Zn17Ag5AuC
_chemical_formula_sum   'Zr6 Zn17 Ag5 Au1 C1'
_cell_volume   484.17632922
_cell_formula_units_Z   1
loop_
 _symmetry_equiv_pos_site_id
 _symmetry_equiv_pos_as_xyz
  1  'x, y, z'
loop_
 _atom_site_type_symbol
 _atom_site_label
 _atom_site_symmetry_multiplicity
 _atom_site_fract_x
 _atom_site_fract_y
 _atom_site_fract_z
 _atom_site_occupancy
  Zr  Zr0  1  0.688326  0.313449  0.309971  1
  Zr  Zr1  1  0.313457  0.686256  0.686712  1
  Zr  Zr2  1  0.313448  0.686263  0.313584  1
  Zr  Zr3  1  0.688312  0.313463  0.688254  1
  Zr  Zr4  1  0.309478  0.313463  0.688537  1
  Zr  Zr5  1  0.686853  0.686314  0.313422  1
  Zn  Zn6  1  0.639806  0.119046  0.120570  1
  Zn  Zn7  1  0.360483  0.879892  0.879808  1
  Zn  Zn8  1  0.500280  0.000497  0.999482  1
  Zn  Zn9  1  0.000365  0.499769  0.499620  1
  Zn  Zn10  1  0.000374  0.499773  0.000240  1
  Zn  Zn11  1  0.500276  0.000489  0.499746  1
  Zn  Zn12  1  0.999301  0.000401  0.500154  1
  Zn  Zn13  1  0.498810  0.500832  0.000171  1
  Zn  Zn14  1  0.333041  0.332025  0.331777  1
  Zn  Zn15  1  0.666752  0.668794  0.667734  1
  Zn  Zn16  1  0.333047  0.332030  0.003146  1
  Zn  Zn17  1  0.333240  0.002048  0.332360  1
  Zn  Zn18  1  0.666759  0.668800  0.996709  1
  Zn  Zn19  1  0.665968  0.999702  0.667168  1
  Zn  Zn20  1  0.003222  0.332335  0.332225  1
  Zn  Zn21  1  0.996519  0.668286  0.667602  1
  Zn  Zn22  1  0.000011  0.000942  0.999522  1
  Ag  Ag23  1  0.122891  0.116740  0.119543  1
  Ag  Ag24  1  0.878420  0.881214  0.881687  1
  Ag  Ag25  1  0.122881  0.116739  0.640829  1
  Ag  Ag26  1  0.121216  0.642964  0.117906  1
  Ag  Ag27  1  0.878419  0.881203  0.358681  1
  Au  Au28  1  0.877400  0.358702  0.881942  1
  C  C29  1  0.500645  0.497566  0.500901  1
