# generated using pymatgen
data_Ho5Cu2Ni17
_symmetry_space_group_name_H-M   'P 1'
_cell_length_a   4.91792293
_cell_length_b   4.91792336
_cell_length_c   16.27306000
_cell_angle_alpha   81.30895870
_cell_angle_beta   81.30895793
_cell_angle_gamma   60.00001077
_symmetry_Int_Tables_number   1
_chemical_formula_structural   Ho5Cu2Ni17
_chemical_formula_sum   'Ho5 Cu2 Ni17'
_cell_volume   335.62151817
_cell_formula_units_Z   1
loop_
 _symmetry_equiv_pos_site_id
 _symmetry_equiv_pos_as_xyz
  1  'x, y, z'
loop_
 _atom_site_type_symbol
 _atom_site_label
 _atom_site_symmetry_multiplicity
 _atom_site_fract_x
 _atom_site_fract_y
 _atom_site_fract_z
 _atom_site_occupancy
  Ho  Ho0  1  0.000000  0.000000  0.000000  1
  Ho  Ho1  1  0.922544  0.922544  0.232358  1
  Ho  Ho2  1  0.077456  0.077456  0.767642  1
  Ho  Ho3  1  0.848369  0.848369  0.454478  1
  Ho  Ho4  1  0.151631  0.151631  0.545522  1
  Cu  Cu5  1  0.749111  0.749112  0.752644  1
  Cu  Cu6  1  0.250888  0.250888  0.247357  1
  Ni  Ni7  1  0.500000  0.500000  0.500000  1
  Ni  Ni8  1  0.667222  0.667222  0.999704  1
  Ni  Ni9  1  0.332778  0.332778  0.000296  1
  Ni  Ni10  1  0.584460  0.584460  0.247274  1
  Ni  Ni11  1  0.415540  0.415540  0.752726  1
  Ni  Ni12  1  0.375839  0.375839  0.371784  1
  Ni  Ni13  1  0.875887  0.375821  0.371973  1
  Ni  Ni14  1  0.375821  0.875887  0.371973  1
  Ni  Ni15  1  0.624161  0.624161  0.628216  1
  Ni  Ni16  1  0.124113  0.624179  0.628027  1
  Ni  Ni17  1  0.624179  0.124113  0.628027  1
  Ni  Ni18  1  0.459580  0.459580  0.121650  1
  Ni  Ni19  1  0.958444  0.459235  0.121773  1
  Ni  Ni20  1  0.459235  0.958444  0.121773  1
  Ni  Ni21  1  0.540420  0.540420  0.878350  1
  Ni  Ni22  1  0.041556  0.540765  0.878227  1
  Ni  Ni23  1  0.540765  0.041556  0.878227  1
