# generated using pymatgen
data_Tb3Yb2Bi3C
_symmetry_space_group_name_H-M   'P 1'
_cell_length_a   9.19189500
_cell_length_b   9.19189611
_cell_length_c   6.63131700
_cell_angle_alpha   90.00000000
_cell_angle_beta   90.00000000
_cell_angle_gamma   120.00000678
_symmetry_Int_Tables_number   1
_chemical_formula_structural   Tb3Yb2Bi3C
_chemical_formula_sum   'Tb6 Yb4 Bi6 C2'
_cell_volume   485.22207789
_cell_formula_units_Z   2
loop_
 _symmetry_equiv_pos_site_id
 _symmetry_equiv_pos_as_xyz
  1  'x, y, z'
loop_
 _atom_site_type_symbol
 _atom_site_label
 _atom_site_symmetry_multiplicity
 _atom_site_fract_x
 _atom_site_fract_y
 _atom_site_fract_z
 _atom_site_occupancy
  Tb  Tb0  1  0.791990  0.791990  0.750000  1
  Tb  Tb1  1  0.208010  0.000000  0.750000  1
  Tb  Tb2  1  0.000000  0.208010  0.750000  1
  Tb  Tb3  1  0.208010  0.208010  0.250000  1
  Tb  Tb4  1  0.791990  0.000000  0.250000  1
  Tb  Tb5  1  0.000000  0.791990  0.250000  1
  Yb  Yb6  1  0.666667  0.333333  0.000000  1
  Yb  Yb7  1  0.333333  0.666667  0.000000  1
  Yb  Yb8  1  0.333333  0.666667  0.500000  1
  Yb  Yb9  1  0.666667  0.333333  0.500000  1
  Bi  Bi10  1  0.401403  0.401403  0.750000  1
  Bi  Bi11  1  0.598597  0.000000  0.750000  1
  Bi  Bi12  1  0.000000  0.598597  0.750000  1
  Bi  Bi13  1  0.598597  0.598597  0.250000  1
  Bi  Bi14  1  0.401403  0.000000  0.250000  1
  Bi  Bi15  1  0.000000  0.401403  0.250000  1
  C  C16  1  0.000000  0.000000  0.000000  1
  C  C17  1  0.000000  0.000000  0.500000  1
