# generated using pymatgen
data_HoTm2Pa9Ga20
_symmetry_space_group_name_H-M   'P 1'
_cell_length_a   6.05842901
_cell_length_b   9.51511900
_cell_length_c   11.65410181
_cell_angle_alpha   90.00000000
_cell_angle_beta   89.93203444
_cell_angle_gamma   90.00000000
_symmetry_Int_Tables_number   1
_chemical_formula_structural   HoTm2Pa9Ga20
_chemical_formula_sum   'Ho1 Tm2 Pa9 Ga20'
_cell_volume   671.81972279
_cell_formula_units_Z   1
loop_
 _symmetry_equiv_pos_site_id
 _symmetry_equiv_pos_as_xyz
  1  'x, y, z'
loop_
 _atom_site_type_symbol
 _atom_site_label
 _atom_site_symmetry_multiplicity
 _atom_site_fract_x
 _atom_site_fract_y
 _atom_site_fract_z
 _atom_site_occupancy
  Ho  Ho0  1  0.141718  0.250000  0.927022  1
  Tm  Tm1  1  0.644697  0.750000  0.570857  1
  Tm  Tm2  1  0.361247  0.250000  0.429309  1
  Pa  Pa3  1  0.845182  0.750000  0.071842  1
  Pa  Pa4  1  0.880729  0.502326  0.351309  1
  Pa  Pa5  1  0.620996  0.994682  0.853504  1
  Pa  Pa6  1  0.121711  0.003368  0.647778  1
  Pa  Pa7  1  0.383114  0.499716  0.147453  1
  Pa  Pa8  1  0.121711  0.496632  0.647778  1
  Pa  Pa9  1  0.383114  0.000284  0.147453  1
  Pa  Pa10  1  0.880729  0.997674  0.351309  1
  Pa  Pa11  1  0.620996  0.505318  0.853504  1
  Ga  Ga12  1  0.871932  0.055679  0.090766  1
  Ga  Ga13  1  0.630798  0.448617  0.591644  1
  Ga  Ga14  1  0.125852  0.551786  0.908370  1
  Ga  Ga15  1  0.371517  0.949441  0.410687  1
  Ga  Ga16  1  0.125852  0.948214  0.908370  1
  Ga  Ga17  1  0.371517  0.550559  0.410687  1
  Ga  Ga18  1  0.871932  0.444321  0.090766  1
  Ga  Ga19  1  0.630798  0.051383  0.591644  1
  Ga  Ga20  1  0.152989  0.750000  0.264232  1
  Ga  Ga21  1  0.346143  0.750000  0.761298  1
  Ga  Ga22  1  0.845182  0.250000  0.735808  1
  Ga  Ga23  1  0.654345  0.250000  0.235195  1
  Ga  Ga24  1  0.377352  0.750000  0.993789  1
  Ga  Ga25  1  0.110990  0.750000  0.495091  1
  Ga  Ga26  1  0.605542  0.250000  0.004032  1
  Ga  Ga27  1  0.893194  0.250000  0.504915  1
  Ga  Ga28  1  0.595916  0.750000  0.295858  1
  Ga  Ga29  1  0.904897  0.750000  0.789653  1
  Ga  Ga30  1  0.405413  0.250000  0.708549  1
  Ga  Ga31  1  0.101895  0.250000  0.209525  1
