# generated using pymatgen
data_CePa3(ReB4)4
_symmetry_space_group_name_H-M   'P 1'
_cell_length_a   3.66708100
_cell_length_b   5.98984800
_cell_length_c   11.60773298
_cell_angle_alpha   90.03227534
_cell_angle_beta   90.00000000
_cell_angle_gamma   90.00000000
_symmetry_Int_Tables_number   1
_chemical_formula_structural   CePa3(ReB4)4
_chemical_formula_sum   'Ce1 Pa3 Re4 B16'
_cell_volume   254.96680692
_cell_formula_units_Z   1
loop_
 _symmetry_equiv_pos_site_id
 _symmetry_equiv_pos_as_xyz
  1  'x, y, z'
loop_
 _atom_site_type_symbol
 _atom_site_label
 _atom_site_symmetry_multiplicity
 _atom_site_fract_x
 _atom_site_fract_y
 _atom_site_fract_z
 _atom_site_occupancy
  Ce  Ce0  1  0.000000  0.871935  0.850279  1
  Pa  Pa1  1  0.000000  0.628373  0.350290  1
  Pa  Pa2  1  0.000000  0.371836  0.650304  1
  Pa  Pa3  1  0.000000  0.127857  0.149391  1
  Re  Re4  1  0.000000  0.637819  0.095365  1
  Re  Re5  1  0.000000  0.362168  0.907436  1
  Re  Re6  1  0.000000  0.139071  0.405336  1
  Re  Re7  1  0.000000  0.861058  0.592118  1
  B  B8  1  0.500000  0.789411  0.187089  1
  B  B9  1  0.500000  0.213911  0.812915  1
  B  B10  1  0.500000  0.289862  0.312645  1
  B  B11  1  0.500000  0.710031  0.685957  1
  B  B12  1  0.500000  0.863788  0.032414  1
  B  B13  1  0.500000  0.137342  0.969035  1
  B  B14  1  0.500000  0.364070  0.468189  1
  B  B15  1  0.500000  0.634822  0.531762  1
  B  B16  1  0.500000  0.886993  0.453931  1
  B  B17  1  0.500000  0.112421  0.546204  1
  B  B18  1  0.500000  0.387772  0.046058  1
  B  B19  1  0.500000  0.612019  0.954067  1
  B  B20  1  0.500000  0.972408  0.308809  1
  B  B21  1  0.500000  0.027703  0.690392  1
  B  B22  1  0.500000  0.472587  0.191367  1
  B  B23  1  0.500000  0.524742  0.808650  1
