# generated using pymatgen
data_PaCo3P3Rh2
_symmetry_space_group_name_H-M   'P 1'
_cell_length_a   3.78682100
_cell_length_b   10.54089300
_cell_length_c   12.15589300
_cell_angle_alpha   90.00000000
_cell_angle_beta   90.00000000
_cell_angle_gamma   90.00000000
_symmetry_Int_Tables_number   1
_chemical_formula_structural   PaCo3P3Rh2
_chemical_formula_sum   'Pa4 Co12 P12 Rh8'
_cell_volume   485.22039869
_cell_formula_units_Z   4
loop_
 _symmetry_equiv_pos_site_id
 _symmetry_equiv_pos_as_xyz
  1  'x, y, z'
loop_
 _atom_site_type_symbol
 _atom_site_label
 _atom_site_symmetry_multiplicity
 _atom_site_fract_x
 _atom_site_fract_y
 _atom_site_fract_z
 _atom_site_occupancy
  Pa  Pa0  1  0.250000  0.583350  0.710774  1
  Pa  Pa1  1  0.250000  0.916650  0.210774  1
  Pa  Pa2  1  0.750000  0.416650  0.289226  1
  Pa  Pa3  1  0.750000  0.083350  0.789226  1
  Co  Co4  1  0.250000  0.221962  0.178955  1
  Co  Co5  1  0.250000  0.278038  0.678955  1
  Co  Co6  1  0.750000  0.778038  0.821045  1
  Co  Co7  1  0.750000  0.721962  0.321045  1
  Co  Co8  1  0.250000  0.881950  0.697845  1
  Co  Co9  1  0.250000  0.618050  0.197845  1
  Co  Co10  1  0.750000  0.118050  0.302155  1
  Co  Co11  1  0.750000  0.381950  0.802155  1
  Co  Co12  1  0.250000  0.467011  0.929879  1
  Co  Co13  1  0.250000  0.032989  0.429879  1
  Co  Co14  1  0.750000  0.532989  0.070121  1
  Co  Co15  1  0.750000  0.967011  0.570121  1
  P  P16  1  0.250000  0.421035  0.109950  1
  P  P17  1  0.250000  0.078965  0.609950  1
  P  P18  1  0.750000  0.578965  0.890050  1
  P  P19  1  0.750000  0.921035  0.390050  1
  P  P20  1  0.250000  0.279464  0.861590  1
  P  P21  1  0.250000  0.220536  0.361590  1
  P  P22  1  0.750000  0.720536  0.138410  1
  P  P23  1  0.750000  0.779464  0.638410  1
  P  P24  1  0.250000  0.609189  0.378332  1
  P  P25  1  0.250000  0.890811  0.878332  1
  P  P26  1  0.750000  0.390811  0.621668  1
  P  P27  1  0.750000  0.109189  0.121668  1
  Rh  Rh28  1  0.250000  0.712196  0.986851  1
  Rh  Rh29  1  0.250000  0.787804  0.486851  1
  Rh  Rh30  1  0.750000  0.287804  0.013149  1
  Rh  Rh31  1  0.750000  0.212196  0.513149  1
  Rh  Rh32  1  0.250000  0.408083  0.471424  1
  Rh  Rh33  1  0.250000  0.091917  0.971424  1
  Rh  Rh34  1  0.750000  0.591917  0.528576  1
  Rh  Rh35  1  0.750000  0.908083  0.028576  1
