# generated using pymatgen
data_EuTa2F12
_symmetry_space_group_name_H-M   'P 1'
_cell_length_a   5.52947025
_cell_length_b   6.05627555
_cell_length_c   9.52851231
_cell_angle_alpha   104.69200325
_cell_angle_beta   90.57763618
_cell_angle_gamma   118.11349758
_symmetry_Int_Tables_number   1
_chemical_formula_structural   EuTa2F12
_chemical_formula_sum   'Eu1 Ta2 F12'
_cell_volume   269.08190692
_cell_formula_units_Z   1
loop_
 _symmetry_equiv_pos_site_id
 _symmetry_equiv_pos_as_xyz
  1  'x, y, z'
loop_
 _atom_site_type_symbol
 _atom_site_label
 _atom_site_symmetry_multiplicity
 _atom_site_fract_x
 _atom_site_fract_y
 _atom_site_fract_z
 _atom_site_occupancy
  Eu  Eu0  1  0.000000  0.000000  0.000000  1
  Ta  Ta1  1  0.776063  0.514094  0.273152  1
  Ta  Ta2  1  0.223937  0.485906  0.726848  1
  F  F3  1  0.838000  0.270915  0.712477  1
  F  F4  1  0.162000  0.729085  0.287523  1
  F  F5  1  0.202794  0.722653  0.912524  1
  F  F6  1  0.720977  0.722912  0.437186  1
  F  F7  1  0.279023  0.277088  0.562814  1
  F  F8  1  0.800530  0.288669  0.369704  1
  F  F9  1  0.199470  0.711331  0.630296  1
  F  F10  1  0.371859  0.283130  0.207013  1
  F  F11  1  0.628141  0.716870  0.792987  1
  F  F12  1  0.739147  0.710808  0.142525  1
  F  F13  1  0.260853  0.289192  0.857475  1
  F  F14  1  0.797206  0.277347  0.087476  1
