# generated using pymatgen
data_NdEr3(CI)2
_symmetry_space_group_name_H-M   'P 1'
_cell_length_a   3.76170900
_cell_length_b   3.76171000
_cell_length_c   14.88687500
_cell_angle_alpha   90.00000000
_cell_angle_beta   90.00000000
_cell_angle_gamma   119.99998240
_symmetry_Int_Tables_number   1
_chemical_formula_structural   NdEr3(CI)2
_chemical_formula_sum   'Nd1 Er3 C2 I2'
_cell_volume   182.43357063
_cell_formula_units_Z   1
loop_
 _symmetry_equiv_pos_site_id
 _symmetry_equiv_pos_as_xyz
  1  'x, y, z'
loop_
 _atom_site_type_symbol
 _atom_site_label
 _atom_site_symmetry_multiplicity
 _atom_site_fract_x
 _atom_site_fract_y
 _atom_site_fract_z
 _atom_site_occupancy
  Nd  Nd0  1  0.333333  0.666667  0.913537  1
  Er  Er1  1  0.333333  0.666667  0.581234  1
  Er  Er2  1  0.666667  0.333333  0.414913  1
  Er  Er3  1  0.666667  0.333333  0.088941  1
  C  C4  1  0.000000  0.000000  0.011685  1
  C  C5  1  0.000000  0.000000  0.497210  1
  I  I6  1  0.333333  0.666667  0.253458  1
  I  I7  1  0.666667  0.333333  0.739022  1
