# generated using pymatgen
data_Rb2NbF7
_symmetry_space_group_name_H-M   'P 1'
_cell_length_a   5.99924700
_cell_length_b   6.05006400
_cell_length_c   10.68840800
_cell_angle_alpha   90.00000000
_cell_angle_beta   90.00000000
_cell_angle_gamma   90.00000000
_symmetry_Int_Tables_number   1
_chemical_formula_structural   Rb2NbF7
_chemical_formula_sum   'Rb4 Nb2 F14'
_cell_volume   387.94462159
_cell_formula_units_Z   2
loop_
 _symmetry_equiv_pos_site_id
 _symmetry_equiv_pos_as_xyz
  1  'x, y, z'
loop_
 _atom_site_type_symbol
 _atom_site_label
 _atom_site_symmetry_multiplicity
 _atom_site_fract_x
 _atom_site_fract_y
 _atom_site_fract_z
 _atom_site_occupancy
  Rb  Rb0  1  0.000000  0.500000  0.361331  1
  Rb  Rb1  1  0.500000  0.000000  0.638669  1
  Rb  Rb2  1  0.500000  0.500000  0.999757  1
  Rb  Rb3  1  0.000000  0.000000  0.000243  1
  Nb  Nb4  1  0.000000  0.500000  0.754861  1
  Nb  Nb5  1  0.500000  0.000000  0.245139  1
  F  F6  1  0.216248  0.261831  0.797053  1
  F  F7  1  0.283752  0.238169  0.202947  1
  F  F8  1  0.716248  0.761831  0.202947  1
  F  F9  1  0.783752  0.738169  0.797053  1
  F  F10  1  0.216248  0.738169  0.797053  1
  F  F11  1  0.716248  0.238169  0.202947  1
  F  F12  1  0.283752  0.761831  0.202947  1
  F  F13  1  0.783752  0.261831  0.797053  1
  F  F14  1  0.000000  0.500000  0.946609  1
  F  F15  1  0.500000  0.000000  0.053391  1
  F  F16  1  0.201868  0.500000  0.607575  1
  F  F17  1  0.798132  0.500000  0.607575  1
  F  F18  1  0.298132  0.000000  0.392425  1
  F  F19  1  0.701868  0.000000  0.392425  1
