# generated using pymatgen
data_ErSb(SeO3)4
_symmetry_space_group_name_H-M   'P 1'
_cell_length_a   8.48359600
_cell_length_b   8.76773986
_cell_length_c   8.55387989
_cell_angle_alpha   90.60717326
_cell_angle_beta   90.00000000
_cell_angle_gamma   90.00000000
_symmetry_Int_Tables_number   1
_chemical_formula_structural   ErSb(SeO3)4
_chemical_formula_sum   'Er2 Sb2 Se8 O24'
_cell_volume   636.21865036
_cell_formula_units_Z   2
loop_
 _symmetry_equiv_pos_site_id
 _symmetry_equiv_pos_as_xyz
  1  'x, y, z'
loop_
 _atom_site_type_symbol
 _atom_site_label
 _atom_site_symmetry_multiplicity
 _atom_site_fract_x
 _atom_site_fract_y
 _atom_site_fract_z
 _atom_site_occupancy
  Er  Er0  1  0.000000  0.500000  0.000000  1
  Er  Er1  1  0.500000  0.500000  0.500000  1
  Sb  Sb2  1  0.000000  0.000000  0.500000  1
  Sb  Sb3  1  0.500000  0.000000  0.000000  1
  Se  Se4  1  0.340664  0.690295  0.165861  1
  Se  Se5  1  0.840664  0.309705  0.334139  1
  Se  Se6  1  0.691407  0.842918  0.686565  1
  Se  Se7  1  0.191407  0.157082  0.813435  1
  Se  Se8  1  0.659336  0.309705  0.834139  1
  Se  Se9  1  0.159336  0.690295  0.665861  1
  Se  Se10  1  0.308593  0.157082  0.313435  1
  Se  Se11  1  0.808593  0.842918  0.186565  1
  O  O12  1  0.247003  0.569171  0.042685  1
  O  O13  1  0.747003  0.430829  0.457315  1
  O  O14  1  0.766421  0.979152  0.551704  1
  O  O15  1  0.266421  0.020848  0.948296  1
  O  O16  1  0.549068  0.970410  0.768562  1
  O  O17  1  0.473424  0.577612  0.255483  1
  O  O18  1  0.973424  0.422388  0.244517  1
  O  O19  1  0.049068  0.029590  0.731438  1
  O  O20  1  0.977023  0.223918  0.475219  1
  O  O21  1  0.576316  0.739378  0.568154  1
  O  O22  1  0.477023  0.776082  0.024781  1
  O  O23  1  0.076316  0.260622  0.931846  1
  O  O24  1  0.752997  0.430829  0.957315  1
  O  O25  1  0.252997  0.569171  0.542685  1
  O  O26  1  0.233579  0.020848  0.448296  1
  O  O27  1  0.733579  0.979152  0.051704  1
  O  O28  1  0.450932  0.029590  0.231438  1
  O  O29  1  0.526576  0.422388  0.744517  1
  O  O30  1  0.026576  0.577612  0.755483  1
  O  O31  1  0.950932  0.970410  0.268562  1
  O  O32  1  0.022977  0.776082  0.524781  1
  O  O33  1  0.423684  0.260622  0.431846  1
  O  O34  1  0.522977  0.223918  0.975219  1
  O  O35  1  0.923684  0.739378  0.068154  1
