# generated using pymatgen
data_Sr6Er2CrRhO12
_symmetry_space_group_name_H-M   'P 1'
_cell_length_a   6.83943735
_cell_length_b   6.83943752
_cell_length_c   6.83943644
_cell_angle_alpha   92.30576735
_cell_angle_beta   92.30577059
_cell_angle_gamma   92.30577450
_symmetry_Int_Tables_number   1
_chemical_formula_structural   Sr6Er2CrRhO12
_chemical_formula_sum   'Sr6 Er2 Cr1 Rh1 O12'
_cell_volume   319.13588000
_cell_formula_units_Z   1
loop_
 _symmetry_equiv_pos_site_id
 _symmetry_equiv_pos_as_xyz
  1  'x, y, z'
loop_
 _atom_site_type_symbol
 _atom_site_label
 _atom_site_symmetry_multiplicity
 _atom_site_fract_x
 _atom_site_fract_y
 _atom_site_fract_z
 _atom_site_occupancy
  Sr  Sr0  1  0.382694  0.750558  0.118981  1
  Sr  Sr1  1  0.881019  0.617305  0.249442  1
  Sr  Sr2  1  0.750557  0.118982  0.382694  1
  Sr  Sr3  1  0.249442  0.881018  0.617306  1
  Sr  Sr4  1  0.118981  0.382694  0.750558  1
  Sr  Sr5  1  0.617306  0.249442  0.881018  1
  Er  Er6  1  0.250560  0.250560  0.250560  1
  Er  Er7  1  0.749440  0.749440  0.749440  1
  Cr  Cr8  1  0.000000  0.000000  0.000000  1
  Rh  Rh9  1  0.500000  0.500000  0.500000  1
  O  O10  1  0.714363  0.909737  0.041576  1
  O  O11  1  0.958423  0.285637  0.090262  1
  O  O12  1  0.542115  0.408197  0.207411  1
  O  O13  1  0.090262  0.958424  0.285636  1
  O  O14  1  0.207411  0.542116  0.408197  1
  O  O15  1  0.591803  0.792588  0.457884  1
  O  O16  1  0.408197  0.207412  0.542116  1
  O  O17  1  0.792589  0.457884  0.591802  1
  O  O18  1  0.909737  0.041576  0.714363  1
  O  O19  1  0.457884  0.591802  0.792589  1
  O  O20  1  0.041576  0.714363  0.909738  1
  O  O21  1  0.285636  0.090263  0.958423  1
