# generated using pymatgen
data_Ho6Er10Cd4NiOs3
_symmetry_space_group_name_H-M   'P 1'
_cell_length_a   9.51170420
_cell_length_b   9.61669565
_cell_length_c   9.58258921
_cell_angle_alpha   59.88333189
_cell_angle_beta   59.53384872
_cell_angle_gamma   59.63328447
_symmetry_Int_Tables_number   1
_chemical_formula_structural   Ho6Er10Cd4NiOs3
_chemical_formula_sum   'Ho6 Er10 Cd4 Ni1 Os3'
_cell_volume   615.33190738
_cell_formula_units_Z   1
loop_
 _symmetry_equiv_pos_site_id
 _symmetry_equiv_pos_as_xyz
  1  'x, y, z'
loop_
 _atom_site_type_symbol
 _atom_site_label
 _atom_site_symmetry_multiplicity
 _atom_site_fract_x
 _atom_site_fract_y
 _atom_site_fract_z
 _atom_site_occupancy
  Ho  Ho0  1  0.940873  0.558791  0.558155  1
  Ho  Ho1  1  0.555760  0.938385  0.938826  1
  Ho  Ho2  1  0.555266  0.938685  0.567347  1
  Ho  Ho3  1  0.941042  0.558530  0.941851  1
  Ho  Ho4  1  0.555809  0.567016  0.938821  1
  Ho  Ho5  1  0.940885  0.942160  0.558214  1
  Er  Er6  1  0.351805  0.344908  0.345982  1
  Er  Er7  1  0.352110  0.344891  0.958160  1
  Er  Er8  1  0.351805  0.957307  0.345978  1
  Er  Er9  1  0.960932  0.346250  0.346565  1
  Er  Er10  1  0.809619  0.189448  0.188666  1
  Er  Er11  1  0.185931  0.811489  0.811071  1
  Er  Er12  1  0.187072  0.811443  0.190055  1
  Er  Er13  1  0.809465  0.189759  0.811042  1
  Er  Er14  1  0.185928  0.191522  0.811038  1
  Er  Er15  1  0.809591  0.812278  0.188649  1
  Cd  Cd16  1  0.579195  0.581085  0.580509  1
  Cd  Cd17  1  0.579376  0.581046  0.258496  1
  Cd  Cd18  1  0.579193  0.259217  0.580510  1
  Cd  Cd19  1  0.256716  0.581148  0.580978  1
  Ni  Ni20  1  0.577787  0.140569  0.141107  1
  Os  Os21  1  0.144379  0.137551  0.139648  1
  Os  Os22  1  0.145148  0.138079  0.578662  1
  Os  Os23  1  0.144315  0.578445  0.139669  1
