# generated using pymatgen
data_SrNdScMnO6
_symmetry_space_group_name_H-M   'P 1'
_cell_length_a   5.62277800
_cell_length_b   5.57878035
_cell_length_c   7.88480617
_cell_angle_alpha   90.30107185
_cell_angle_beta   90.00083798
_cell_angle_gamma   90.00046915
_symmetry_Int_Tables_number   1
_chemical_formula_structural   SrNdScMnO6
_chemical_formula_sum   'Sr2 Nd2 Sc2 Mn2 O12'
_cell_volume   247.32910443
_cell_formula_units_Z   2
loop_
 _symmetry_equiv_pos_site_id
 _symmetry_equiv_pos_as_xyz
  1  'x, y, z'
loop_
 _atom_site_type_symbol
 _atom_site_label
 _atom_site_symmetry_multiplicity
 _atom_site_fract_x
 _atom_site_fract_y
 _atom_site_fract_z
 _atom_site_occupancy
  Sr  Sr0  1  0.524364  0.495486  0.750937  1
  Sr  Sr1  1  0.975641  0.995486  0.250944  1
  Nd  Nd2  1  0.042486  0.013022  0.749910  1
  Nd  Nd3  1  0.457505  0.513013  0.249916  1
  Sc  Sc4  1  0.506370  0.000712  0.000597  1
  Sc  Sc5  1  0.993642  0.500653  0.500581  1
  Mn  Mn6  1  0.999708  0.499921  0.000321  1
  Mn  Mn7  1  0.500281  0.999997  0.500292  1
  O  O8  1  0.989030  0.586244  0.760363  1
  O  O9  1  0.510970  0.086243  0.260364  1
  O  O10  1  0.477526  0.938898  0.739635  1
  O  O11  1  0.022474  0.438907  0.239631  1
  O  O12  1  0.263359  0.281273  0.962001  1
  O  O13  1  0.236648  0.781259  0.462006  1
  O  O14  1  0.777791  0.200044  0.543049  1
  O  O15  1  0.722195  0.700036  0.043039  1
  O  O16  1  0.702635  0.723412  0.457177  1
  O  O17  1  0.797386  0.223398  0.957174  1
  O  O18  1  0.220523  0.761003  0.036025  1
  O  O19  1  0.279467  0.260993  0.536031  1
