# generated using pymatgen
data_Nd3Th(GaCu)4
_symmetry_space_group_name_H-M   'P 1'
_cell_length_a   4.49314400
_cell_length_b   7.39735709
_cell_length_c   7.37078404
_cell_angle_alpha   90.10622692
_cell_angle_beta   90.00000000
_cell_angle_gamma   90.00000000
_symmetry_Int_Tables_number   1
_chemical_formula_structural   Nd3Th(GaCu)4
_chemical_formula_sum   'Nd3 Th1 Ga4 Cu4'
_cell_volume   244.98520703
_cell_formula_units_Z   1
loop_
 _symmetry_equiv_pos_site_id
 _symmetry_equiv_pos_as_xyz
  1  'x, y, z'
loop_
 _atom_site_type_symbol
 _atom_site_label
 _atom_site_symmetry_multiplicity
 _atom_site_fract_x
 _atom_site_fract_y
 _atom_site_fract_z
 _atom_site_occupancy
  Nd  Nd0  1  0.250000  0.510628  0.797942  1
  Nd  Nd1  1  0.750000  0.989606  0.290818  1
  Nd  Nd2  1  0.750000  0.489551  0.207176  1
  Th  Th3  1  0.250000  0.010749  0.701680  1
  Ga  Ga4  1  0.250000  0.191788  0.089858  1
  Ga  Ga5  1  0.250000  0.691308  0.412286  1
  Ga  Ga6  1  0.750000  0.809490  0.912548  1
  Ga  Ga7  1  0.750000  0.309050  0.588772  1
  Cu  Cu8  1  0.250000  0.309084  0.418311  1
  Cu  Cu9  1  0.250000  0.808795  0.081909  1
  Cu  Cu10  1  0.750000  0.693903  0.582812  1
  Cu  Cu11  1  0.750000  0.186048  0.915886  1
