# generated using pymatgen
data_Nd3MgPdPt3O14
_symmetry_space_group_name_H-M   'P 1'
_cell_length_a   7.27626585
_cell_length_b   7.40819365
_cell_length_c   7.40819200
_cell_angle_alpha   59.99999842
_cell_angle_beta   59.39838685
_cell_angle_gamma   59.39838360
_symmetry_Int_Tables_number   1
_chemical_formula_structural   Nd3MgPdPt3O14
_chemical_formula_sum   'Nd3 Mg1 Pd1 Pt3 O14'
_cell_volume   279.77470911
_cell_formula_units_Z   1
loop_
 _symmetry_equiv_pos_site_id
 _symmetry_equiv_pos_as_xyz
  1  'x, y, z'
loop_
 _atom_site_type_symbol
 _atom_site_label
 _atom_site_symmetry_multiplicity
 _atom_site_fract_x
 _atom_site_fract_y
 _atom_site_fract_z
 _atom_site_occupancy
  Nd  Nd0  1  0.625000  0.625000  0.125000  1
  Nd  Nd1  1  0.625000  0.125000  0.625000  1
  Nd  Nd2  1  0.625000  0.625000  0.625000  1
  Mg  Mg3  1  0.125000  0.625000  0.625000  1
  Pd  Pd4  1  0.625000  0.125000  0.125000  1
  Pt  Pt5  1  0.125000  0.125000  0.625000  1
  Pt  Pt6  1  0.125000  0.625000  0.125000  1
  Pt  Pt7  1  0.125000  0.125000  0.125000  1
  O  O8  1  0.469498  0.510167  0.510167  1
  O  O9  1  0.780502  0.739833  0.739833  1
  O  O10  1  0.462883  0.037516  0.462086  1
  O  O11  1  0.199717  0.793249  0.213783  1
  O  O12  1  0.462883  0.462086  0.037516  1
  O  O13  1  0.050283  0.456751  0.456751  1
  O  O14  1  0.462883  0.037516  0.037516  1
  O  O15  1  0.050283  0.036217  0.456751  1
  O  O16  1  0.050283  0.456751  0.036217  1
  O  O17  1  0.787117  0.212484  0.212484  1
  O  O18  1  0.199717  0.793249  0.793249  1
  O  O19  1  0.787117  0.212484  0.787914  1
  O  O20  1  0.199717  0.213783  0.793249  1
  O  O21  1  0.787117  0.787914  0.212484  1
