# generated using pymatgen
data_Li2PrNdSi4
_symmetry_space_group_name_H-M   'P 1'
_cell_length_a   3.88209500
_cell_length_b   7.73736100
_cell_length_c   10.55112200
_cell_angle_alpha   90.00000000
_cell_angle_beta   90.00000000
_cell_angle_gamma   90.00000000
_symmetry_Int_Tables_number   1
_chemical_formula_structural   Li2PrNdSi4
_chemical_formula_sum   'Li4 Pr2 Nd2 Si8'
_cell_volume   316.92584997
_cell_formula_units_Z   2
loop_
 _symmetry_equiv_pos_site_id
 _symmetry_equiv_pos_as_xyz
  1  'x, y, z'
loop_
 _atom_site_type_symbol
 _atom_site_label
 _atom_site_symmetry_multiplicity
 _atom_site_fract_x
 _atom_site_fract_y
 _atom_site_fract_z
 _atom_site_occupancy
  Li  Li0  1  0.250000  0.993609  0.390720  1
  Li  Li1  1  0.250000  0.493609  0.109280  1
  Li  Li2  1  0.750000  0.005809  0.609218  1
  Li  Li3  1  0.750000  0.505809  0.890782  1
  Pr  Pr4  1  0.250000  0.139045  0.865657  1
  Pr  Pr5  1  0.250000  0.639045  0.634343  1
  Nd  Nd6  1  0.750000  0.862042  0.134942  1
  Nd  Nd7  1  0.750000  0.362042  0.365058  1
  Si  Si8  1  0.250000  0.227766  0.570193  1
  Si  Si9  1  0.250000  0.727766  0.929807  1
  Si  Si10  1  0.750000  0.772553  0.427246  1
  Si  Si11  1  0.750000  0.272553  0.072754  1
  Si  Si12  1  0.250000  0.662895  0.320935  1
  Si  Si13  1  0.250000  0.162895  0.179065  1
  Si  Si14  1  0.750000  0.336280  0.677138  1
  Si  Si15  1  0.750000  0.836280  0.822862  1
