# generated using pymatgen
data_Sr2NdCdCoO6
_symmetry_space_group_name_H-M   'P 1'
_cell_length_a   6.70624357
_cell_length_b   6.70528619
_cell_length_c   6.65106537
_cell_angle_alpha   90.69189885
_cell_angle_beta   90.71939912
_cell_angle_gamma   89.95417749
_symmetry_Int_Tables_number   1
_chemical_formula_structural   Sr2NdCdCoO6
_chemical_formula_sum   'Sr4 Nd2 Cd2 Co2 O12'
_cell_volume   299.03489199
_cell_formula_units_Z   2
loop_
 _symmetry_equiv_pos_site_id
 _symmetry_equiv_pos_as_xyz
  1  'x, y, z'
loop_
 _atom_site_type_symbol
 _atom_site_label
 _atom_site_symmetry_multiplicity
 _atom_site_fract_x
 _atom_site_fract_y
 _atom_site_fract_z
 _atom_site_occupancy
  Sr  Sr0  1  0.616529  0.883484  0.250115  1
  Sr  Sr1  1  0.748949  0.384929  0.116633  1
  Sr  Sr2  1  0.385941  0.114117  0.749907  1
  Sr  Sr3  1  0.114968  0.751126  0.383365  1
  Nd  Nd4  1  0.882637  0.249178  0.614897  1
  Nd  Nd5  1  0.250632  0.617510  0.884932  1
  Cd  Cd6  1  0.748596  0.751280  0.750133  1
  Cd  Cd7  1  0.253404  0.246715  0.249880  1
  Co  Co8  1  0.002623  0.003241  0.997816  1
  Co  Co9  1  0.496730  0.497386  0.502212  1
  O  O10  1  0.209873  0.421801  0.561879  1
  O  O11  1  0.411985  0.549951  0.209414  1
  O  O12  1  0.558915  0.217368  0.426017  1
  O  O13  1  0.931812  0.721736  0.046808  1
  O  O14  1  0.728733  0.060589  0.909891  1
  O  O15  1  0.054052  0.924179  0.719850  1
  O  O16  1  0.778184  0.568484  0.453565  1
  O  O17  1  0.575496  0.445922  0.780398  1
  O  O18  1  0.439144  0.771229  0.589990  1
  O  O19  1  0.077866  0.290257  0.937692  1
  O  O20  1  0.282748  0.941393  0.074201  1
  O  O21  1  0.950182  0.088127  0.290404  1
