# generated using pymatgen
data_TbMoN2
_symmetry_space_group_name_H-M   'P 1'
_cell_length_a   3.22516000
_cell_length_b   5.73338900
_cell_length_c   10.62670000
_cell_angle_alpha   90.00000000
_cell_angle_beta   90.00000000
_cell_angle_gamma   90.00000000
_symmetry_Int_Tables_number   1
_chemical_formula_structural   TbMoN2
_chemical_formula_sum   'Tb4 Mo4 N8'
_cell_volume   196.49933908
_cell_formula_units_Z   4
loop_
 _symmetry_equiv_pos_site_id
 _symmetry_equiv_pos_as_xyz
  1  'x, y, z'
loop_
 _atom_site_type_symbol
 _atom_site_label
 _atom_site_symmetry_multiplicity
 _atom_site_fract_x
 _atom_site_fract_y
 _atom_site_fract_z
 _atom_site_occupancy
  Tb  Tb0  1  0.250000  0.079453  0.853927  1
  Tb  Tb1  1  0.250000  0.579453  0.646073  1
  Tb  Tb2  1  0.750000  0.920547  0.146073  1
  Tb  Tb3  1  0.750000  0.420547  0.353927  1
  Mo  Mo4  1  0.250000  0.434044  0.093439  1
  Mo  Mo5  1  0.250000  0.934044  0.406561  1
  Mo  Mo6  1  0.750000  0.565956  0.906561  1
  Mo  Mo7  1  0.750000  0.065956  0.593439  1
  N  N8  1  0.250000  0.164125  0.250195  1
  N  N9  1  0.250000  0.664125  0.249805  1
  N  N10  1  0.750000  0.835875  0.749805  1
  N  N11  1  0.750000  0.335875  0.750195  1
  N  N12  1  0.250000  0.756614  0.992602  1
  N  N13  1  0.250000  0.256614  0.507398  1
  N  N14  1  0.750000  0.243386  0.007398  1
  N  N15  1  0.750000  0.743386  0.492602  1
