# generated using pymatgen
data_Lu2TcRuF14
_symmetry_space_group_name_H-M   'P 1'
_cell_length_a   5.47131708
_cell_length_b   8.74457993
_cell_length_c   11.81261026
_cell_angle_alpha   63.34477396
_cell_angle_beta   89.98024881
_cell_angle_gamma   89.98900958
_symmetry_Int_Tables_number   1
_chemical_formula_structural   Lu2TcRuF14
_chemical_formula_sum   'Lu4 Tc2 Ru2 F28'
_cell_volume   505.10218749
_cell_formula_units_Z   2
loop_
 _symmetry_equiv_pos_site_id
 _symmetry_equiv_pos_as_xyz
  1  'x, y, z'
loop_
 _atom_site_type_symbol
 _atom_site_label
 _atom_site_symmetry_multiplicity
 _atom_site_fract_x
 _atom_site_fract_y
 _atom_site_fract_z
 _atom_site_occupancy
  Lu  Lu0  1  0.258639  0.817437  0.265759  1
  Lu  Lu1  1  0.741361  0.182563  0.734241  1
  Lu  Lu2  1  0.759771  0.187986  0.234411  1
  Lu  Lu3  1  0.240229  0.812014  0.765589  1
  Tc  Tc4  1  0.757880  0.727047  0.043690  1
  Tc  Tc5  1  0.242120  0.272953  0.956310  1
  Ru  Ru6  1  0.258387  0.273068  0.456596  1
  Ru  Ru7  1  0.741613  0.726932  0.543404  1
  F  F8  1  0.944650  0.707630  0.413324  1
  F  F9  1  0.055350  0.292370  0.586676  1
  F  F10  1  0.445622  0.293547  0.084385  1
  F  F11  1  0.554378  0.706453  0.915615  1
  F  F12  1  0.468148  0.729054  0.141652  1
  F  F13  1  0.531852  0.270946  0.858348  1
  F  F14  1  0.966490  0.269166  0.360447  1
  F  F15  1  0.033510  0.730834  0.639553  1
  F  F16  1  0.959130  0.746204  0.175195  1
  F  F17  1  0.040870  0.253796  0.824805  1
  F  F18  1  0.458299  0.251687  0.324803  1
  F  F19  1  0.541701  0.748313  0.675197  1
  F  F20  1  0.772835  0.476925  0.141805  1
  F  F21  1  0.227165  0.523075  0.858195  1
  F  F22  1  0.271773  0.516517  0.360206  1
  F  F23  1  0.728227  0.483483  0.639794  1
  F  F24  1  0.941506  0.277092  0.047482  1
  F  F25  1  0.058494  0.722908  0.952518  1
  F  F26  1  0.441265  0.722875  0.451047  1
  F  F27  1  0.558735  0.277125  0.548953  1
  F  F28  1  0.742358  0.969704  0.450175  1
  F  F29  1  0.257642  0.030296  0.549825  1
  F  F30  1  0.241596  0.024220  0.053451  1
  F  F31  1  0.758404  0.975780  0.946549  1
  F  F32  1  0.580811  0.973655  0.231985  1
  F  F33  1  0.419189  0.026345  0.768015  1
  F  F34  1  0.079452  0.029410  0.268104  1
  F  F35  1  0.920548  0.970590  0.731896  1
