# generated using pymatgen
data_Ho5TmAl23SiOs8
_symmetry_space_group_name_H-M   'P 1'
_cell_length_a   8.75257300
_cell_length_b   8.75386442
_cell_length_c   9.62015103
_cell_angle_alpha   89.99240224
_cell_angle_beta   90.00000000
_cell_angle_gamma   119.99511623
_symmetry_Int_Tables_number   1
_chemical_formula_structural   Ho5TmAl23SiOs8
_chemical_formula_sum   'Ho5 Tm1 Al23 Si1 Os8'
_cell_volume   638.36555436
_cell_formula_units_Z   1
loop_
 _symmetry_equiv_pos_site_id
 _symmetry_equiv_pos_as_xyz
  1  'x, y, z'
loop_
 _atom_site_type_symbol
 _atom_site_label
 _atom_site_symmetry_multiplicity
 _atom_site_fract_x
 _atom_site_fract_y
 _atom_site_fract_z
 _atom_site_occupancy
  Ho  Ho0  1  0.805775  0.611551  0.751309  1
  Ho  Ho1  1  0.609876  0.804852  0.249855  1
  Ho  Ho2  1  0.388444  0.194219  0.751303  1
  Ho  Ho3  1  0.194977  0.804852  0.249855  1
  Ho  Ho4  1  0.805774  0.194219  0.751303  1
  Tm  Tm5  1  0.195563  0.391125  0.249770  1
  Al  Al6  1  0.666659  0.333317  0.980635  1
  Al  Al7  1  0.666672  0.333343  0.522548  1
  Al  Al8  1  0.333203  0.666407  0.477861  1
  Al  Al9  1  0.163603  0.327205  0.574893  1
  Al  Al10  1  0.836073  0.672145  0.424270  1
  Al  Al11  1  0.672811  0.836399  0.575041  1
  Al  Al12  1  0.836214  0.672428  0.075188  1
  Al  Al13  1  0.327809  0.164032  0.424233  1
  Al  Al14  1  0.164957  0.329914  0.922899  1
  Al  Al15  1  0.163589  0.836399  0.575041  1
  Al  Al16  1  0.327522  0.163870  0.075221  1
  Al  Al17  1  0.836224  0.164032  0.424233  1
  Al  Al18  1  0.670142  0.835072  0.922764  1
  Al  Al19  1  0.836348  0.163870  0.075221  1
  Al  Al20  1  0.164930  0.835072  0.922764  1
  Al  Al21  1  0.562263  0.124525  0.248580  1
  Al  Al22  1  0.437351  0.874701  0.748154  1
  Al  Al23  1  0.875795  0.437717  0.248576  1
  Al  Al24  1  0.125291  0.562640  0.748142  1
  Al  Al25  1  0.561922  0.437717  0.248576  1
  Al  Al26  1  0.437351  0.562640  0.748142  1
  Al  Al27  1  0.000108  0.000216  0.248902  1
  Al  Al28  1  0.999995  0.999989  0.748735  1
  Si  Si29  1  0.333108  0.666218  0.040699  1
  Os  Os30  1  0.495800  0.991601  0.000653  1
  Os  Os31  1  0.008481  0.504010  0.000805  1
  Os  Os32  1  0.500237  0.000474  0.498648  1
  Os  Os33  1  0.495529  0.504010  0.000805  1
  Os  Os34  1  0.999579  0.499539  0.498487  1
  Os  Os35  1  0.499960  0.499539  0.498487  1
  Os  Os36  1  0.000029  0.000058  0.998940  1
  Os  Os37  1  0.000039  0.000079  0.498455  1
