# generated using pymatgen
data_La4Ga5Ir5Pd4
_symmetry_space_group_name_H-M   'P 1'
_cell_length_a   12.59160880
_cell_length_b   12.57190678
_cell_length_c   12.59160786
_cell_angle_alpha   26.02711881
_cell_angle_beta   26.14413899
_cell_angle_gamma   26.02711306
_symmetry_Int_Tables_number   1
_chemical_formula_structural   La4Ga5Ir5Pd4
_chemical_formula_sum   'La4 Ga5 Ir5 Pd4'
_cell_volume   339.03539244
_cell_formula_units_Z   1
loop_
 _symmetry_equiv_pos_site_id
 _symmetry_equiv_pos_as_xyz
  1  'x, y, z'
loop_
 _atom_site_type_symbol
 _atom_site_label
 _atom_site_symmetry_multiplicity
 _atom_site_fract_x
 _atom_site_fract_y
 _atom_site_fract_z
 _atom_site_occupancy
  La  La0  1  0.954897  0.955242  0.954897  1
  La  La1  1  0.047323  0.047835  0.047323  1
  La  La2  1  0.855946  0.842429  0.855946  1
  La  La3  1  0.145037  0.143007  0.145037  1
  Ga  Ga4  1  0.494330  0.507438  0.494330  1
  Ga  Ga5  1  0.723195  0.717264  0.723195  1
  Ga  Ga6  1  0.278897  0.278400  0.278897  1
  Ga  Ga7  1  0.612874  0.613756  0.612874  1
  Ga  Ga8  1  0.384818  0.395281  0.384818  1
  Ir  Ir9  1  0.498983  0.499955  0.001302  1
  Ir  Ir10  1  0.001302  0.499955  0.498983  1
  Ir  Ir11  1  0.499522  0.003196  0.499522  1
  Ir  Ir12  1  0.613378  0.610578  0.106025  1
  Ir  Ir13  1  0.106025  0.610578  0.613378  1
  Pd  Pd14  1  0.390359  0.891027  0.390359  1
  Pd  Pd15  1  0.391031  0.388682  0.890959  1
  Pd  Pd16  1  0.890959  0.388682  0.391031  1
  Pd  Pd17  1  0.611123  0.106694  0.611123  1
