# generated using pymatgen
data_Y5TmCo14(P3Rh)4
_symmetry_space_group_name_H-M   'P 1'
_cell_length_a   3.73547000
_cell_length_b   10.67651169
_cell_length_c   12.38835977
_cell_angle_alpha   90.04078193
_cell_angle_beta   90.00000000
_cell_angle_gamma   90.00000000
_symmetry_Int_Tables_number   1
_chemical_formula_structural   Y5TmCo14(P3Rh)4
_chemical_formula_sum   'Y5 Tm1 Co14 P12 Rh4'
_cell_volume   494.06982671
_cell_formula_units_Z   1
loop_
 _symmetry_equiv_pos_site_id
 _symmetry_equiv_pos_as_xyz
  1  'x, y, z'
loop_
 _atom_site_type_symbol
 _atom_site_label
 _atom_site_symmetry_multiplicity
 _atom_site_fract_x
 _atom_site_fract_y
 _atom_site_fract_z
 _atom_site_occupancy
  Y  Y0  1  0.000000  0.499654  0.520040  1
  Y  Y1  1  0.500000  0.000401  0.479580  1
  Y  Y2  1  0.500000  0.186047  0.205701  1
  Y  Y3  1  0.000000  0.686295  0.794197  1
  Y  Y4  1  0.000000  0.313772  0.794695  1
  Tm  Tm5  1  0.500000  0.813965  0.205937  1
  Co  Co6  1  0.000000  0.500773  0.988911  1
  Co  Co7  1  0.500000  0.999448  0.012317  1
  Co  Co8  1  0.500000  0.332255  0.994065  1
  Co  Co9  1  0.500000  0.668609  0.994532  1
  Co  Co10  1  0.000000  0.167424  0.006518  1
  Co  Co11  1  0.000000  0.832054  0.007024  1
  Co  Co12  1  0.500000  0.299899  0.429492  1
  Co  Co13  1  0.500000  0.699748  0.428552  1
  Co  Co14  1  0.000000  0.199792  0.570346  1
  Co  Co15  1  0.000000  0.800130  0.569589  1
  Co  Co16  1  0.500000  0.880528  0.709359  1
  Co  Co17  1  0.500000  0.119497  0.709952  1
  Co  Co18  1  0.000000  0.620591  0.289234  1
  Co  Co19  1  0.000000  0.380643  0.290175  1
  P  P20  1  0.500000  0.500390  0.890493  1
  P  P21  1  0.000000  0.999193  0.110439  1
  P  P22  1  0.500000  0.499750  0.349281  1
  P  P23  1  0.000000  0.000011  0.650480  1
  P  P24  1  0.500000  0.302035  0.613356  1
  P  P25  1  0.500000  0.697995  0.612682  1
  P  P26  1  0.000000  0.197465  0.386497  1
  P  P27  1  0.000000  0.801868  0.385538  1
  P  P28  1  0.500000  0.844911  0.894846  1
  P  P29  1  0.500000  0.154950  0.895299  1
  P  P30  1  0.000000  0.656615  0.106143  1
  P  P31  1  0.000000  0.344836  0.105104  1
  Rh  Rh32  1  0.500000  0.500526  0.159914  1
  Rh  Rh33  1  0.000000  0.999511  0.840247  1
  Rh  Rh34  1  0.500000  0.500201  0.703691  1
  Rh  Rh35  1  0.000000  0.998216  0.295772  1
