# generated using pymatgen
data_Dy8Er7Sc5Si15Ru
_symmetry_space_group_name_H-M   'P 1'
_cell_length_a   7.20015615
_cell_length_b   7.64608240
_cell_length_c   14.28568021
_cell_angle_alpha   90.11398213
_cell_angle_beta   90.04319399
_cell_angle_gamma   90.25604206
_symmetry_Int_Tables_number   1
_chemical_formula_structural   Dy8Er7Sc5Si15Ru
_chemical_formula_sum   'Dy8 Er7 Sc5 Si15 Ru1'
_cell_volume   786.45973179
_cell_formula_units_Z   1
loop_
 _symmetry_equiv_pos_site_id
 _symmetry_equiv_pos_as_xyz
  1  'x, y, z'
loop_
 _atom_site_type_symbol
 _atom_site_label
 _atom_site_symmetry_multiplicity
 _atom_site_fract_x
 _atom_site_fract_y
 _atom_site_fract_z
 _atom_site_occupancy
  Dy  Dy0  1  0.017044  0.182326  0.096928  1
  Dy  Dy1  1  0.986666  0.824196  0.906761  1
  Dy  Dy2  1  0.483316  0.682586  0.904375  1
  Dy  Dy3  1  0.985360  0.825123  0.595578  1
  Dy  Dy4  1  0.515218  0.319257  0.096012  1
  Dy  Dy5  1  0.017329  0.184016  0.401209  1
  Dy  Dy6  1  0.516120  0.319247  0.401791  1
  Dy  Dy7  1  0.484765  0.681471  0.595572  1
  Er  Er8  1  0.310342  0.172605  0.628888  1
  Er  Er9  1  0.676991  0.824919  0.372571  1
  Er  Er10  1  0.176781  0.678171  0.372789  1
  Er  Er11  1  0.675904  0.824362  0.125353  1
  Er  Er12  1  0.833475  0.316860  0.628603  1
  Er  Er13  1  0.310513  0.172982  0.872525  1
  Er  Er14  1  0.833197  0.319567  0.873754  1
  Sc  Sc15  1  0.156475  0.516720  0.750493  1
  Sc  Sc16  1  0.843078  0.488340  0.248414  1
  Sc  Sc17  1  0.341954  0.013453  0.248157  1
  Sc  Sc18  1  0.668142  0.987860  0.750781  1
  Sc  Sc19  1  0.177229  0.678146  0.127582  1
  Si  Si20  1  0.980767  0.896711  0.247107  1
  Si  Si21  1  0.476387  0.598670  0.246763  1
  Si  Si22  1  0.520802  0.402856  0.750719  1
  Si  Si23  1  0.281727  0.859954  0.750521  1
  Si  Si24  1  0.716907  0.136602  0.248833  1
  Si  Si25  1  0.218757  0.367507  0.247997  1
  Si  Si26  1  0.775916  0.632105  0.750524  1
  Si  Si27  1  0.156921  0.472201  0.538318  1
  Si  Si28  1  0.844977  0.531491  0.460655  1
  Si  Si29  1  0.345381  0.970699  0.459023  1
  Si  Si30  1  0.854330  0.531997  0.042493  1
  Si  Si31  1  0.650751  0.032115  0.538977  1
  Si  Si32  1  0.160793  0.474363  0.966336  1
  Si  Si33  1  0.650341  0.031281  0.960734  1
  Si  Si34  1  0.340215  0.964322  0.041441  1
  Ru  Ru35  1  0.015127  0.084920  0.751424  1
