# generated using pymatgen
data_Y3Tm13Cd4TcNi3
_symmetry_space_group_name_H-M   'P 1'
_cell_length_a   9.51184073
_cell_length_b   9.51465860
_cell_length_c   9.50632542
_cell_angle_alpha   59.43903113
_cell_angle_beta   59.32873113
_cell_angle_gamma   59.34070692
_symmetry_Int_Tables_number   1
_chemical_formula_structural   Y3Tm13Cd4TcNi3
_chemical_formula_sum   'Y3 Tm13 Cd4 Tc1 Ni3'
_cell_volume   599.62101460
_cell_formula_units_Z   1
loop_
 _symmetry_equiv_pos_site_id
 _symmetry_equiv_pos_as_xyz
  1  'x, y, z'
loop_
 _atom_site_type_symbol
 _atom_site_label
 _atom_site_symmetry_multiplicity
 _atom_site_fract_x
 _atom_site_fract_y
 _atom_site_fract_z
 _atom_site_occupancy
  Y  Y0  1  0.190234  0.805464  0.189752  1
  Y  Y1  1  0.815398  0.816759  0.184298  1
  Y  Y2  1  0.188793  0.189188  0.806201  1
  Tm  Tm3  1  0.596664  0.596287  0.597134  1
  Tm  Tm4  1  0.602674  0.602105  0.205173  1
  Tm  Tm5  1  0.602728  0.204240  0.602863  1
  Tm  Tm6  1  0.204452  0.601700  0.602620  1
  Tm  Tm7  1  0.061350  0.435816  0.437335  1
  Tm  Tm8  1  0.436557  0.062073  0.061232  1
  Tm  Tm9  1  0.436843  0.061314  0.436875  1
  Tm  Tm10  1  0.061979  0.435657  0.061664  1
  Tm  Tm11  1  0.437598  0.436167  0.060953  1
  Tm  Tm12  1  0.061571  0.062168  0.435921  1
  Tm  Tm13  1  0.186984  0.814275  0.812368  1
  Tm  Tm14  1  0.801923  0.192485  0.191372  1
  Tm  Tm15  1  0.814552  0.186912  0.814101  1
  Cd  Cd16  1  0.830077  0.830186  0.828828  1
  Cd  Cd17  1  0.828589  0.829687  0.507065  1
  Cd  Cd18  1  0.828574  0.505682  0.830092  1
  Cd  Cd19  1  0.506698  0.828545  0.829039  1
  Tc  Tc20  1  0.396453  0.393602  0.393508  1
  Ni  Ni21  1  0.392285  0.392502  0.825644  1
  Ni  Ni22  1  0.391256  0.825941  0.393225  1
  Ni  Ni23  1  0.825761  0.391241  0.392733  1
