# generated using pymatgen
data_PmPrSi3Ni
_symmetry_space_group_name_H-M   'P 1'
_cell_length_a   5.87307145
_cell_length_b   5.87132810
_cell_length_c   5.87133000
_cell_angle_alpha   139.56361750
_cell_angle_beta   106.81588382
_cell_angle_gamma   87.10563714
_symmetry_Int_Tables_number   1
_chemical_formula_structural   PmPrSi3Ni
_chemical_formula_sum   'Pm1 Pr1 Si3 Ni1'
_cell_volume   120.91438239
_cell_formula_units_Z   1
loop_
 _symmetry_equiv_pos_site_id
 _symmetry_equiv_pos_as_xyz
  1  'x, y, z'
loop_
 _atom_site_type_symbol
 _atom_site_label
 _atom_site_symmetry_multiplicity
 _atom_site_fract_x
 _atom_site_fract_y
 _atom_site_fract_z
 _atom_site_occupancy
  Pm  Pm0  1  0.003159  0.002419  0.000740  1
  Pr  Pr1  1  0.497627  0.496960  0.000667  1
  Si  Si2  1  0.087575  0.749190  0.338384  1
  Si  Si3  1  0.901472  0.250759  0.650713  1
  Si  Si4  1  0.430276  0.749855  0.680420  1
  Ni  Ni5  1  0.579889  0.250815  0.329075  1
