# generated using pymatgen
data_Zr2Si7(NiRu2)4
_symmetry_space_group_name_H-M   'P 1'
_cell_length_a   9.43770172
_cell_length_b   9.39814391
_cell_length_c   3.76067100
_cell_angle_alpha   90.00000000
_cell_angle_beta   90.00000000
_cell_angle_gamma   119.39590653
_symmetry_Int_Tables_number   1
_chemical_formula_structural   Zr2Si7(NiRu2)4
_chemical_formula_sum   'Zr2 Si7 Ni4 Ru8'
_cell_volume   290.61358542
_cell_formula_units_Z   1
loop_
 _symmetry_equiv_pos_site_id
 _symmetry_equiv_pos_as_xyz
  1  'x, y, z'
loop_
 _atom_site_type_symbol
 _atom_site_label
 _atom_site_symmetry_multiplicity
 _atom_site_fract_x
 _atom_site_fract_y
 _atom_site_fract_z
 _atom_site_occupancy
  Zr  Zr0  1  0.001793  0.002633  0.000000  1
  Zr  Zr1  1  0.331238  0.665644  0.500000  1
  Si  Si2  1  0.667598  0.333606  0.000000  1
  Si  Si3  1  0.067240  0.444074  0.000000  1
  Si  Si4  1  0.267887  0.222642  0.500000  1
  Si  Si5  1  0.780504  0.043776  0.500000  1
  Si  Si6  1  0.954258  0.737087  0.500000  1
  Si  Si7  1  0.552860  0.627379  0.000000  1
  Si  Si8  1  0.379887  0.928589  0.000000  1
  Ni  Ni9  1  0.391480  0.180880  0.000000  1
  Ni  Ni10  1  0.791261  0.613896  0.000000  1
  Ni  Ni11  1  0.818129  0.204764  0.000000  1
  Ni  Ni12  1  0.606236  0.902143  0.000000  1
  Ru  Ru13  1  0.296176  0.398428  0.000000  1
  Ru  Ru14  1  0.874816  0.447260  0.500000  1
  Ru  Ru15  1  0.102232  0.706008  0.000000  1
  Ru  Ru16  1  0.554497  0.427453  0.500000  1
  Ru  Ru17  1  0.231528  0.953922  0.500000  1
  Ru  Ru18  1  0.045377  0.275288  0.500000  1
  Ru  Ru19  1  0.717326  0.771124  0.500000  1
  Ru  Ru20  1  0.567679  0.113406  0.500000  1
