# generated using pymatgen
data_Th5(Se4S)2
_symmetry_space_group_name_H-M   'P 1'
_cell_length_a   10.91937000
_cell_length_b   10.91937000
_cell_length_c   6.69507900
_cell_angle_alpha   90.00000000
_cell_angle_beta   90.00000000
_cell_angle_gamma   90.00000000
_symmetry_Int_Tables_number   1
_chemical_formula_structural   Th5(Se4S)2
_chemical_formula_sum   'Th10 Se16 S4'
_cell_volume   798.27195219
_cell_formula_units_Z   2
loop_
 _symmetry_equiv_pos_site_id
 _symmetry_equiv_pos_as_xyz
  1  'x, y, z'
loop_
 _atom_site_type_symbol
 _atom_site_label
 _atom_site_symmetry_multiplicity
 _atom_site_fract_x
 _atom_site_fract_y
 _atom_site_fract_z
 _atom_site_occupancy
  Th  Th0  1  0.847860  0.147257  0.248551  1
  Th  Th1  1  0.647257  0.652140  0.248551  1
  Th  Th2  1  0.352743  0.347860  0.248551  1
  Th  Th3  1  0.152140  0.852743  0.248551  1
  Th  Th4  1  0.500000  0.000000  0.860502  1
  Th  Th5  1  0.347860  0.647257  0.751449  1
  Th  Th6  1  0.147257  0.152140  0.751449  1
  Th  Th7  1  0.852743  0.847860  0.751449  1
  Th  Th8  1  0.652140  0.352743  0.751449  1
  Th  Th9  1  0.000000  0.500000  0.139498  1
  Se  Se10  1  0.711213  0.089160  0.620311  1
  Se  Se11  1  0.589160  0.788787  0.620311  1
  Se  Se12  1  0.410840  0.211213  0.620311  1
  Se  Se13  1  0.288787  0.910840  0.620311  1
  Se  Se14  1  0.709795  0.910466  0.113578  1
  Se  Se15  1  0.589534  0.209795  0.113578  1
  Se  Se16  1  0.410466  0.790205  0.113578  1
  Se  Se17  1  0.290205  0.089534  0.113578  1
  Se  Se18  1  0.209795  0.410466  0.886422  1
  Se  Se19  1  0.089534  0.709795  0.886422  1
  Se  Se20  1  0.910466  0.290205  0.886422  1
  Se  Se21  1  0.790205  0.589534  0.886422  1
  Se  Se22  1  0.211213  0.589160  0.379689  1
  Se  Se23  1  0.089160  0.288787  0.379689  1
  Se  Se24  1  0.910840  0.711213  0.379689  1
  Se  Se25  1  0.788787  0.410840  0.379689  1
  S  S26  1  0.500000  0.500000  0.000000  1
  S  S27  1  0.000000  0.000000  0.000000  1
  S  S28  1  0.500000  0.500000  0.500000  1
  S  S29  1  0.000000  0.000000  0.500000  1
