# generated using pymatgen
data_Yb2Pr18Si15Ru
_symmetry_space_group_name_H-M   'P 1'
_cell_length_a   7.92126376
_cell_length_b   7.91608388
_cell_length_c   15.24723100
_cell_angle_alpha   90.05754851
_cell_angle_beta   89.67586584
_cell_angle_gamma   90.20168098
_symmetry_Int_Tables_number   1
_chemical_formula_structural   Yb2Pr18Si15Ru
_chemical_formula_sum   'Yb2 Pr18 Si15 Ru1'
_cell_volume   956.06185494
_cell_formula_units_Z   1
loop_
 _symmetry_equiv_pos_site_id
 _symmetry_equiv_pos_as_xyz
  1  'x, y, z'
loop_
 _atom_site_type_symbol
 _atom_site_label
 _atom_site_symmetry_multiplicity
 _atom_site_fract_x
 _atom_site_fract_y
 _atom_site_fract_z
 _atom_site_occupancy
  Yb  Yb0  1  0.309488  0.309070  0.998887  1
  Yb  Yb1  1  0.190041  0.810233  0.250398  1
  Pr  Pr2  1  0.824879  0.188312  0.747669  1
  Pr  Pr3  1  0.692901  0.688170  0.501267  1
  Pr  Pr4  1  0.375030  0.010002  0.447880  1
  Pr  Pr5  1  0.486602  0.877281  0.698369  1
  Pr  Pr6  1  0.509247  0.123481  0.197837  1
  Pr  Pr7  1  0.875121  0.489716  0.299581  1
  Pr  Pr8  1  0.127345  0.506846  0.800271  1
  Pr  Pr9  1  0.625239  0.990990  0.949039  1
  Pr  Pr10  1  0.007205  0.376605  0.550735  1
  Pr  Pr11  1  0.991092  0.623616  0.051918  1
  Pr  Pr12  1  0.132854  0.987234  0.874556  1
  Pr  Pr13  1  0.513317  0.628034  0.126086  1
  Pr  Pr14  1  0.470225  0.359829  0.629350  1
  Pr  Pr15  1  0.627266  0.512662  0.875512  1
  Pr  Pr16  1  0.374267  0.484256  0.373416  1
  Pr  Pr17  1  0.874780  0.017148  0.376097  1
  Pr  Pr18  1  0.987671  0.125871  0.123898  1
  Pr  Pr19  1  0.027557  0.882101  0.626209  1
  Si  Si20  1  0.333892  0.698388  0.950231  1
  Si  Si21  1  0.664012  0.300864  0.450168  1
  Si  Si22  1  0.701100  0.334417  0.051840  1
  Si  Si23  1  0.304301  0.669220  0.546975  1
  Si  Si24  1  0.801066  0.834772  0.200640  1
  Si  Si25  1  0.165966  0.201762  0.297951  1
  Si  Si26  1  0.833163  0.800937  0.800688  1
  Si  Si27  1  0.286692  0.917920  0.058750  1
  Si  Si28  1  0.581683  0.786694  0.309254  1
  Si  Si29  1  0.423506  0.207698  0.812475  1
  Si  Si30  1  0.780902  0.581872  0.691447  1
  Si  Si31  1  0.212287  0.420662  0.190172  1
  Si  Si32  1  0.702900  0.073828  0.558443  1
  Si  Si33  1  0.918630  0.287152  0.942188  1
  Si  Si34  1  0.079234  0.715448  0.440947  1
  Ru  Ru35  1  0.188533  0.176911  0.698850  1
