# generated using pymatgen
data_Tm4Mn2ReTc5
_symmetry_space_group_name_H-M   'P 1'
_cell_length_a   5.28681199
_cell_length_b   5.27556088
_cell_length_c   8.85261500
_cell_angle_alpha   90.00000000
_cell_angle_beta   90.00000000
_cell_angle_gamma   119.92961577
_symmetry_Int_Tables_number   1
_chemical_formula_structural   Tm4Mn2ReTc5
_chemical_formula_sum   'Tm4 Mn2 Re1 Tc5'
_cell_volume   213.97956289
_cell_formula_units_Z   1
loop_
 _symmetry_equiv_pos_site_id
 _symmetry_equiv_pos_as_xyz
  1  'x, y, z'
loop_
 _atom_site_type_symbol
 _atom_site_label
 _atom_site_symmetry_multiplicity
 _atom_site_fract_x
 _atom_site_fract_y
 _atom_site_fract_z
 _atom_site_occupancy
  Tm  Tm0  1  0.333480  0.666741  0.435515  1
  Tm  Tm1  1  0.666484  0.333242  0.564217  1
  Tm  Tm2  1  0.666484  0.333242  0.935783  1
  Tm  Tm3  1  0.333480  0.666741  0.064485  1
  Mn  Mn4  1  0.997577  0.998788  0.499838  1
  Mn  Mn5  1  0.997577  0.998788  0.000162  1
  Re  Re6  1  0.664318  0.832159  0.750000  1
  Tc  Tc7  1  0.830864  0.168379  0.250000  1
  Tc  Tc8  1  0.830864  0.662484  0.250000  1
  Tc  Tc9  1  0.338374  0.169187  0.250000  1
  Tc  Tc10  1  0.170249  0.831901  0.750000  1
  Tc  Tc11  1  0.170249  0.338349  0.750000  1
