# generated using pymatgen
data_La2PrTl(TeO6)2
_symmetry_space_group_name_H-M   'P 1'
_cell_length_a   5.50447720
_cell_length_b   9.44557536
_cell_length_c   10.42495000
_cell_angle_alpha   90.00000000
_cell_angle_beta   90.00000000
_cell_angle_gamma   90.25017295
_symmetry_Int_Tables_number   1
_chemical_formula_structural   La2PrTl(TeO6)2
_chemical_formula_sum   'La4 Pr2 Tl2 Te4 O24'
_cell_volume   542.01878171
_cell_formula_units_Z   2
loop_
 _symmetry_equiv_pos_site_id
 _symmetry_equiv_pos_as_xyz
  1  'x, y, z'
loop_
 _atom_site_type_symbol
 _atom_site_label
 _atom_site_symmetry_multiplicity
 _atom_site_fract_x
 _atom_site_fract_y
 _atom_site_fract_z
 _atom_site_occupancy
  La  La0  1  0.022824  0.219346  0.142557  1
  La  La1  1  0.477176  0.780654  0.642557  1
  La  La2  1  0.973789  0.716562  0.359371  1
  La  La3  1  0.526211  0.283438  0.859371  1
  Pr  Pr4  1  0.975888  0.613512  0.955779  1
  Pr  Pr5  1  0.524112  0.386488  0.455779  1
  Tl  Tl6  1  0.010358  0.105882  0.553594  1
  Tl  Tl7  1  0.489642  0.894118  0.053594  1
  Te  Te8  1  0.530726  0.006122  0.356142  1
  Te  Te9  1  0.969274  0.993878  0.856142  1
  Te  Te10  1  0.455337  0.506864  0.142992  1
  Te  Te11  1  0.044663  0.493136  0.642992  1
  O  O12  1  0.370539  0.144425  0.469845  1
  O  O13  1  0.129461  0.855575  0.969845  1
  O  O14  1  0.574468  0.659069  0.029563  1
  O  O15  1  0.925532  0.340931  0.529563  1
  O  O16  1  0.721624  0.395787  0.064342  1
  O  O17  1  0.778376  0.604213  0.564342  1
  O  O18  1  0.314919  0.863603  0.428706  1
  O  O19  1  0.185081  0.136397  0.928706  1
  O  O20  1  0.255385  0.421435  0.006198  1
  O  O21  1  0.244615  0.578565  0.506198  1
  O  O22  1  0.757504  0.931548  0.492151  1
  O  O23  1  0.742496  0.068452  0.992151  1
  O  O24  1  0.181572  0.632904  0.175529  1
  O  O25  1  0.318428  0.367096  0.675529  1
  O  O26  1  0.761742  0.160421  0.329045  1
  O  O27  1  0.738258  0.839579  0.829045  1
  O  O28  1  0.316126  0.042201  0.211886  1
  O  O29  1  0.183874  0.957799  0.711886  1
  O  O30  1  0.655661  0.554681  0.288635  1
  O  O31  1  0.844339  0.445319  0.788635  1
  O  O32  1  0.319298  0.360605  0.252185  1
  O  O33  1  0.180702  0.639395  0.752185  1
  O  O34  1  0.704749  0.878203  0.241478  1
  O  O35  1  0.795251  0.121797  0.741478  1
