# generated using pymatgen
data_Ac3Sm7C4I15
_symmetry_space_group_name_H-M   'P 1'
_cell_length_a   9.94774919
_cell_length_b   10.71772169
_cell_length_c   11.89463368
_cell_angle_alpha   93.41707466
_cell_angle_beta   114.61472344
_cell_angle_gamma   109.43426002
_symmetry_Int_Tables_number   1
_chemical_formula_structural   Ac3Sm7C4I15
_chemical_formula_sum   'Ac3 Sm7 C4 I15'
_cell_volume   1057.79339225
_cell_formula_units_Z   1
loop_
 _symmetry_equiv_pos_site_id
 _symmetry_equiv_pos_as_xyz
  1  'x, y, z'
loop_
 _atom_site_type_symbol
 _atom_site_label
 _atom_site_symmetry_multiplicity
 _atom_site_fract_x
 _atom_site_fract_y
 _atom_site_fract_z
 _atom_site_occupancy
  Ac  Ac0  1  0.713092  0.572443  0.047724  1
  Ac  Ac1  1  0.285579  0.429723  0.953670  1
  Ac  Ac2  1  0.666013  0.247561  0.830464  1
  Sm  Sm3  1  0.594739  0.546519  0.339211  1
  Sm  Sm4  1  0.354037  0.750363  0.167375  1
  Sm  Sm5  1  0.772314  0.882031  0.258144  1
  Sm  Sm6  1  0.524805  0.183765  0.096444  1
  Sm  Sm7  1  0.230450  0.116672  0.745459  1
  Sm  Sm8  1  0.400538  0.453897  0.660318  1
  Sm  Sm9  1  0.472153  0.816661  0.903188  1
  C  C10  1  0.481312  0.294691  0.934634  1
  C  C11  1  0.518647  0.705865  0.064957  1
  C  C12  1  0.451196  0.357166  0.830747  1
  C  C13  1  0.547094  0.642239  0.168015  1
  I  I14  1  0.213741  0.907083  0.940012  1
  I  I15  1  0.108944  0.189398  0.476633  1
  I  I16  1  0.163055  0.565554  0.697866  1
  I  I17  1  0.388751  0.956947  0.646124  1
  I  I18  1  0.695484  0.737045  0.810731  1
  I  I19  1  0.301054  0.263094  0.188132  1
  I  I20  1  0.833593  0.433789  0.302294  1
  I  I21  1  0.890330  0.809086  0.526202  1
  I  I22  1  0.361464  0.629690  0.407382  1
  I  I23  1  0.056257  0.847140  0.228743  1
  I  I24  1  0.788530  0.089277  0.069961  1
  I  I25  1  0.634295  0.378655  0.581242  1
  I  I26  1  0.943224  0.151062  0.770480  1
  I  I27  1  0.597659  0.030714  0.346542  1
  I  I28  1  0.011648  0.511869  0.007307  1
