# generated using pymatgen
data_Yb3Ga5Cu6
_symmetry_space_group_name_H-M   'P 1'
_cell_length_a   7.93043177
_cell_length_b   7.93043223
_cell_length_c   7.93043241
_cell_angle_alpha   148.84427155
_cell_angle_beta   113.01561306
_cell_angle_gamma   75.71495080
_symmetry_Int_Tables_number   1
_chemical_formula_structural   Yb3Ga5Cu6
_chemical_formula_sum   'Yb3 Ga5 Cu6'
_cell_volume   233.42430587
_cell_formula_units_Z   1
loop_
 _symmetry_equiv_pos_site_id
 _symmetry_equiv_pos_as_xyz
  1  'x, y, z'
loop_
 _atom_site_type_symbol
 _atom_site_label
 _atom_site_symmetry_multiplicity
 _atom_site_fract_x
 _atom_site_fract_y
 _atom_site_fract_z
 _atom_site_occupancy
  Yb  Yb0  1  0.000000  0.000000  0.000000  1
  Yb  Yb1  1  0.690405  0.690405  0.000000  1
  Yb  Yb2  1  0.309595  0.309595  0.000000  1
  Ga  Ga3  1  0.328047  0.674004  0.654043  1
  Ga  Ga4  1  0.500000  0.000000  0.500000  1
  Ga  Ga5  1  0.671953  0.325996  0.345957  1
  Ga  Ga6  1  0.980039  0.325996  0.654043  1
  Ga  Ga7  1  0.019961  0.674004  0.345957  1
  Cu  Cu8  1  0.301875  0.500000  0.801875  1
  Cu  Cu9  1  0.698125  0.500000  0.198125  1
  Cu  Cu10  1  0.397943  0.120244  0.277697  1
  Cu  Cu11  1  0.842547  0.120244  0.722303  1
  Cu  Cu12  1  0.157453  0.879756  0.277697  1
  Cu  Cu13  1  0.602057  0.879756  0.722303  1
