# generated using pymatgen
data_La2Nd4FeBr10
_symmetry_space_group_name_H-M   'P 1'
_cell_length_a   7.71028185
_cell_length_b   9.68459921
_cell_length_c   9.36130276
_cell_angle_alpha   107.81569540
_cell_angle_beta   95.81232667
_cell_angle_gamma   106.35347388
_symmetry_Int_Tables_number   1
_chemical_formula_structural   La2Nd4FeBr10
_chemical_formula_sum   'La2 Nd4 Fe1 Br10'
_cell_volume   624.98980031
_cell_formula_units_Z   1
loop_
 _symmetry_equiv_pos_site_id
 _symmetry_equiv_pos_as_xyz
  1  'x, y, z'
loop_
 _atom_site_type_symbol
 _atom_site_label
 _atom_site_symmetry_multiplicity
 _atom_site_fract_x
 _atom_site_fract_y
 _atom_site_fract_z
 _atom_site_occupancy
  La  La0  1  0.382961  0.955380  0.725001  1
  La  La1  1  0.617039  0.044620  0.274999  1
  Nd  Nd2  1  0.468818  0.300970  0.596569  1
  Nd  Nd3  1  0.531182  0.699030  0.403431  1
  Nd  Nd4  1  0.866207  0.138878  0.685277  1
  Nd  Nd5  1  0.133793  0.861122  0.314723  1
  Fe  Fe6  1  0.500000  0.000000  0.500000  1
  Br  Br7  1  0.419426  0.633361  0.672533  1
  Br  Br8  1  0.580574  0.366639  0.327467  1
  Br  Br9  1  0.289811  0.256222  0.848494  1
  Br  Br10  1  0.710189  0.743778  0.151506  1
  Br  Br11  1  0.848982  0.449038  0.769231  1
  Br  Br12  1  0.151018  0.550962  0.230769  1
  Br  Br13  1  0.046824  0.171847  0.416972  1
  Br  Br14  1  0.247962  0.916226  0.044746  1
  Br  Br15  1  0.752038  0.083774  0.955254  1
  Br  Br16  1  0.953176  0.828153  0.583028  1
