# generated using pymatgen
data_Na2Cd3InAu2
_symmetry_space_group_name_H-M   'P 1'
_cell_length_a   5.73592820
_cell_length_b   5.73592733
_cell_length_c   8.09411248
_cell_angle_alpha   90.28442504
_cell_angle_beta   89.71557776
_cell_angle_gamma   133.78891065
_symmetry_Int_Tables_number   1
_chemical_formula_structural   Na2Cd3InAu2
_chemical_formula_sum   'Na2 Cd3 In1 Au2'
_cell_volume   192.24001646
_cell_formula_units_Z   1
loop_
 _symmetry_equiv_pos_site_id
 _symmetry_equiv_pos_as_xyz
  1  'x, y, z'
loop_
 _atom_site_type_symbol
 _atom_site_label
 _atom_site_symmetry_multiplicity
 _atom_site_fract_x
 _atom_site_fract_y
 _atom_site_fract_z
 _atom_site_occupancy
  Na  Na0  1  0.430501  0.569499  0.246886  1
  Na  Na1  1  0.570634  0.429366  0.752800  1
  Cd  Cd2  1  0.861516  0.138484  0.948421  1
  Cd  Cd3  1  0.137787  0.862213  0.053960  1
  Cd  Cd4  1  0.135131  0.864869  0.444303  1
  In  In5  1  0.859970  0.140030  0.555035  1
  Au  Au6  1  0.721463  0.278537  0.251874  1
  Au  Au7  1  0.282998  0.717002  0.746721  1
