# generated using pymatgen
data_Nd6Ho3ErPb6
_symmetry_space_group_name_H-M   'P 1'
_cell_length_a   9.26080200
_cell_length_b   9.26080268
_cell_length_c   6.75617300
_cell_angle_alpha   90.00000000
_cell_angle_beta   90.00000000
_cell_angle_gamma   120.00000471
_symmetry_Int_Tables_number   1
_chemical_formula_structural   Nd6Ho3ErPb6
_chemical_formula_sum   'Nd6 Ho3 Er1 Pb6'
_cell_volume   501.79762614
_cell_formula_units_Z   1
loop_
 _symmetry_equiv_pos_site_id
 _symmetry_equiv_pos_as_xyz
  1  'x, y, z'
loop_
 _atom_site_type_symbol
 _atom_site_label
 _atom_site_symmetry_multiplicity
 _atom_site_fract_x
 _atom_site_fract_y
 _atom_site_fract_z
 _atom_site_occupancy
  Nd  Nd0  1  0.759534  0.759497  0.749966  1
  Nd  Nd1  1  0.240503  0.000037  0.749966  1
  Nd  Nd2  1  0.999963  0.240466  0.749966  1
  Nd  Nd3  1  0.240503  0.240466  0.250034  1
  Nd  Nd4  1  0.759534  0.000037  0.250034  1
  Nd  Nd5  1  0.999963  0.759497  0.250034  1
  Ho  Ho6  1  0.666667  0.333333  0.000000  1
  Ho  Ho7  1  0.333333  0.666667  0.000000  1
  Ho  Ho8  1  0.333333  0.666667  0.500000  1
  Er  Er9  1  0.666667  0.333333  0.500000  1
  Pb  Pb10  1  0.397785  0.397676  0.749918  1
  Pb  Pb11  1  0.602324  0.000110  0.749918  1
  Pb  Pb12  1  0.999890  0.602215  0.749918  1
  Pb  Pb13  1  0.602324  0.602215  0.250082  1
  Pb  Pb14  1  0.397785  0.000110  0.250082  1
  Pb  Pb15  1  0.999890  0.397676  0.250082  1
