# generated using pymatgen
data_Zn22Ni2Ru
_symmetry_space_group_name_H-M   'P 1'
_cell_length_a   7.71890352
_cell_length_b   7.71890392
_cell_length_c   7.73274656
_cell_angle_alpha   71.94903816
_cell_angle_beta   71.94903819
_cell_angle_gamma   57.79711595
_symmetry_Int_Tables_number   1
_chemical_formula_structural   Zn22Ni2Ru
_chemical_formula_sum   'Zn22 Ni2 Ru1'
_cell_volume   364.61757254
_cell_formula_units_Z   1
loop_
 _symmetry_equiv_pos_site_id
 _symmetry_equiv_pos_as_xyz
  1  'x, y, z'
loop_
 _atom_site_type_symbol
 _atom_site_label
 _atom_site_symmetry_multiplicity
 _atom_site_fract_x
 _atom_site_fract_y
 _atom_site_fract_z
 _atom_site_occupancy
  Zn  Zn0  1  0.349063  0.737752  0.309572  1
  Zn  Zn1  1  0.650937  0.262248  0.690428  1
  Zn  Zn2  1  0.262248  0.650937  0.690428  1
  Zn  Zn3  1  0.737752  0.349063  0.309572  1
  Zn  Zn4  1  0.676737  0.323263  0.000000  1
  Zn  Zn5  1  0.323263  0.676737  0.000000  1
  Zn  Zn6  1  0.828314  0.828314  0.788254  1
  Zn  Zn7  1  0.171686  0.171686  0.211746  1
  Zn  Zn8  1  0.976571  0.976571  0.173085  1
  Zn  Zn9  1  0.023429  0.023429  0.826915  1
  Zn  Zn10  1  0.353129  0.353129  0.271707  1
  Zn  Zn11  1  0.646871  0.646871  0.728293  1
  Zn  Zn12  1  0.687038  0.687038  0.374436  1
  Zn  Zn13  1  0.312962  0.312962  0.625564  1
  Zn  Zn14  1  0.658943  0.024360  0.461686  1
  Zn  Zn15  1  0.341057  0.975640  0.538314  1
  Zn  Zn16  1  0.975640  0.341057  0.538314  1
  Zn  Zn17  1  0.024360  0.658943  0.461686  1
  Zn  Zn18  1  0.615293  0.999854  0.099941  1
  Zn  Zn19  1  0.384707  0.000146  0.900059  1
  Zn  Zn20  1  0.000146  0.384707  0.900059  1
  Zn  Zn21  1  0.999854  0.615293  0.099941  1
  Ni  Ni22  1  0.657882  0.657882  0.054378  1
  Ni  Ni23  1  0.342118  0.342118  0.945622  1
  Ru  Ru24  1  0.000000  0.000000  0.500000  1
