# generated using pymatgen
data_Mn2Nb2PtS8
_symmetry_space_group_name_H-M   'P 1'
_cell_length_a   3.33462300
_cell_length_b   10.52095700
_cell_length_c   14.76908000
_cell_angle_alpha   90.00000000
_cell_angle_beta   90.00000000
_cell_angle_gamma   90.00000000
_symmetry_Int_Tables_number   1
_chemical_formula_structural   Mn2Nb2PtS8
_chemical_formula_sum   'Mn4 Nb4 Pt2 S16'
_cell_volume   518.14991337
_cell_formula_units_Z   2
loop_
 _symmetry_equiv_pos_site_id
 _symmetry_equiv_pos_as_xyz
  1  'x, y, z'
loop_
 _atom_site_type_symbol
 _atom_site_label
 _atom_site_symmetry_multiplicity
 _atom_site_fract_x
 _atom_site_fract_y
 _atom_site_fract_z
 _atom_site_occupancy
  Mn  Mn0  1  0.000000  0.615983  0.777783  1
  Mn  Mn1  1  0.000000  0.384017  0.222217  1
  Mn  Mn2  1  0.000000  0.115983  0.722217  1
  Mn  Mn3  1  0.000000  0.884017  0.277783  1
  Nb  Nb4  1  0.500000  0.792865  0.883608  1
  Nb  Nb5  1  0.500000  0.207135  0.116392  1
  Nb  Nb6  1  0.500000  0.292865  0.616392  1
  Nb  Nb7  1  0.500000  0.707135  0.383608  1
  Pt  Pt8  1  0.000000  0.000000  0.000000  1
  Pt  Pt9  1  0.000000  0.500000  0.500000  1
  S  S10  1  0.000000  0.774248  0.007795  1
  S  S11  1  0.000000  0.225752  0.992205  1
  S  S12  1  0.000000  0.274248  0.492205  1
  S  S13  1  0.000000  0.725752  0.507795  1
  S  S14  1  0.000000  0.961347  0.842977  1
  S  S15  1  0.000000  0.038653  0.157023  1
  S  S16  1  0.000000  0.461347  0.657023  1
  S  S17  1  0.000000  0.538653  0.342977  1
  S  S18  1  0.500000  0.744270  0.719265  1
  S  S19  1  0.500000  0.255730  0.280735  1
  S  S20  1  0.500000  0.244270  0.780735  1
  S  S21  1  0.500000  0.755730  0.219265  1
  S  S22  1  0.500000  0.555384  0.877396  1
  S  S23  1  0.500000  0.444616  0.122604  1
  S  S24  1  0.500000  0.055384  0.622604  1
  S  S25  1  0.500000  0.944616  0.377396  1
