# generated using pymatgen
data_DyLu2Mg3Ge2Au
_symmetry_space_group_name_H-M   'P 1'
_cell_length_a   7.20718007
_cell_length_b   7.20717970
_cell_length_c   4.31914800
_cell_angle_alpha   90.00000000
_cell_angle_beta   90.00000000
_cell_angle_gamma   120.17151289
_symmetry_Int_Tables_number   1
_chemical_formula_structural   DyLu2Mg3Ge2Au
_chemical_formula_sum   'Dy1 Lu2 Mg3 Ge2 Au1'
_cell_volume   193.95735912
_cell_formula_units_Z   1
loop_
 _symmetry_equiv_pos_site_id
 _symmetry_equiv_pos_as_xyz
  1  'x, y, z'
loop_
 _atom_site_type_symbol
 _atom_site_label
 _atom_site_symmetry_multiplicity
 _atom_site_fract_x
 _atom_site_fract_y
 _atom_site_fract_z
 _atom_site_occupancy
  Dy  Dy0  1  0.418601  0.418601  0.000000  1
  Lu  Lu1  1  0.583266  0.000704  0.000000  1
  Lu  Lu2  1  0.000704  0.583266  0.000000  1
  Mg  Mg3  1  0.244131  0.999292  0.500000  1
  Mg  Mg4  1  0.999292  0.244131  0.500000  1
  Mg  Mg5  1  0.756647  0.756647  0.500000  1
  Ge  Ge6  1  0.332325  0.668377  0.500000  1
  Ge  Ge7  1  0.668377  0.332325  0.500000  1
  Au  Au8  1  0.996658  0.996658  0.000000  1
