# generated using pymatgen
data_La2Dy3Y3(CdNi)2
_symmetry_space_group_name_H-M   'P 1'
_cell_length_a   9.68359985
_cell_length_b   9.68359858
_cell_length_c   9.68360000
_cell_angle_alpha   60.00000198
_cell_angle_beta   60.00000631
_cell_angle_gamma   59.99999791
_symmetry_Int_Tables_number   1
_chemical_formula_structural   La2Dy3Y3(CdNi)2
_chemical_formula_sum   'La4 Dy6 Y6 Cd4 Ni4'
_cell_volume   642.08936579
_cell_formula_units_Z   2
loop_
 _symmetry_equiv_pos_site_id
 _symmetry_equiv_pos_as_xyz
  1  'x, y, z'
loop_
 _atom_site_type_symbol
 _atom_site_label
 _atom_site_symmetry_multiplicity
 _atom_site_fract_x
 _atom_site_fract_y
 _atom_site_fract_z
 _atom_site_occupancy
  La  La0  1  0.600165  0.600165  0.600165  1
  La  La1  1  0.600165  0.600165  0.199505  1
  La  La2  1  0.600165  0.199505  0.600165  1
  La  La3  1  0.199505  0.600165  0.600165  1
  Dy  Dy4  1  0.064276  0.435724  0.435724  1
  Dy  Dy5  1  0.435724  0.064276  0.064276  1
  Dy  Dy6  1  0.435724  0.064276  0.435724  1
  Dy  Dy7  1  0.064276  0.435724  0.064276  1
  Dy  Dy8  1  0.435724  0.435724  0.064276  1
  Dy  Dy9  1  0.064276  0.064276  0.435724  1
  Y  Y10  1  0.184223  0.815777  0.815777  1
  Y  Y11  1  0.815777  0.184223  0.184223  1
  Y  Y12  1  0.815777  0.184223  0.815777  1
  Y  Y13  1  0.184223  0.815777  0.184223  1
  Y  Y14  1  0.815777  0.815777  0.184223  1
  Y  Y15  1  0.184223  0.184223  0.815777  1
  Cd  Cd16  1  0.832686  0.832686  0.832686  1
  Cd  Cd17  1  0.832686  0.832686  0.501939  1
  Cd  Cd18  1  0.832686  0.501939  0.832686  1
  Cd  Cd19  1  0.501939  0.832686  0.832686  1
  Ni  Ni20  1  0.390680  0.390680  0.390680  1
  Ni  Ni21  1  0.390680  0.390680  0.827962  1
  Ni  Ni22  1  0.390680  0.827962  0.390680  1
  Ni  Ni23  1  0.827962  0.390680  0.390680  1
