# generated using pymatgen
data_Hf9Si8Mo
_symmetry_space_group_name_H-M   'P 1'
_cell_length_a   7.00894602
_cell_length_b   7.00894602
_cell_length_c   12.79883300
_cell_angle_alpha   90.00000000
_cell_angle_beta   90.00000000
_cell_angle_gamma   89.78776925
_symmetry_Int_Tables_number   1
_chemical_formula_structural   Hf9Si8Mo
_chemical_formula_sum   'Hf18 Si16 Mo2'
_cell_volume   628.74250871
_cell_formula_units_Z   2
loop_
 _symmetry_equiv_pos_site_id
 _symmetry_equiv_pos_as_xyz
  1  'x, y, z'
loop_
 _atom_site_type_symbol
 _atom_site_label
 _atom_site_symmetry_multiplicity
 _atom_site_fract_x
 _atom_site_fract_y
 _atom_site_fract_z
 _atom_site_occupancy
  Hf  Hf0  1  0.824557  0.824557  0.500000  1
  Hf  Hf1  1  0.175443  0.175443  0.000000  1
  Hf  Hf2  1  0.495882  0.152811  0.531002  1
  Hf  Hf3  1  0.504118  0.847189  0.031002  1
  Hf  Hf4  1  0.653442  0.002388  0.282647  1
  Hf  Hf5  1  0.346558  0.997612  0.782647  1
  Hf  Hf6  1  0.847189  0.504118  0.968998  1
  Hf  Hf7  1  0.152811  0.495882  0.468998  1
  Hf  Hf8  1  0.002388  0.653442  0.717353  1
  Hf  Hf9  1  0.997612  0.346558  0.217353  1
  Hf  Hf10  1  0.498098  0.355963  0.126966  1
  Hf  Hf11  1  0.501902  0.644037  0.626966  1
  Hf  Hf12  1  0.853727  0.001933  0.875728  1
  Hf  Hf13  1  0.146273  0.998067  0.375728  1
  Hf  Hf14  1  0.644037  0.501902  0.373034  1
  Hf  Hf15  1  0.355963  0.498098  0.873034  1
  Hf  Hf16  1  0.001933  0.853727  0.124272  1
  Hf  Hf17  1  0.998067  0.146273  0.624272  1
  Si  Si18  1  0.796263  0.147395  0.071718  1
  Si  Si19  1  0.203737  0.852605  0.571718  1
  Si  Si20  1  0.647049  0.702200  0.822645  1
  Si  Si21  1  0.352951  0.297800  0.322645  1
  Si  Si22  1  0.852605  0.203737  0.428282  1
  Si  Si23  1  0.147395  0.796263  0.928282  1
  Si  Si24  1  0.702200  0.647049  0.177355  1
  Si  Si25  1  0.297800  0.352951  0.677355  1
  Si  Si26  1  0.550931  0.199929  0.934278  1
  Si  Si27  1  0.449069  0.800071  0.434278  1
  Si  Si28  1  0.695977  0.955694  0.685854  1
  Si  Si29  1  0.304023  0.044306  0.185854  1
  Si  Si30  1  0.800071  0.449069  0.565722  1
  Si  Si31  1  0.199929  0.550931  0.065722  1
  Si  Si32  1  0.955694  0.695977  0.314146  1
  Si  Si33  1  0.044306  0.304023  0.814146  1
  Mo  Mo34  1  0.675529  0.324471  0.750000  1
  Mo  Mo35  1  0.324471  0.675529  0.250000  1
