# generated using pymatgen
data_KRb2In(AsSe2)6
_symmetry_space_group_name_H-M   'P 1'
_cell_length_a   9.92517000
_cell_length_b   9.92517019
_cell_length_c   8.25837300
_cell_angle_alpha   90.00000000
_cell_angle_beta   90.00000000
_cell_angle_gamma   120.00000603
_symmetry_Int_Tables_number   1
_chemical_formula_structural   KRb2In(AsSe2)6
_chemical_formula_sum   'K1 Rb2 In1 As6 Se12'
_cell_volume   704.53247500
_cell_formula_units_Z   1
loop_
 _symmetry_equiv_pos_site_id
 _symmetry_equiv_pos_as_xyz
  1  'x, y, z'
loop_
 _atom_site_type_symbol
 _atom_site_label
 _atom_site_symmetry_multiplicity
 _atom_site_fract_x
 _atom_site_fract_y
 _atom_site_fract_z
 _atom_site_occupancy
  K  K0  1  0.000000  0.000000  0.000000  1
  Rb  Rb1  1  0.333333  0.666667  0.835695  1
  Rb  Rb2  1  0.666667  0.333333  0.164305  1
  In  In3  1  0.000000  0.000000  0.500000  1
  As  As4  1  0.283922  0.834287  0.379382  1
  As  As5  1  0.165713  0.449636  0.379382  1
  As  As6  1  0.550364  0.716078  0.379382  1
  As  As7  1  0.716078  0.165713  0.620618  1
  As  As8  1  0.834287  0.550364  0.620618  1
  As  As9  1  0.449636  0.283922  0.620618  1
  Se  Se10  1  0.247745  0.044137  0.296694  1
  Se  Se11  1  0.955863  0.203609  0.296694  1
  Se  Se12  1  0.796391  0.752255  0.296694  1
  Se  Se13  1  0.752255  0.955863  0.703306  1
  Se  Se14  1  0.044137  0.796391  0.703306  1
  Se  Se15  1  0.203609  0.247745  0.703306  1
  Se  Se16  1  0.521221  0.909913  0.217142  1
  Se  Se17  1  0.090087  0.611308  0.217142  1
  Se  Se18  1  0.388692  0.478779  0.217142  1
  Se  Se19  1  0.478779  0.090087  0.782858  1
  Se  Se20  1  0.909913  0.388692  0.782858  1
  Se  Se21  1  0.611308  0.521221  0.782858  1
