# generated using pymatgen
data_RbPr(GdTe2)2
_symmetry_space_group_name_H-M   'P 1'
_cell_length_a   4.51967700
_cell_length_b   4.51967753
_cell_length_c   16.23680800
_cell_angle_alpha   90.00000000
_cell_angle_beta   90.00000000
_cell_angle_gamma   119.99998880
_symmetry_Int_Tables_number   1
_chemical_formula_structural   RbPr(GdTe2)2
_chemical_formula_sum   'Rb1 Pr1 Gd2 Te4'
_cell_volume   287.24083778
_cell_formula_units_Z   1
loop_
 _symmetry_equiv_pos_site_id
 _symmetry_equiv_pos_as_xyz
  1  'x, y, z'
loop_
 _atom_site_type_symbol
 _atom_site_label
 _atom_site_symmetry_multiplicity
 _atom_site_fract_x
 _atom_site_fract_y
 _atom_site_fract_z
 _atom_site_occupancy
  Rb  Rb0  1  0.666667  0.333333  0.750000  1
  Pr  Pr1  1  0.333333  0.666667  0.250000  1
  Gd  Gd2  1  0.000000  0.000000  0.014822  1
  Gd  Gd3  1  0.000000  0.000000  0.485178  1
  Te  Te4  1  0.333333  0.666667  0.589368  1
  Te  Te5  1  0.666667  0.333333  0.130088  1
  Te  Te6  1  0.666667  0.333333  0.369912  1
  Te  Te7  1  0.333333  0.666667  0.910632  1
