# generated using pymatgen
data_Gd2GaTc3
_symmetry_space_group_name_H-M   'P 1'
_cell_length_a   5.53069333
_cell_length_b   5.53069330
_cell_length_c   5.53069300
_cell_angle_alpha   58.33291284
_cell_angle_beta   58.33291303
_cell_angle_gamma   58.33290100
_symmetry_Int_Tables_number   1
_chemical_formula_structural   Gd2GaTc3
_chemical_formula_sum   'Gd2 Ga1 Tc3'
_cell_volume   115.05917826
_cell_formula_units_Z   1
loop_
 _symmetry_equiv_pos_site_id
 _symmetry_equiv_pos_as_xyz
  1  'x, y, z'
loop_
 _atom_site_type_symbol
 _atom_site_label
 _atom_site_symmetry_multiplicity
 _atom_site_fract_x
 _atom_site_fract_y
 _atom_site_fract_z
 _atom_site_occupancy
  Gd  Gd0  1  0.878272  0.878272  0.878272  1
  Gd  Gd1  1  0.121728  0.121728  0.121728  1
  Ga  Ga2  1  0.500000  0.500000  0.500000  1
  Tc  Tc3  1  0.500000  0.500000  0.000000  1
  Tc  Tc4  1  0.000000  0.500000  0.500000  1
  Tc  Tc5  1  0.500000  0.000000  0.500000  1
