# generated using pymatgen
data_Hf6AlSi3(IrN)2
_symmetry_space_group_name_H-M   'P 1'
_cell_length_a   8.45729182
_cell_length_b   8.44833459
_cell_length_c   8.44833400
_cell_angle_alpha   59.95740001
_cell_angle_beta   59.96493144
_cell_angle_gamma   59.96492559
_symmetry_Int_Tables_number   1
_chemical_formula_structural   Hf6AlSi3(IrN)2
_chemical_formula_sum   'Hf12 Al2 Si6 Ir4 N4'
_cell_volume   426.46972518
_cell_formula_units_Z   2
loop_
 _symmetry_equiv_pos_site_id
 _symmetry_equiv_pos_as_xyz
  1  'x, y, z'
loop_
 _atom_site_type_symbol
 _atom_site_label
 _atom_site_symmetry_multiplicity
 _atom_site_fract_x
 _atom_site_fract_y
 _atom_site_fract_z
 _atom_site_occupancy
  Hf  Hf0  1  0.811254  0.810946  0.188727  1
  Hf  Hf1  1  0.060805  0.438639  0.439752  1
  Hf  Hf2  1  0.438989  0.058536  0.063486  1
  Hf  Hf3  1  0.060928  0.061273  0.439054  1
  Hf  Hf4  1  0.058538  0.438557  0.063472  1
  Hf  Hf5  1  0.438746  0.061273  0.439054  1
  Hf  Hf6  1  0.189072  0.810946  0.188727  1
  Hf  Hf7  1  0.189195  0.810248  0.811361  1
  Hf  Hf8  1  0.811011  0.186514  0.191464  1
  Hf  Hf9  1  0.810567  0.186528  0.811443  1
  Hf  Hf10  1  0.439433  0.438557  0.063472  1
  Hf  Hf11  1  0.191462  0.186528  0.811443  1
  Al  Al12  1  0.419146  0.418882  0.742826  1
  Al  Al13  1  0.830854  0.507174  0.831118  1
  Si  Si14  1  0.413286  0.755388  0.418039  1
  Si  Si15  1  0.836714  0.831961  0.494612  1
  Si  Si16  1  0.497879  0.831058  0.835397  1
  Si  Si17  1  0.835667  0.831058  0.835397  1
  Si  Si18  1  0.752121  0.414603  0.418942  1
  Si  Si19  1  0.414333  0.414603  0.418942  1
  Ir  Ir20  1  0.629273  0.117617  0.623836  1
  Ir  Ir21  1  0.620727  0.626164  0.132383  1
  Ir  Ir22  1  0.125000  0.631816  0.618184  1
  Ir  Ir23  1  0.625000  0.631816  0.618184  1
  N  N24  1  0.124692  0.625483  0.125133  1
  N  N25  1  0.125308  0.124867  0.624517  1
  N  N26  1  0.625000  0.124483  0.125517  1
  N  N27  1  0.125000  0.124483  0.125517  1
