# generated using pymatgen
data_CeZr(NiSn)2
_symmetry_space_group_name_H-M   'P 1'
_cell_length_a   7.77116101
_cell_length_b   7.77116094
_cell_length_c   7.77115992
_cell_angle_alpha   33.38022798
_cell_angle_beta   33.38022615
_cell_angle_gamma   33.38023152
_symmetry_Int_Tables_number   1
_chemical_formula_structural   CeZr(NiSn)2
_chemical_formula_sum   'Ce1 Zr1 Ni2 Sn2'
_cell_volume   126.50390893
_cell_formula_units_Z   1
loop_
 _symmetry_equiv_pos_site_id
 _symmetry_equiv_pos_as_xyz
  1  'x, y, z'
loop_
 _atom_site_type_symbol
 _atom_site_label
 _atom_site_symmetry_multiplicity
 _atom_site_fract_x
 _atom_site_fract_y
 _atom_site_fract_z
 _atom_site_occupancy
  Ce  Ce0  1  0.874972  0.874972  0.874972  1
  Zr  Zr1  1  0.375407  0.375407  0.375407  1
  Ni  Ni2  1  0.001282  0.001282  0.001282  1
  Ni  Ni3  1  0.497467  0.497467  0.497467  1
  Sn  Sn4  1  0.120675  0.120675  0.120675  1
  Sn  Sn5  1  0.630196  0.630196  0.630196  1
