# generated using pymatgen
data_Tb6Ho10In4NiIr3
_symmetry_space_group_name_H-M   'P 1'
_cell_length_a   9.62707741
_cell_length_b   9.62481832
_cell_length_c   9.64382961
_cell_angle_alpha   60.03762434
_cell_angle_beta   60.04124318
_cell_angle_gamma   59.97020692
_symmetry_Int_Tables_number   1
_chemical_formula_structural   Tb6Ho10In4NiIr3
_chemical_formula_sum   'Tb6 Ho10 In4 Ni1 Ir3'
_cell_volume   632.09468214
_cell_formula_units_Z   1
loop_
 _symmetry_equiv_pos_site_id
 _symmetry_equiv_pos_as_xyz
  1  'x, y, z'
loop_
 _atom_site_type_symbol
 _atom_site_label
 _atom_site_symmetry_multiplicity
 _atom_site_fract_x
 _atom_site_fract_y
 _atom_site_fract_z
 _atom_site_occupancy
  Tb  Tb0  1  0.440698  0.434751  0.062015  1
  Tb  Tb1  1  0.648183  0.652595  0.046921  1
  Tb  Tb2  1  0.190149  0.811274  0.189460  1
  Tb  Tb3  1  0.058523  0.439982  0.059644  1
  Tb  Tb4  1  0.191159  0.810952  0.809310  1
  Tb  Tb5  1  0.058478  0.439787  0.441274  1
  Ho  Ho6  1  0.810670  0.189304  0.190722  1
  Ho  Ho7  1  0.650216  0.653560  0.651942  1
  Ho  Ho8  1  0.810418  0.190244  0.809236  1
  Ho  Ho9  1  0.191101  0.189073  0.810121  1
  Ho  Ho10  1  0.049047  0.650824  0.649187  1
  Ho  Ho11  1  0.440332  0.061792  0.062002  1
  Ho  Ho12  1  0.058331  0.059528  0.440871  1
  Ho  Ho13  1  0.649548  0.044657  0.652244  1
  Ho  Ho14  1  0.809380  0.810167  0.190940  1
  Ho  Ho15  1  0.440415  0.061666  0.435560  1
  In  In16  1  0.418909  0.415513  0.417637  1
  In  In17  1  0.419137  0.416215  0.747408  1
  In  In18  1  0.418274  0.749563  0.416733  1
  In  In19  1  0.746089  0.417464  0.418362  1
  Ni  Ni20  1  0.424722  0.859729  0.857474  1
  Ir  Ir21  1  0.858409  0.859246  0.857418  1
  Ir  Ir22  1  0.860062  0.423682  0.857472  1
  Ir  Ir23  1  0.857746  0.858434  0.426047  1
