# generated using pymatgen
data_HoTm4Co19(Si3P)3
_symmetry_space_group_name_H-M   'P 1'
_cell_length_a   12.12740800
_cell_length_b   12.12740851
_cell_length_c   3.69509900
_cell_angle_alpha   90.00000000
_cell_angle_beta   90.00000000
_cell_angle_gamma   119.99999861
_symmetry_Int_Tables_number   1
_chemical_formula_structural   HoTm4Co19(Si3P)3
_chemical_formula_sum   'Ho1 Tm4 Co19 Si9 P3'
_cell_volume   470.64420118
_cell_formula_units_Z   1
loop_
 _symmetry_equiv_pos_site_id
 _symmetry_equiv_pos_as_xyz
  1  'x, y, z'
loop_
 _atom_site_type_symbol
 _atom_site_label
 _atom_site_symmetry_multiplicity
 _atom_site_fract_x
 _atom_site_fract_y
 _atom_site_fract_z
 _atom_site_occupancy
  Ho  Ho0  1  0.666667  0.333333  0.000000  1
  Tm  Tm1  1  0.333333  0.666667  0.000000  1
  Tm  Tm2  1  0.184298  0.184288  0.500000  1
  Tm  Tm3  1  0.815712  0.000010  0.500000  1
  Tm  Tm4  1  0.999990  0.815702  0.500000  1
  Co  Co5  1  0.824535  0.196673  0.000000  1
  Co  Co6  1  0.803327  0.627861  0.000000  1
  Co  Co7  1  0.372139  0.175465  0.000000  1
  Co  Co8  1  0.196866  0.824285  0.000000  1
  Co  Co9  1  0.627417  0.803134  0.000000  1
  Co  Co10  1  0.175715  0.372583  0.000000  1
  Co  Co11  1  0.557591  0.557604  0.000000  1
  Co  Co12  1  0.442396  0.999987  0.000000  1
  Co  Co13  1  0.000013  0.442409  0.000000  1
  Co  Co14  1  0.645241  0.123441  0.500000  1
  Co  Co15  1  0.876559  0.521800  0.500000  1
  Co  Co16  1  0.478200  0.354759  0.500000  1
  Co  Co17  1  0.123932  0.645297  0.500000  1
  Co  Co18  1  0.521366  0.876068  0.500000  1
  Co  Co19  1  0.354703  0.478634  0.500000  1
  Co  Co20  1  0.722667  0.722894  0.500000  1
  Co  Co21  1  0.277106  0.999772  0.500000  1
  Co  Co22  1  0.000228  0.277333  0.500000  1
  Co  Co23  1  0.000000  0.000000  0.000000  1
  Si  Si24  1  0.369180  0.369204  0.000000  1
  Si  Si25  1  0.630796  0.999975  0.000000  1
  Si  Si26  1  0.000025  0.630820  0.000000  1
  Si  Si27  1  0.840626  0.318541  0.500000  1
  Si  Si28  1  0.681459  0.522086  0.500000  1
  Si  Si29  1  0.477914  0.159374  0.500000  1
  Si  Si30  1  0.318574  0.840031  0.500000  1
  Si  Si31  1  0.521458  0.681426  0.500000  1
  Si  Si32  1  0.159969  0.478542  0.500000  1
  P  P33  1  0.819455  0.819562  0.000000  1
  P  P34  1  0.180438  0.999893  0.000000  1
  P  P35  1  0.000107  0.180545  0.000000  1
