# generated using pymatgen
data_Tb6Pr2Cd2IrPd
_symmetry_space_group_name_H-M   'P 1'
_cell_length_a   9.79889585
_cell_length_b   9.77782040
_cell_length_c   9.75552657
_cell_angle_alpha   60.21826479
_cell_angle_beta   60.00363042
_cell_angle_gamma   60.38393960
_symmetry_Int_Tables_number   1
_chemical_formula_structural   Tb6Pr2Cd2IrPd
_chemical_formula_sum   'Tb12 Pr4 Cd4 Ir2 Pd2'
_cell_volume   663.93680528
_cell_formula_units_Z   2
loop_
 _symmetry_equiv_pos_site_id
 _symmetry_equiv_pos_as_xyz
  1  'x, y, z'
loop_
 _atom_site_type_symbol
 _atom_site_label
 _atom_site_symmetry_multiplicity
 _atom_site_fract_x
 _atom_site_fract_y
 _atom_site_fract_z
 _atom_site_occupancy
  Tb  Tb0  1  0.352338  0.349202  0.344103  1
  Tb  Tb1  1  0.349202  0.352338  0.954356  1
  Tb  Tb2  1  0.359436  0.940146  0.352247  1
  Tb  Tb3  1  0.940146  0.359436  0.348168  1
  Tb  Tb4  1  0.807877  0.188792  0.185384  1
  Tb  Tb5  1  0.188792  0.807877  0.817946  1
  Tb  Tb6  1  0.189561  0.807113  0.188755  1
  Tb  Tb7  1  0.807113  0.189561  0.814570  1
  Tb  Tb8  1  0.189524  0.189524  0.810476  1
  Tb  Tb9  1  0.812962  0.812962  0.187038  1
  Tb  Tb10  1  0.944305  0.559086  0.554062  1
  Tb  Tb11  1  0.559086  0.944305  0.942548  1
  Pr  Pr12  1  0.564967  0.939103  0.562781  1
  Pr  Pr13  1  0.939103  0.564967  0.933149  1
  Pr  Pr14  1  0.564063  0.564063  0.935937  1
  Pr  Pr15  1  0.937468  0.937468  0.562532  1
  Cd  Cd16  1  0.583379  0.577968  0.579673  1
  Cd  Cd17  1  0.577968  0.583379  0.258979  1
  Cd  Cd18  1  0.576955  0.259820  0.583918  1
  Cd  Cd19  1  0.259820  0.576955  0.579306  1
  Ir  Ir20  1  0.138232  0.572215  0.148667  1
  Ir  Ir21  1  0.572215  0.138232  0.140887  1
  Pd  Pd22  1  0.145015  0.140472  0.147396  1
  Pd  Pd23  1  0.140472  0.145015  0.567117  1
