# generated using pymatgen
data_La2Si5HgPPd20
_symmetry_space_group_name_H-M   'P 1'
_cell_length_a   8.75206100
_cell_length_b   8.75206223
_cell_length_c   8.75020300
_cell_angle_alpha   60.00702320
_cell_angle_beta   60.00701855
_cell_angle_gamma   59.98595765
_symmetry_Int_Tables_number   1
_chemical_formula_structural   La2Si5HgPPd20
_chemical_formula_sum   'La2 Si5 Hg1 P1 Pd20'
_cell_volume   473.94049977
_cell_formula_units_Z   1
loop_
 _symmetry_equiv_pos_site_id
 _symmetry_equiv_pos_as_xyz
  1  'x, y, z'
loop_
 _atom_site_type_symbol
 _atom_site_label
 _atom_site_symmetry_multiplicity
 _atom_site_fract_x
 _atom_site_fract_y
 _atom_site_fract_z
 _atom_site_occupancy
  La  La0  1  0.249347  0.249347  0.250653  1
  La  La1  1  0.749347  0.749347  0.750653  1
  Si  Si2  1  0.732924  0.264911  0.267076  1
  Si  Si3  1  0.264911  0.732924  0.735089  1
  Si  Si4  1  0.264911  0.732924  0.267076  1
  Si  Si5  1  0.732924  0.264911  0.735089  1
  Si  Si6  1  0.266871  0.266871  0.733129  1
  Hg  Hg7  1  0.003213  0.003213  0.996787  1
  P  P8  1  0.732217  0.732217  0.267783  1
  Pd  Pd9  1  0.385709  0.385709  0.385217  1
  Pd  Pd10  1  0.614083  0.614083  0.612945  1
  Pd  Pd11  1  0.385709  0.385709  0.843364  1
  Pd  Pd12  1  0.387055  0.841111  0.385917  1
  Pd  Pd13  1  0.614083  0.614083  0.158889  1
  Pd  Pd14  1  0.614783  0.156636  0.614291  1
  Pd  Pd15  1  0.841111  0.387055  0.385917  1
  Pd  Pd16  1  0.156636  0.614783  0.614291  1
  Pd  Pd17  1  0.345374  0.999838  0.000162  1
  Pd  Pd18  1  0.657087  0.997336  0.002664  1
  Pd  Pd19  1  0.999838  0.345374  0.654626  1
  Pd  Pd20  1  0.997336  0.657087  0.342913  1
  Pd  Pd21  1  0.999838  0.345374  0.000162  1
  Pd  Pd22  1  0.657087  0.997336  0.342913  1
  Pd  Pd23  1  0.997336  0.657087  0.002664  1
  Pd  Pd24  1  0.345374  0.999838  0.654626  1
  Pd  Pd25  1  0.001225  0.001225  0.343688  1
  Pd  Pd26  1  0.001225  0.001225  0.653863  1
  Pd  Pd27  1  0.656312  0.346137  0.998775  1
  Pd  Pd28  1  0.346137  0.656312  0.998775  1
