# generated using pymatgen
data_InSn(PRh2)2
_symmetry_space_group_name_H-M   'P 1'
_cell_length_a   3.66794900
_cell_length_b   5.66945600
_cell_length_c   6.47305200
_cell_angle_alpha   90.00000000
_cell_angle_beta   90.00000000
_cell_angle_gamma   90.00000000
_symmetry_Int_Tables_number   1
_chemical_formula_structural   InSn(PRh2)2
_chemical_formula_sum   'In1 Sn1 P2 Rh4'
_cell_volume   134.60889944
_cell_formula_units_Z   1
loop_
 _symmetry_equiv_pos_site_id
 _symmetry_equiv_pos_as_xyz
  1  'x, y, z'
loop_
 _atom_site_type_symbol
 _atom_site_label
 _atom_site_symmetry_multiplicity
 _atom_site_fract_x
 _atom_site_fract_y
 _atom_site_fract_z
 _atom_site_occupancy
  In  In0  1  0.000000  0.500001  0.431376  1
  Sn  Sn1  1  0.500000  0.000000  0.568612  1
  P  P2  1  0.000000  0.000000  0.102696  1
  P  P3  1  0.500000  0.500001  0.899602  1
  Rh  Rh4  1  0.500000  0.241876  0.182702  1
  Rh  Rh5  1  0.500000  0.758124  0.182702  1
  Rh  Rh6  1  0.000000  0.252643  0.816155  1
  Rh  Rh7  1  0.000000  0.747359  0.816155  1
