# generated using pymatgen
data_Th8Co3Si12Tc
_symmetry_space_group_name_H-M   'P 1'
_cell_length_a   8.11800300
_cell_length_b   8.11800290
_cell_length_c   8.42869300
_cell_angle_alpha   90.00000000
_cell_angle_beta   90.00000000
_cell_angle_gamma   119.99999633
_symmetry_Int_Tables_number   1
_chemical_formula_structural   Th8Co3Si12Tc
_chemical_formula_sum   'Th8 Co3 Si12 Tc1'
_cell_volume   481.04897446
_cell_formula_units_Z   1
loop_
 _symmetry_equiv_pos_site_id
 _symmetry_equiv_pos_as_xyz
  1  'x, y, z'
loop_
 _atom_site_type_symbol
 _atom_site_label
 _atom_site_symmetry_multiplicity
 _atom_site_fract_x
 _atom_site_fract_y
 _atom_site_fract_z
 _atom_site_occupancy
  Th  Th0  1  0.000000  0.000000  0.748802  1
  Th  Th1  1  0.000000  0.000000  0.251332  1
  Th  Th2  1  0.499223  0.500777  0.752211  1
  Th  Th3  1  0.499223  0.998446  0.752211  1
  Th  Th4  1  0.001554  0.500777  0.752211  1
  Th  Th5  1  0.499663  0.500337  0.247925  1
  Th  Th6  1  0.000675  0.500337  0.247925  1
  Th  Th7  1  0.499663  0.999325  0.247925  1
  Co  Co8  1  0.666667  0.333333  0.998041  1
  Co  Co9  1  0.666667  0.333333  0.501864  1
  Co  Co10  1  0.333333  0.666667  0.498100  1
  Si  Si11  1  0.828284  0.171716  0.999648  1
  Si  Si12  1  0.828284  0.656569  0.999648  1
  Si  Si13  1  0.343431  0.171716  0.999648  1
  Si  Si14  1  0.829680  0.170320  0.500381  1
  Si  Si15  1  0.829680  0.659360  0.500381  1
  Si  Si16  1  0.340640  0.170320  0.500381  1
  Si  Si17  1  0.171351  0.828649  0.499671  1
  Si  Si18  1  0.657297  0.828649  0.499671  1
  Si  Si19  1  0.171351  0.342703  0.499671  1
  Si  Si20  1  0.164138  0.835862  0.000297  1
  Si  Si21  1  0.671723  0.835862  0.000297  1
  Si  Si22  1  0.164138  0.328277  0.000297  1
  Tc  Tc23  1  0.333333  0.666667  0.001466  1
