# generated using pymatgen
data_Hf8Rh4CN
_symmetry_space_group_name_H-M   'P 1'
_cell_length_a   8.73398072
_cell_length_b   8.71066285
_cell_length_c   8.73398203
_cell_angle_alpha   60.08827257
_cell_angle_beta   60.17044109
_cell_angle_gamma   60.08827253
_symmetry_Int_Tables_number   1
_chemical_formula_structural   Hf8Rh4CN
_chemical_formula_sum   'Hf16 Rh8 C2 N2'
_cell_volume   471.08218979
_cell_formula_units_Z   2
loop_
 _symmetry_equiv_pos_site_id
 _symmetry_equiv_pos_as_xyz
  1  'x, y, z'
loop_
 _atom_site_type_symbol
 _atom_site_label
 _atom_site_symmetry_multiplicity
 _atom_site_fract_x
 _atom_site_fract_y
 _atom_site_fract_z
 _atom_site_occupancy
  Hf  Hf0  1  0.125000  0.625000  0.625000  1
  Hf  Hf1  1  0.625000  0.125000  0.625000  1
  Hf  Hf2  1  0.625000  0.625000  0.125000  1
  Hf  Hf3  1  0.625000  0.625000  0.625000  1
  Hf  Hf4  1  0.816599  0.817056  0.183175  1
  Hf  Hf5  1  0.183175  0.183170  0.816599  1
  Hf  Hf6  1  0.816135  0.183865  0.816135  1
  Hf  Hf7  1  0.182780  0.817220  0.182780  1
  Hf  Hf8  1  0.183175  0.817056  0.816599  1
  Hf  Hf9  1  0.816599  0.183170  0.183175  1
  Hf  Hf10  1  0.433401  0.432944  0.066825  1
  Hf  Hf11  1  0.066825  0.066830  0.433401  1
  Hf  Hf12  1  0.433865  0.066135  0.433865  1
  Hf  Hf13  1  0.067220  0.432780  0.067220  1
  Hf  Hf14  1  0.066825  0.432944  0.433401  1
  Hf  Hf15  1  0.433401  0.066830  0.066825  1
  Rh  Rh16  1  0.766664  0.412037  0.409262  1
  Rh  Rh17  1  0.410499  0.765779  0.410499  1
  Rh  Rh18  1  0.409262  0.412037  0.766664  1
  Rh  Rh19  1  0.410499  0.413223  0.410499  1
  Rh  Rh20  1  0.483336  0.837963  0.840738  1
  Rh  Rh21  1  0.839501  0.484221  0.839501  1
  Rh  Rh22  1  0.840738  0.837963  0.483336  1
  Rh  Rh23  1  0.839501  0.836777  0.839501  1
  C  C24  1  0.625000  0.125000  0.125000  1
  C  C25  1  0.125000  0.125000  0.625000  1
  N  N26  1  0.125000  0.625000  0.125000  1
  N  N27  1  0.125000  0.125000  0.125000  1
