# generated using pymatgen
data_Tm8Sc2Ir5Au
_symmetry_space_group_name_H-M   'P 1'
_cell_length_a   10.80678457
_cell_length_b   10.73702500
_cell_length_c   6.20669724
_cell_angle_alpha   90.00000000
_cell_angle_beta   89.90472836
_cell_angle_gamma   90.00000000
_symmetry_Int_Tables_number   1
_chemical_formula_structural   Tm8Sc2Ir5Au
_chemical_formula_sum   'Tm16 Sc4 Ir10 Au2'
_cell_volume   720.17894337
_cell_formula_units_Z   2
loop_
 _symmetry_equiv_pos_site_id
 _symmetry_equiv_pos_as_xyz
  1  'x, y, z'
loop_
 _atom_site_type_symbol
 _atom_site_label
 _atom_site_symmetry_multiplicity
 _atom_site_fract_x
 _atom_site_fract_y
 _atom_site_fract_z
 _atom_site_occupancy
  Tm  Tm0  1  0.289781  0.086424  0.372491  1
  Tm  Tm1  1  0.289781  0.913576  0.872491  1
  Tm  Tm2  1  0.700924  0.090815  0.867661  1
  Tm  Tm3  1  0.700924  0.909185  0.367661  1
  Tm  Tm4  1  0.577596  0.786322  0.876960  1
  Tm  Tm5  1  0.577596  0.213678  0.376960  1
  Tm  Tm6  1  0.411310  0.787819  0.376323  1
  Tm  Tm7  1  0.411310  0.212181  0.876323  1
  Tm  Tm8  1  0.212352  0.414060  0.622268  1
  Tm  Tm9  1  0.212352  0.585940  0.122268  1
  Tm  Tm10  1  0.787122  0.419935  0.122800  1
  Tm  Tm11  1  0.787122  0.580065  0.622800  1
  Tm  Tm12  1  0.918203  0.707812  0.136792  1
  Tm  Tm13  1  0.918203  0.292188  0.636792  1
  Tm  Tm14  1  0.093552  0.705671  0.623555  1
  Tm  Tm15  1  0.093552  0.294329  0.123555  1
  Sc  Sc16  1  0.011328  0.997964  0.500308  1
  Sc  Sc17  1  0.011328  0.002036  0.000308  1
  Sc  Sc18  1  0.499553  0.499142  0.000400  1
  Sc  Sc19  1  0.499553  0.500858  0.500400  1
  Ir  Ir20  1  0.148693  0.149120  0.749721  1
  Ir  Ir21  1  0.148693  0.850880  0.249721  1
  Ir  Ir22  1  0.649432  0.350217  0.750240  1
  Ir  Ir23  1  0.649432  0.649783  0.250240  1
  Ir  Ir24  1  0.350932  0.351416  0.250047  1
  Ir  Ir25  1  0.350932  0.648584  0.750047  1
  Ir  Ir26  1  0.499847  0.000208  0.119407  1
  Ir  Ir27  1  0.499847  0.999792  0.619407  1
  Ir  Ir28  1  0.000187  0.500945  0.880458  1
  Ir  Ir29  1  0.000187  0.499055  0.380458  1
  Au  Au30  1  0.849187  0.149856  0.250569  1
  Au  Au31  1  0.849187  0.850144  0.750569  1
