# generated using pymatgen
data_Ca3Ag(Rh2O7)2
_symmetry_space_group_name_H-M   'P 1'
_cell_length_a   7.30573516
_cell_length_b   7.18864808
_cell_length_c   7.30573300
_cell_angle_alpha   59.45972222
_cell_angle_beta   59.99999620
_cell_angle_gamma   59.45972351
_symmetry_Int_Tables_number   1
_chemical_formula_structural   Ca3Ag(Rh2O7)2
_chemical_formula_sum   'Ca3 Ag1 Rh4 O14'
_cell_volume   269.06961925
_cell_formula_units_Z   1
loop_
 _symmetry_equiv_pos_site_id
 _symmetry_equiv_pos_as_xyz
  1  'x, y, z'
loop_
 _atom_site_type_symbol
 _atom_site_label
 _atom_site_symmetry_multiplicity
 _atom_site_fract_x
 _atom_site_fract_y
 _atom_site_fract_z
 _atom_site_occupancy
  Ca  Ca0  1  0.125000  0.125000  0.125000  1
  Ca  Ca1  1  0.625000  0.125000  0.125000  1
  Ca  Ca2  1  0.125000  0.125000  0.625000  1
  Ag  Ag3  1  0.125000  0.625000  0.125000  1
  Rh  Rh4  1  0.625000  0.625000  0.625000  1
  Rh  Rh5  1  0.625000  0.625000  0.125000  1
  Rh  Rh6  1  0.125000  0.625000  0.625000  1
  Rh  Rh7  1  0.625000  0.125000  0.625000  1
  O  O8  1  0.241409  0.275772  0.241409  1
  O  O9  1  0.301559  0.698201  0.301559  1
  O  O10  1  0.951288  0.954071  0.547321  1
  O  O11  1  0.547321  0.954071  0.547321  1
  O  O12  1  0.698682  0.698201  0.301559  1
  O  O13  1  0.948441  0.551799  0.551318  1
  O  O14  1  0.702679  0.295929  0.702679  1
  O  O15  1  0.298712  0.295929  0.702679  1
  O  O16  1  0.702679  0.295929  0.298712  1
  O  O17  1  0.301559  0.698201  0.698682  1
  O  O18  1  0.948441  0.551799  0.948441  1
  O  O19  1  0.551318  0.551799  0.948441  1
  O  O20  1  0.008591  0.974228  0.008591  1
  O  O21  1  0.547321  0.954071  0.951288  1
