# generated using pymatgen
data_GaCuPd4
_symmetry_space_group_name_H-M   'P 1'
_cell_length_a   5.39654100
_cell_length_b   4.18232900
_cell_length_c   7.80999400
_cell_angle_alpha   90.00000000
_cell_angle_beta   90.00000000
_cell_angle_gamma   90.00000000
_symmetry_Int_Tables_number   1
_chemical_formula_structural   GaCuPd4
_chemical_formula_sum   'Ga2 Cu2 Pd8'
_cell_volume   176.27242309
_cell_formula_units_Z   2
loop_
 _symmetry_equiv_pos_site_id
 _symmetry_equiv_pos_as_xyz
  1  'x, y, z'
loop_
 _atom_site_type_symbol
 _atom_site_label
 _atom_site_symmetry_multiplicity
 _atom_site_fract_x
 _atom_site_fract_y
 _atom_site_fract_z
 _atom_site_occupancy
  Ga  Ga0  1  0.181936  0.749999  0.600381  1
  Ga  Ga1  1  0.318064  0.250000  0.100381  1
  Cu  Cu2  1  0.687409  0.749999  0.898770  1
  Cu  Cu3  1  0.812589  0.250000  0.398770  1
  Pd  Pd4  1  0.542667  0.749999  0.222499  1
  Pd  Pd5  1  0.957332  0.250000  0.722499  1
  Pd  Pd6  1  0.039966  0.749999  0.277986  1
  Pd  Pd7  1  0.460033  0.250000  0.777986  1
  Pd  Pd8  1  0.666318  0.749999  0.568626  1
  Pd  Pd9  1  0.833684  0.250000  0.068626  1
  Pd  Pd10  1  0.174386  0.749999  0.931736  1
  Pd  Pd11  1  0.325614  0.250000  0.431736  1
