# generated using pymatgen
data_Y2Er18Cd3Ag3Ru2
_symmetry_space_group_name_H-M   'P 1'
_cell_length_a   9.51420700
_cell_length_b   9.51420600
_cell_length_c   9.61367500
_cell_angle_alpha   90.00000000
_cell_angle_beta   90.00000000
_cell_angle_gamma   119.99920016
_symmetry_Int_Tables_number   1
_chemical_formula_structural   Y2Er18Cd3Ag3Ru2
_chemical_formula_sum   'Y2 Er18 Cd3 Ag3 Ru2'
_cell_volume   753.64828416
_cell_formula_units_Z   1
loop_
 _symmetry_equiv_pos_site_id
 _symmetry_equiv_pos_as_xyz
  1  'x, y, z'
loop_
 _atom_site_type_symbol
 _atom_site_label
 _atom_site_symmetry_multiplicity
 _atom_site_fract_x
 _atom_site_fract_y
 _atom_site_fract_z
 _atom_site_occupancy
  Y  Y0  1  0.459200  0.918091  0.750000  1
  Y  Y1  1  0.081909  0.540800  0.750000  1
  Er  Er2  1  0.999992  0.000008  0.477616  1
  Er  Er3  1  0.999992  0.000008  0.022384  1
  Er  Er4  1  0.210065  0.789935  0.441014  1
  Er  Er5  1  0.210291  0.420218  0.441213  1
  Er  Er6  1  0.579782  0.789709  0.441213  1
  Er  Er7  1  0.790988  0.209012  0.559075  1
  Er  Er8  1  0.790753  0.582004  0.559191  1
  Er  Er9  1  0.417996  0.209247  0.559191  1
  Er  Er10  1  0.790988  0.209012  0.940925  1
  Er  Er11  1  0.790753  0.582004  0.940809  1
  Er  Er12  1  0.417996  0.209247  0.940809  1
  Er  Er13  1  0.210065  0.789935  0.058986  1
  Er  Er14  1  0.210291  0.420218  0.058787  1
  Er  Er15  1  0.579782  0.789709  0.058787  1
  Er  Er16  1  0.540771  0.459229  0.250000  1
  Er  Er17  1  0.540763  0.081528  0.250000  1
  Er  Er18  1  0.918472  0.459237  0.250000  1
  Er  Er19  1  0.459280  0.540720  0.750000  1
  Cd  Cd20  1  0.111174  0.888826  0.750000  1
  Cd  Cd21  1  0.111489  0.222655  0.750000  1
  Cd  Cd22  1  0.777345  0.888511  0.750000  1
  Ag  Ag23  1  0.876490  0.123510  0.250000  1
  Ag  Ag24  1  0.876485  0.752986  0.250000  1
  Ag  Ag25  1  0.247014  0.123515  0.250000  1
  Ru  Ru26  1  0.333309  0.666691  0.250000  1
  Ru  Ru27  1  0.666562  0.333438  0.750000  1
