# generated using pymatgen
data_SrCeTh2(ZnRh)4
_symmetry_space_group_name_H-M   'P 1'
_cell_length_a   3.94212900
_cell_length_b   7.53504600
_cell_length_c   16.98167500
_cell_angle_alpha   90.00000000
_cell_angle_beta   90.00000000
_cell_angle_gamma   90.00000000
_symmetry_Int_Tables_number   1
_chemical_formula_structural   SrCeTh2(ZnRh)4
_chemical_formula_sum   'Sr2 Ce2 Th4 Zn8 Rh8'
_cell_volume   504.42576894
_cell_formula_units_Z   2
loop_
 _symmetry_equiv_pos_site_id
 _symmetry_equiv_pos_as_xyz
  1  'x, y, z'
loop_
 _atom_site_type_symbol
 _atom_site_label
 _atom_site_symmetry_multiplicity
 _atom_site_fract_x
 _atom_site_fract_y
 _atom_site_fract_z
 _atom_site_occupancy
  Sr  Sr0  1  0.750000  0.443799  0.214153  1
  Sr  Sr1  1  0.750000  0.943799  0.285847  1
  Ce  Ce2  1  0.250000  0.059712  0.716522  1
  Ce  Ce3  1  0.250000  0.559712  0.783478  1
  Th  Th4  1  0.750000  0.323258  0.446162  1
  Th  Th5  1  0.250000  0.674034  0.565587  1
  Th  Th6  1  0.750000  0.823258  0.053838  1
  Th  Th7  1  0.250000  0.174034  0.934413  1
  Zn  Zn8  1  0.250000  0.110616  0.142074  1
  Zn  Zn9  1  0.250000  0.990128  0.444344  1
  Zn  Zn10  1  0.750000  0.885079  0.843544  1
  Zn  Zn11  1  0.750000  0.005094  0.565769  1
  Zn  Zn12  1  0.250000  0.490128  0.055656  1
  Zn  Zn13  1  0.750000  0.385079  0.656456  1
  Zn  Zn14  1  0.750000  0.505094  0.934231  1
  Zn  Zn15  1  0.250000  0.610616  0.357926  1
  Rh  Rh16  1  0.750000  0.258142  0.812151  1
  Rh  Rh17  1  0.250000  0.260384  0.337839  1
  Rh  Rh18  1  0.250000  0.752243  0.932615  1
  Rh  Rh19  1  0.250000  0.252243  0.567385  1
  Rh  Rh20  1  0.250000  0.760384  0.162161  1
  Rh  Rh21  1  0.750000  0.737510  0.449599  1
  Rh  Rh22  1  0.750000  0.237510  0.050401  1
  Rh  Rh23  1  0.750000  0.758142  0.687849  1
