# generated using pymatgen
data_Np2Re3Si4
_symmetry_space_group_name_H-M   'P 1'
_cell_length_a   8.11876300
_cell_length_b   5.62440828
_cell_length_c   6.79951496
_cell_angle_alpha   75.88129432
_cell_angle_beta   90.00000000
_cell_angle_gamma   90.00000000
_symmetry_Int_Tables_number   1
_chemical_formula_structural   Np2Re3Si4
_chemical_formula_sum   'Np4 Re6 Si8'
_cell_volume   301.10878462
_cell_formula_units_Z   2
loop_
 _symmetry_equiv_pos_site_id
 _symmetry_equiv_pos_as_xyz
  1  'x, y, z'
loop_
 _atom_site_type_symbol
 _atom_site_label
 _atom_site_symmetry_multiplicity
 _atom_site_fract_x
 _atom_site_fract_y
 _atom_site_fract_z
 _atom_site_occupancy
  Np  Np0  1  0.942808  0.573920  0.254955  1
  Np  Np1  1  0.442808  0.926080  0.745045  1
  Np  Np2  1  0.057192  0.426080  0.745045  1
  Np  Np3  1  0.557192  0.073920  0.254955  1
  Re  Re4  1  0.293149  0.616165  0.110815  1
  Re  Re5  1  0.793149  0.883835  0.889185  1
  Re  Re6  1  0.706851  0.383835  0.889185  1
  Re  Re7  1  0.206851  0.116165  0.110815  1
  Re  Re8  1  0.500000  0.500000  0.500000  1
  Re  Re9  1  0.000000  0.000000  0.500000  1
  Si  Si10  1  0.595602  0.617526  0.127479  1
  Si  Si11  1  0.095602  0.882474  0.872521  1
  Si  Si12  1  0.404398  0.382474  0.872521  1
  Si  Si13  1  0.904398  0.117526  0.127479  1
  Si  Si14  1  0.751341  0.724450  0.578056  1
  Si  Si15  1  0.251341  0.775550  0.421944  1
  Si  Si16  1  0.248659  0.275550  0.421944  1
  Si  Si17  1  0.748659  0.224450  0.578056  1
