# generated using pymatgen
data_Ac2CrFeO6
_symmetry_space_group_name_H-M   'P 1'
_cell_length_a   5.66334017
_cell_length_b   5.78976200
_cell_length_c   8.06431000
_cell_angle_alpha   90.00000000
_cell_angle_beta   90.01387035
_cell_angle_gamma   90.00000000
_symmetry_Int_Tables_number   1
_chemical_formula_structural   Ac2CrFeO6
_chemical_formula_sum   'Ac4 Cr2 Fe2 O12'
_cell_volume   264.42381152
_cell_formula_units_Z   2
loop_
 _symmetry_equiv_pos_site_id
 _symmetry_equiv_pos_as_xyz
  1  'x, y, z'
loop_
 _atom_site_type_symbol
 _atom_site_label
 _atom_site_symmetry_multiplicity
 _atom_site_fract_x
 _atom_site_fract_y
 _atom_site_fract_z
 _atom_site_occupancy
  Ac  Ac0  1  0.505582  0.529726  0.250080  1
  Ac  Ac1  1  0.994418  0.029726  0.249920  1
  Ac  Ac2  1  0.494418  0.470274  0.749920  1
  Ac  Ac3  1  0.005582  0.970274  0.750080  1
  Cr  Cr4  1  0.000000  0.500000  0.500000  1
  Cr  Cr5  1  0.500000  0.000000  0.000000  1
  Fe  Fe6  1  0.000000  0.500000  0.000000  1
  Fe  Fe7  1  0.500000  0.000000  0.500000  1
  O  O8  1  0.443158  0.989344  0.250030  1
  O  O9  1  0.056842  0.489344  0.249970  1
  O  O10  1  0.556842  0.010656  0.749970  1
  O  O11  1  0.943158  0.510656  0.750030  1
  O  O12  1  0.779000  0.779762  0.030967  1
  O  O13  1  0.721000  0.279762  0.469033  1
  O  O14  1  0.220183  0.220905  0.530932  1
  O  O15  1  0.279817  0.720905  0.969068  1
  O  O16  1  0.221000  0.220238  0.969033  1
  O  O17  1  0.279000  0.720238  0.530967  1
  O  O18  1  0.779817  0.779095  0.469068  1
  O  O19  1  0.720183  0.279095  0.030932  1
