# generated using pymatgen
data_Cs4TlOsCl12
_symmetry_space_group_name_H-M   'P 1'
_cell_length_a   10.52259272
_cell_length_b   10.52255912
_cell_length_c   12.89882900
_cell_angle_alpha   114.06979444
_cell_angle_beta   114.07231881
_cell_angle_gamma   90.00000838
_symmetry_Int_Tables_number   1
_chemical_formula_structural   Cs4TlOsCl12
_chemical_formula_sum   'Cs8 Tl2 Os2 Cl24'
_cell_volume   1166.67577986
_cell_formula_units_Z   2
loop_
 _symmetry_equiv_pos_site_id
 _symmetry_equiv_pos_as_xyz
  1  'x, y, z'
loop_
 _atom_site_type_symbol
 _atom_site_label
 _atom_site_symmetry_multiplicity
 _atom_site_fract_x
 _atom_site_fract_y
 _atom_site_fract_z
 _atom_site_occupancy
  Cs  Cs0  1  0.777868  0.000000  0.000000  1
  Cs  Cs1  1  0.000020  0.777871  0.500013  1
  Cs  Cs2  1  0.777856  0.500000  0.000000  1
  Cs  Cs3  1  0.222132  0.000000  0.000000  1
  Cs  Cs4  1  0.499992  0.777871  0.500013  1
  Cs  Cs5  1  0.999980  0.222129  0.499987  1
  Cs  Cs6  1  0.222144  0.500000  0.000000  1
  Cs  Cs7  1  0.500008  0.222129  0.499987  1
  Tl  Tl8  1  0.875000  0.124997  0.750000  1
  Tl  Tl9  1  0.125000  0.875003  0.250000  1
  Os  Os10  1  0.625000  0.374999  0.249999  1
  Os  Os11  1  0.375000  0.625001  0.750001  1
  Cl  Cl12  1  0.129078  0.129307  0.258157  1
  Cl  Cl13  1  0.375990  0.847229  0.751980  1
  Cl  Cl14  1  0.624010  0.152771  0.248020  1
  Cl  Cl15  1  0.595241  0.624013  0.748012  1
  Cl  Cl16  1  0.152770  0.624013  0.748012  1
  Cl  Cl17  1  0.999986  0.749983  0.999972  1
  Cl  Cl18  1  0.870922  0.870693  0.741843  1
  Cl  Cl19  1  0.870697  0.870909  0.241842  1
  Cl  Cl20  1  0.514643  0.264645  0.029285  1
  Cl  Cl21  1  0.749986  0.999993  0.499971  1
  Cl  Cl22  1  0.847230  0.375987  0.251988  1
  Cl  Cl23  1  0.250014  0.000007  0.500029  1
  Cl  Cl24  1  0.129081  0.628860  0.258163  1
  Cl  Cl25  1  0.404759  0.375987  0.251988  1
  Cl  Cl26  1  0.375999  0.404765  0.752000  1
  Cl  Cl27  1  0.129303  0.129091  0.758158  1
  Cl  Cl28  1  0.870919  0.371140  0.741837  1
  Cl  Cl29  1  0.485357  0.735355  0.970715  1
  Cl  Cl30  1  0.000014  0.250017  0.000028  1
  Cl  Cl31  1  0.735357  0.485369  0.470713  1
  Cl  Cl32  1  0.628855  0.129091  0.758158  1
  Cl  Cl33  1  0.624001  0.595235  0.248000  1
  Cl  Cl34  1  0.264643  0.514631  0.529287  1
  Cl  Cl35  1  0.371145  0.870909  0.241842  1
