# generated using pymatgen
data_Cd(IrCl4)3
_symmetry_space_group_name_H-M   'P 1'
_cell_length_a   12.13162857
_cell_length_b   11.58413944
_cell_length_c   6.21743527
_cell_angle_alpha   79.73379089
_cell_angle_beta   69.98176302
_cell_angle_gamma   31.91424613
_symmetry_Int_Tables_number   1
_chemical_formula_structural   Cd(IrCl4)3
_chemical_formula_sum   'Cd1 Ir3 Cl12'
_cell_volume   422.75925577
_cell_formula_units_Z   1
loop_
 _symmetry_equiv_pos_site_id
 _symmetry_equiv_pos_as_xyz
  1  'x, y, z'
loop_
 _atom_site_type_symbol
 _atom_site_label
 _atom_site_symmetry_multiplicity
 _atom_site_fract_x
 _atom_site_fract_y
 _atom_site_fract_z
 _atom_site_occupancy
  Cd  Cd0  1  0.416374  0.416374  0.583626  1
  Ir  Ir1  1  0.829383  0.829383  0.670617  1
  Ir  Ir2  1  0.667481  0.667481  0.832519  1
  Ir  Ir3  1  0.587628  0.587628  0.412372  1
  Cl  Cl4  1  0.728790  0.295059  0.262369  1
  Cl  Cl5  1  0.870772  0.455732  0.086837  1
  Cl  Cl6  1  0.384923  0.798146  0.156618  1
  Cl  Cl7  1  0.455732  0.870772  0.586659  1
  Cl  Cl8  1  0.123784  0.684758  0.367005  1
  Cl  Cl9  1  0.295059  0.728790  0.713783  1
  Cl  Cl10  1  0.540409  0.955693  0.968380  1
  Cl  Cl11  1  0.955693  0.540409  0.535518  1
  Cl  Cl12  1  0.053993  0.607076  0.896900  1
  Cl  Cl13  1  0.798146  0.384923  0.660313  1
  Cl  Cl14  1  0.684758  0.123784  0.824453  1
  Cl  Cl15  1  0.607076  0.053993  0.442030  1
