# generated using pymatgen
data_Pr4NdDyTa2O14
_symmetry_space_group_name_H-M   'P 1'
_cell_length_a   6.69793159
_cell_length_b   6.66944931
_cell_length_c   7.71640400
_cell_angle_alpha   90.00000000
_cell_angle_beta   90.00000000
_cell_angle_gamma   108.69749677
_symmetry_Int_Tables_number   1
_chemical_formula_structural   Pr4NdDyTa2O14
_chemical_formula_sum   'Pr4 Nd1 Dy1 Ta2 O14'
_cell_volume   326.51148715
_cell_formula_units_Z   1
loop_
 _symmetry_equiv_pos_site_id
 _symmetry_equiv_pos_as_xyz
  1  'x, y, z'
loop_
 _atom_site_type_symbol
 _atom_site_label
 _atom_site_symmetry_multiplicity
 _atom_site_fract_x
 _atom_site_fract_y
 _atom_site_fract_z
 _atom_site_occupancy
  Pr  Pr0  1  0.535413  0.528536  0.499026  1
  Pr  Pr1  1  0.535413  0.528536  0.000974  1
  Pr  Pr2  1  0.007602  0.461636  0.750000  1
  Pr  Pr3  1  0.462835  0.004411  0.250000  1
  Nd  Nd4  1  0.532298  0.003692  0.750000  1
  Dy  Dy5  1  0.003880  0.531076  0.250000  1
  Ta  Ta6  1  0.000825  0.001009  0.497840  1
  Ta  Ta7  1  0.000825  0.001009  0.002160  1
  O  O8  1  0.945701  0.055451  0.750000  1
  O  O9  1  0.057863  0.935720  0.250000  1
  O  O10  1  0.353033  0.633498  0.250000  1
  O  O11  1  0.642350  0.367477  0.750000  1
  O  O12  1  0.373695  0.633551  0.750000  1
  O  O13  1  0.646187  0.378482  0.250000  1
  O  O14  1  0.306892  0.069550  0.968411  1
  O  O15  1  0.679466  0.919110  0.474200  1
  O  O16  1  0.306892  0.069550  0.531589  1
  O  O17  1  0.679466  0.919110  0.025800  1
  O  O18  1  0.033373  0.298136  0.457177  1
  O  O19  1  0.931309  0.681161  0.977165  1
  O  O20  1  0.931309  0.681161  0.522835  1
  O  O21  1  0.033373  0.298136  0.042823  1
