# generated using pymatgen
data_Ca21MgGa9Hg5
_symmetry_space_group_name_H-M   'P 1'
_cell_length_a   11.44247631
_cell_length_b   11.42089163
_cell_length_c   11.44247732
_cell_angle_alpha   60.06238206
_cell_angle_beta   59.87522950
_cell_angle_gamma   60.06238451
_symmetry_Int_Tables_number   1
_chemical_formula_structural   Ca21MgGa9Hg5
_chemical_formula_sum   'Ca21 Mg1 Ga9 Hg5'
_cell_volume   1057.35785716
_cell_formula_units_Z   1
loop_
 _symmetry_equiv_pos_site_id
 _symmetry_equiv_pos_as_xyz
  1  'x, y, z'
loop_
 _atom_site_type_symbol
 _atom_site_label
 _atom_site_symmetry_multiplicity
 _atom_site_fract_x
 _atom_site_fract_y
 _atom_site_fract_z
 _atom_site_occupancy
  Ca  Ca0  1  0.998443  0.001557  0.998443  1
  Ca  Ca1  1  0.131662  0.131843  0.131662  1
  Ca  Ca2  1  0.395167  0.868338  0.868157  1
  Ca  Ca3  1  0.866646  0.393091  0.866646  1
  Ca  Ca4  1  0.868157  0.868338  0.395167  1
  Ca  Ca5  1  0.131662  0.604833  0.131662  1
  Ca  Ca6  1  0.126383  0.133354  0.606909  1
  Ca  Ca7  1  0.606909  0.133354  0.126383  1
  Ca  Ca8  1  0.866646  0.873617  0.866646  1
  Ca  Ca9  1  0.499931  0.829379  0.499931  1
  Ca  Ca10  1  0.828080  0.495335  0.504665  1
  Ca  Ca11  1  0.499722  0.828069  0.171931  1
  Ca  Ca12  1  0.170621  0.500069  0.829241  1
  Ca  Ca13  1  0.829241  0.500069  0.170621  1
  Ca  Ca14  1  0.504665  0.495335  0.828080  1
  Ca  Ca15  1  0.171931  0.828069  0.499722  1
  Ca  Ca16  1  0.504665  0.171920  0.828080  1
  Ca  Ca17  1  0.499722  0.500278  0.171931  1
  Ca  Ca18  1  0.828080  0.171920  0.504665  1
  Ca  Ca19  1  0.171931  0.500278  0.499722  1
  Ca  Ca20  1  0.499931  0.170759  0.499931  1
  Mg  Mg21  1  0.498929  0.501071  0.498929  1
  Ga  Ga22  1  0.784253  0.215747  0.784253  1
  Ga  Ga23  1  0.309576  0.308915  0.309575  1
  Ga  Ga24  1  0.928065  0.690425  0.691085  1
  Ga  Ga25  1  0.690217  0.927537  0.690217  1
  Ga  Ga26  1  0.691085  0.690425  0.928065  1
  Ga  Ga27  1  0.309575  0.071935  0.309575  1
  Ga  Ga28  1  0.307972  0.309783  0.072463  1
  Ga  Ga29  1  0.072463  0.309783  0.307972  1
  Ga  Ga30  1  0.690217  0.692028  0.690216  1
  Hg  Hg31  1  0.214878  0.785122  0.214878  1
  Hg  Hg32  1  0.216040  0.783960  0.785247  1
  Hg  Hg33  1  0.785247  0.214753  0.216040  1
  Hg  Hg34  1  0.785247  0.783960  0.216040  1
  Hg  Hg35  1  0.216040  0.214753  0.785247  1
