# generated using pymatgen
data_TbYCo5(NiAs)7
_symmetry_space_group_name_H-M   'P 1'
_cell_length_a   3.77022900
_cell_length_b   9.40677815
_cell_length_c   9.37181681
_cell_angle_alpha   120.08070141
_cell_angle_beta   90.00000000
_cell_angle_gamma   90.00000000
_symmetry_Int_Tables_number   1
_chemical_formula_structural   TbYCo5(NiAs)7
_chemical_formula_sum   'Tb1 Y1 Co5 Ni7 As7'
_cell_volume   287.61352877
_cell_formula_units_Z   1
loop_
 _symmetry_equiv_pos_site_id
 _symmetry_equiv_pos_as_xyz
  1  'x, y, z'
loop_
 _atom_site_type_symbol
 _atom_site_label
 _atom_site_symmetry_multiplicity
 _atom_site_fract_x
 _atom_site_fract_y
 _atom_site_fract_z
 _atom_site_occupancy
  Tb  Tb0  1  0.500000  0.335240  0.667278  1
  Y  Y1  1  0.000000  0.665474  0.333328  1
  Co  Co2  1  0.000000  0.875699  0.154391  1
  Co  Co3  1  0.000000  0.276754  0.122820  1
  Co  Co4  1  0.000000  0.847313  0.723165  1
  Co  Co5  1  0.500000  0.428205  0.048175  1
  Co  Co6  1  0.500000  0.620031  0.570970  1
  Ni  Ni7  1  0.000000  0.562289  0.940021  1
  Ni  Ni8  1  0.000000  0.379596  0.436809  1
  Ni  Ni9  1  0.000000  0.059276  0.621046  1
  Ni  Ni10  1  0.500000  0.788861  0.906503  1
  Ni  Ni11  1  0.500000  0.119856  0.212920  1
  Ni  Ni12  1  0.500000  0.092731  0.883117  1
  Ni  Ni13  1  0.500000  0.949935  0.381118  1
  As  As14  1  0.000000  0.999753  0.001259  1
  As  As15  1  0.500000  0.705122  0.110364  1
  As  As16  1  0.500000  0.404991  0.291361  1
  As  As17  1  0.500000  0.885399  0.596993  1
  As  As18  1  0.000000  0.595962  0.708770  1
  As  As19  1  0.000000  0.116590  0.403520  1
  As  As20  1  0.000000  0.290924  0.886070  1
