# generated using pymatgen
data_Ti8Mo3Ir4Ru
_symmetry_space_group_name_H-M   'P 1'
_cell_length_a   6.21786700
_cell_length_b   4.41499900
_cell_length_c   8.83534600
_cell_angle_alpha   90.00000000
_cell_angle_beta   89.99968771
_cell_angle_gamma   90.00000000
_symmetry_Int_Tables_number   1
_chemical_formula_structural   Ti8Mo3Ir4Ru
_chemical_formula_sum   'Ti8 Mo3 Ir4 Ru1'
_cell_volume   242.54682799
_cell_formula_units_Z   1
loop_
 _symmetry_equiv_pos_site_id
 _symmetry_equiv_pos_as_xyz
  1  'x, y, z'
loop_
 _atom_site_type_symbol
 _atom_site_label
 _atom_site_symmetry_multiplicity
 _atom_site_fract_x
 _atom_site_fract_y
 _atom_site_fract_z
 _atom_site_occupancy
  Ti  Ti0  1  0.001325  0.749999  0.124999  1
  Ti  Ti1  1  0.498638  0.749999  0.125005  1
  Ti  Ti2  1  0.000280  0.249999  0.375658  1
  Ti  Ti3  1  0.499737  0.249999  0.375658  1
  Ti  Ti4  1  0.499810  0.749999  0.624997  1
  Ti  Ti5  1  0.000177  0.749999  0.625001  1
  Ti  Ti6  1  0.499752  0.249999  0.874336  1
  Ti  Ti7  1  0.000292  0.249999  0.874335  1
  Mo  Mo8  1  0.249977  0.749999  0.373313  1
  Mo  Mo9  1  0.750021  0.249999  0.625001  1
  Mo  Mo10  1  0.249991  0.749999  0.876684  1
  Ir  Ir11  1  0.249994  0.249999  0.124996  1
  Ir  Ir12  1  0.750001  0.749999  0.373686  1
  Ir  Ir13  1  0.249999  0.249999  0.624998  1
  Ir  Ir14  1  0.750011  0.749999  0.876314  1
  Ru  Ru15  1  0.749996  0.249999  0.125017  1
