# generated using pymatgen
data_Dy8Ho8Cd4CoRu3
_symmetry_space_group_name_H-M   'P 1'
_cell_length_a   9.62555669
_cell_length_b   9.62313120
_cell_length_c   9.55526755
_cell_angle_alpha   59.64196875
_cell_angle_beta   59.64383138
_cell_angle_gamma   59.88359359
_symmetry_Int_Tables_number   1
_chemical_formula_structural   Dy8Ho8Cd4CoRu3
_chemical_formula_sum   'Dy8 Ho8 Cd4 Co1 Ru3'
_cell_volume   621.90697218
_cell_formula_units_Z   1
loop_
 _symmetry_equiv_pos_site_id
 _symmetry_equiv_pos_as_xyz
  1  'x, y, z'
loop_
 _atom_site_type_symbol
 _atom_site_label
 _atom_site_symmetry_multiplicity
 _atom_site_fract_x
 _atom_site_fract_y
 _atom_site_fract_z
 _atom_site_occupancy
  Dy  Dy0  1  0.938207  0.938048  0.560273  1
  Dy  Dy1  1  0.811341  0.189911  0.187033  1
  Dy  Dy2  1  0.937772  0.564353  0.560422  1
  Dy  Dy3  1  0.939619  0.560711  0.939074  1
  Dy  Dy4  1  0.811435  0.811131  0.186464  1
  Dy  Dy5  1  0.344413  0.344651  0.351193  1
  Dy  Dy6  1  0.560564  0.939550  0.939174  1
  Dy  Dy7  1  0.564221  0.937723  0.560566  1
  Ho  Ho8  1  0.188787  0.815396  0.807441  1
  Ho  Ho9  1  0.188082  0.187862  0.807958  1
  Ho  Ho10  1  0.346200  0.346106  0.961122  1
  Ho  Ho11  1  0.343573  0.961235  0.351172  1
  Ho  Ho12  1  0.815432  0.188775  0.807145  1
  Ho  Ho13  1  0.561015  0.561308  0.938750  1
  Ho  Ho14  1  0.189989  0.811302  0.186996  1
  Ho  Ho15  1  0.961292  0.343603  0.351303  1
  Cd  Cd16  1  0.580486  0.580592  0.257675  1
  Cd  Cd17  1  0.258852  0.580520  0.579639  1
  Cd  Cd18  1  0.580432  0.580394  0.579633  1
  Cd  Cd19  1  0.580491  0.258846  0.579745  1
  Co  Co20  1  0.140103  0.140170  0.580070  1
  Ru  Ru21  1  0.580497  0.138794  0.142544  1
  Ru  Ru22  1  0.138445  0.138455  0.142063  1
  Ru  Ru23  1  0.138752  0.580567  0.142547  1
