# generated using pymatgen
data_La13Pr3(CdOs)4
_symmetry_space_group_name_H-M   'P 1'
_cell_length_a   10.06553561
_cell_length_b   10.06915722
_cell_length_c   10.06553600
_cell_angle_alpha   60.01190249
_cell_angle_beta   60.00000527
_cell_angle_gamma   60.01190073
_symmetry_Int_Tables_number   1
_chemical_formula_structural   La13Pr3(CdOs)4
_chemical_formula_sum   'La13 Pr3 Cd4 Os4'
_cell_volume   721.48954204
_cell_formula_units_Z   1
loop_
 _symmetry_equiv_pos_site_id
 _symmetry_equiv_pos_as_xyz
  1  'x, y, z'
loop_
 _atom_site_type_symbol
 _atom_site_label
 _atom_site_symmetry_multiplicity
 _atom_site_fract_x
 _atom_site_fract_y
 _atom_site_fract_z
 _atom_site_occupancy
  La  La0  1  0.689222  0.690154  0.310312  1
  La  La1  1  0.154507  0.153746  0.537240  1
  La  La2  1  0.310312  0.690154  0.689222  1
  La  La3  1  0.154507  0.153746  0.154507  1
  La  La4  1  0.537240  0.153746  0.154507  1
  La  La5  1  0.310312  0.690154  0.310312  1
  La  La6  1  0.312263  0.309102  0.689317  1
  La  La7  1  0.689317  0.309102  0.689317  1
  La  La8  1  0.941381  0.559058  0.558180  1
  La  La9  1  0.558180  0.559058  0.941381  1
  La  La10  1  0.154423  0.536729  0.154423  1
  La  La11  1  0.689317  0.309102  0.312263  1
  La  La12  1  0.941381  0.559058  0.941381  1
  Pr  Pr13  1  0.938851  0.940953  0.560098  1
  Pr  Pr14  1  0.560098  0.940953  0.560098  1
  Pr  Pr15  1  0.560098  0.940953  0.938851  1
  Cd  Cd16  1  0.238190  0.921185  0.920312  1
  Cd  Cd17  1  0.920312  0.921185  0.920312  1
  Cd  Cd18  1  0.920312  0.921185  0.238190  1
  Cd  Cd19  1  0.921084  0.236745  0.921084  1
  Os  Os20  1  0.912543  0.363935  0.361761  1
  Os  Os21  1  0.361761  0.363935  0.912543  1
  Os  Os22  1  0.362625  0.912124  0.362625  1
  Os  Os23  1  0.361761  0.363935  0.361761  1
