# generated using pymatgen
data_Ba6Ni2RuO12
_symmetry_space_group_name_H-M   'P 1'
_cell_length_a   9.17754427
_cell_length_b   9.17754402
_cell_length_c   7.20985131
_cell_angle_alpha   67.67885101
_cell_angle_beta   67.67884909
_cell_angle_gamma   36.70860820
_symmetry_Int_Tables_number   1
_chemical_formula_structural   Ba6Ni2RuO12
_chemical_formula_sum   'Ba6 Ni2 Ru1 O12'
_cell_volume   332.66210746
_cell_formula_units_Z   1
loop_
 _symmetry_equiv_pos_site_id
 _symmetry_equiv_pos_as_xyz
  1  'x, y, z'
loop_
 _atom_site_type_symbol
 _atom_site_label
 _atom_site_symmetry_multiplicity
 _atom_site_fract_x
 _atom_site_fract_y
 _atom_site_fract_z
 _atom_site_occupancy
  Ba  Ba0  1  0.875621  0.875621  0.719648  1
  Ba  Ba1  1  0.218437  0.218437  0.715251  1
  Ba  Ba2  1  0.547952  0.547952  0.711006  1
  Ba  Ba3  1  0.452048  0.452048  0.288994  1
  Ba  Ba4  1  0.781563  0.781563  0.284749  1
  Ba  Ba5  1  0.124379  0.124379  0.280352  1
  Ni  Ni6  1  0.668267  0.668267  0.000364  1
  Ni  Ni7  1  0.331733  0.331733  0.999636  1
  Ru  Ru8  1  0.000000  0.000000  0.000000  1
  O  O9  1  0.950218  0.950218  0.299778  1
  O  O10  1  0.283265  0.283265  0.304350  1
  O  O11  1  0.614690  0.614690  0.306440  1
  O  O12  1  0.385310  0.385310  0.693560  1
  O  O13  1  0.716735  0.716735  0.695650  1
  O  O14  1  0.049782  0.049782  0.700222  1
  O  O15  1  0.500000  0.000000  0.000000  1
  O  O16  1  0.839111  0.318765  0.000018  1
  O  O17  1  0.160889  0.681235  0.999982  1
  O  O18  1  0.000000  0.500000  0.000000  1
  O  O19  1  0.318765  0.839111  0.000018  1
  O  O20  1  0.681235  0.160889  0.999982  1
