# generated using pymatgen
data_Li4La4Pt3Rh
_symmetry_space_group_name_H-M   'P 1'
_cell_length_a   4.17486200
_cell_length_b   7.27968509
_cell_length_c   8.66975640
_cell_angle_alpha   90.09528057
_cell_angle_beta   90.00000000
_cell_angle_gamma   90.00000000
_symmetry_Int_Tables_number   1
_chemical_formula_structural   Li4La4Pt3Rh
_chemical_formula_sum   'Li4 La4 Pt3 Rh1'
_cell_volume   263.48810377
_cell_formula_units_Z   1
loop_
 _symmetry_equiv_pos_site_id
 _symmetry_equiv_pos_as_xyz
  1  'x, y, z'
loop_
 _atom_site_type_symbol
 _atom_site_label
 _atom_site_symmetry_multiplicity
 _atom_site_fract_x
 _atom_site_fract_y
 _atom_site_fract_z
 _atom_site_occupancy
  Li  Li0  1  0.250000  0.630500  0.554463  1
  Li  Li1  1  0.750000  0.371067  0.444227  1
  Li  Li2  1  0.750000  0.870868  0.056153  1
  Li  Li3  1  0.250000  0.128844  0.946227  1
  La  La4  1  0.250000  0.544105  0.184830  1
  La  La5  1  0.750000  0.456049  0.806763  1
  La  La6  1  0.750000  0.963517  0.684979  1
  La  La7  1  0.250000  0.046234  0.319006  1
  Pt  Pt8  1  0.250000  0.749644  0.880608  1
  Pt  Pt9  1  0.750000  0.250949  0.119601  1
  Pt  Pt10  1  0.750000  0.749093  0.379343  1
  Rh  Rh11  1  0.250000  0.239129  0.623798  1
