# generated using pymatgen
data_Ba6Nb2ZnO12
_symmetry_space_group_name_H-M   'P 1'
_cell_length_a   9.35439247
_cell_length_b   9.35439279
_cell_length_c   7.33661751
_cell_angle_alpha   67.61370079
_cell_angle_beta   67.61369927
_cell_angle_gamma   36.96355930
_symmetry_Int_Tables_number   1
_chemical_formula_structural   Ba6Nb2ZnO12
_chemical_formula_sum   'Ba6 Nb2 Zn1 O12'
_cell_volume   353.54073769
_cell_formula_units_Z   1
loop_
 _symmetry_equiv_pos_site_id
 _symmetry_equiv_pos_as_xyz
  1  'x, y, z'
loop_
 _atom_site_type_symbol
 _atom_site_label
 _atom_site_symmetry_multiplicity
 _atom_site_fract_x
 _atom_site_fract_y
 _atom_site_fract_z
 _atom_site_occupancy
  Ba  Ba0  1  0.207797  0.207797  0.710528  1
  Ba  Ba1  1  0.887668  0.887668  0.706487  1
  Ba  Ba2  1  0.548375  0.548375  0.714312  1
  Ba  Ba3  1  0.792203  0.792203  0.289472  1
  Ba  Ba4  1  0.451625  0.451625  0.285688  1
  Ba  Ba5  1  0.112332  0.112332  0.293513  1
  Nb  Nb6  1  0.665554  0.665554  0.001518  1
  Nb  Nb7  1  0.334446  0.334446  0.998482  1
  Zn  Zn8  1  0.000000  0.000000  0.000000  1
  O  O9  1  0.279391  0.279391  0.303357  1
  O  O10  1  0.946928  0.946928  0.316435  1
  O  O11  1  0.619687  0.619687  0.304942  1
  O  O12  1  0.720609  0.720609  0.696643  1
  O  O13  1  0.380313  0.380313  0.695058  1
  O  O14  1  0.053072  0.053072  0.683565  1
  O  O15  1  0.000000  0.500000  0.000000  1
  O  O16  1  0.647478  0.175415  0.999976  1
  O  O17  1  0.352522  0.824585  0.000024  1
  O  O18  1  0.500000  0.000000  0.000000  1
  O  O19  1  0.175415  0.647478  0.999976  1
  O  O20  1  0.824585  0.352522  0.000024  1
