# generated using pymatgen
data_SrNd6CuBr12
_symmetry_space_group_name_H-M   'P 1'
_cell_length_a   9.43279749
_cell_length_b   9.43279736
_cell_length_c   9.43279900
_cell_angle_alpha   105.88567140
_cell_angle_beta   105.88567118
_cell_angle_gamma   105.88566701
_symmetry_Int_Tables_number   1
_chemical_formula_structural   SrNd6CuBr12
_chemical_formula_sum   'Sr1 Nd6 Cu1 Br12'
_cell_volume   719.17481367
_cell_formula_units_Z   1
loop_
 _symmetry_equiv_pos_site_id
 _symmetry_equiv_pos_as_xyz
  1  'x, y, z'
loop_
 _atom_site_type_symbol
 _atom_site_label
 _atom_site_symmetry_multiplicity
 _atom_site_fract_x
 _atom_site_fract_y
 _atom_site_fract_z
 _atom_site_occupancy
  Sr  Sr0  1  0.500000  0.500000  0.500000  1
  Nd  Nd1  1  0.979261  0.897379  0.683298  1
  Nd  Nd2  1  0.020739  0.102621  0.316702  1
  Nd  Nd3  1  0.102621  0.316702  0.020739  1
  Nd  Nd4  1  0.316702  0.020739  0.102621  1
  Nd  Nd5  1  0.897379  0.683298  0.979261  1
  Nd  Nd6  1  0.683298  0.979261  0.897379  1
  Cu  Cu7  1  0.000000  0.000000  0.000000  1
  Br  Br8  1  0.550407  0.631748  0.853771  1
  Br  Br9  1  0.449593  0.368252  0.146229  1
  Br  Br10  1  0.320155  0.927115  0.776765  1
  Br  Br11  1  0.368252  0.146229  0.449593  1
  Br  Br12  1  0.927115  0.776765  0.320155  1
  Br  Br13  1  0.679845  0.072885  0.223235  1
  Br  Br14  1  0.072885  0.223235  0.679845  1
  Br  Br15  1  0.776765  0.320155  0.927115  1
  Br  Br16  1  0.223235  0.679845  0.072885  1
  Br  Br17  1  0.853771  0.550407  0.631748  1
  Br  Br18  1  0.146229  0.449593  0.368252  1
  Br  Br19  1  0.631748  0.853771  0.550407  1
