# generated using pymatgen
data_GaCoIO6
_symmetry_space_group_name_H-M   'P 1'
_cell_length_a   5.08803000
_cell_length_b   5.08795311
_cell_length_c   4.55154000
_cell_angle_alpha   90.00087842
_cell_angle_beta   90.00074795
_cell_angle_gamma   119.99745831
_symmetry_Int_Tables_number   1
_chemical_formula_structural   GaCoIO6
_chemical_formula_sum   'Ga1 Co1 I1 O6'
_cell_volume   102.04527058
_cell_formula_units_Z   1
loop_
 _symmetry_equiv_pos_site_id
 _symmetry_equiv_pos_as_xyz
  1  'x, y, z'
loop_
 _atom_site_type_symbol
 _atom_site_label
 _atom_site_symmetry_multiplicity
 _atom_site_fract_x
 _atom_site_fract_y
 _atom_site_fract_z
 _atom_site_occupancy
  Ga  Ga0  1  0.666674  0.333329  0.500002  1
  Co  Co1  1  0.999993  0.000001  0.999999  1
  I  I2  1  0.333323  0.666677  0.500003  1
  O  O3  1  0.638391  0.987706  0.732697  1
  O  O4  1  0.349334  0.361618  0.732699  1
  O  O5  1  0.012280  0.650670  0.732700  1
  O  O6  1  0.349334  0.987720  0.267301  1
  O  O7  1  0.638380  0.650671  0.267301  1
  O  O8  1  0.012291  0.361608  0.267299  1
