# generated using pymatgen
data_Tm4Mo3Os5
_symmetry_space_group_name_H-M   'P 1'
_cell_length_a   5.56338002
_cell_length_b   5.38117471
_cell_length_c   8.62230900
_cell_angle_alpha   90.00000000
_cell_angle_beta   90.00000000
_cell_angle_gamma   121.12686448
_symmetry_Int_Tables_number   1
_chemical_formula_structural   Tm4Mo3Os5
_chemical_formula_sum   'Tm4 Mo3 Os5'
_cell_volume   220.96615065
_cell_formula_units_Z   1
loop_
 _symmetry_equiv_pos_site_id
 _symmetry_equiv_pos_as_xyz
  1  'x, y, z'
loop_
 _atom_site_type_symbol
 _atom_site_label
 _atom_site_symmetry_multiplicity
 _atom_site_fract_x
 _atom_site_fract_y
 _atom_site_fract_z
 _atom_site_occupancy
  Tm  Tm0  1  0.667205  0.334436  0.561887  1
  Tm  Tm1  1  0.333595  0.667182  0.432856  1
  Tm  Tm2  1  0.333595  0.667182  0.067144  1
  Tm  Tm3  1  0.667205  0.334436  0.938113  1
  Mo  Mo4  1  0.997443  0.994869  0.493559  1
  Mo  Mo5  1  0.997443  0.994869  0.006441  1
  Mo  Mo6  1  0.173246  0.346533  0.750000  1
  Os  Os7  1  0.172238  0.831826  0.750000  1
  Os  Os8  1  0.659581  0.831841  0.750000  1
  Os  Os9  1  0.824190  0.648331  0.250000  1
  Os  Os10  1  0.830296  0.174222  0.250000  1
  Os  Os11  1  0.343964  0.174273  0.250000  1
