# generated using pymatgen
data_Zr6Ta2Co16(As3P)3
_symmetry_space_group_name_H-M   'P 1'
_cell_length_a   12.41264266
_cell_length_b   12.39307320
_cell_length_c   3.74681200
_cell_angle_alpha   90.00000000
_cell_angle_beta   90.00000000
_cell_angle_gamma   119.94785527
_symmetry_Int_Tables_number   1
_chemical_formula_structural   Zr6Ta2Co16(As3P)3
_chemical_formula_sum   'Zr6 Ta2 Co16 As9 P3'
_cell_volume   499.41750405
_cell_formula_units_Z   1
loop_
 _symmetry_equiv_pos_site_id
 _symmetry_equiv_pos_as_xyz
  1  'x, y, z'
loop_
 _atom_site_type_symbol
 _atom_site_label
 _atom_site_symmetry_multiplicity
 _atom_site_fract_x
 _atom_site_fract_y
 _atom_site_fract_z
 _atom_site_occupancy
  Zr  Zr0  1  0.000000  0.557814  0.000000  1
  Zr  Zr1  1  0.665334  0.333366  0.000000  1
  Zr  Zr2  1  0.334666  0.668033  0.000000  1
  Zr  Zr3  1  0.829398  0.829012  0.500000  1
  Zr  Zr4  1  0.170602  0.999614  0.500000  1
  Zr  Zr5  1  0.000000  0.168693  0.500000  1
  Ta  Ta6  1  0.442444  0.442633  0.000000  1
  Ta  Ta7  1  0.557556  0.000189  0.000000  1
  Co  Co8  1  0.194205  0.363685  0.000000  1
  Co  Co9  1  0.174187  0.810055  0.000000  1
  Co  Co10  1  0.825813  0.635868  0.000000  1
  Co  Co11  1  0.805795  0.169481  0.000000  1
  Co  Co12  1  0.364116  0.194064  0.000000  1
  Co  Co13  1  0.124634  0.478807  0.500000  1
  Co  Co14  1  0.360591  0.878803  0.500000  1
  Co  Co15  1  0.516832  0.642131  0.500000  1
  Co  Co16  1  0.639409  0.518211  0.500000  1
  Co  Co17  1  0.875366  0.354173  0.500000  1
  Co  Co18  1  0.483168  0.125300  0.500000  1
  Co  Co19  1  0.000000  0.999883  0.000000  1
  Co  Co20  1  0.728609  0.000562  0.500000  1
  Co  Co21  1  0.000000  0.729642  0.500000  1
  Co  Co22  1  0.635884  0.829947  0.000000  1
  Co  Co23  1  0.271391  0.271953  0.500000  1
  As  As24  1  0.649790  0.652127  0.000000  1
  As  As25  1  0.350210  0.002339  0.000000  1
  As  As26  1  0.000000  0.343552  0.000000  1
  As  As27  1  0.480387  0.309845  0.500000  1
  As  As28  1  0.689791  0.170690  0.500000  1
  As  As29  1  0.824796  0.518070  0.500000  1
  As  As30  1  0.519613  0.829458  0.500000  1
  As  As31  1  0.175204  0.693273  0.500000  1
  As  As32  1  0.310209  0.480899  0.500000  1
  P  P33  1  0.826227  0.999021  0.000000  1
  P  P34  1  0.000000  0.826013  0.000000  1
  P  P35  1  0.173773  0.172793  0.000000  1
