# generated using pymatgen
data_Ta3Ti(B2Mo)2
_symmetry_space_group_name_H-M   'P 1'
_cell_length_a   6.09743785
_cell_length_b   6.09743832
_cell_length_c   3.25392300
_cell_angle_alpha   90.00000000
_cell_angle_beta   90.00000000
_cell_angle_gamma   89.45879317
_symmetry_Int_Tables_number   1
_chemical_formula_structural   Ta3Ti(B2Mo)2
_chemical_formula_sum   'Ta3 Ti1 B4 Mo2'
_cell_volume   120.97139664
_cell_formula_units_Z   1
loop_
 _symmetry_equiv_pos_site_id
 _symmetry_equiv_pos_as_xyz
  1  'x, y, z'
loop_
 _atom_site_type_symbol
 _atom_site_label
 _atom_site_symmetry_multiplicity
 _atom_site_fract_x
 _atom_site_fract_y
 _atom_site_fract_z
 _atom_site_occupancy
  Ta  Ta0  1  0.820857  0.678857  0.500000  1
  Ta  Ta1  1  0.321185  0.821185  0.500000  1
  Ta  Ta2  1  0.178857  0.320857  0.500000  1
  Ti  Ti3  1  0.678851  0.178851  0.500000  1
  B  B4  1  0.108743  0.608743  0.000000  1
  B  B5  1  0.608232  0.894623  0.000000  1
  B  B6  1  0.394623  0.108232  0.000000  1
  B  B7  1  0.890236  0.390236  0.000000  1
  Mo  Mo8  1  0.501584  0.496834  0.000000  1
  Mo  Mo9  1  0.996834  0.001584  0.000000  1
