# generated using pymatgen
data_Nd2Al20Tc3Pd
_symmetry_space_group_name_H-M   'P 1'
_cell_length_a   6.92271949
_cell_length_b   6.92080766
_cell_length_c   9.22194400
_cell_angle_alpha   90.24848808
_cell_angle_beta   90.45521970
_cell_angle_gamma   97.23036547
_symmetry_Int_Tables_number   1
_chemical_formula_structural   Nd2Al20Tc3Pd
_chemical_formula_sum   'Nd2 Al20 Tc3 Pd1'
_cell_volume   438.29725347
_cell_formula_units_Z   1
loop_
 _symmetry_equiv_pos_site_id
 _symmetry_equiv_pos_as_xyz
  1  'x, y, z'
loop_
 _atom_site_type_symbol
 _atom_site_label
 _atom_site_symmetry_multiplicity
 _atom_site_fract_x
 _atom_site_fract_y
 _atom_site_fract_z
 _atom_site_occupancy
  Nd  Nd0  1  0.878898  0.128606  0.749389  1
  Nd  Nd1  1  0.121102  0.871394  0.250611  1
  Al  Al2  1  0.591789  0.858972  0.252374  1
  Al  Al3  1  0.779296  0.519133  0.248486  1
  Al  Al4  1  0.155235  0.839227  0.897567  1
  Al  Al5  1  0.408211  0.141028  0.747626  1
  Al  Al6  1  0.624203  0.384300  0.950361  1
  Al  Al7  1  0.840075  0.157491  0.400936  1
  Al  Al8  1  0.775792  0.770427  0.002450  1
  Al  Al9  1  0.861994  0.592615  0.748886  1
  Al  Al10  1  0.844765  0.160773  0.102433  1
  Al  Al11  1  0.220704  0.480867  0.751514  1
  Al  Al12  1  0.159925  0.842509  0.599064  1
  Al  Al13  1  0.773836  0.772766  0.498878  1
  Al  Al14  1  0.478708  0.222316  0.256917  1
  Al  Al15  1  0.623557  0.378058  0.545324  1
  Al  Al16  1  0.226164  0.227234  0.501122  1
  Al  Al17  1  0.376443  0.621942  0.454676  1
  Al  Al18  1  0.138006  0.407385  0.251114  1
  Al  Al19  1  0.521292  0.777684  0.743083  1
  Al  Al20  1  0.375797  0.615700  0.049639  1
  Al  Al21  1  0.224208  0.229573  0.997550  1
  Tc  Tc22  1  0.500000  0.000000  0.500000  1
  Tc  Tc23  1  0.000000  0.500000  0.000000  1
  Tc  Tc24  1  0.000000  0.500000  0.500000  1
  Pd  Pd25  1  0.500000  0.000000  0.000000  1
