# generated using pymatgen
data_Tb7Ho13Si15Ru
_symmetry_space_group_name_H-M   'P 1'
_cell_length_a   7.37742825
_cell_length_b   7.76097232
_cell_length_c   14.54103152
_cell_angle_alpha   89.97199285
_cell_angle_beta   89.98751881
_cell_angle_gamma   89.94460178
_symmetry_Int_Tables_number   1
_chemical_formula_structural   Tb7Ho13Si15Ru
_chemical_formula_sum   'Tb7 Ho13 Si15 Ru1'
_cell_volume   832.56103059
_cell_formula_units_Z   1
loop_
 _symmetry_equiv_pos_site_id
 _symmetry_equiv_pos_as_xyz
  1  'x, y, z'
loop_
 _atom_site_type_symbol
 _atom_site_label
 _atom_site_symmetry_multiplicity
 _atom_site_fract_x
 _atom_site_fract_y
 _atom_site_fract_z
 _atom_site_occupancy
  Tb  Tb0  1  0.025219  0.816809  0.904074  1
  Tb  Tb1  1  0.473334  0.315131  0.097134  1
  Tb  Tb2  1  0.973956  0.182712  0.403662  1
  Tb  Tb3  1  0.473424  0.315261  0.403013  1
  Tb  Tb4  1  0.974082  0.182700  0.096391  1
  Tb  Tb5  1  0.521782  0.674301  0.906116  1
  Tb  Tb6  1  0.025357  0.816677  0.595878  1
  Ho  Ho7  1  0.672017  0.185022  0.625645  1
  Ho  Ho8  1  0.193944  0.325227  0.872321  1
  Ho  Ho9  1  0.317797  0.819461  0.123997  1
  Ho  Ho10  1  0.817044  0.678024  0.376877  1
  Ho  Ho11  1  0.318037  0.819312  0.376189  1
  Ho  Ho12  1  0.817151  0.678103  0.123291  1
  Ho  Ho13  1  0.672099  0.184840  0.874267  1
  Ho  Ho14  1  0.194423  0.325730  0.627590  1
  Ho  Ho15  1  0.522055  0.674229  0.594229  1
  Ho  Ho16  1  0.838176  0.513874  0.749848  1
  Ho  Ho17  1  0.354786  0.980030  0.749832  1
  Ho  Ho18  1  0.150137  0.483928  0.250028  1
  Ho  Ho19  1  0.649076  0.014135  0.250001  1
  Si  Si20  1  0.646373  0.970528  0.460527  1
  Si  Si21  1  0.150374  0.528825  0.039400  1
  Si  Si22  1  0.348773  0.026111  0.960604  1
  Si  Si23  1  0.855953  0.469746  0.539626  1
  Si  Si24  1  0.348991  0.025497  0.539576  1
  Si  Si25  1  0.856614  0.469312  0.960492  1
  Si  Si26  1  0.646442  0.970981  0.039600  1
  Si  Si27  1  0.150317  0.528844  0.460594  1
  Si  Si28  1  0.981180  0.103419  0.749945  1
  Si  Si29  1  0.522959  0.603557  0.250032  1
  Si  Si30  1  0.019041  0.894297  0.250002  1
  Si  Si31  1  0.740842  0.877745  0.749859  1
  Si  Si32  1  0.228611  0.632511  0.749745  1
  Si  Si33  1  0.266122  0.126225  0.250031  1
  Si  Si34  1  0.768591  0.373431  0.250011  1
  Ru  Ru35  1  0.484924  0.413466  0.749572  1
