# generated using pymatgen
data_Ho15Lu5(CoBi2)4
_symmetry_space_group_name_H-M   'P 1'
_cell_length_a   7.90384836
_cell_length_b   8.87536642
_cell_length_c   12.36789079
_cell_angle_alpha   89.89294509
_cell_angle_beta   90.05565295
_cell_angle_gamma   90.03822213
_symmetry_Int_Tables_number   1
_chemical_formula_structural   Ho15Lu5(CoBi2)4
_chemical_formula_sum   'Ho15 Lu5 Co4 Bi8'
_cell_volume   867.59986199
_cell_formula_units_Z   1
loop_
 _symmetry_equiv_pos_site_id
 _symmetry_equiv_pos_as_xyz
  1  'x, y, z'
loop_
 _atom_site_type_symbol
 _atom_site_label
 _atom_site_symmetry_multiplicity
 _atom_site_fract_x
 _atom_site_fract_y
 _atom_site_fract_z
 _atom_site_occupancy
  Ho  Ho0  1  0.348446  0.749678  0.699506  1
  Ho  Ho1  1  0.651351  0.250009  0.300484  1
  Ho  Ho2  1  0.848045  0.250545  0.800298  1
  Ho  Ho3  1  0.152244  0.749435  0.200180  1
  Ho  Ho4  1  0.883917  0.748715  0.812398  1
  Ho  Ho5  1  0.115770  0.251493  0.187630  1
  Ho  Ho6  1  0.382799  0.250085  0.686962  1
  Ho  Ho7  1  0.615334  0.749681  0.312797  1
  Ho  Ho8  1  0.675285  0.963162  0.562648  1
  Ho  Ho9  1  0.824393  0.962638  0.063196  1
  Ho  Ho10  1  0.175487  0.037264  0.937123  1
  Ho  Ho11  1  0.057057  0.749330  0.497366  1
  Ho  Ho12  1  0.946645  0.251107  0.502479  1
  Ho  Ho13  1  0.554508  0.251585  0.002503  1
  Ho  Ho14  1  0.445646  0.748250  0.997623  1
  Lu  Lu15  1  0.671080  0.537564  0.562403  1
  Lu  Lu16  1  0.328633  0.461938  0.436806  1
  Lu  Lu17  1  0.171072  0.461329  0.937198  1
  Lu  Lu18  1  0.328183  0.037462  0.437079  1
  Lu  Lu19  1  0.828714  0.538484  0.063086  1
  Co  Co20  1  0.065122  0.748020  0.992629  1
  Co  Co21  1  0.934614  0.251903  0.007658  1
  Co  Co22  1  0.561867  0.250871  0.506714  1
  Co  Co23  1  0.434393  0.748957  0.492344  1
  Bi  Bi24  1  0.568974  0.508167  0.826434  1
  Bi  Bi25  1  0.430548  0.491392  0.173229  1
  Bi  Bi26  1  0.069141  0.491590  0.672995  1
  Bi  Bi27  1  0.428316  0.009000  0.173144  1
  Bi  Bi28  1  0.930226  0.508654  0.327238  1
  Bi  Bi29  1  0.571128  0.991313  0.827069  1
  Bi  Bi30  1  0.930637  0.991703  0.327658  1
  Bi  Bi31  1  0.070425  0.008678  0.673121  1
