# generated using pymatgen
data_Ti2Nb2WN6
_symmetry_space_group_name_H-M   'P 1'
_cell_length_a   5.16125816
_cell_length_b   5.14440712
_cell_length_c   10.20728800
_cell_angle_alpha   90.00000000
_cell_angle_beta   90.00000000
_cell_angle_gamma   119.89205824
_symmetry_Int_Tables_number   1
_chemical_formula_structural   Ti2Nb2WN6
_chemical_formula_sum   'Ti4 Nb4 W2 N12'
_cell_volume   234.96504888
_cell_formula_units_Z   2
loop_
 _symmetry_equiv_pos_site_id
 _symmetry_equiv_pos_as_xyz
  1  'x, y, z'
loop_
 _atom_site_type_symbol
 _atom_site_label
 _atom_site_symmetry_multiplicity
 _atom_site_fract_x
 _atom_site_fract_y
 _atom_site_fract_z
 _atom_site_occupancy
  Ti  Ti0  1  0.330523  0.665262  0.500000  1
  Ti  Ti1  1  0.667101  0.333550  0.000000  1
  Ti  Ti2  1  0.667101  0.333550  0.500000  1
  Ti  Ti3  1  0.330523  0.665262  0.000000  1
  Nb  Nb4  1  0.999350  0.324225  0.250000  1
  Nb  Nb5  1  0.999350  0.675125  0.750000  1
  Nb  Nb6  1  0.324684  0.325332  0.750000  1
  Nb  Nb7  1  0.324684  0.999353  0.250000  1
  W  W8  1  0.676559  0.000145  0.750000  1
  W  W9  1  0.676559  0.676414  0.250000  1
  N  N10  1  0.351322  0.351190  0.379299  1
  N  N11  1  0.655073  0.994209  0.380141  1
  N  N12  1  0.994496  0.656396  0.379685  1
  N  N13  1  0.994496  0.338101  0.879685  1
  N  N14  1  0.655073  0.994209  0.119859  1
  N  N15  1  0.655073  0.660864  0.880141  1
  N  N16  1  0.351322  0.000133  0.879299  1
  N  N17  1  0.655073  0.660864  0.619859  1
  N  N18  1  0.994496  0.338101  0.620315  1
  N  N19  1  0.994496  0.656396  0.120315  1
  N  N20  1  0.351322  0.000133  0.620701  1
  N  N21  1  0.351322  0.351190  0.120701  1
