# generated using pymatgen
data_Cs2NaTaSe4
_symmetry_space_group_name_H-M   'P 1'
_cell_length_a   14.80881471
_cell_length_b   13.25026114
_cell_length_c   8.22446183
_cell_angle_alpha   83.70175987
_cell_angle_beta   62.79225199
_cell_angle_gamma   33.50598572
_symmetry_Int_Tables_number   1
_chemical_formula_structural   Cs2NaTaSe4
_chemical_formula_sum   'Cs4 Na2 Ta2 Se8'
_cell_volume   660.07456538
_cell_formula_units_Z   2
loop_
 _symmetry_equiv_pos_site_id
 _symmetry_equiv_pos_as_xyz
  1  'x, y, z'
loop_
 _atom_site_type_symbol
 _atom_site_label
 _atom_site_symmetry_multiplicity
 _atom_site_fract_x
 _atom_site_fract_y
 _atom_site_fract_z
 _atom_site_occupancy
  Cs  Cs0  1  0.678415  0.678415  0.321585  1
  Cs  Cs1  1  0.321585  0.321585  0.678415  1
  Cs  Cs2  1  0.571585  0.571585  0.928415  1
  Cs  Cs3  1  0.928415  0.928415  0.571585  1
  Na  Na4  1  0.000000  0.000000  0.000000  1
  Na  Na5  1  0.250000  0.250000  0.250000  1
  Ta  Ta6  1  0.500000  0.500000  0.500000  1
  Ta  Ta7  1  0.750000  0.750000  0.750000  1
  Se  Se8  1  0.260967  0.848290  0.547076  1
  Se  Se9  1  0.343667  0.547076  0.848290  1
  Se  Se10  1  0.547076  0.343667  0.260967  1
  Se  Se11  1  0.848290  0.260967  0.343667  1
  Se  Se12  1  0.401710  0.989033  0.906333  1
  Se  Se13  1  0.906333  0.702924  0.401710  1
  Se  Se14  1  0.702924  0.906333  0.989033  1
  Se  Se15  1  0.989033  0.401710  0.702924  1
