# generated using pymatgen
data_Rb12Sc(InTe4)3
_symmetry_space_group_name_H-M   'P 1'
_cell_length_a   14.82119030
_cell_length_b   9.18826455
_cell_length_c   11.91940237
_cell_angle_alpha   52.15376950
_cell_angle_beta   89.72406370
_cell_angle_gamma   89.93971635
_symmetry_Int_Tables_number   1
_chemical_formula_structural   Rb12Sc(InTe4)3
_chemical_formula_sum   'Rb12 Sc1 In3 Te12'
_cell_volume   1281.75498928
_cell_formula_units_Z   1
loop_
 _symmetry_equiv_pos_site_id
 _symmetry_equiv_pos_as_xyz
  1  'x, y, z'
loop_
 _atom_site_type_symbol
 _atom_site_label
 _atom_site_symmetry_multiplicity
 _atom_site_fract_x
 _atom_site_fract_y
 _atom_site_fract_z
 _atom_site_occupancy
  Rb  Rb0  1  0.900482  0.332478  0.397969  1
  Rb  Rb1  1  0.404141  0.667852  0.101469  1
  Rb  Rb2  1  0.098404  0.668062  0.600718  1
  Rb  Rb3  1  0.598647  0.333904  0.897005  1
  Rb  Rb4  1  0.187547  0.130006  0.580242  1
  Rb  Rb5  1  0.687198  0.863963  0.920496  1
  Rb  Rb6  1  0.815520  0.869267  0.417584  1
  Rb  Rb7  1  0.312176  0.129381  0.082480  1
  Rb  Rb8  1  0.618552  0.377588  0.471390  1
  Rb  Rb9  1  0.117305  0.632597  0.025500  1
  Rb  Rb10  1  0.379915  0.625112  0.528096  1
  Rb  Rb11  1  0.881694  0.369823  0.974771  1
  Sc  Sc12  1  0.560655  0.061109  0.341812  1
  In  In13  1  0.936192  0.065168  0.833380  1
  In  In14  1  0.437882  0.936237  0.662781  1
  In  In15  1  0.063799  0.936103  0.165952  1
  Te  Te16  1  0.387135  0.167793  0.366111  1
  Te  Te17  1  0.888846  0.833347  0.132538  1
  Te  Te18  1  0.613603  0.832943  0.631558  1
  Te  Te19  1  0.111470  0.167271  0.866871  1
  Te  Te20  1  0.685692  0.345113  0.188059  1
  Te  Te21  1  0.189644  0.647969  0.313373  1
  Te  Te22  1  0.311679  0.647865  0.812999  1
  Te  Te23  1  0.810590  0.353547  0.685756  1
  Te  Te24  1  0.548362  0.869607  0.233194  1
  Te  Te25  1  0.049007  0.135388  0.270779  1
  Te  Te26  1  0.452520  0.133987  0.769134  1
  Te  Te27  1  0.951343  0.866519  0.727984  1
