# generated using pymatgen
data_Yb2Er2MnRu7
_symmetry_space_group_name_H-M   'P 1'
_cell_length_a   5.28285004
_cell_length_b   5.28641319
_cell_length_c   8.72709957
_cell_angle_alpha   90.00000102
_cell_angle_beta   90.02643274
_cell_angle_gamma   59.97765521
_symmetry_Int_Tables_number   1
_chemical_formula_structural   Yb2Er2MnRu7
_chemical_formula_sum   'Yb2 Er2 Mn1 Ru7'
_cell_volume   211.02410092
_cell_formula_units_Z   1
loop_
 _symmetry_equiv_pos_site_id
 _symmetry_equiv_pos_as_xyz
  1  'x, y, z'
loop_
 _atom_site_type_symbol
 _atom_site_label
 _atom_site_symmetry_multiplicity
 _atom_site_fract_x
 _atom_site_fract_y
 _atom_site_fract_z
 _atom_site_occupancy
  Yb  Yb0  1  0.666585  0.666708  0.064300  1
  Yb  Yb1  1  0.333415  0.333292  0.935700  1
  Er  Er2  1  0.333450  0.333275  0.571646  1
  Er  Er3  1  0.666550  0.666725  0.428354  1
  Mn  Mn4  1  0.000000  0.000000  0.000000  1
  Ru  Ru5  1  0.000000  0.000000  0.500000  1
  Ru  Ru6  1  0.829530  0.340986  0.750815  1
  Ru  Ru7  1  0.340997  0.829501  0.750901  1
  Ru  Ru8  1  0.829530  0.829484  0.750815  1
  Ru  Ru9  1  0.170470  0.659014  0.249185  1
  Ru  Ru10  1  0.659003  0.170499  0.249099  1
  Ru  Ru11  1  0.170470  0.170516  0.249185  1
