# generated using pymatgen
data_Ho4AlGa3Ru4
_symmetry_space_group_name_H-M   'P 1'
_cell_length_a   4.50685800
_cell_length_b   7.18556989
_cell_length_c   7.08789108
_cell_angle_alpha   90.57542207
_cell_angle_beta   90.00000000
_cell_angle_gamma   90.00000000
_symmetry_Int_Tables_number   1
_chemical_formula_structural   Ho4AlGa3Ru4
_chemical_formula_sum   'Ho4 Al1 Ga3 Ru4'
_cell_volume   229.52512133
_cell_formula_units_Z   1
loop_
 _symmetry_equiv_pos_site_id
 _symmetry_equiv_pos_as_xyz
  1  'x, y, z'
loop_
 _atom_site_type_symbol
 _atom_site_label
 _atom_site_symmetry_multiplicity
 _atom_site_fract_x
 _atom_site_fract_y
 _atom_site_fract_z
 _atom_site_occupancy
  Ho  Ho0  1  0.250000  0.980596  0.805830  1
  Ho  Ho1  1  0.750000  0.016462  0.196176  1
  Ho  Ho2  1  0.250000  0.481782  0.697182  1
  Ho  Ho3  1  0.750000  0.520214  0.301208  1
  Al  Al4  1  0.750000  0.194246  0.606143  1
  Ga  Ga5  1  0.250000  0.301541  0.105181  1
  Ga  Ga6  1  0.750000  0.697019  0.892889  1
  Ga  Ga7  1  0.250000  0.803701  0.395722  1
  Ru  Ru8  1  0.750000  0.843683  0.563527  1
  Ru  Ru9  1  0.250000  0.162194  0.438222  1
  Ru  Ru10  1  0.750000  0.339567  0.934824  1
  Ru  Ru11  1  0.250000  0.658993  0.063093  1
