# generated using pymatgen
data_Dy3NpN4
_symmetry_space_group_name_H-M   'P 1'
_cell_length_a   11.55430840
_cell_length_b   11.55430845
_cell_length_c   11.55430700
_cell_angle_alpha   17.23907736
_cell_angle_beta   17.23907654
_cell_angle_gamma   17.23908091
_symmetry_Int_Tables_number   1
_chemical_formula_structural   Dy3NpN4
_chemical_formula_sum   'Dy3 Np1 N4'
_cell_volume   118.21259473
_cell_formula_units_Z   1
loop_
 _symmetry_equiv_pos_site_id
 _symmetry_equiv_pos_as_xyz
  1  'x, y, z'
loop_
 _atom_site_type_symbol
 _atom_site_label
 _atom_site_symmetry_multiplicity
 _atom_site_fract_x
 _atom_site_fract_y
 _atom_site_fract_z
 _atom_site_occupancy
  Dy  Dy0  1  0.248579  0.248579  0.248579  1
  Dy  Dy1  1  0.500000  0.500000  0.500000  1
  Dy  Dy2  1  0.751421  0.751421  0.751421  1
  Np  Np3  1  0.000000  0.000000  0.000000  1
  N  N4  1  0.373075  0.373075  0.373075  1
  N  N5  1  0.124560  0.124560  0.124560  1
  N  N6  1  0.626925  0.626925  0.626925  1
  N  N7  1  0.875440  0.875440  0.875440  1
