# generated using pymatgen
data_Na2ThO3
_symmetry_space_group_name_H-M   'P 1'
_cell_length_a   6.00905867
_cell_length_b   6.00905889
_cell_length_c   6.15177517
_cell_angle_alpha   79.09081095
_cell_angle_beta   79.09081425
_cell_angle_gamma   118.64188199
_symmetry_Int_Tables_number   1
_chemical_formula_structural   Na2ThO3
_chemical_formula_sum   'Na4 Th2 O6'
_cell_volume   181.04461739
_cell_formula_units_Z   2
loop_
 _symmetry_equiv_pos_site_id
 _symmetry_equiv_pos_as_xyz
  1  'x, y, z'
loop_
 _atom_site_type_symbol
 _atom_site_label
 _atom_site_symmetry_multiplicity
 _atom_site_fract_x
 _atom_site_fract_y
 _atom_site_fract_z
 _atom_site_occupancy
  Na  Na0  1  0.921800  0.078200  0.750000  1
  Na  Na1  1  0.245209  0.754791  0.750000  1
  Na  Na2  1  0.078200  0.921800  0.250000  1
  Na  Na3  1  0.754791  0.245209  0.250000  1
  Th  Th4  1  0.593812  0.406188  0.750000  1
  Th  Th5  1  0.406188  0.593812  0.250000  1
  O  O6  1  0.642051  0.781449  0.491835  1
  O  O7  1  0.357949  0.218551  0.508165  1
  O  O8  1  0.218551  0.357949  0.008165  1
  O  O9  1  0.000000  0.500000  0.500000  1
  O  O10  1  0.781449  0.642051  0.991835  1
  O  O11  1  0.500000  0.000000  0.000000  1
