# generated using pymatgen
data_TmAl10FeRh
_symmetry_space_group_name_H-M   'P 1'
_cell_length_a   6.79374544
_cell_length_b   6.79374538
_cell_length_c   9.07031828
_cell_angle_alpha   90.29250254
_cell_angle_beta   90.29250637
_cell_angle_gamma   97.10152744
_symmetry_Int_Tables_number   1
_chemical_formula_structural   TmAl10FeRh
_chemical_formula_sum   'Tm2 Al20 Fe2 Rh2'
_cell_volume   415.41643463
_cell_formula_units_Z   2
loop_
 _symmetry_equiv_pos_site_id
 _symmetry_equiv_pos_as_xyz
  1  'x, y, z'
loop_
 _atom_site_type_symbol
 _atom_site_label
 _atom_site_symmetry_multiplicity
 _atom_site_fract_x
 _atom_site_fract_y
 _atom_site_fract_z
 _atom_site_occupancy
  Tm  Tm0  1  0.872028  0.127972  0.750000  1
  Tm  Tm1  1  0.127972  0.872028  0.250000  1
  Al  Al2  1  0.620461  0.372150  0.549873  1
  Al  Al3  1  0.379539  0.627850  0.450127  1
  Al  Al4  1  0.372150  0.620461  0.049873  1
  Al  Al5  1  0.627850  0.379539  0.950127  1
  Al  Al6  1  0.228301  0.220801  0.496269  1
  Al  Al7  1  0.771699  0.779199  0.503731  1
  Al  Al8  1  0.779199  0.771699  0.003731  1
  Al  Al9  1  0.220801  0.228301  0.996269  1
  Al  Al10  1  0.849164  0.159351  0.099544  1
  Al  Al11  1  0.150836  0.840649  0.900456  1
  Al  Al12  1  0.159351  0.849164  0.599544  1
  Al  Al13  1  0.840649  0.150836  0.400456  1
  Al  Al14  1  0.860502  0.585747  0.753866  1
  Al  Al15  1  0.139498  0.414253  0.246134  1
  Al  Al16  1  0.414253  0.139498  0.746134  1
  Al  Al17  1  0.585747  0.860502  0.253866  1
  Al  Al18  1  0.223107  0.479405  0.754954  1
  Al  Al19  1  0.776893  0.520595  0.245046  1
  Al  Al20  1  0.520595  0.776893  0.745046  1
  Al  Al21  1  0.479405  0.223107  0.254954  1
  Fe  Fe22  1  0.000000  0.500000  0.000000  1
  Fe  Fe23  1  0.500000  0.000000  0.500000  1
  Rh  Rh24  1  0.000000  0.500000  0.500000  1
  Rh  Rh25  1  0.500000  0.000000  0.000000  1
