# generated using pymatgen
data_Ca6VFe(Co4P3)4
_symmetry_space_group_name_H-M   'P 1'
_cell_length_a   3.67397900
_cell_length_b   10.45546200
_cell_length_c   12.11486400
_cell_angle_alpha   90.00000000
_cell_angle_beta   90.00000000
_cell_angle_gamma   90.00000000
_symmetry_Int_Tables_number   1
_chemical_formula_structural   Ca6VFe(Co4P3)4
_chemical_formula_sum   'Ca6 V1 Fe1 Co16 P12'
_cell_volume   465.37006169
_cell_formula_units_Z   1
loop_
 _symmetry_equiv_pos_site_id
 _symmetry_equiv_pos_as_xyz
  1  'x, y, z'
loop_
 _atom_site_type_symbol
 _atom_site_label
 _atom_site_symmetry_multiplicity
 _atom_site_fract_x
 _atom_site_fract_y
 _atom_site_fract_z
 _atom_site_occupancy
  Ca  Ca0  1  0.000000  0.500000  0.525083  1
  Ca  Ca1  1  0.500000  0.000000  0.475220  1
  Ca  Ca2  1  0.500000  0.820888  0.206216  1
  Ca  Ca3  1  0.500000  0.179112  0.206216  1
  Ca  Ca4  1  0.000000  0.679864  0.795153  1
  Ca  Ca5  1  0.000000  0.320136  0.795153  1
  V  V6  1  0.500000  0.500000  0.151784  1
  Fe  Fe7  1  0.000000  0.000000  0.842193  1
  Co  Co8  1  0.500000  0.500000  0.700684  1
  Co  Co9  1  0.000000  0.000000  0.299117  1
  Co  Co10  1  0.000000  0.500000  0.986145  1
  Co  Co11  1  0.500000  0.000000  0.012039  1
  Co  Co12  1  0.500000  0.330326  0.993499  1
  Co  Co13  1  0.500000  0.669674  0.993499  1
  Co  Co14  1  0.000000  0.166244  0.004772  1
  Co  Co15  1  0.000000  0.833756  0.004772  1
  Co  Co16  1  0.500000  0.296296  0.432553  1
  Co  Co17  1  0.500000  0.703704  0.432553  1
  Co  Co18  1  0.000000  0.201568  0.570284  1
  Co  Co19  1  0.000000  0.798432  0.570284  1
  Co  Co20  1  0.500000  0.880869  0.708589  1
  Co  Co21  1  0.500000  0.119131  0.708589  1
  Co  Co22  1  0.000000  0.621028  0.292375  1
  Co  Co23  1  0.000000  0.378972  0.292375  1
  P  P24  1  0.500000  0.500000  0.882162  1
  P  P25  1  0.000000  0.000000  0.117314  1
  P  P26  1  0.500000  0.500000  0.344377  1
  P  P27  1  0.000000  0.000000  0.658516  1
  P  P28  1  0.500000  0.308588  0.617481  1
  P  P29  1  0.500000  0.691412  0.617481  1
  P  P30  1  0.000000  0.191314  0.384254  1
  P  P31  1  0.000000  0.808686  0.384254  1
  P  P32  1  0.500000  0.848974  0.890855  1
  P  P33  1  0.500000  0.151026  0.890855  1
  P  P34  1  0.000000  0.654832  0.106653  1
  P  P35  1  0.000000  0.345168  0.106653  1
