# generated using pymatgen
data_Gd7Ho3Ir5Au
_symmetry_space_group_name_H-M   'P 1'
_cell_length_a   11.07649126
_cell_length_b   11.00871300
_cell_length_c   6.33753300
_cell_angle_alpha   90.00000000
_cell_angle_beta   89.87289539
_cell_angle_gamma   90.00000000
_symmetry_Int_Tables_number   1
_chemical_formula_structural   Gd7Ho3Ir5Au
_chemical_formula_sum   'Gd14 Ho6 Ir10 Au2'
_cell_volume   772.78364779
_cell_formula_units_Z   2
loop_
 _symmetry_equiv_pos_site_id
 _symmetry_equiv_pos_as_xyz
  1  'x, y, z'
loop_
 _atom_site_type_symbol
 _atom_site_label
 _atom_site_symmetry_multiplicity
 _atom_site_fract_x
 _atom_site_fract_y
 _atom_site_fract_z
 _atom_site_occupancy
  Gd  Gd0  1  0.288801  0.089078  0.370256  1
  Gd  Gd1  1  0.288801  0.910922  0.870256  1
  Gd  Gd2  1  0.699223  0.092369  0.864966  1
  Gd  Gd3  1  0.699223  0.907631  0.364966  1
  Gd  Gd4  1  0.578539  0.787885  0.876325  1
  Gd  Gd5  1  0.578539  0.212115  0.376325  1
  Gd  Gd6  1  0.407016  0.790065  0.375865  1
  Gd  Gd7  1  0.407016  0.209935  0.875865  1
  Gd  Gd8  1  0.212113  0.411836  0.621413  1
  Gd  Gd9  1  0.212113  0.588164  0.121413  1
  Gd  Gd10  1  0.789116  0.419348  0.124287  1
  Gd  Gd11  1  0.789116  0.580652  0.624287  1
  Gd  Gd12  1  0.918191  0.706649  0.141415  1
  Gd  Gd13  1  0.918191  0.293351  0.641415  1
  Ho  Ho14  1  0.096029  0.702664  0.623851  1
  Ho  Ho15  1  0.096029  0.297336  0.123851  1
  Ho  Ho16  1  0.008568  0.997009  0.501302  1
  Ho  Ho17  1  0.008568  0.002991  0.001302  1
  Ho  Ho18  1  0.500145  0.497776  0.999203  1
  Ho  Ho19  1  0.500145  0.502224  0.499203  1
  Ir  Ir20  1  0.151575  0.153603  0.752823  1
  Ir  Ir21  1  0.151575  0.846397  0.252823  1
  Ir  Ir22  1  0.654434  0.348004  0.747184  1
  Ir  Ir23  1  0.654434  0.651996  0.247184  1
  Ir  Ir24  1  0.347788  0.347204  0.250488  1
  Ir  Ir25  1  0.347788  0.652796  0.750488  1
  Ir  Ir26  1  0.499026  0.999893  0.117268  1
  Ir  Ir27  1  0.499026  0.000107  0.617268  1
  Ir  Ir28  1  0.001420  0.501172  0.883177  1
  Ir  Ir29  1  0.001420  0.498828  0.383177  1
  Au  Au30  1  0.848015  0.154204  0.250180  1
  Au  Au31  1  0.848015  0.845796  0.750180  1
