# generated using pymatgen
data_HoTmThNi9
_symmetry_space_group_name_H-M   'P 1'
_cell_length_a   8.62662798
_cell_length_b   8.62662749
_cell_length_c   8.62662760
_cell_angle_alpha   33.40572659
_cell_angle_beta   33.40572907
_cell_angle_gamma   33.40572904
_symmetry_Int_Tables_number   1
_chemical_formula_structural   HoTmThNi9
_chemical_formula_sum   'Ho1 Tm1 Th1 Ni9'
_cell_volume   173.29019969
_cell_formula_units_Z   1
loop_
 _symmetry_equiv_pos_site_id
 _symmetry_equiv_pos_as_xyz
  1  'x, y, z'
loop_
 _atom_site_type_symbol
 _atom_site_label
 _atom_site_symmetry_multiplicity
 _atom_site_fract_x
 _atom_site_fract_y
 _atom_site_fract_z
 _atom_site_occupancy
  Ho  Ho0  1  0.140471  0.140471  0.140471  1
  Tm  Tm1  1  0.859856  0.859856  0.859856  1
  Th  Th2  1  0.999752  0.999752  0.999752  1
  Ni  Ni3  1  0.415695  0.415695  0.917782  1
  Ni  Ni4  1  0.917782  0.415695  0.415695  1
  Ni  Ni5  1  0.415695  0.917782  0.415695  1
  Ni  Ni6  1  0.500074  0.500074  0.500074  1
  Ni  Ni7  1  0.333335  0.333335  0.333335  1
  Ni  Ni8  1  0.666700  0.666700  0.666700  1
  Ni  Ni9  1  0.081789  0.584426  0.584426  1
  Ni  Ni10  1  0.584426  0.584426  0.081789  1
  Ni  Ni11  1  0.584426  0.081789  0.584426  1
