# generated using pymatgen
data_La9Ho11(Si7Au)2
_symmetry_space_group_name_H-M   'P 1'
_cell_length_a   7.90035082
_cell_length_b   7.94547493
_cell_length_c   14.55884300
_cell_angle_alpha   89.89300133
_cell_angle_beta   90.17728296
_cell_angle_gamma   90.09597896
_symmetry_Int_Tables_number   1
_chemical_formula_structural   La9Ho11(Si7Au)2
_chemical_formula_sum   'La9 Ho11 Si14 Au2'
_cell_volume   913.88102377
_cell_formula_units_Z   1
loop_
 _symmetry_equiv_pos_site_id
 _symmetry_equiv_pos_as_xyz
  1  'x, y, z'
loop_
 _atom_site_type_symbol
 _atom_site_label
 _atom_site_symmetry_multiplicity
 _atom_site_fract_x
 _atom_site_fract_y
 _atom_site_fract_z
 _atom_site_occupancy
  La  La0  1  0.014748  0.853616  0.129112  1
  La  La1  1  0.642938  0.992844  0.462374  1
  La  La2  1  0.360410  0.005905  0.957251  1
  La  La3  1  0.985590  0.639185  0.539602  1
  La  La4  1  0.488752  0.848741  0.212939  1
  La  La5  1  0.512260  0.150505  0.711598  1
  La  La6  1  0.858898  0.498546  0.790107  1
  La  La7  1  0.137603  0.502041  0.294670  1
  La  La8  1  0.014141  0.360090  0.039395  1
  Ho  Ho9  1  0.490981  0.361769  0.123093  1
  Ho  Ho10  1  0.987596  0.148191  0.629442  1
  Ho  Ho11  1  0.862407  0.012080  0.872784  1
  Ho  Ho12  1  0.137061  0.987728  0.376413  1
  Ho  Ho13  1  0.507942  0.638381  0.623062  1
  Ho  Ho14  1  0.364346  0.497426  0.871344  1
  Ho  Ho15  1  0.637782  0.501793  0.377561  1
  Ho  Ho16  1  0.309853  0.318704  0.500317  1
  Ho  Ho17  1  0.184233  0.827352  0.748068  1
  Ho  Ho18  1  0.811389  0.176036  0.252283  1
  Ho  Ho19  1  0.689661  0.675979  0.998250  1
  Si  Si20  1  0.934275  0.289319  0.438752  1
  Si  Si21  1  0.433749  0.209687  0.312828  1
  Si  Si22  1  0.568059  0.791037  0.809473  1
  Si  Si23  1  0.210794  0.439561  0.687692  1
  Si  Si24  1  0.785136  0.554368  0.191087  1
  Si  Si25  1  0.068170  0.707036  0.932794  1
  Si  Si26  1  0.792445  0.853662  0.687675  1
  Si  Si27  1  0.210044  0.154747  0.194454  1
  Si  Si28  1  0.842861  0.789547  0.316055  1
  Si  Si29  1  0.350411  0.697772  0.437572  1
  Si  Si30  1  0.650542  0.302703  0.934436  1
  Si  Si31  1  0.703505  0.350743  0.559825  1
  Si  Si32  1  0.305690  0.648571  0.051339  1
  Si  Si33  1  0.153056  0.210869  0.810330  1
  Au  Au34  1  0.284407  0.940090  0.563505  1
  Au  Au35  1  0.708267  0.063371  0.062520  1
