# generated using pymatgen
data_Cs(CrSe2)2
_symmetry_space_group_name_H-M   'P 1'
_cell_length_a   6.25232900
_cell_length_b   7.27611800
_cell_length_c   17.45711000
_cell_angle_alpha   90.00000000
_cell_angle_beta   90.00000000
_cell_angle_gamma   90.00000000
_symmetry_Int_Tables_number   1
_chemical_formula_structural   Cs(CrSe2)2
_chemical_formula_sum   'Cs4 Cr8 Se16'
_cell_volume   794.17078143
_cell_formula_units_Z   4
loop_
 _symmetry_equiv_pos_site_id
 _symmetry_equiv_pos_as_xyz
  1  'x, y, z'
loop_
 _atom_site_type_symbol
 _atom_site_label
 _atom_site_symmetry_multiplicity
 _atom_site_fract_x
 _atom_site_fract_y
 _atom_site_fract_z
 _atom_site_occupancy
  Cs  Cs0  1  0.352768  0.000000  0.000000  1
  Cs  Cs1  1  0.647232  0.500000  0.500000  1
  Cs  Cs2  1  0.040380  0.000000  0.500000  1
  Cs  Cs3  1  0.959620  0.500000  0.000000  1
  Cr  Cr4  1  0.000428  0.000000  0.249820  1
  Cr  Cr5  1  0.000428  0.000000  0.750180  1
  Cr  Cr6  1  0.999572  0.500000  0.250180  1
  Cr  Cr7  1  0.999572  0.500000  0.749820  1
  Cr  Cr8  1  0.500000  0.250000  0.250000  1
  Cr  Cr9  1  0.500000  0.750000  0.750000  1
  Cr  Cr10  1  0.500000  0.750000  0.250000  1
  Cr  Cr11  1  0.500000  0.250000  0.750000  1
  Se  Se12  1  0.834745  0.249503  0.331517  1
  Se  Se13  1  0.834745  0.750497  0.668483  1
  Se  Se14  1  0.165255  0.749503  0.168483  1
  Se  Se15  1  0.165255  0.250497  0.831517  1
  Se  Se16  1  0.165255  0.250497  0.168483  1
  Se  Se17  1  0.165255  0.749503  0.831517  1
  Se  Se18  1  0.834745  0.750497  0.331517  1
  Se  Se19  1  0.834745  0.249503  0.668483  1
  Se  Se20  1  0.669221  0.000000  0.168369  1
  Se  Se21  1  0.669221  0.000000  0.831631  1
  Se  Se22  1  0.330779  0.500000  0.331631  1
  Se  Se23  1  0.330779  0.500000  0.668369  1
  Se  Se24  1  0.338146  0.000000  0.330732  1
  Se  Se25  1  0.338146  0.000000  0.669268  1
  Se  Se26  1  0.661854  0.500000  0.169268  1
  Se  Se27  1  0.661854  0.500000  0.830732  1
