# generated using pymatgen
data_Hf7Zr9(TaSi4)4
_symmetry_space_group_name_H-M   'P 1'
_cell_length_a   7.03297714
_cell_length_b   7.03188561
_cell_length_c   12.87969435
_cell_angle_alpha   89.95261907
_cell_angle_beta   90.02275431
_cell_angle_gamma   89.99597992
_symmetry_Int_Tables_number   1
_chemical_formula_structural   Hf7Zr9(TaSi4)4
_chemical_formula_sum   'Hf7 Zr9 Ta4 Si16'
_cell_volume   636.96618336
_cell_formula_units_Z   1
loop_
 _symmetry_equiv_pos_site_id
 _symmetry_equiv_pos_as_xyz
  1  'x, y, z'
loop_
 _atom_site_type_symbol
 _atom_site_label
 _atom_site_symmetry_multiplicity
 _atom_site_fract_x
 _atom_site_fract_y
 _atom_site_fract_z
 _atom_site_occupancy
  Hf  Hf0  1  0.503237  0.646154  0.625932  1
  Hf  Hf1  1  0.853880  0.002887  0.875769  1
  Hf  Hf2  1  0.145885  0.996746  0.376179  1
  Hf  Hf3  1  0.646086  0.503509  0.374358  1
  Hf  Hf4  1  0.353537  0.496930  0.873772  1
  Hf  Hf5  1  0.003223  0.853923  0.124065  1
  Hf  Hf6  1  0.996803  0.146105  0.624004  1
  Zr  Zr7  1  0.497950  0.152825  0.532133  1
  Zr  Zr8  1  0.501974  0.847701  0.032197  1
  Zr  Zr9  1  0.653084  0.001711  0.282414  1
  Zr  Zr10  1  0.347000  0.997848  0.782081  1
  Zr  Zr11  1  0.847465  0.502132  0.967619  1
  Zr  Zr12  1  0.152950  0.498053  0.467996  1
  Zr  Zr13  1  0.002006  0.652982  0.717817  1
  Zr  Zr14  1  0.998294  0.347085  0.217791  1
  Zr  Zr15  1  0.497255  0.353886  0.125932  1
  Ta  Ta16  1  0.675192  0.324873  0.749868  1
  Ta  Ta17  1  0.324528  0.675514  0.250268  1
  Ta  Ta18  1  0.824800  0.824856  0.500068  1
  Ta  Ta19  1  0.174802  0.174733  0.999733  1
  Si  Si20  1  0.798684  0.145700  0.071177  1
  Si  Si21  1  0.202451  0.854077  0.571592  1
  Si  Si22  1  0.645903  0.702284  0.821539  1
  Si  Si23  1  0.353797  0.297374  0.322228  1
  Si  Si24  1  0.853928  0.202442  0.428453  1
  Si  Si25  1  0.145957  0.797516  0.928431  1
  Si  Si26  1  0.703028  0.647030  0.178862  1
  Si  Si27  1  0.297544  0.353948  0.678359  1
  Si  Si28  1  0.548245  0.199149  0.934579  1
  Si  Si29  1  0.451702  0.800436  0.435279  1
  Si  Si30  1  0.699585  0.951814  0.685220  1
  Si  Si31  1  0.300078  0.047301  0.185516  1
  Si  Si32  1  0.800460  0.451811  0.564861  1
  Si  Si33  1  0.198766  0.548724  0.064456  1
  Si  Si34  1  0.951696  0.699561  0.314783  1
  Si  Si35  1  0.048225  0.300381  0.814670  1
