# generated using pymatgen
data_Er3Tm5Lu2(BiAu2)2
_symmetry_space_group_name_H-M   'P 1'
_cell_length_a   8.62536767
_cell_length_b   8.62536690
_cell_length_c   8.62558305
_cell_angle_alpha   124.28423068
_cell_angle_beta   124.28423300
_cell_angle_gamma   82.73846587
_symmetry_Int_Tables_number   1
_chemical_formula_structural   Er3Tm5Lu2(BiAu2)2
_chemical_formula_sum   'Er3 Tm5 Lu2 Bi2 Au4'
_cell_volume   420.61930479
_cell_formula_units_Z   1
loop_
 _symmetry_equiv_pos_site_id
 _symmetry_equiv_pos_as_xyz
  1  'x, y, z'
loop_
 _atom_site_type_symbol
 _atom_site_label
 _atom_site_symmetry_multiplicity
 _atom_site_fract_x
 _atom_site_fract_y
 _atom_site_fract_z
 _atom_site_occupancy
  Er  Er0  1  0.794666  0.294666  0.808672  1
  Er  Er1  1  0.985898  0.794774  0.500017  1
  Er  Er2  1  0.294774  0.485898  0.500017  1
  Tm  Tm3  1  0.514254  0.014254  0.808509  1
  Tm  Tm4  1  0.205866  0.705866  0.191606  1
  Tm  Tm5  1  0.014179  0.205781  0.499932  1
  Tm  Tm6  1  0.705781  0.514179  0.499932  1
  Tm  Tm7  1  0.485823  0.985823  0.191424  1
  Lu  Lu8  1  0.499835  0.499979  0.000029  1
  Lu  Lu9  1  0.999979  0.999835  0.000029  1
  Bi  Bi10  1  0.250080  0.249952  0.999995  1
  Bi  Bi11  1  0.749952  0.750080  0.999995  1
  Au  Au12  1  0.139219  0.639219  0.778918  1
  Au  Au13  1  0.860343  0.360343  0.221350  1
  Au  Au14  1  0.638946  0.860404  0.499787  1
  Au  Au15  1  0.360404  0.138946  0.499787  1
