# generated using pymatgen
data_Gd3Al12AgOs3
_symmetry_space_group_name_H-M   'P 1'
_cell_length_a   8.87555400
_cell_length_b   8.87555275
_cell_length_c   9.56312100
_cell_angle_alpha   90.00000000
_cell_angle_beta   90.00000000
_cell_angle_gamma   119.43852190
_symmetry_Int_Tables_number   1
_chemical_formula_structural   Gd3Al12AgOs3
_chemical_formula_sum   'Gd6 Al24 Ag2 Os6'
_cell_volume   656.07067270
_cell_formula_units_Z   2
loop_
 _symmetry_equiv_pos_site_id
 _symmetry_equiv_pos_as_xyz
  1  'x, y, z'
loop_
 _atom_site_type_symbol
 _atom_site_label
 _atom_site_symmetry_multiplicity
 _atom_site_fract_x
 _atom_site_fract_y
 _atom_site_fract_z
 _atom_site_occupancy
  Gd  Gd0  1  0.184969  0.382453  0.250000  1
  Gd  Gd1  1  0.815031  0.617547  0.750000  1
  Gd  Gd2  1  0.617547  0.815031  0.250000  1
  Gd  Gd3  1  0.382453  0.184969  0.750000  1
  Gd  Gd4  1  0.193389  0.806611  0.250000  1
  Gd  Gd5  1  0.806611  0.193389  0.750000  1
  Al  Al6  1  0.328238  0.671762  0.019198  1
  Al  Al7  1  0.671762  0.328238  0.980802  1
  Al  Al8  1  0.671762  0.328238  0.519198  1
  Al  Al9  1  0.328238  0.671762  0.480802  1
  Al  Al10  1  0.149722  0.320998  0.578826  1
  Al  Al11  1  0.850278  0.679002  0.421174  1
  Al  Al12  1  0.679002  0.850278  0.578826  1
  Al  Al13  1  0.850278  0.679002  0.078826  1
  Al  Al14  1  0.320998  0.149722  0.421174  1
  Al  Al15  1  0.149722  0.320998  0.921174  1
  Al  Al16  1  0.163552  0.836448  0.576993  1
  Al  Al17  1  0.320998  0.149722  0.078826  1
  Al  Al18  1  0.836448  0.163552  0.423007  1
  Al  Al19  1  0.679002  0.850278  0.921174  1
  Al  Al20  1  0.836448  0.163552  0.076993  1
  Al  Al21  1  0.163552  0.836448  0.923007  1
  Al  Al22  1  0.562034  0.122993  0.250000  1
  Al  Al23  1  0.437966  0.877007  0.750000  1
  Al  Al24  1  0.877007  0.437966  0.250000  1
  Al  Al25  1  0.122993  0.562034  0.750000  1
  Al  Al26  1  0.565214  0.434786  0.250000  1
  Al  Al27  1  0.434786  0.565214  0.750000  1
  Al  Al28  1  0.998350  0.001650  0.250000  1
  Al  Al29  1  0.001650  0.998350  0.750000  1
  Ag  Ag30  1  0.500000  0.500000  0.000000  1
  Ag  Ag31  1  0.500000  0.500000  0.500000  1
  Os  Os32  1  0.500000  0.000000  0.000000  1
  Os  Os33  1  0.000000  0.500000  0.000000  1
  Os  Os34  1  0.500000  0.000000  0.500000  1
  Os  Os35  1  0.000000  0.500000  0.500000  1
  Os  Os36  1  0.000000  0.000000  0.000000  1
  Os  Os37  1  0.000000  0.000000  0.500000  1
