# generated using pymatgen
data_Eu4In4Ag3Rh
_symmetry_space_group_name_H-M   'P 1'
_cell_length_a   4.57114100
_cell_length_b   7.70842976
_cell_length_c   8.78619344
_cell_angle_alpha   90.27402413
_cell_angle_beta   90.00000000
_cell_angle_gamma   90.00000000
_symmetry_Int_Tables_number   1
_chemical_formula_structural   Eu4In4Ag3Rh
_chemical_formula_sum   'Eu4 In4 Ag3 Rh1'
_cell_volume   309.58957702
_cell_formula_units_Z   1
loop_
 _symmetry_equiv_pos_site_id
 _symmetry_equiv_pos_as_xyz
  1  'x, y, z'
loop_
 _atom_site_type_symbol
 _atom_site_label
 _atom_site_symmetry_multiplicity
 _atom_site_fract_x
 _atom_site_fract_y
 _atom_site_fract_z
 _atom_site_occupancy
  Eu  Eu0  1  0.250000  0.038935  0.308169  1
  Eu  Eu1  1  0.250000  0.515338  0.178985  1
  Eu  Eu2  1  0.750000  0.971016  0.682538  1
  Eu  Eu3  1  0.750000  0.459584  0.829657  1
  In  In4  1  0.250000  0.155733  0.945502  1
  In  In5  1  0.250000  0.649618  0.560663  1
  In  In6  1  0.750000  0.863422  0.062855  1
  In  In7  1  0.750000  0.344030  0.430607  1
  Ag  Ag8  1  0.250000  0.272456  0.627080  1
  Ag  Ag9  1  0.250000  0.769904  0.876590  1
  Ag  Ag10  1  0.750000  0.728019  0.372755  1
  Rh  Rh11  1  0.750000  0.231946  0.124597  1
