# generated using pymatgen
data_Zr8Mn5Co2Si14Pt
_symmetry_space_group_name_H-M   'P 1'
_cell_length_a   9.64576206
_cell_length_b   9.68448228
_cell_length_c   9.60089275
_cell_angle_alpha   94.28425861
_cell_angle_beta   94.05576233
_cell_angle_gamma   148.81724039
_symmetry_Int_Tables_number   1
_chemical_formula_structural   Zr8Mn5Co2Si14Pt
_chemical_formula_sum   'Zr8 Mn5 Co2 Si14 Pt1'
_cell_volume   447.04809777
_cell_formula_units_Z   1
loop_
 _symmetry_equiv_pos_site_id
 _symmetry_equiv_pos_as_xyz
  1  'x, y, z'
loop_
 _atom_site_type_symbol
 _atom_site_label
 _atom_site_symmetry_multiplicity
 _atom_site_fract_x
 _atom_site_fract_y
 _atom_site_fract_z
 _atom_site_occupancy
  Zr  Zr0  1  0.138418  0.138468  0.276895  1
  Zr  Zr1  1  0.861209  0.861256  0.722563  1
  Zr  Zr2  1  0.858544  0.132589  0.999798  1
  Zr  Zr3  1  0.141221  0.867148  0.999802  1
  Zr  Zr4  1  0.497463  0.301712  0.804852  1
  Zr  Zr5  1  0.493128  0.690479  0.196501  1
  Zr  Zr6  1  0.703292  0.505949  0.196445  1
  Zr  Zr7  1  0.307355  0.503093  0.804818  1
  Mn  Mn8  1  0.113202  0.613153  0.226203  1
  Mn  Mn9  1  0.108639  0.896109  0.497148  1
  Mn  Mn10  1  0.388487  0.601079  0.497189  1
  Mn  Mn11  1  0.600979  0.403102  0.497398  1
  Mn  Mn12  1  0.896371  0.094324  0.497335  1
  Co  Co13  1  0.900194  0.400226  0.800476  1
  Co  Co14  1  0.597420  0.097384  0.194672  1
  Si  Si15  1  0.542955  0.138211  0.586768  1
  Si  Si16  1  0.535952  0.945032  0.409787  1
  Si  Si17  1  0.873890  0.464640  0.409718  1
  Si  Si18  1  0.043885  0.448474  0.586713  1
  Si  Si19  1  0.749434  0.749060  0.000116  1
  Si  Si20  1  0.250639  0.251011  0.000114  1
  Si  Si21  1  0.290475  0.290636  0.581224  1
  Si  Si22  1  0.708638  0.708785  0.417407  1
  Si  Si23  1  0.737703  0.316246  0.008112  1
  Si  Si24  1  0.270408  0.691849  0.008095  1
  Si  Si25  1  0.978082  0.276268  0.295273  1
  Si  Si26  1  0.978349  0.684971  0.700837  1
  Si  Si27  1  0.722515  0.015813  0.700736  1
  Si  Si28  1  0.317186  0.018942  0.295095  1
  Pt  Pt29  1  0.393968  0.893991  0.787907  1
