# generated using pymatgen
data_Sm12Si12PtAu11
_symmetry_space_group_name_H-M   'P 1'
_cell_length_a   4.34821400
_cell_length_b   7.52539599
_cell_length_c   23.73450741
_cell_angle_alpha   89.97246943
_cell_angle_beta   90.00000000
_cell_angle_gamma   90.00000000
_symmetry_Int_Tables_number   1
_chemical_formula_structural   Sm12Si12PtAu11
_chemical_formula_sum   'Sm12 Si12 Pt1 Au11'
_cell_volume   776.64122579
_cell_formula_units_Z   1
loop_
 _symmetry_equiv_pos_site_id
 _symmetry_equiv_pos_as_xyz
  1  'x, y, z'
loop_
 _atom_site_type_symbol
 _atom_site_label
 _atom_site_symmetry_multiplicity
 _atom_site_fract_x
 _atom_site_fract_y
 _atom_site_fract_z
 _atom_site_occupancy
  Sm  Sm0  1  0.250000  0.750456  0.334832  1
  Sm  Sm1  1  0.750000  0.243597  0.664054  1
  Sm  Sm2  1  0.750000  0.250570  0.166687  1
  Sm  Sm3  1  0.250000  0.748462  0.832214  1
  Sm  Sm4  1  0.250000  0.749605  0.166826  1
  Sm  Sm5  1  0.750000  0.251157  0.832201  1
  Sm  Sm6  1  0.750000  0.250405  0.334876  1
  Sm  Sm7  1  0.250000  0.756909  0.664387  1
  Sm  Sm8  1  0.250000  0.751063  0.999378  1
  Sm  Sm9  1  0.750000  0.248506  0.999307  1
  Sm  Sm10  1  0.750000  0.246314  0.502621  1
  Sm  Sm11  1  0.250000  0.755275  0.502688  1
  Si  Si12  1  0.250000  0.082957  0.080039  1
  Si  Si13  1  0.750000  0.916615  0.918307  1
  Si  Si14  1  0.750000  0.583316  0.420357  1
  Si  Si15  1  0.250000  0.409097  0.581952  1
  Si  Si16  1  0.250000  0.084098  0.250526  1
  Si  Si17  1  0.750000  0.914744  0.748771  1
  Si  Si18  1  0.750000  0.584200  0.251521  1
  Si  Si19  1  0.250000  0.416788  0.748160  1
  Si  Si20  1  0.250000  0.084057  0.418172  1
  Si  Si21  1  0.750000  0.923594  0.581653  1
  Si  Si22  1  0.750000  0.583105  0.079631  1
  Si  Si23  1  0.250000  0.416498  0.918431  1
  Pt  Pt24  1  0.250000  0.081472  0.584856  1
  Au  Au25  1  0.250000  0.416869  0.250400  1
  Au  Au26  1  0.750000  0.582045  0.748166  1
  Au  Au27  1  0.750000  0.917148  0.250272  1
  Au  Au28  1  0.250000  0.083569  0.750166  1
  Au  Au29  1  0.250000  0.417442  0.418297  1
  Au  Au30  1  0.750000  0.584555  0.584685  1
  Au  Au31  1  0.750000  0.916154  0.085938  1
  Au  Au32  1  0.250000  0.083158  0.913096  1
  Au  Au33  1  0.250000  0.416363  0.085105  1
  Au  Au34  1  0.750000  0.583417  0.913949  1
  Au  Au35  1  0.750000  0.916420  0.417479  1
