# generated using pymatgen
data_Dy6Ho3LuSn6
_symmetry_space_group_name_H-M   'P 1'
_cell_length_a   8.94736300
_cell_length_b   8.94736168
_cell_length_c   6.51472600
_cell_angle_alpha   90.00000000
_cell_angle_beta   90.00000000
_cell_angle_gamma   119.99999378
_symmetry_Int_Tables_number   1
_chemical_formula_structural   Dy6Ho3LuSn6
_chemical_formula_sum   'Dy6 Ho3 Lu1 Sn6'
_cell_volume   451.66544334
_cell_formula_units_Z   1
loop_
 _symmetry_equiv_pos_site_id
 _symmetry_equiv_pos_as_xyz
  1  'x, y, z'
loop_
 _atom_site_type_symbol
 _atom_site_label
 _atom_site_symmetry_multiplicity
 _atom_site_fract_x
 _atom_site_fract_y
 _atom_site_fract_z
 _atom_site_occupancy
  Dy  Dy0  1  0.000130  0.761395  0.749832  1
  Dy  Dy1  1  0.000130  0.238735  0.250168  1
  Dy  Dy2  1  0.761265  0.761395  0.250168  1
  Dy  Dy3  1  0.761265  0.999870  0.749832  1
  Dy  Dy4  1  0.238605  0.238735  0.749832  1
  Dy  Dy5  1  0.238605  0.999870  0.250168  1
  Ho  Ho6  1  0.666667  0.333333  0.000000  1
  Ho  Ho7  1  0.666667  0.333333  0.500000  1
  Ho  Ho8  1  0.333333  0.666667  0.000000  1
  Lu  Lu9  1  0.333333  0.666667  0.500000  1
  Sn  Sn10  1  0.395382  0.999429  0.749495  1
  Sn  Sn11  1  0.395382  0.395953  0.250505  1
  Sn  Sn12  1  0.000571  0.604618  0.250505  1
  Sn  Sn13  1  0.000571  0.395953  0.749495  1
  Sn  Sn14  1  0.604047  0.604618  0.749495  1
  Sn  Sn15  1  0.604047  0.999429  0.250505  1
