# generated using pymatgen
data_Ba4HoTaO8
_symmetry_space_group_name_H-M   'P 1'
_cell_length_a   7.45912259
_cell_length_b   7.45912096
_cell_length_c   6.02378500
_cell_angle_alpha   90.00000000
_cell_angle_beta   90.00000000
_cell_angle_gamma   132.57106705
_symmetry_Int_Tables_number   1
_chemical_formula_structural   Ba4HoTaO8
_chemical_formula_sum   'Ba4 Ho1 Ta1 O8'
_cell_volume   246.82066519
_cell_formula_units_Z   1
loop_
 _symmetry_equiv_pos_site_id
 _symmetry_equiv_pos_as_xyz
  1  'x, y, z'
loop_
 _atom_site_type_symbol
 _atom_site_label
 _atom_site_symmetry_multiplicity
 _atom_site_fract_x
 _atom_site_fract_y
 _atom_site_fract_z
 _atom_site_occupancy
  Ba  Ba0  1  0.353139  0.646861  0.000000  1
  Ba  Ba1  1  0.853127  0.146873  0.500000  1
  Ba  Ba2  1  0.146873  0.853127  0.500000  1
  Ba  Ba3  1  0.646861  0.353139  0.000000  1
  Ho  Ho4  1  0.000000  0.000000  0.000000  1
  Ta  Ta5  1  0.500000  0.500000  0.500000  1
  O  O6  1  0.261966  0.261966  0.733836  1
  O  O7  1  0.738034  0.738034  0.266164  1
  O  O8  1  0.738034  0.738034  0.733836  1
  O  O9  1  0.261966  0.261966  0.266164  1
  O  O10  1  0.165217  0.834783  0.000000  1
  O  O11  1  0.649907  0.350093  0.500000  1
  O  O12  1  0.350093  0.649907  0.500000  1
  O  O13  1  0.834783  0.165217  0.000000  1
