# generated using pymatgen
data_TmLu5P13Rh20
_symmetry_space_group_name_H-M   'P 1'
_cell_length_a   13.30082301
_cell_length_b   13.30087398
_cell_length_c   3.88913500
_cell_angle_alpha   89.99790362
_cell_angle_beta   90.00277189
_cell_angle_gamma   119.99585817
_symmetry_Int_Tables_number   1
_chemical_formula_structural   TmLu5P13Rh20
_chemical_formula_sum   'Tm1 Lu5 P13 Rh20'
_cell_volume   595.88227521
_cell_formula_units_Z   1
loop_
 _symmetry_equiv_pos_site_id
 _symmetry_equiv_pos_as_xyz
  1  'x, y, z'
loop_
 _atom_site_type_symbol
 _atom_site_label
 _atom_site_symmetry_multiplicity
 _atom_site_fract_x
 _atom_site_fract_y
 _atom_site_fract_z
 _atom_site_occupancy
  Tm  Tm0  1  0.528689  0.717414  0.248741  1
  Lu  Lu1  1  0.282555  0.811247  0.248726  1
  Lu  Lu2  1  0.188774  0.471321  0.248763  1
  Lu  Lu3  1  0.471311  0.282597  0.751236  1
  Lu  Lu4  1  0.717428  0.188743  0.751264  1
  Lu  Lu5  1  0.811228  0.528688  0.751248  1
  P  P6  1  0.527560  0.140426  0.250342  1
  P  P7  1  0.859585  0.387136  0.250318  1
  P  P8  1  0.612862  0.472469  0.250287  1
  P  P9  1  0.943987  0.713514  0.254375  1
  P  P10  1  0.286504  0.230505  0.254404  1
  P  P11  1  0.769482  0.055990  0.254330  1
  P  P12  1  0.387024  0.527377  0.749721  1
  P  P13  1  0.472414  0.859644  0.749698  1
  P  P14  1  0.140409  0.612861  0.749725  1
  P  P15  1  0.713701  0.769547  0.745624  1
  P  P16  1  0.230479  0.944010  0.745678  1
  P  P17  1  0.056014  0.286471  0.745619  1
  P  P18  1  0.000013  0.999999  0.000040  1
  Rh  Rh19  1  0.333062  0.666607  0.752342  1
  Rh  Rh20  1  0.919695  0.250518  0.253053  1
  Rh  Rh21  1  0.749542  0.669164  0.253104  1
  Rh  Rh22  1  0.330822  0.080313  0.253045  1
  Rh  Rh23  1  0.437524  0.020863  0.751335  1
  Rh  Rh24  1  0.979097  0.416642  0.751366  1
  Rh  Rh25  1  0.583386  0.562295  0.751338  1
  Rh  Rh26  1  0.666675  0.333329  0.247620  1
  Rh  Rh27  1  0.094472  0.187748  0.248014  1
  Rh  Rh28  1  0.812225  0.906737  0.248030  1
  Rh  Rh29  1  0.093257  0.905473  0.247972  1
  Rh  Rh30  1  0.020911  0.583350  0.248611  1
  Rh  Rh31  1  0.416606  0.437493  0.248610  1
  Rh  Rh32  1  0.562452  0.979175  0.248678  1
  Rh  Rh33  1  0.669379  0.919989  0.746951  1
  Rh  Rh34  1  0.080324  0.749480  0.746919  1
  Rh  Rh35  1  0.250489  0.330828  0.746902  1
  Rh  Rh36  1  0.905607  0.812261  0.752011  1
  Rh  Rh37  1  0.187755  0.093311  0.751962  1
  Rh  Rh38  1  0.906702  0.094466  0.751995  1
