# generated using pymatgen
data_Ho4Al4NiRh3
_symmetry_space_group_name_H-M   'P 1'
_cell_length_a   4.19698900
_cell_length_b   6.82232179
_cell_length_c   7.89797015
_cell_angle_alpha   89.76128486
_cell_angle_beta   90.00000000
_cell_angle_gamma   90.00000000
_symmetry_Int_Tables_number   1
_chemical_formula_structural   Ho4Al4NiRh3
_chemical_formula_sum   'Ho4 Al4 Ni1 Rh3'
_cell_volume   226.14227129
_cell_formula_units_Z   1
loop_
 _symmetry_equiv_pos_site_id
 _symmetry_equiv_pos_as_xyz
  1  'x, y, z'
loop_
 _atom_site_type_symbol
 _atom_site_label
 _atom_site_symmetry_multiplicity
 _atom_site_fract_x
 _atom_site_fract_y
 _atom_site_fract_z
 _atom_site_occupancy
  Ho  Ho0  1  0.250000  0.539099  0.176879  1
  Ho  Ho1  1  0.750000  0.466347  0.821440  1
  Ho  Ho2  1  0.750000  0.962622  0.681470  1
  Ho  Ho3  1  0.250000  0.035359  0.322001  1
  Al  Al4  1  0.250000  0.636279  0.563437  1
  Al  Al5  1  0.750000  0.364876  0.440255  1
  Al  Al6  1  0.750000  0.861602  0.055869  1
  Al  Al7  1  0.250000  0.130422  0.939259  1
  Ni  Ni8  1  0.250000  0.768813  0.877187  1
  Rh  Rh9  1  0.750000  0.235777  0.120455  1
  Rh  Rh10  1  0.750000  0.736475  0.378776  1
  Rh  Rh11  1  0.250000  0.262328  0.622973  1
