# generated using pymatgen
data_Er15Tm5Ir7Ru5
_symmetry_space_group_name_H-M   'P 1'
_cell_length_a   10.72721880
_cell_length_b   10.72657874
_cell_length_c   6.36309001
_cell_angle_alpha   89.98108427
_cell_angle_beta   89.97583018
_cell_angle_gamma   90.06447002
_symmetry_Int_Tables_number   1
_chemical_formula_structural   Er15Tm5Ir7Ru5
_chemical_formula_sum   'Er15 Tm5 Ir7 Ru5'
_cell_volume   732.17701889
_cell_formula_units_Z   1
loop_
 _symmetry_equiv_pos_site_id
 _symmetry_equiv_pos_as_xyz
  1  'x, y, z'
loop_
 _atom_site_type_symbol
 _atom_site_label
 _atom_site_symmetry_multiplicity
 _atom_site_fract_x
 _atom_site_fract_y
 _atom_site_fract_z
 _atom_site_occupancy
  Er  Er0  1  0.293372  0.086132  0.376660  1
  Er  Er1  1  0.292875  0.913757  0.876835  1
  Er  Er2  1  0.707367  0.086489  0.877122  1
  Er  Er3  1  0.707153  0.914110  0.375787  1
  Er  Er4  1  0.586226  0.793475  0.876832  1
  Er  Er5  1  0.587107  0.206826  0.376798  1
  Er  Er6  1  0.413722  0.793373  0.376686  1
  Er  Er7  1  0.413569  0.206491  0.876168  1
  Er  Er8  1  0.206478  0.413700  0.623166  1
  Er  Er9  1  0.206565  0.586149  0.123328  1
  Er  Er10  1  0.793294  0.412856  0.123196  1
  Er  Er11  1  0.793527  0.586401  0.623864  1
  Er  Er12  1  0.913929  0.706542  0.123282  1
  Er  Er13  1  0.913579  0.292642  0.622873  1
  Er  Er14  1  0.086261  0.707117  0.623144  1
  Tm  Tm15  1  0.085861  0.292968  0.124089  1
  Tm  Tm16  1  0.999506  0.000976  0.499305  1
  Tm  Tm17  1  0.999111  0.000589  0.000728  1
  Tm  Tm18  1  0.500106  0.500073  0.000093  1
  Tm  Tm19  1  0.499910  0.499864  0.499922  1
  Ir  Ir20  1  0.847026  0.846694  0.749849  1
  Ir  Ir21  1  0.153251  0.153080  0.750460  1
  Ir  Ir22  1  0.152950  0.847060  0.249983  1
  Ir  Ir23  1  0.651988  0.348005  0.749997  1
  Ir  Ir24  1  0.652785  0.652518  0.249756  1
  Ir  Ir25  1  0.347331  0.347165  0.250139  1
  Ir  Ir26  1  0.347491  0.652516  0.750014  1
  Ru  Ru27  1  0.847694  0.152482  0.249918  1
  Ru  Ru28  1  0.500157  0.000232  0.122527  1
  Ru  Ru29  1  0.499933  0.000010  0.622654  1
  Ru  Ru30  1  0.000049  0.499962  0.877493  1
  Ru  Ru31  1  0.999826  0.499744  0.377331  1
