# generated using pymatgen
data_NaTb3Bi6Rh7
_symmetry_space_group_name_H-M   'P 1'
_cell_length_a   7.73771989
_cell_length_b   7.80642749
_cell_length_c   7.80642764
_cell_angle_alpha   109.64882039
_cell_angle_beta   109.29302163
_cell_angle_gamma   109.29303581
_symmetry_Int_Tables_number   1
_chemical_formula_structural   NaTb3Bi6Rh7
_chemical_formula_sum   'Na1 Tb3 Bi6 Rh7'
_cell_volume   363.78613597
_cell_formula_units_Z   1
loop_
 _symmetry_equiv_pos_site_id
 _symmetry_equiv_pos_as_xyz
  1  'x, y, z'
loop_
 _atom_site_type_symbol
 _atom_site_label
 _atom_site_symmetry_multiplicity
 _atom_site_fract_x
 _atom_site_fract_y
 _atom_site_fract_z
 _atom_site_occupancy
  Na  Na0  1  0.500000  0.000000  0.000000  1
  Tb  Tb1  1  0.000000  0.500000  0.000000  1
  Tb  Tb2  1  0.000000  0.000000  0.500000  1
  Tb  Tb3  1  0.500000  0.500000  0.500000  1
  Bi  Bi4  1  0.986369  0.308035  0.308035  1
  Bi  Bi5  1  0.678333  0.000000  0.691965  1
  Bi  Bi6  1  0.678333  0.691965  0.000000  1
  Bi  Bi7  1  0.013631  0.691965  0.691965  1
  Bi  Bi8  1  0.321667  0.000000  0.308035  1
  Bi  Bi9  1  0.321667  0.308035  0.000000  1
  Rh  Rh10  1  0.000000  0.000000  0.000000  1
  Rh  Rh11  1  0.500000  0.742042  0.257958  1
  Rh  Rh12  1  0.757958  0.515915  0.257958  1
  Rh  Rh13  1  0.242042  0.742042  0.484085  1
  Rh  Rh14  1  0.242042  0.484085  0.742042  1
  Rh  Rh15  1  0.500000  0.257958  0.742042  1
  Rh  Rh16  1  0.757958  0.257958  0.515915  1
