# generated using pymatgen
data_Sc13Al9Pd8
_symmetry_space_group_name_H-M   'P 1'
_cell_length_a   9.20214158
_cell_length_b   9.20214061
_cell_length_c   9.20214141
_cell_angle_alpha   59.82818642
_cell_angle_beta   59.82819419
_cell_angle_gamma   59.82820599
_symmetry_Int_Tables_number   1
_chemical_formula_structural   Sc13Al9Pd8
_chemical_formula_sum   'Sc13 Al9 Pd8'
_cell_volume   548.85152061
_cell_formula_units_Z   1
loop_
 _symmetry_equiv_pos_site_id
 _symmetry_equiv_pos_as_xyz
  1  'x, y, z'
loop_
 _atom_site_type_symbol
 _atom_site_label
 _atom_site_symmetry_multiplicity
 _atom_site_fract_x
 _atom_site_fract_y
 _atom_site_fract_z
 _atom_site_occupancy
  Sc  Sc0  1  0.214063  0.214063  0.786209  1
  Sc  Sc1  1  0.786209  0.214063  0.214063  1
  Sc  Sc2  1  0.214063  0.786209  0.214063  1
  Sc  Sc3  1  0.802210  0.802210  0.174484  1
  Sc  Sc4  1  0.174484  0.802210  0.802210  1
  Sc  Sc5  1  0.802210  0.174484  0.802210  1
  Sc  Sc6  1  0.379036  0.379036  0.379036  1
  Sc  Sc7  1  0.381433  0.864824  0.381433  1
  Sc  Sc8  1  0.864824  0.381433  0.381433  1
  Sc  Sc9  1  0.381433  0.381433  0.864824  1
  Sc  Sc10  1  0.837881  0.480285  0.837881  1
  Sc  Sc11  1  0.480285  0.837881  0.837881  1
  Sc  Sc12  1  0.837881  0.837881  0.480285  1
  Al  Al13  1  0.158811  0.158811  0.158811  1
  Al  Al14  1  0.162379  0.517669  0.162379  1
  Al  Al15  1  0.517669  0.162379  0.162379  1
  Al  Al16  1  0.162379  0.162379  0.517669  1
  Al  Al17  1  0.617275  0.617275  0.617275  1
  Al  Al18  1  0.619716  0.143673  0.619716  1
  Al  Al19  1  0.143673  0.619716  0.619716  1
  Al  Al20  1  0.619716  0.619716  0.143673  1
  Al  Al21  1  0.826611  0.826611  0.826611  1
  Pd  Pd22  1  0.003579  0.003579  0.498921  1
  Pd  Pd23  1  0.498921  0.003579  0.003579  1
  Pd  Pd24  1  0.003579  0.498921  0.003579  1
  Pd  Pd25  1  0.495980  0.495980  0.008601  1
  Pd  Pd26  1  0.008601  0.495980  0.495980  1
  Pd  Pd27  1  0.495980  0.008601  0.495980  1
  Pd  Pd28  1  0.500198  0.500198  0.500198  1
  Pd  Pd29  1  0.008919  0.008919  0.008919  1
