# generated using pymatgen
data_DyLu5Al24Ru3Rh5
_symmetry_space_group_name_H-M   'P 1'
_cell_length_a   8.77775075
_cell_length_b   8.75503002
_cell_length_c   9.49887611
_cell_angle_alpha   90.00000144
_cell_angle_beta   90.17403319
_cell_angle_gamma   119.91441595
_symmetry_Int_Tables_number   1
_chemical_formula_structural   DyLu5Al24Ru3Rh5
_chemical_formula_sum   'Dy1 Lu5 Al24 Ru3 Rh5'
_cell_volume   632.72495396
_cell_formula_units_Z   1
loop_
 _symmetry_equiv_pos_site_id
 _symmetry_equiv_pos_as_xyz
  1  'x, y, z'
loop_
 _atom_site_type_symbol
 _atom_site_label
 _atom_site_symmetry_multiplicity
 _atom_site_fract_x
 _atom_site_fract_y
 _atom_site_fract_z
 _atom_site_occupancy
  Dy  Dy0  1  0.383489  0.191744  0.750278  1
  Lu  Lu1  1  0.191648  0.803706  0.249745  1
  Lu  Lu2  1  0.191648  0.387941  0.249745  1
  Lu  Lu3  1  0.613730  0.806865  0.249770  1
  Lu  Lu4  1  0.808979  0.196461  0.750285  1
  Lu  Lu5  1  0.808979  0.612518  0.750285  1
  Al  Al6  1  0.560911  0.438513  0.250957  1
  Al  Al7  1  0.560911  0.122398  0.250957  1
  Al  Al8  1  0.875973  0.437986  0.249965  1
  Al  Al9  1  0.439647  0.563185  0.748981  1
  Al  Al10  1  0.439647  0.876462  0.748981  1
  Al  Al11  1  0.124032  0.562016  0.750099  1
  Al  Al12  1  0.325666  0.162832  0.419764  1
  Al  Al13  1  0.835741  0.162487  0.421033  1
  Al  Al14  1  0.835741  0.673254  0.421033  1
  Al  Al15  1  0.674467  0.837234  0.578798  1
  Al  Al16  1  0.163966  0.836519  0.578132  1
  Al  Al17  1  0.163966  0.327447  0.578132  1
  Al  Al18  1  0.674451  0.837226  0.921552  1
  Al  Al19  1  0.161539  0.834718  0.921445  1
  Al  Al20  1  0.161539  0.326822  0.921445  1
  Al  Al21  1  0.325708  0.162854  0.079866  1
  Al  Al22  1  0.838229  0.164414  0.079358  1
  Al  Al23  1  0.838229  0.673815  0.079358  1
  Al  Al24  1  0.667845  0.333922  0.528974  1
  Al  Al25  1  0.333393  0.666697  0.470022  1
  Al  Al26  1  0.332072  0.666036  0.028976  1
  Al  Al27  1  0.669176  0.334588  0.971991  1
  Al  Al28  1  0.999099  0.999549  0.250082  1
  Al  Al29  1  0.998706  0.999353  0.749925  1
  Ru  Ru30  1  0.000054  0.000027  0.500015  1
  Ru  Ru31  1  0.000079  0.000039  0.999992  1
  Ru  Ru32  1  0.000389  0.500194  0.000184  1
  Rh  Rh33  1  0.500018  0.500196  0.499793  1
  Rh  Rh34  1  0.500018  0.999822  0.499793  1
  Rh  Rh35  1  0.000216  0.500108  0.499870  1
  Rh  Rh36  1  0.500050  0.500242  0.000211  1
  Rh  Rh37  1  0.500050  0.999808  0.000211  1
