# generated using pymatgen
data_LaCd3(W2O7)2
_symmetry_space_group_name_H-M   'P 1'
_cell_length_a   7.44681539
_cell_length_b   7.44681512
_cell_length_c   7.51041468
_cell_angle_alpha   60.27972155
_cell_angle_beta   60.27973342
_cell_angle_gamma   59.99999953
_symmetry_Int_Tables_number   1
_chemical_formula_structural   LaCd3(W2O7)2
_chemical_formula_sum   'La1 Cd3 W4 O14'
_cell_volume   295.74228696
_cell_formula_units_Z   1
loop_
 _symmetry_equiv_pos_site_id
 _symmetry_equiv_pos_as_xyz
  1  'x, y, z'
loop_
 _atom_site_type_symbol
 _atom_site_label
 _atom_site_symmetry_multiplicity
 _atom_site_fract_x
 _atom_site_fract_y
 _atom_site_fract_z
 _atom_site_occupancy
  La  La0  1  0.125000  0.125000  0.625000  1
  Cd  Cd1  1  0.125000  0.625000  0.125000  1
  Cd  Cd2  1  0.625000  0.125000  0.125000  1
  Cd  Cd3  1  0.125000  0.125000  0.125000  1
  W  W4  1  0.625000  0.125000  0.625000  1
  W  W5  1  0.625000  0.625000  0.125000  1
  W  W6  1  0.125000  0.625000  0.625000  1
  W  W7  1  0.625000  0.625000  0.625000  1
  O  O8  1  0.692649  0.692649  0.316236  1
  O  O9  1  0.951107  0.542813  0.554975  1
  O  O10  1  0.557351  0.951534  0.933764  1
  O  O11  1  0.951107  0.951107  0.554975  1
  O  O12  1  0.951534  0.557351  0.933764  1
  O  O13  1  0.542813  0.951107  0.554975  1
  O  O14  1  0.298466  0.692649  0.316236  1
  O  O15  1  0.298893  0.707187  0.695025  1
  O  O16  1  0.692649  0.298466  0.316236  1
  O  O17  1  0.707187  0.298893  0.695025  1
  O  O18  1  0.557351  0.557351  0.933764  1
  O  O19  1  0.298893  0.298893  0.695025  1
  O  O20  1  0.256801  0.256801  0.229599  1
  O  O21  1  0.993199  0.993199  0.020401  1
