# generated using pymatgen
data_Th3AlIn2Pd3
_symmetry_space_group_name_H-M   'P 1'
_cell_length_a   7.56677991
_cell_length_b   7.46108872
_cell_length_c   4.21707500
_cell_angle_alpha   90.00000000
_cell_angle_beta   90.00000000
_cell_angle_gamma   119.53902394
_symmetry_Int_Tables_number   1
_chemical_formula_structural   Th3AlIn2Pd3
_chemical_formula_sum   'Th3 Al1 In2 Pd3'
_cell_volume   207.13520588
_cell_formula_units_Z   1
loop_
 _symmetry_equiv_pos_site_id
 _symmetry_equiv_pos_as_xyz
  1  'x, y, z'
loop_
 _atom_site_type_symbol
 _atom_site_label
 _atom_site_symmetry_multiplicity
 _atom_site_fract_x
 _atom_site_fract_y
 _atom_site_fract_z
 _atom_site_occupancy
  Th  Th0  1  0.410333  0.416714  0.500000  1
  Th  Th1  1  0.589667  0.006382  0.500000  1
  Th  Th2  1  0.000000  0.573882  0.500000  1
  Al  Al3  1  0.000000  0.239794  0.000000  1
  In  In4  1  0.755895  0.756000  0.000000  1
  In  In5  1  0.244105  0.000105  0.000000  1
  Pd  Pd6  1  0.678742  0.329229  0.000000  1
  Pd  Pd7  1  0.321258  0.650488  0.000000  1
  Pd  Pd8  1  0.000000  0.027405  0.500000  1
