# generated using pymatgen
data_EuDy3(SeO4)6
_symmetry_space_group_name_H-M   'P 1'
_cell_length_a   10.01563284
_cell_length_b   10.01563351
_cell_length_c   10.01563341
_cell_angle_alpha   58.07711032
_cell_angle_beta   58.07711149
_cell_angle_gamma   58.07711453
_symmetry_Int_Tables_number   1
_chemical_formula_structural   EuDy3(SeO4)6
_chemical_formula_sum   'Eu1 Dy3 Se6 O24'
_cell_volume   679.10516747
_cell_formula_units_Z   1
loop_
 _symmetry_equiv_pos_site_id
 _symmetry_equiv_pos_as_xyz
  1  'x, y, z'
loop_
 _atom_site_type_symbol
 _atom_site_label
 _atom_site_symmetry_multiplicity
 _atom_site_fract_x
 _atom_site_fract_y
 _atom_site_fract_z
 _atom_site_occupancy
  Eu  Eu0  1  0.642856  0.642856  0.642856  1
  Dy  Dy1  1  0.356381  0.356381  0.356381  1
  Dy  Dy2  1  0.143453  0.143453  0.143453  1
  Dy  Dy3  1  0.855484  0.855484  0.855484  1
  Se  Se4  1  0.749282  0.040586  0.462011  1
  Se  Se5  1  0.967762  0.536897  0.244184  1
  Se  Se6  1  0.536897  0.244184  0.967763  1
  Se  Se7  1  0.462010  0.749282  0.040587  1
  Se  Se8  1  0.040587  0.462010  0.749282  1
  Se  Se9  1  0.244184  0.967762  0.536897  1
  O  O10  1  0.915053  0.071642  0.291790  1
  O  O11  1  0.773782  0.009248  0.629609  1
  O  O12  1  0.997797  0.371454  0.217743  1
  O  O13  1  0.706828  0.076244  0.942615  1
  O  O14  1  0.580929  0.210141  0.436918  1
  O  O15  1  0.873659  0.485701  0.729951  1
  O  O16  1  0.508131  0.272364  0.131972  1
  O  O17  1  0.795762  0.560902  0.410870  1
  O  O18  1  0.942615  0.706828  0.076244  1
  O  O19  1  0.560902  0.410870  0.795762  1
  O  O20  1  0.371454  0.217743  0.997797  1
  O  O21  1  0.272364  0.131972  0.508131  1
  O  O22  1  0.729951  0.873659  0.485701  1
  O  O23  1  0.629609  0.773782  0.009248  1
  O  O24  1  0.436918  0.580929  0.210141  1
  O  O25  1  0.071642  0.291790  0.915053  1
  O  O26  1  0.210141  0.436918  0.580929  1
  O  O27  1  0.485701  0.729951  0.873659  1
  O  O28  1  0.131972  0.508131  0.272364  1
  O  O29  1  0.410870  0.795762  0.560902  1
  O  O30  1  0.291790  0.915053  0.071642  1
  O  O31  1  0.009248  0.629609  0.773782  1
  O  O32  1  0.217743  0.997797  0.371454  1
  O  O33  1  0.076244  0.942615  0.706828  1
