# generated using pymatgen
data_Nd16Cd3HgPdRu3
_symmetry_space_group_name_H-M   'P 1'
_cell_length_a   9.93317080
_cell_length_b   9.97591926
_cell_length_c   9.97591983
_cell_angle_alpha   59.83826551
_cell_angle_beta   59.73683755
_cell_angle_gamma   59.73684993
_symmetry_Int_Tables_number   1
_chemical_formula_structural   Nd16Cd3HgPdRu3
_chemical_formula_sum   'Nd16 Cd3 Hg1 Pd1 Ru3'
_cell_volume   695.36115776
_cell_formula_units_Z   1
loop_
 _symmetry_equiv_pos_site_id
 _symmetry_equiv_pos_as_xyz
  1  'x, y, z'
loop_
 _atom_site_type_symbol
 _atom_site_label
 _atom_site_symmetry_multiplicity
 _atom_site_fract_x
 _atom_site_fract_y
 _atom_site_fract_z
 _atom_site_occupancy
  Nd  Nd0  1  0.342143  0.351501  0.351501  1
  Nd  Nd1  1  0.343030  0.351823  0.953007  1
  Nd  Nd2  1  0.343030  0.953007  0.351823  1
  Nd  Nd3  1  0.961078  0.345290  0.345290  1
  Nd  Nd4  1  0.814913  0.190935  0.190935  1
  Nd  Nd5  1  0.190007  0.809491  0.809491  1
  Nd  Nd6  1  0.190263  0.809333  0.190116  1
  Nd  Nd7  1  0.815663  0.191368  0.801765  1
  Nd  Nd8  1  0.190263  0.190116  0.809333  1
  Nd  Nd9  1  0.815663  0.801765  0.191368  1
  Nd  Nd10  1  0.935536  0.562410  0.562410  1
  Nd  Nd11  1  0.558566  0.939050  0.939050  1
  Nd  Nd12  1  0.558783  0.936951  0.565390  1
  Nd  Nd13  1  0.937617  0.561598  0.939820  1
  Nd  Nd14  1  0.558783  0.565390  0.936951  1
  Nd  Nd15  1  0.937617  0.939820  0.561598  1
  Cd  Cd16  1  0.579903  0.579288  0.260008  1
  Cd  Cd17  1  0.579903  0.260008  0.579288  1
  Cd  Cd18  1  0.258571  0.579918  0.579918  1
  Hg  Hg19  1  0.583550  0.582296  0.582296  1
  Pd  Pd20  1  0.573953  0.142562  0.142562  1
  Ru  Ru21  1  0.142232  0.137278  0.137278  1
  Ru  Ru22  1  0.144468  0.139091  0.579711  1
  Ru  Ru23  1  0.144468  0.579711  0.139091  1
