# generated using pymatgen
data_K8In5Ga3(SnSe4)8
_symmetry_space_group_name_H-M   'P 1'
_cell_length_a   13.04509277
_cell_length_b   7.86608010
_cell_length_c   18.84235839
_cell_angle_alpha   81.69282059
_cell_angle_beta   89.96505837
_cell_angle_gamma   90.15382334
_symmetry_Int_Tables_number   1
_chemical_formula_structural   K8In5Ga3(SnSe4)8
_chemical_formula_sum   'K8 In5 Ga3 Sn8 Se32'
_cell_volume   1913.19036607
_cell_formula_units_Z   1
loop_
 _symmetry_equiv_pos_site_id
 _symmetry_equiv_pos_as_xyz
  1  'x, y, z'
loop_
 _atom_site_type_symbol
 _atom_site_label
 _atom_site_symmetry_multiplicity
 _atom_site_fract_x
 _atom_site_fract_y
 _atom_site_fract_z
 _atom_site_occupancy
  K  K0  1  0.070402  0.748868  0.681239  1
  K  K1  1  0.434029  0.735978  0.183288  1
  K  K2  1  0.600734  0.271034  0.452620  1
  K  K3  1  0.398034  0.728769  0.543217  1
  K  K4  1  0.566275  0.252470  0.819816  1
  K  K5  1  0.101733  0.732237  0.045879  1
  K  K6  1  0.933391  0.262870  0.317358  1
  K  K7  1  0.898714  0.265958  0.956110  1
  In  In8  1  0.753115  0.044177  0.141775  1
  In  In9  1  0.245178  0.475754  0.843911  1
  In  In10  1  0.253197  0.956829  0.357998  1
  In  In11  1  0.741711  0.038032  0.640358  1
  In  In12  1  0.740925  0.529602  0.656926  1
  Ga  Ga13  1  0.760076  0.534100  0.158338  1
  Ga  Ga14  1  0.260712  0.466160  0.341403  1
  Ga  Ga15  1  0.238573  0.967505  0.860019  1
  Sn  Sn16  1  0.323952  0.197654  0.013193  1
  Sn  Sn17  1  0.288216  0.241953  0.678673  1
  Sn  Sn18  1  0.827113  0.801926  0.483219  1
  Sn  Sn19  1  0.709596  0.753329  0.320883  1
  Sn  Sn20  1  0.177931  0.199776  0.512584  1
  Sn  Sn21  1  0.677830  0.797878  0.987794  1
  Sn  Sn22  1  0.210572  0.244931  0.177692  1
  Sn  Sn23  1  0.793114  0.754177  0.824108  1
  Se  Se24  1  0.185712  0.538648  0.218063  1
  Se  Se25  1  0.398165  0.187262  0.141819  1
  Se  Se26  1  0.868146  0.749874  0.953046  1
  Se  Se27  1  0.636849  0.737701  0.451189  1
  Se  Se28  1  0.099611  0.204224  0.639341  1
  Se  Se29  1  0.824764  0.457900  0.787909  1
  Se  Se30  1  0.843944  0.104308  0.516511  1
  Se  Se31  1  0.118368  0.995773  0.253120  1
  Se  Se32  1  0.377202  0.695915  0.360350  1
  Se  Se33  1  0.902890  0.560532  0.572548  1
  Se  Se34  1  0.367560  0.995451  0.763737  1
  Se  Se35  1  0.612693  0.288701  0.638856  1
  Se  Se36  1  0.682932  0.459599  0.281000  1
  Se  Se37  1  0.152033  0.896596  0.481800  1
  Se  Se38  1  0.877002  0.305904  0.139459  1
  Se  Se39  1  0.652136  0.101151  0.018001  1
  Se  Se40  1  0.374387  0.223188  0.347781  1
  Se  Se41  1  0.899089  0.803246  0.354537  1
  Se  Se42  1  0.121696  0.726250  0.860174  1
  Se  Se43  1  0.323366  0.540573  0.711640  1
  Se  Se44  1  0.608379  0.556962  0.080672  1
  Se  Se45  1  0.109733  0.441614  0.419907  1
  Se  Se46  1  0.873843  0.778133  0.152444  1
  Se  Se47  1  0.618452  0.004623  0.246923  1
  Se  Se48  1  0.135427  0.263510  0.047986  1
  Se  Se49  1  0.615266  0.783073  0.653391  1
  Se  Se50  1  0.603252  0.794842  0.860005  1
  Se  Se51  1  0.336626  0.901057  0.974379  1
  Se  Se52  1  0.367239  0.242872  0.550676  1
  Se  Se53  1  0.405480  0.443849  0.929092  1
  Se  Se54  1  0.124206  0.209976  0.850900  1
  Se  Se55  1  0.878429  0.004727  0.744344  1
