# generated using pymatgen
data_Gd4DySn3
_symmetry_space_group_name_H-M   'P 1'
_cell_length_a   9.25142539
_cell_length_b   9.25142532
_cell_length_c   9.25142600
_cell_angle_alpha   96.23433895
_cell_angle_beta   96.23433891
_cell_angle_gamma   141.51856420
_symmetry_Int_Tables_number   1
_chemical_formula_structural   Gd4DySn3
_chemical_formula_sum   'Gd8 Dy2 Sn6'
_cell_volume   465.19609683
_cell_formula_units_Z   2
loop_
 _symmetry_equiv_pos_site_id
 _symmetry_equiv_pos_as_xyz
  1  'x, y, z'
loop_
 _atom_site_type_symbol
 _atom_site_label
 _atom_site_symmetry_multiplicity
 _atom_site_fract_x
 _atom_site_fract_y
 _atom_site_fract_z
 _atom_site_occupancy
  Gd  Gd0  1  0.917675  0.217864  0.135539  1
  Gd  Gd1  1  0.217864  0.082325  0.300189  1
  Gd  Gd2  1  0.782136  0.917675  0.699811  1
  Gd  Gd3  1  0.082325  0.782136  0.864461  1
  Gd  Gd4  1  0.717864  0.417675  0.135539  1
  Gd  Gd5  1  0.282136  0.582325  0.864461  1
  Gd  Gd6  1  0.582325  0.717864  0.300189  1
  Gd  Gd7  1  0.417675  0.282136  0.699811  1
  Dy  Dy8  1  0.750000  0.250000  0.500000  1
  Dy  Dy9  1  0.250000  0.750000  0.500000  1
  Sn  Sn10  1  0.750000  0.750000  0.000000  1
  Sn  Sn11  1  0.250000  0.250000  0.000000  1
  Sn  Sn12  1  0.839904  0.660096  0.500000  1
  Sn  Sn13  1  0.660096  0.160096  0.820191  1
  Sn  Sn14  1  0.339904  0.839904  0.179809  1
  Sn  Sn15  1  0.160096  0.339904  0.500000  1
