# generated using pymatgen
data_NdHoEr3(MnB3)2
_symmetry_space_group_name_H-M   'P 1'
_cell_length_a   5.41328785
_cell_length_b   5.41328859
_cell_length_c   8.28841045
_cell_angle_alpha   70.94003376
_cell_angle_beta   70.94003354
_cell_angle_gamma   60.00000560
_symmetry_Int_Tables_number   1
_chemical_formula_structural   NdHoEr3(MnB3)2
_chemical_formula_sum   'Nd1 Ho1 Er3 Mn2 B6'
_cell_volume   194.81422036
_cell_formula_units_Z   1
loop_
 _symmetry_equiv_pos_site_id
 _symmetry_equiv_pos_as_xyz
  1  'x, y, z'
loop_
 _atom_site_type_symbol
 _atom_site_label
 _atom_site_symmetry_multiplicity
 _atom_site_fract_x
 _atom_site_fract_y
 _atom_site_fract_z
 _atom_site_occupancy
  Nd  Nd0  1  0.000072  0.000072  0.999783  1
  Ho  Ho1  1  0.249699  0.249699  0.250901  1
  Er  Er2  1  0.750686  0.750686  0.747943  1
  Er  Er3  1  0.417853  0.417853  0.746441  1
  Er  Er4  1  0.582107  0.582107  0.253678  1
  Mn  Mn5  1  0.114545  0.114545  0.656365  1
  Mn  Mn6  1  0.885445  0.885445  0.343664  1
  B  B7  1  0.166606  0.833115  0.500204  1
  B  B8  1  0.833115  0.500075  0.500204  1
  B  B9  1  0.500075  0.166606  0.500204  1
  B  B10  1  0.166606  0.500075  0.500204  1
  B  B11  1  0.500075  0.833115  0.500204  1
  B  B12  1  0.833115  0.166606  0.500204  1
