# generated using pymatgen
data_Hf10Sn6Sb
_symmetry_space_group_name_H-M   'P 1'
_cell_length_a   5.90433400
_cell_length_b   8.58030896
_cell_length_c   8.58026000
_cell_angle_alpha   120.00020073
_cell_angle_beta   90.00026292
_cell_angle_gamma   89.99945940
_symmetry_Int_Tables_number   1
_chemical_formula_structural   Hf10Sn6Sb
_chemical_formula_sum   'Hf10 Sn6 Sb1'
_cell_volume   376.44717682
_cell_formula_units_Z   1
loop_
 _symmetry_equiv_pos_site_id
 _symmetry_equiv_pos_as_xyz
  1  'x, y, z'
loop_
 _atom_site_type_symbol
 _atom_site_label
 _atom_site_symmetry_multiplicity
 _atom_site_fract_x
 _atom_site_fract_y
 _atom_site_fract_z
 _atom_site_occupancy
  Hf  Hf0  1  0.500000  0.333328  0.666656  1
  Hf  Hf1  1  0.500000  0.666672  0.333344  1
  Hf  Hf2  1  0.000000  0.666672  0.333344  1
  Hf  Hf3  1  0.000000  0.333329  0.666656  1
  Hf  Hf4  1  0.776111  0.266391  0.000000  1
  Hf  Hf5  1  0.776093  0.733603  0.733598  1
  Hf  Hf6  1  0.776093  0.000004  0.266402  1
  Hf  Hf7  1  0.223885  0.733609  0.000000  1
  Hf  Hf8  1  0.223910  0.266399  0.266404  1
  Hf  Hf9  1  0.223910  0.999995  0.733596  1
  Sn  Sn10  1  0.741686  0.610974  0.000000  1
  Sn  Sn11  1  0.741698  0.389025  0.389021  1
  Sn  Sn12  1  0.741698  0.000004  0.610979  1
  Sn  Sn13  1  0.258310  0.389026  0.000000  1
  Sn  Sn14  1  0.258303  0.610976  0.610980  1
  Sn  Sn15  1  0.258303  0.999996  0.389020  1
  Sb  Sb16  1  0.499999  0.000000  0.000000  1
