# generated using pymatgen
data_NbFe4Au
_symmetry_space_group_name_H-M   'P 1'
_cell_length_a   4.82297399
_cell_length_b   4.82297427
_cell_length_c   4.82297500
_cell_angle_alpha   60.00000188
_cell_angle_beta   59.99999997
_cell_angle_gamma   59.99999793
_symmetry_Int_Tables_number   1
_chemical_formula_structural   NbFe4Au
_chemical_formula_sum   'Nb1 Fe4 Au1'
_cell_volume   79.32861608
_cell_formula_units_Z   1
loop_
 _symmetry_equiv_pos_site_id
 _symmetry_equiv_pos_as_xyz
  1  'x, y, z'
loop_
 _atom_site_type_symbol
 _atom_site_label
 _atom_site_symmetry_multiplicity
 _atom_site_fract_x
 _atom_site_fract_y
 _atom_site_fract_z
 _atom_site_occupancy
  Nb  Nb0  1  0.000000  0.000000  0.000000  1
  Fe  Fe1  1  0.873635  0.375455  0.375455  1
  Fe  Fe2  1  0.375455  0.873635  0.375455  1
  Fe  Fe3  1  0.375455  0.375455  0.873635  1
  Fe  Fe4  1  0.375455  0.375455  0.375455  1
  Au  Au5  1  0.750000  0.750000  0.750000  1
