# generated using pymatgen
data_Np3Pa3(Ni3Bi4)2
_symmetry_space_group_name_H-M   'P 1'
_cell_length_a   8.35419266
_cell_length_b   8.36981746
_cell_length_c   8.35419272
_cell_angle_alpha   109.71895832
_cell_angle_beta   109.26414875
_cell_angle_gamma   109.35490377
_symmetry_Int_Tables_number   1
_chemical_formula_structural   Np3Pa3(Ni3Bi4)2
_chemical_formula_sum   'Np3 Pa3 Ni6 Bi8'
_cell_volume   450.09286383
_cell_formula_units_Z   1
loop_
 _symmetry_equiv_pos_site_id
 _symmetry_equiv_pos_as_xyz
  1  'x, y, z'
loop_
 _atom_site_type_symbol
 _atom_site_label
 _atom_site_symmetry_multiplicity
 _atom_site_fract_x
 _atom_site_fract_y
 _atom_site_fract_z
 _atom_site_occupancy
  Np  Np0  1  0.625790  0.750000  0.375790  1
  Np  Np1  1  0.251920  0.125557  0.875608  1
  Np  Np2  1  0.750051  0.374443  0.626363  1
  Pa  Pa3  1  0.124689  0.878667  0.249410  1
  Pa  Pa4  1  0.370744  0.621333  0.746022  1
  Pa  Pa5  1  0.873277  0.250000  0.123277  1
  Ni  Ni6  1  0.638792  0.364037  0.241815  1
  Ni  Ni7  1  0.877778  0.135963  0.774754  1
  Ni  Ni8  1  0.369392  0.250000  0.619392  1
  Ni  Ni9  1  0.129522  0.750000  0.879522  1
  Ni  Ni10  1  0.234980  0.615428  0.370888  1
  Ni  Ni11  1  0.755458  0.884572  0.119552  1
  Bi  Bi12  1  0.336911  0.334296  0.330942  1
  Bi  Bi13  1  0.170375  0.502558  0.002388  1
  Bi  Bi14  1  0.996647  0.165704  0.502615  1
  Bi  Bi15  1  0.832895  0.830566  0.829473  1
  Bi  Bi16  1  0.499831  0.997442  0.167818  1
  Bi  Bi17  1  0.665416  0.502380  0.999006  1
  Bi  Bi18  1  0.496626  0.997620  0.663035  1
  Bi  Bi19  1  0.998908  0.669434  0.502329  1
