# generated using pymatgen
data_NaNdErGa8Ag3
_symmetry_space_group_name_H-M   'P 1'
_cell_length_a   4.35603550
_cell_length_b   8.36867465
_cell_length_c   8.36867452
_cell_angle_alpha   71.24509179
_cell_angle_beta   74.91460249
_cell_angle_gamma   74.91459913
_symmetry_Int_Tables_number   1
_chemical_formula_structural   NaNdErGa8Ag3
_chemical_formula_sum   'Na1 Nd1 Er1 Ga8 Ag3'
_cell_volume   273.66856175
_cell_formula_units_Z   1
loop_
 _symmetry_equiv_pos_site_id
 _symmetry_equiv_pos_as_xyz
  1  'x, y, z'
loop_
 _atom_site_type_symbol
 _atom_site_label
 _atom_site_symmetry_multiplicity
 _atom_site_fract_x
 _atom_site_fract_y
 _atom_site_fract_z
 _atom_site_occupancy
  Na  Na0  1  0.197348  0.802652  0.802652  1
  Nd  Nd1  1  0.498601  0.501399  0.501399  1
  Er  Er2  1  0.798392  0.201608  0.201608  1
  Ga  Ga3  1  0.359423  0.358764  0.922391  1
  Ga  Ga4  1  0.645091  0.636261  0.073557  1
  Ga  Ga5  1  0.359423  0.922391  0.358764  1
  Ga  Ga6  1  0.645091  0.073557  0.636261  1
  Ga  Ga7  1  0.159968  0.469654  0.210412  1
  Ga  Ga8  1  0.836840  0.529873  0.796446  1
  Ga  Ga9  1  0.159968  0.210412  0.469654  1
  Ga  Ga10  1  0.836840  0.796446  0.529873  1
  Ag  Ag11  1  0.499837  0.000163  0.000163  1
  Ag  Ag12  1  0.001590  0.803930  0.192891  1
  Ag  Ag13  1  0.001590  0.192891  0.803930  1
