# generated using pymatgen
data_Ca3Pr12Nd5Ga12
_symmetry_space_group_name_H-M   'P 1'
_cell_length_a   7.93152114
_cell_length_b   7.93239226
_cell_length_c   14.61183823
_cell_angle_alpha   90.01997047
_cell_angle_beta   89.99593707
_cell_angle_gamma   90.02133831
_symmetry_Int_Tables_number   1
_chemical_formula_structural   Ca3Pr12Nd5Ga12
_chemical_formula_sum   'Ca3 Pr12 Nd5 Ga12'
_cell_volume   919.31737031
_cell_formula_units_Z   1
loop_
 _symmetry_equiv_pos_site_id
 _symmetry_equiv_pos_as_xyz
  1  'x, y, z'
loop_
 _atom_site_type_symbol
 _atom_site_label
 _atom_site_symmetry_multiplicity
 _atom_site_fract_x
 _atom_site_fract_y
 _atom_site_fract_z
 _atom_site_occupancy
  Ca  Ca0  1  0.999946  0.500058  0.736048  1
  Ca  Ca1  1  0.000099  0.500086  0.239923  1
  Ca  Ca2  1  0.499889  0.999908  0.256389  1
  Pr  Pr3  1  0.678280  0.668089  0.397176  1
  Pr  Pr4  1  0.666783  0.318558  0.602468  1
  Pr  Pr5  1  0.333501  0.681653  0.602479  1
  Pr  Pr6  1  0.667368  0.676795  0.101007  1
  Pr  Pr7  1  0.678775  0.338836  0.898022  1
  Pr  Pr8  1  0.839564  0.821477  0.898025  1
  Pr  Pr9  1  0.321599  0.331990  0.397159  1
  Pr  Pr10  1  0.180751  0.165660  0.602452  1
  Pr  Pr11  1  0.823510  0.166912  0.101224  1
  Pr  Pr12  1  0.321338  0.661250  0.897992  1
  Pr  Pr13  1  0.332446  0.323289  0.100968  1
  Pr  Pr14  1  0.160792  0.178243  0.897854  1
  Nd  Nd15  1  0.819266  0.834390  0.603398  1
  Nd  Nd16  1  0.176428  0.833072  0.102085  1
  Nd  Nd17  1  0.167021  0.822680  0.396203  1
  Nd  Nd18  1  0.832793  0.177062  0.396078  1
  Nd  Nd19  1  0.500169  0.999999  0.783626  1
  Ga  Ga20  1  0.617516  0.382801  0.249510  1
  Ga  Ga21  1  0.119625  0.882630  0.748342  1
  Ga  Ga22  1  0.383053  0.380219  0.748514  1
  Ga  Ga23  1  0.381976  0.617603  0.249336  1
  Ga  Ga24  1  0.883152  0.882261  0.249541  1
  Ga  Ga25  1  0.617428  0.620269  0.748364  1
  Ga  Ga26  1  0.999488  0.500779  0.503022  1
  Ga  Ga27  1  0.879826  0.116806  0.748328  1
  Ga  Ga28  1  0.500742  0.999345  0.491776  1
  Ga  Ga29  1  0.499139  0.999424  0.999083  1
  Ga  Ga30  1  0.117314  0.117191  0.249561  1
  Ga  Ga31  1  0.000420  0.500664  0.004053  1
