# generated using pymatgen
data_Mn2TlS4
_symmetry_space_group_name_H-M   'P 1'
_cell_length_a   5.86606000
_cell_length_b   6.76907700
_cell_length_c   15.96563900
_cell_angle_alpha   90.00000000
_cell_angle_beta   90.00000000
_cell_angle_gamma   90.00000000
_symmetry_Int_Tables_number   1
_chemical_formula_structural   Mn2TlS4
_chemical_formula_sum   'Mn8 Tl4 S16'
_cell_volume   633.96058910
_cell_formula_units_Z   4
loop_
 _symmetry_equiv_pos_site_id
 _symmetry_equiv_pos_as_xyz
  1  'x, y, z'
loop_
 _atom_site_type_symbol
 _atom_site_label
 _atom_site_symmetry_multiplicity
 _atom_site_fract_x
 _atom_site_fract_y
 _atom_site_fract_z
 _atom_site_occupancy
  Mn  Mn0  1  0.002324  0.000000  0.249817  1
  Mn  Mn1  1  0.002324  0.000000  0.750183  1
  Mn  Mn2  1  0.997676  0.500000  0.250183  1
  Mn  Mn3  1  0.997676  0.500000  0.749817  1
  Mn  Mn4  1  0.500000  0.250000  0.250000  1
  Mn  Mn5  1  0.500000  0.750000  0.750000  1
  Mn  Mn6  1  0.500000  0.750000  0.250000  1
  Mn  Mn7  1  0.500000  0.250000  0.750000  1
  Tl  Tl8  1  0.358684  0.000000  0.000000  1
  Tl  Tl9  1  0.641316  0.500000  0.500000  1
  Tl  Tl10  1  0.037784  0.000000  0.500000  1
  Tl  Tl11  1  0.962216  0.500000  0.000000  1
  S  S12  1  0.834046  0.250306  0.331941  1
  S  S13  1  0.834046  0.749694  0.668059  1
  S  S14  1  0.165954  0.750306  0.168059  1
  S  S15  1  0.165954  0.249694  0.831941  1
  S  S16  1  0.165954  0.249694  0.168059  1
  S  S17  1  0.165954  0.750306  0.831941  1
  S  S18  1  0.834046  0.749694  0.331941  1
  S  S19  1  0.834046  0.250306  0.668059  1
  S  S20  1  0.668244  0.000000  0.168515  1
  S  S21  1  0.668244  0.000000  0.831485  1
  S  S22  1  0.331756  0.500000  0.331485  1
  S  S23  1  0.331756  0.500000  0.668515  1
  S  S24  1  0.335690  0.000000  0.331486  1
  S  S25  1  0.335690  0.000000  0.668514  1
  S  S26  1  0.664310  0.500000  0.168514  1
  S  S27  1  0.664310  0.500000  0.831486  1
