# generated using pymatgen
data_Hf6Al6FeCo3Pt2
_symmetry_space_group_name_H-M   'P 1'
_cell_length_a   7.05258700
_cell_length_b   7.05258681
_cell_length_c   6.80323400
_cell_angle_alpha   90.00000000
_cell_angle_beta   90.00000000
_cell_angle_gamma   120.00000557
_symmetry_Int_Tables_number   1
_chemical_formula_structural   Hf6Al6FeCo3Pt2
_chemical_formula_sum   'Hf6 Al6 Fe1 Co3 Pt2'
_cell_volume   293.05079867
_cell_formula_units_Z   1
loop_
 _symmetry_equiv_pos_site_id
 _symmetry_equiv_pos_as_xyz
  1  'x, y, z'
loop_
 _atom_site_type_symbol
 _atom_site_label
 _atom_site_symmetry_multiplicity
 _atom_site_fract_x
 _atom_site_fract_y
 _atom_site_fract_z
 _atom_site_occupancy
  Hf  Hf0  1  0.607736  0.021191  0.751296  1
  Hf  Hf1  1  0.978809  0.586545  0.751296  1
  Hf  Hf2  1  0.413455  0.392264  0.751296  1
  Hf  Hf3  1  0.977638  0.586005  0.248668  1
  Hf  Hf4  1  0.608367  0.022362  0.248668  1
  Hf  Hf5  1  0.413995  0.391633  0.248668  1
  Al  Al6  1  0.749295  0.749786  0.999850  1
  Al  Al7  1  0.250214  0.999508  0.999850  1
  Al  Al8  1  0.000492  0.250705  0.999850  1
  Al  Al9  1  0.748443  0.750778  0.500131  1
  Al  Al10  1  0.249222  0.997664  0.500131  1
  Al  Al11  1  0.002336  0.251557  0.500131  1
  Fe  Fe12  1  0.666667  0.333333  0.999267  1
  Co  Co13  1  0.000000  0.000000  0.749027  1
  Co  Co14  1  0.000000  0.000000  0.250943  1
  Co  Co15  1  0.666667  0.333333  0.500892  1
  Pt  Pt16  1  0.333333  0.666667  0.498977  1
  Pt  Pt17  1  0.333333  0.666667  0.001058  1
