# generated using pymatgen
data_Ba2IrO6
_symmetry_space_group_name_H-M   'P 1'
_cell_length_a   5.77793100
_cell_length_b   5.77793123
_cell_length_c   4.60206100
_cell_angle_alpha   90.00000000
_cell_angle_beta   90.00000000
_cell_angle_gamma   120.00000443
_symmetry_Int_Tables_number   1
_chemical_formula_structural   Ba2IrO6
_chemical_formula_sum   'Ba2 Ir1 O6'
_cell_volume   133.05392873
_cell_formula_units_Z   1
loop_
 _symmetry_equiv_pos_site_id
 _symmetry_equiv_pos_as_xyz
  1  'x, y, z'
loop_
 _atom_site_type_symbol
 _atom_site_label
 _atom_site_symmetry_multiplicity
 _atom_site_fract_x
 _atom_site_fract_y
 _atom_site_fract_z
 _atom_site_occupancy
  Ba  Ba0  1  0.333333  0.666667  0.775841  1
  Ba  Ba1  1  0.666667  0.333333  0.224159  1
  Ir  Ir2  1  0.000000  0.000000  0.500000  1
  O  O3  1  0.157018  0.314037  0.266963  1
  O  O4  1  0.685963  0.842982  0.266963  1
  O  O5  1  0.157018  0.842982  0.266963  1
  O  O6  1  0.842982  0.685963  0.733037  1
  O  O7  1  0.314037  0.157018  0.733037  1
  O  O8  1  0.842982  0.157018  0.733037  1
