# generated using pymatgen
data_Ho8Er12(Ir3Ru)3
_symmetry_space_group_name_H-M   'P 1'
_cell_length_a   10.75987800
_cell_length_b   10.75987800
_cell_length_c   6.37891600
_cell_angle_alpha   90.00000000
_cell_angle_beta   90.00000000
_cell_angle_gamma   90.00000000
_symmetry_Int_Tables_number   1
_chemical_formula_structural   Ho8Er12(Ir3Ru)3
_chemical_formula_sum   'Ho8 Er12 Ir9 Ru3'
_cell_volume   738.51883772
_cell_formula_units_Z   1
loop_
 _symmetry_equiv_pos_site_id
 _symmetry_equiv_pos_as_xyz
  1  'x, y, z'
loop_
 _atom_site_type_symbol
 _atom_site_label
 _atom_site_symmetry_multiplicity
 _atom_site_fract_x
 _atom_site_fract_y
 _atom_site_fract_z
 _atom_site_occupancy
  Ho  Ho0  1  0.293319  0.086451  0.377037  1
  Ho  Ho1  1  0.293341  0.913770  0.877281  1
  Ho  Ho2  1  0.706659  0.086230  0.877281  1
  Ho  Ho3  1  0.706681  0.913549  0.377037  1
  Ho  Ho4  1  0.586230  0.793341  0.877281  1
  Ho  Ho5  1  0.586451  0.206681  0.377037  1
  Ho  Ho6  1  0.413549  0.793319  0.377037  1
  Ho  Ho7  1  0.413770  0.206659  0.877281  1
  Er  Er8  1  0.207894  0.413000  0.624062  1
  Er  Er9  1  0.207687  0.586962  0.121313  1
  Er  Er10  1  0.792313  0.413038  0.121313  1
  Er  Er11  1  0.792106  0.587000  0.624062  1
  Er  Er12  1  0.913038  0.707687  0.121313  1
  Er  Er13  1  0.913000  0.292106  0.624062  1
  Er  Er14  1  0.087000  0.707894  0.624062  1
  Er  Er15  1  0.086962  0.292313  0.121313  1
  Er  Er16  1  0.000000  0.000000  0.499667  1
  Er  Er17  1  0.000000  0.000000  0.999648  1
  Er  Er18  1  0.500000  0.500000  0.999648  1
  Er  Er19  1  0.500000  0.500000  0.499667  1
  Ir  Ir20  1  0.847910  0.153053  0.250191  1
  Ir  Ir21  1  0.847646  0.846967  0.749831  1
  Ir  Ir22  1  0.152354  0.153033  0.749831  1
  Ir  Ir23  1  0.152090  0.846947  0.250191  1
  Ir  Ir24  1  0.653033  0.347646  0.749831  1
  Ir  Ir25  1  0.653053  0.652090  0.250191  1
  Ir  Ir26  1  0.346947  0.347910  0.250191  1
  Ir  Ir27  1  0.346967  0.652354  0.749831  1
  Ir  Ir28  1  0.000000  0.500000  0.378705  1
  Ru  Ru29  1  0.500000  0.000000  0.122584  1
  Ru  Ru30  1  0.500000  0.000000  0.622516  1
  Ru  Ru31  1  0.000000  0.500000  0.878701  1
