# generated using pymatgen
data_Tb3DySc2(Si3Ru)8
_symmetry_space_group_name_H-M   'P 1'
_cell_length_a   10.06370674
_cell_length_b   10.06365242
_cell_length_c   8.10962702
_cell_angle_alpha   90.06874340
_cell_angle_beta   89.93395494
_cell_angle_gamma   132.52683854
_symmetry_Int_Tables_number   1
_chemical_formula_structural   Tb3DySc2(Si3Ru)8
_chemical_formula_sum   'Tb3 Dy1 Sc2 Si24 Ru8'
_cell_volume   605.28304350
_cell_formula_units_Z   1
loop_
 _symmetry_equiv_pos_site_id
 _symmetry_equiv_pos_as_xyz
  1  'x, y, z'
loop_
 _atom_site_type_symbol
 _atom_site_label
 _atom_site_symmetry_multiplicity
 _atom_site_fract_x
 _atom_site_fract_y
 _atom_site_fract_z
 _atom_site_occupancy
  Tb  Tb0  1  0.502194  0.002202  0.750017  1
  Tb  Tb1  1  0.997831  0.497840  0.249985  1
  Tb  Tb2  1  0.497535  0.997526  0.249984  1
  Dy  Dy3  1  0.002271  0.502262  0.750015  1
  Sc  Sc4  1  0.499941  0.500012  0.499998  1
  Sc  Sc5  1  0.000016  0.999946  0.999986  1
  Si  Si6  1  0.794227  0.204996  0.500339  1
  Si  Si7  1  0.294970  0.705707  0.000008  1
  Si  Si8  1  0.205705  0.794970  0.499993  1
  Si  Si9  1  0.704999  0.294227  0.999661  1
  Si  Si10  1  0.331381  0.331062  0.832328  1
  Si  Si11  1  0.668696  0.668865  0.167743  1
  Si  Si12  1  0.168838  0.168667  0.332285  1
  Si  Si13  1  0.831091  0.831409  0.667645  1
  Si  Si14  1  0.120801  0.888507  0.729046  1
  Si  Si15  1  0.113070  0.880683  0.270257  1
  Si  Si16  1  0.611023  0.378608  0.229392  1
  Si  Si17  1  0.619638  0.387472  0.770492  1
  Si  Si18  1  0.878595  0.110999  0.270600  1
  Si  Si19  1  0.887497  0.119651  0.729519  1
  Si  Si20  1  0.388482  0.620789  0.770964  1
  Si  Si21  1  0.380694  0.613093  0.229732  1
  Si  Si22  1  0.346340  0.114452  0.504141  1
  Si  Si23  1  0.886807  0.655999  0.496509  1
  Si  Si24  1  0.385545  0.153711  0.004455  1
  Si  Si25  1  0.844100  0.613216  0.995834  1
  Si  Si26  1  0.653722  0.885537  0.495528  1
  Si  Si27  1  0.113224  0.344089  0.504185  1
  Si  Si28  1  0.614445  0.846350  0.995878  1
  Si  Si29  1  0.155989  0.386814  0.003476  1
  Ru  Ru30  1  0.669605  0.334280  0.499930  1
  Ru  Ru31  1  0.165792  0.830443  0.999158  1
  Ru  Ru32  1  0.330436  0.665805  0.500847  1
  Ru  Ru33  1  0.834289  0.169592  0.000071  1
  Ru  Ru34  1  0.126500  0.126184  0.627521  1
  Ru  Ru35  1  0.873771  0.873762  0.372347  1
  Ru  Ru36  1  0.373820  0.373835  0.127604  1
  Ru  Ru37  1  0.626121  0.626440  0.872530  1
