# generated using pymatgen
data_Y4ReTc4Ru3
_symmetry_space_group_name_H-M   'P 1'
_cell_length_a   5.36739879
_cell_length_b   5.31448159
_cell_length_c   9.17216400
_cell_angle_alpha   90.00000000
_cell_angle_beta   90.00000000
_cell_angle_gamma   121.95375398
_symmetry_Int_Tables_number   1
_chemical_formula_structural   Y4ReTc4Ru3
_chemical_formula_sum   'Y4 Re1 Tc4 Ru3'
_cell_volume   221.99127733
_cell_formula_units_Z   1
loop_
 _symmetry_equiv_pos_site_id
 _symmetry_equiv_pos_as_xyz
  1  'x, y, z'
loop_
 _atom_site_type_symbol
 _atom_site_label
 _atom_site_symmetry_multiplicity
 _atom_site_fract_x
 _atom_site_fract_y
 _atom_site_fract_z
 _atom_site_occupancy
  Y  Y0  1  0.335037  0.663425  0.435022  1
  Y  Y1  1  0.666753  0.336595  0.563076  1
  Y  Y2  1  0.666753  0.336595  0.936924  1
  Y  Y3  1  0.335037  0.663425  0.064978  1
  Re  Re4  1  0.167857  0.336219  0.750000  1
  Tc  Tc5  1  0.171047  0.824300  0.750000  1
  Tc  Tc6  1  0.337001  0.171416  0.250000  1
  Tc  Tc7  1  0.827139  0.663415  0.250000  1
  Tc  Tc8  1  0.654468  0.825529  0.750000  1
  Ru  Ru9  1  0.007829  0.001694  0.000494  1
  Ru  Ru10  1  0.823248  0.175695  0.250000  1
  Ru  Ru11  1  0.007829  0.001694  0.499506  1
