# generated using pymatgen
data_Mg2Ga3PdRh
_symmetry_space_group_name_H-M   'P 1'
_cell_length_a   5.11699331
_cell_length_b   5.11699419
_cell_length_c   6.93364746
_cell_angle_alpha   108.94805689
_cell_angle_beta   108.94805899
_cell_angle_gamma   45.68251489
_symmetry_Int_Tables_number   1
_chemical_formula_structural   Mg2Ga3PdRh
_chemical_formula_sum   'Mg2 Ga3 Pd1 Rh1'
_cell_volume   121.56407470
_cell_formula_units_Z   1
loop_
 _symmetry_equiv_pos_site_id
 _symmetry_equiv_pos_as_xyz
  1  'x, y, z'
loop_
 _atom_site_type_symbol
 _atom_site_label
 _atom_site_symmetry_multiplicity
 _atom_site_fract_x
 _atom_site_fract_y
 _atom_site_fract_z
 _atom_site_occupancy
  Mg  Mg0  1  0.850547  0.850547  0.206532  1
  Mg  Mg1  1  0.149812  0.149812  0.791594  1
  Ga  Ga2  1  0.495676  0.495676  0.994316  1
  Ga  Ga3  1  0.634160  0.634160  0.459215  1
  Ga  Ga4  1  0.368720  0.368720  0.549271  1
  Pd  Pd5  1  0.137066  0.137066  0.202129  1
  Rh  Rh6  1  0.864020  0.864020  0.796944  1
