# generated using pymatgen
data_Ho2TmAl3FeGe2
_symmetry_space_group_name_H-M   'P 1'
_cell_length_a   6.90461600
_cell_length_b   6.89320246
_cell_length_c   4.17091200
_cell_angle_alpha   90.00000000
_cell_angle_beta   90.00000000
_cell_angle_gamma   120.05478748
_symmetry_Int_Tables_number   1
_chemical_formula_structural   Ho2TmAl3FeGe2
_chemical_formula_sum   'Ho2 Tm1 Al3 Fe1 Ge2'
_cell_volume   171.82335526
_cell_formula_units_Z   1
loop_
 _symmetry_equiv_pos_site_id
 _symmetry_equiv_pos_as_xyz
  1  'x, y, z'
loop_
 _atom_site_type_symbol
 _atom_site_label
 _atom_site_symmetry_multiplicity
 _atom_site_fract_x
 _atom_site_fract_y
 _atom_site_fract_z
 _atom_site_occupancy
  Ho  Ho0  1  0.999900  0.406084  0.000000  1
  Ho  Ho1  1  0.593815  0.593915  0.000000  1
  Tm  Tm2  1  0.405461  0.000000  0.000000  1
  Al  Al3  1  0.774690  0.000000  0.499999  1
  Al  Al4  1  0.225215  0.224531  0.499999  1
  Al  Al5  1  0.000686  0.775470  0.499999  1
  Fe  Fe6  1  0.000378  0.000000  0.000000  1
  Ge  Ge7  1  0.666106  0.332361  0.499999  1
  Ge  Ge8  1  0.333747  0.667640  0.499999  1
