# generated using pymatgen
data_Gd2TeC2
_symmetry_space_group_name_H-M   'P 1'
_cell_length_a   7.49947163
_cell_length_b   7.49947265
_cell_length_c   7.00879540
_cell_angle_alpha   100.91699965
_cell_angle_beta   100.91699546
_cell_angle_gamma   32.68665230
_symmetry_Int_Tables_number   1
_chemical_formula_structural   Gd2TeC2
_chemical_formula_sum   'Gd4 Te2 C4'
_cell_volume   208.69246328
_cell_formula_units_Z   2
loop_
 _symmetry_equiv_pos_site_id
 _symmetry_equiv_pos_as_xyz
  1  'x, y, z'
loop_
 _atom_site_type_symbol
 _atom_site_label
 _atom_site_symmetry_multiplicity
 _atom_site_fract_x
 _atom_site_fract_y
 _atom_site_fract_z
 _atom_site_occupancy
  Gd  Gd0  1  0.464131  0.839653  0.141596  1
  Gd  Gd1  1  0.160347  0.535870  0.358404  1
  Gd  Gd2  1  0.839653  0.464131  0.641596  1
  Gd  Gd3  1  0.535870  0.160347  0.858404  1
  Te  Te4  1  0.789089  0.210911  0.250000  1
  Te  Te5  1  0.210911  0.789089  0.750000  1
  C  C6  1  0.103095  0.357027  0.034099  1
  C  C7  1  0.642973  0.896905  0.465901  1
  C  C8  1  0.357027  0.103095  0.534098  1
  C  C9  1  0.896905  0.642974  0.965901  1
