# generated using pymatgen
data_Lu6GaCuTc
_symmetry_space_group_name_H-M   'P 1'
_cell_length_a   8.23979710
_cell_length_b   8.23979784
_cell_length_c   8.23979800
_cell_angle_alpha   104.18822080
_cell_angle_beta   110.95844312
_cell_angle_gamma   113.40332482
_symmetry_Int_Tables_number   1
_chemical_formula_structural   Lu6GaCuTc
_chemical_formula_sum   'Lu12 Ga2 Cu2 Tc2'
_cell_volume   427.72568635
_cell_formula_units_Z   2
loop_
 _symmetry_equiv_pos_site_id
 _symmetry_equiv_pos_as_xyz
  1  'x, y, z'
loop_
 _atom_site_type_symbol
 _atom_site_label
 _atom_site_symmetry_multiplicity
 _atom_site_fract_x
 _atom_site_fract_y
 _atom_site_fract_z
 _atom_site_occupancy
  Lu  Lu0  1  0.690737  0.257628  0.948364  1
  Lu  Lu1  1  0.309263  0.742372  0.051636  1
  Lu  Lu2  1  0.690737  0.742372  0.433110  1
  Lu  Lu3  1  0.309263  0.257628  0.566890  1
  Lu  Lu4  1  0.811393  0.147787  0.336393  1
  Lu  Lu5  1  0.811393  0.475000  0.663607  1
  Lu  Lu6  1  0.188607  0.852213  0.663607  1
  Lu  Lu7  1  0.188607  0.525000  0.336393  1
  Lu  Lu8  1  0.594219  0.776289  0.817928  1
  Lu  Lu9  1  0.958360  0.776289  0.182072  1
  Lu  Lu10  1  0.041640  0.223711  0.817928  1
  Lu  Lu11  1  0.405781  0.223711  0.182072  1
  Ga  Ga12  1  0.500000  0.500000  0.000000  1
  Ga  Ga13  1  0.500000  0.000000  0.500000  1
  Cu  Cu14  1  0.000000  0.120121  0.120121  1
  Cu  Cu15  1  0.000000  0.879879  0.879879  1
  Tc  Tc16  1  0.822819  0.500000  0.322819  1
  Tc  Tc17  1  0.177181  0.500000  0.677181  1
