# generated using pymatgen
data_Pr3Ho5(MoO6)4
_symmetry_space_group_name_H-M   'P 1'
_cell_length_a   5.47185200
_cell_length_b   7.80924602
_cell_length_c   11.52285513
_cell_angle_alpha   75.97910545
_cell_angle_beta   90.00000000
_cell_angle_gamma   90.00000000
_symmetry_Int_Tables_number   1
_chemical_formula_structural   Pr3Ho5(MoO6)4
_chemical_formula_sum   'Pr3 Ho5 Mo4 O24'
_cell_volume   477.71419817
_cell_formula_units_Z   1
loop_
 _symmetry_equiv_pos_site_id
 _symmetry_equiv_pos_as_xyz
  1  'x, y, z'
loop_
 _atom_site_type_symbol
 _atom_site_label
 _atom_site_symmetry_multiplicity
 _atom_site_fract_x
 _atom_site_fract_y
 _atom_site_fract_z
 _atom_site_occupancy
  Pr  Pr0  1  0.742541  0.000000  0.750000  1
  Pr  Pr1  1  0.680443  0.500000  0.750000  1
  Pr  Pr2  1  0.315739  0.500000  0.250000  1
  Ho  Ho3  1  0.260330  0.000000  0.250000  1
  Ho  Ho4  1  0.185575  0.798063  0.576287  1
  Ho  Ho5  1  0.817724  0.798296  0.080277  1
  Ho  Ho6  1  0.185575  0.201937  0.923713  1
  Ho  Ho7  1  0.817724  0.201704  0.419723  1
  Mo  Mo8  1  0.252792  0.721005  0.888656  1
  Mo  Mo9  1  0.745817  0.728515  0.384941  1
  Mo  Mo10  1  0.252792  0.278995  0.611344  1
  Mo  Mo11  1  0.745817  0.271485  0.115059  1
  O  O12  1  0.050407  0.937728  0.903024  1
  O  O13  1  0.530453  0.833277  0.935443  1
  O  O14  1  0.961323  0.940857  0.395356  1
  O  O15  1  0.451583  0.785768  0.726310  1
  O  O16  1  0.469341  0.846996  0.429757  1
  O  O17  1  0.991516  0.715286  0.771340  1
  O  O18  1  0.539232  0.794129  0.225249  1
  O  O19  1  0.850126  0.646458  0.545032  1
  O  O20  1  0.345656  0.490791  0.891233  1
  O  O21  1  0.010025  0.721331  0.268035  1
  O  O22  1  0.345656  0.509209  0.608767  1
  O  O23  1  0.850126  0.353542  0.954968  1
  O  O24  1  0.141009  0.635451  0.047011  1
  O  O25  1  0.657892  0.497999  0.386182  1
  O  O26  1  0.991516  0.284714  0.728660  1
  O  O27  1  0.657892  0.502001  0.113818  1
  O  O28  1  0.141009  0.364549  0.452989  1
  O  O29  1  0.451583  0.214232  0.773690  1
  O  O30  1  0.010025  0.278669  0.231965  1
  O  O31  1  0.530453  0.166723  0.564557  1
  O  O32  1  0.539232  0.205871  0.274751  1
  O  O33  1  0.050407  0.062272  0.596976  1
  O  O34  1  0.469341  0.153004  0.070243  1
  O  O35  1  0.961323  0.059143  0.104644  1
