# generated using pymatgen
data_Tb2HoCd3Pb2Au
_symmetry_space_group_name_H-M   'P 1'
_cell_length_a   7.59333312
_cell_length_b   7.59333334
_cell_length_c   4.54318400
_cell_angle_alpha   90.00000000
_cell_angle_beta   90.00000000
_cell_angle_gamma   119.86690629
_symmetry_Int_Tables_number   1
_chemical_formula_structural   Tb2HoCd3Pb2Au
_chemical_formula_sum   'Tb2 Ho1 Cd3 Pb2 Au1'
_cell_volume   227.16256570
_cell_formula_units_Z   1
loop_
 _symmetry_equiv_pos_site_id
 _symmetry_equiv_pos_as_xyz
  1  'x, y, z'
loop_
 _atom_site_type_symbol
 _atom_site_label
 _atom_site_symmetry_multiplicity
 _atom_site_fract_x
 _atom_site_fract_y
 _atom_site_fract_z
 _atom_site_occupancy
  Tb  Tb0  1  0.598942  0.999717  0.000000  1
  Tb  Tb1  1  0.999717  0.598942  0.000000  1
  Ho  Ho2  1  0.399320  0.399320  0.000000  1
  Cd  Cd3  1  0.237459  0.000378  0.500000  1
  Cd  Cd4  1  0.000378  0.237459  0.500000  1
  Cd  Cd5  1  0.763045  0.763045  0.500000  1
  Pb  Pb6  1  0.333760  0.666009  0.500000  1
  Pb  Pb7  1  0.666009  0.333760  0.500000  1
  Au  Au8  1  0.001370  0.001370  0.000000  1
