# generated using pymatgen
data_EuTmCl8
_symmetry_space_group_name_H-M   'P 1'
_cell_length_a   7.04975417
_cell_length_b   7.04974360
_cell_length_c   9.19720187
_cell_angle_alpha   92.06038557
_cell_angle_beta   92.06200794
_cell_angle_gamma   119.88708291
_symmetry_Int_Tables_number   1
_chemical_formula_structural   EuTmCl8
_chemical_formula_sum   'Eu1 Tm1 Cl8'
_cell_volume   395.27921533
_cell_formula_units_Z   1
loop_
 _symmetry_equiv_pos_site_id
 _symmetry_equiv_pos_as_xyz
  1  'x, y, z'
loop_
 _atom_site_type_symbol
 _atom_site_label
 _atom_site_symmetry_multiplicity
 _atom_site_fract_x
 _atom_site_fract_y
 _atom_site_fract_z
 _atom_site_occupancy
  Eu  Eu0  1  0.831552  0.168451  0.999999  1
  Tm  Tm1  1  0.168166  0.831832  0.000000  1
  Cl  Cl2  1  0.892995  0.879231  0.161938  1
  Cl  Cl3  1  0.499995  0.139692  0.161192  1
  Cl  Cl4  1  0.154294  0.528064  0.160844  1
  Cl  Cl5  1  0.612025  0.612037  0.440870  1
  Cl  Cl6  1  0.387956  0.387965  0.559130  1
  Cl  Cl7  1  0.860308  0.500008  0.838805  1
  Cl  Cl8  1  0.471935  0.845708  0.839157  1
  Cl  Cl9  1  0.120772  0.107010  0.838065  1
