# generated using pymatgen
data_Lu7Co3Tc3Sn23
_symmetry_space_group_name_H-M   'P 1'
_cell_length_a   9.73771080
_cell_length_b   9.76187594
_cell_length_c   9.93997678
_cell_angle_alpha   88.94583629
_cell_angle_beta   91.06200237
_cell_angle_gamma   119.29320362
_symmetry_Int_Tables_number   1
_chemical_formula_structural   Lu7Co3Tc3Sn23
_chemical_formula_sum   'Lu7 Co3 Tc3 Sn23'
_cell_volume   823.86480558
_cell_formula_units_Z   1
loop_
 _symmetry_equiv_pos_site_id
 _symmetry_equiv_pos_as_xyz
  1  'x, y, z'
loop_
 _atom_site_type_symbol
 _atom_site_label
 _atom_site_symmetry_multiplicity
 _atom_site_fract_x
 _atom_site_fract_y
 _atom_site_fract_z
 _atom_site_occupancy
  Lu  Lu0  1  0.990048  0.985795  0.005654  1
  Lu  Lu1  1  0.487404  0.515036  0.303051  1
  Lu  Lu2  1  0.513394  0.484914  0.696684  1
  Lu  Lu3  1  0.489847  0.973538  0.302675  1
  Lu  Lu4  1  0.512140  0.031248  0.696015  1
  Lu  Lu5  1  0.030706  0.513153  0.302743  1
  Lu  Lu6  1  0.970503  0.487662  0.698231  1
  Co  Co7  1  0.170847  0.346631  0.798269  1
  Co  Co8  1  0.345280  0.169969  0.199954  1
  Co  Co9  1  0.654800  0.832218  0.797932  1
  Tc  Tc10  1  0.837282  0.164053  0.207826  1
  Tc  Tc11  1  0.162712  0.838903  0.788337  1
  Tc  Tc12  1  0.832040  0.659938  0.201362  1
  Sn  Sn13  1  0.345887  0.000321  0.002689  1
  Sn  Sn14  1  0.653018  0.000182  0.995060  1
  Sn  Sn15  1  0.002256  0.344994  0.995796  1
  Sn  Sn16  1  0.002844  0.652083  0.998201  1
  Sn  Sn17  1  0.647411  0.650542  0.994012  1
  Sn  Sn18  1  0.345834  0.348029  0.000662  1
  Sn  Sn19  1  0.332763  0.668956  0.824755  1
  Sn  Sn20  1  0.666992  0.331654  0.172971  1
  Sn  Sn21  1  0.004685  0.999060  0.505288  1
  Sn  Sn22  1  0.780467  0.222572  0.467279  1
  Sn  Sn23  1  0.222911  0.776320  0.532645  1
  Sn  Sn24  1  0.775491  0.549891  0.464957  1
  Sn  Sn25  1  0.221072  0.442182  0.540236  1
  Sn  Sn26  1  0.444802  0.222367  0.459086  1
  Sn  Sn27  1  0.553160  0.777459  0.541950  1
  Sn  Sn28  1  0.334054  0.668955  0.130841  1
  Sn  Sn29  1  0.665329  0.330927  0.869917  1
  Sn  Sn30  1  0.124332  0.887937  0.276972  1
  Sn  Sn31  1  0.883266  0.117510  0.724037  1
  Sn  Sn32  1  0.133247  0.238499  0.271700  1
  Sn  Sn33  1  0.863871  0.758225  0.725445  1
  Sn  Sn34  1  0.754135  0.870800  0.274649  1
  Sn  Sn35  1  0.245171  0.137477  0.732120  1
