# generated using pymatgen
data_Tb3(HoTl2)2
_symmetry_space_group_name_H-M   'P 1'
_cell_length_a   9.34259400
_cell_length_b   9.34259422
_cell_length_c   6.73701900
_cell_angle_alpha   90.00000000
_cell_angle_beta   90.00000000
_cell_angle_gamma   119.99999921
_symmetry_Int_Tables_number   1
_chemical_formula_structural   Tb3(HoTl2)2
_chemical_formula_sum   'Tb6 Ho4 Tl8'
_cell_volume   509.25273499
_cell_formula_units_Z   2
loop_
 _symmetry_equiv_pos_site_id
 _symmetry_equiv_pos_as_xyz
  1  'x, y, z'
loop_
 _atom_site_type_symbol
 _atom_site_label
 _atom_site_symmetry_multiplicity
 _atom_site_fract_x
 _atom_site_fract_y
 _atom_site_fract_z
 _atom_site_occupancy
  Tb  Tb0  1  0.290078  0.000000  0.750000  1
  Tb  Tb1  1  0.709922  0.000000  0.250000  1
  Tb  Tb2  1  0.000000  0.290078  0.750000  1
  Tb  Tb3  1  0.000000  0.709922  0.250000  1
  Tb  Tb4  1  0.709922  0.709922  0.750000  1
  Tb  Tb5  1  0.290078  0.290078  0.250000  1
  Ho  Ho6  1  0.333333  0.666667  0.500000  1
  Ho  Ho7  1  0.666667  0.333333  0.500000  1
  Ho  Ho8  1  0.666667  0.333333  0.000000  1
  Ho  Ho9  1  0.333333  0.666667  0.000000  1
  Tl  Tl10  1  0.000000  0.000000  0.500000  1
  Tl  Tl11  1  0.000000  0.000000  0.000000  1
  Tl  Tl12  1  0.628036  0.000000  0.750000  1
  Tl  Tl13  1  0.371964  0.000000  0.250000  1
  Tl  Tl14  1  0.000000  0.628036  0.750000  1
  Tl  Tl15  1  0.000000  0.371964  0.250000  1
  Tl  Tl16  1  0.371964  0.371964  0.750000  1
  Tl  Tl17  1  0.628036  0.628036  0.250000  1
