# generated using pymatgen
data_TbY7Al8
_symmetry_space_group_name_H-M   'P 1'
_cell_length_a   5.63907600
_cell_length_b   5.86301641
_cell_length_c   11.45998172
_cell_angle_alpha   90.04169443
_cell_angle_beta   90.00006047
_cell_angle_gamma   90.00003985
_symmetry_Int_Tables_number   1
_chemical_formula_structural   TbY7Al8
_chemical_formula_sum   'Tb1 Y7 Al8'
_cell_volume   378.88975934
_cell_formula_units_Z   1
loop_
 _symmetry_equiv_pos_site_id
 _symmetry_equiv_pos_as_xyz
  1  'x, y, z'
loop_
 _atom_site_type_symbol
 _atom_site_label
 _atom_site_symmetry_multiplicity
 _atom_site_fract_x
 _atom_site_fract_y
 _atom_site_fract_z
 _atom_site_occupancy
  Tb  Tb0  1  0.750000  0.161678  0.485085  1
  Y  Y1  1  0.250000  0.838669  0.515776  1
  Y  Y2  1  0.250000  0.160716  0.015556  1
  Y  Y3  1  0.750000  0.839052  0.984225  1
  Y  Y4  1  0.750000  0.397673  0.167848  1
  Y  Y5  1  0.250000  0.602321  0.832008  1
  Y  Y6  1  0.249999  0.397820  0.331602  1
  Y  Y7  1  0.750000  0.602159  0.668205  1
  Al  Al8  1  0.500064  0.928670  0.249752  1
  Al  Al9  1  0.000223  0.071205  0.750259  1
  Al  Al10  1  0.499776  0.071205  0.750259  1
  Al  Al11  1  0.999936  0.928670  0.249752  1
  Al  Al12  1  0.750000  0.659569  0.401270  1
  Al  Al13  1  0.250000  0.340620  0.598472  1
  Al  Al14  1  0.250000  0.659499  0.098100  1
  Al  Al15  1  0.750000  0.340474  0.901830  1
