# generated using pymatgen
data_Ti4Si2B4Ru7Rh3
_symmetry_space_group_name_H-M   'P 1'
_cell_length_a   2.96689800
_cell_length_b   9.20152860
_cell_length_c   9.16994661
_cell_angle_alpha   89.95832083
_cell_angle_beta   90.00000000
_cell_angle_gamma   90.00000000
_symmetry_Int_Tables_number   1
_chemical_formula_structural   Ti4Si2B4Ru7Rh3
_chemical_formula_sum   'Ti4 Si2 B4 Ru7 Rh3'
_cell_volume   250.33944702
_cell_formula_units_Z   1
loop_
 _symmetry_equiv_pos_site_id
 _symmetry_equiv_pos_as_xyz
  1  'x, y, z'
loop_
 _atom_site_type_symbol
 _atom_site_label
 _atom_site_symmetry_multiplicity
 _atom_site_fract_x
 _atom_site_fract_y
 _atom_site_fract_z
 _atom_site_occupancy
  Ti  Ti0  1  0.000000  0.829471  0.183617  1
  Ti  Ti1  1  0.000000  0.325097  0.323035  1
  Ti  Ti2  1  0.000000  0.676327  0.665875  1
  Ti  Ti3  1  0.000000  0.176788  0.828337  1
  Si  Si4  1  0.000000  0.496246  0.004557  1
  Si  Si5  1  0.000000  0.000760  0.496167  1
  B  B6  1  0.000000  0.125631  0.126390  1
  B  B7  1  0.000000  0.626152  0.374183  1
  B  B8  1  0.000000  0.372268  0.620355  1
  B  B9  1  0.000000  0.875707  0.877142  1
  Ru  Ru10  1  0.500001  0.997458  0.999821  1
  Ru  Ru11  1  0.500001  0.288466  0.067902  1
  Ru  Ru12  1  0.500001  0.574116  0.208668  1
  Ru  Ru13  1  0.500001  0.072029  0.290071  1
  Ru  Ru14  1  0.500001  0.790086  0.431797  1
  Ru  Ru15  1  0.500001  0.498207  0.499337  1
  Ru  Ru16  1  0.500001  0.207999  0.577042  1
  Rh  Rh17  1  0.500001  0.927416  0.710818  1
  Rh  Rh18  1  0.500001  0.431354  0.789991  1
  Rh  Rh19  1  0.500001  0.708428  0.924904  1
