# generated using pymatgen
data_Zr3Pa5Ir8
_symmetry_space_group_name_H-M   'P 1'
_cell_length_a   10.56401402
_cell_length_b   5.59709700
_cell_length_c   5.60089978
_cell_angle_alpha   82.04876247
_cell_angle_beta   90.11382043
_cell_angle_gamma   90.05775931
_symmetry_Int_Tables_number   1
_chemical_formula_structural   Zr3Pa5Ir8
_chemical_formula_sum   'Zr3 Pa5 Ir8'
_cell_volume   327.98440077
_cell_formula_units_Z   1
loop_
 _symmetry_equiv_pos_site_id
 _symmetry_equiv_pos_as_xyz
  1  'x, y, z'
loop_
 _atom_site_type_symbol
 _atom_site_label
 _atom_site_symmetry_multiplicity
 _atom_site_fract_x
 _atom_site_fract_y
 _atom_site_fract_z
 _atom_site_occupancy
  Zr  Zr0  1  0.499155  0.100759  0.851229  1
  Zr  Zr1  1  0.000654  0.896177  0.149516  1
  Zr  Zr2  1  0.499368  0.657833  0.394943  1
  Pa  Pa3  1  0.992324  0.341451  0.604779  1
  Pa  Pa4  1  0.221799  0.386053  0.121334  1
  Pa  Pa5  1  0.711690  0.612918  0.878474  1
  Pa  Pa6  1  0.223502  0.857726  0.630573  1
  Pa  Pa7  1  0.710845  0.145975  0.369762  1
  Ir  Ir8  1  0.760260  0.111911  0.874968  1
  Ir  Ir9  1  0.265462  0.884705  0.129590  1
  Ir  Ir10  1  0.759959  0.648529  0.373633  1
  Ir  Ir11  1  0.263452  0.358263  0.623877  1
  Ir  Ir12  1  0.954814  0.402065  0.097397  1
  Ir  Ir13  1  0.455083  0.590546  0.906997  1
  Ir  Ir14  1  0.959712  0.834282  0.658698  1
  Ir  Ir15  1  0.457925  0.170805  0.334228  1
