# generated using pymatgen
data_Ce5Sc11(CdFe)4
_symmetry_space_group_name_H-M   'P 1'
_cell_length_a   9.12207880
_cell_length_b   8.99027006
_cell_length_c   8.99026900
_cell_angle_alpha   61.72878275
_cell_angle_beta   59.51381254
_cell_angle_gamma   59.51381605
_symmetry_Int_Tables_number   1
_chemical_formula_structural   Ce5Sc11(CdFe)4
_chemical_formula_sum   'Ce5 Sc11 Cd4 Fe4'
_cell_volume   523.79308429
_cell_formula_units_Z   1
loop_
 _symmetry_equiv_pos_site_id
 _symmetry_equiv_pos_as_xyz
  1  'x, y, z'
loop_
 _atom_site_type_symbol
 _atom_site_label
 _atom_site_symmetry_multiplicity
 _atom_site_fract_x
 _atom_site_fract_y
 _atom_site_fract_z
 _atom_site_occupancy
  Ce  Ce0  1  0.359525  0.341043  0.341043  1
  Ce  Ce1  1  0.334163  0.367060  0.964615  1
  Ce  Ce2  1  0.334163  0.964615  0.367060  1
  Ce  Ce3  1  0.958391  0.341043  0.341043  1
  Ce  Ce4  1  0.821638  0.178362  0.178362  1
  Sc  Sc5  1  0.183302  0.816698  0.816698  1
  Sc  Sc6  1  0.192298  0.809354  0.182819  1
  Sc  Sc7  1  0.815529  0.182819  0.809354  1
  Sc  Sc8  1  0.192298  0.182819  0.809354  1
  Sc  Sc9  1  0.815529  0.809354  0.182819  1
  Sc  Sc10  1  0.936063  0.563937  0.563937  1
  Sc  Sc11  1  0.564124  0.935876  0.935876  1
  Sc  Sc12  1  0.565952  0.930994  0.568034  1
  Sc  Sc13  1  0.935018  0.568034  0.930994  1
  Sc  Sc14  1  0.565952  0.568034  0.930994  1
  Sc  Sc15  1  0.935018  0.930994  0.568034  1
  Cd  Cd16  1  0.587153  0.582542  0.582542  1
  Cd  Cd17  1  0.579087  0.596477  0.245349  1
  Cd  Cd18  1  0.579087  0.245349  0.596477  1
  Cd  Cd19  1  0.247762  0.582542  0.582542  1
  Fe  Fe20  1  0.096442  0.158340  0.158340  1
  Fe  Fe21  1  0.157313  0.124190  0.561182  1
  Fe  Fe22  1  0.157313  0.561182  0.124190  1
  Fe  Fe23  1  0.586879  0.158340  0.158340  1
