# generated using pymatgen
data_Sc3U3Co16Si6Ge
_symmetry_space_group_name_H-M   'P 1'
_cell_length_a   8.11061774
_cell_length_b   8.11061713
_cell_length_c   8.09947459
_cell_angle_alpha   59.95447584
_cell_angle_beta   59.95447858
_cell_angle_gamma   59.99999986
_symmetry_Int_Tables_number   1
_chemical_formula_structural   Sc3U3Co16Si6Ge
_chemical_formula_sum   'Sc3 U3 Co16 Si6 Ge1'
_cell_volume   376.48745716
_cell_formula_units_Z   1
loop_
 _symmetry_equiv_pos_site_id
 _symmetry_equiv_pos_as_xyz
  1  'x, y, z'
loop_
 _atom_site_type_symbol
 _atom_site_label
 _atom_site_symmetry_multiplicity
 _atom_site_fract_x
 _atom_site_fract_y
 _atom_site_fract_z
 _atom_site_occupancy
  Sc  Sc0  1  0.291920  0.291920  0.713762  1
  Sc  Sc1  1  0.702397  0.291920  0.713762  1
  Sc  Sc2  1  0.291920  0.702397  0.713762  1
  U  U3  1  0.712968  0.712968  0.293241  1
  U  U4  1  0.280823  0.712968  0.293241  1
  U  U5  1  0.712968  0.280823  0.293241  1
  Co  Co6  1  0.880221  0.880221  0.359338  1
  Co  Co7  1  0.875827  0.367383  0.880963  1
  Co  Co8  1  0.367383  0.875827  0.880963  1
  Co  Co9  1  0.875827  0.875827  0.880963  1
  Co  Co10  1  0.123148  0.123148  0.630555  1
  Co  Co11  1  0.119768  0.634556  0.125910  1
  Co  Co12  1  0.634556  0.119768  0.125910  1
  Co  Co13  1  0.119768  0.119768  0.125910  1
  Co  Co14  1  0.660068  0.660068  0.019795  1
  Co  Co15  1  0.674642  0.996950  0.653766  1
  Co  Co16  1  0.996950  0.674642  0.653766  1
  Co  Co17  1  0.674642  0.674642  0.653766  1
  Co  Co18  1  0.324093  0.324093  0.027723  1
  Co  Co19  1  0.340925  0.991030  0.327120  1
  Co  Co20  1  0.991030  0.340925  0.327120  1
  Co  Co21  1  0.340925  0.340925  0.327120  1
  Si  Si22  1  0.004077  0.004077  0.514960  1
  Si  Si23  1  0.476885  0.004077  0.514960  1
  Si  Si24  1  0.004077  0.476885  0.514960  1
  Si  Si25  1  0.504698  0.504698  0.980754  1
  Si  Si26  1  0.009851  0.504698  0.980754  1
  Si  Si27  1  0.504698  0.009851  0.980754  1
  Ge  Ge28  1  0.002946  0.002946  0.991161  1
