# generated using pymatgen
data_Pr5(BN3)2
_symmetry_space_group_name_H-M   'P 1'
_cell_length_a   6.47778496
_cell_length_b   6.47778503
_cell_length_c   8.98608455
_cell_angle_alpha   74.81889609
_cell_angle_beta   74.81889479
_cell_angle_gamma   32.73998046
_symmetry_Int_Tables_number   1
_chemical_formula_structural   Pr5(BN3)2
_chemical_formula_sum   'Pr5 B2 N6'
_cell_volume   196.18777333
_cell_formula_units_Z   1
loop_
 _symmetry_equiv_pos_site_id
 _symmetry_equiv_pos_as_xyz
  1  'x, y, z'
loop_
 _atom_site_type_symbol
 _atom_site_label
 _atom_site_symmetry_multiplicity
 _atom_site_fract_x
 _atom_site_fract_y
 _atom_site_fract_z
 _atom_site_occupancy
  Pr  Pr0  1  0.624480  0.624480  0.626808  1
  Pr  Pr1  1  0.307777  0.307777  0.820714  1
  Pr  Pr2  1  0.000000  0.000000  0.000000  1
  Pr  Pr3  1  0.692223  0.692223  0.179286  1
  Pr  Pr4  1  0.375520  0.375520  0.373192  1
  B  B5  1  0.055151  0.055151  0.410107  1
  B  B6  1  0.944849  0.944849  0.589893  1
  N  N7  1  0.025367  0.025367  0.262292  1
  N  N8  1  0.343803  0.343803  0.080138  1
  N  N9  1  0.827760  0.827760  0.583738  1
  N  N10  1  0.974633  0.974633  0.737708  1
  N  N11  1  0.656197  0.656197  0.919862  1
  N  N12  1  0.172240  0.172240  0.416262  1
