# generated using pymatgen
data_Mn2Zn(AsO4)2
_symmetry_space_group_name_H-M   'P 1'
_cell_length_a   8.85256700
_cell_length_b   5.44082704
_cell_length_c   9.28824482
_cell_angle_alpha   59.78191349
_cell_angle_beta   90.00000000
_cell_angle_gamma   90.00000000
_symmetry_Int_Tables_number   1
_chemical_formula_structural   Mn2Zn(AsO4)2
_chemical_formula_sum   'Mn4 Zn2 As4 O16'
_cell_volume   386.58039768
_cell_formula_units_Z   2
loop_
 _symmetry_equiv_pos_site_id
 _symmetry_equiv_pos_as_xyz
  1  'x, y, z'
loop_
 _atom_site_type_symbol
 _atom_site_label
 _atom_site_symmetry_multiplicity
 _atom_site_fract_x
 _atom_site_fract_y
 _atom_site_fract_z
 _atom_site_occupancy
  Mn  Mn0  1  0.142023  0.485451  0.107893  1
  Mn  Mn1  1  0.642023  0.514549  0.392107  1
  Mn  Mn2  1  0.001452  0.502616  0.499969  1
  Mn  Mn3  1  0.501452  0.497384  0.000031  1
  Zn  Zn4  1  0.860944  0.522084  0.886819  1
  Zn  Zn5  1  0.360944  0.477916  0.613181  1
  As  As6  1  0.306091  0.841809  0.201326  1
  As  As7  1  0.806091  0.158191  0.298674  1
  As  As8  1  0.693464  0.151376  0.808371  1
  As  As9  1  0.193464  0.848624  0.691629  1
  O  O10  1  0.066511  0.704628  0.855646  1
  O  O11  1  0.566511  0.295372  0.644354  1
  O  O12  1  0.928339  0.306540  0.130976  1
  O  O13  1  0.428339  0.693460  0.369024  1
  O  O14  1  0.201379  0.208096  0.622546  1
  O  O15  1  0.701379  0.791904  0.877454  1
  O  O16  1  0.806017  0.797766  0.379225  1
  O  O17  1  0.306017  0.202234  0.120775  1
  O  O18  1  0.141917  0.785663  0.535747  1
  O  O19  1  0.641917  0.214337  0.964253  1
  O  O20  1  0.130481  0.680412  0.258781  1
  O  O21  1  0.630481  0.319588  0.241219  1
  O  O22  1  0.864742  0.333902  0.744598  1
  O  O23  1  0.364742  0.666098  0.755402  1
  O  O24  1  0.356640  0.761607  0.050418  1
  O  O25  1  0.856640  0.238393  0.449582  1
