# generated using pymatgen
data_TbPr2Y5(WO6)4
_symmetry_space_group_name_H-M   'P 1'
_cell_length_a   5.47035900
_cell_length_b   7.80586284
_cell_length_c   11.59338505
_cell_angle_alpha   75.64629853
_cell_angle_beta   90.00000000
_cell_angle_gamma   90.00000000
_symmetry_Int_Tables_number   1
_chemical_formula_structural   TbPr2Y5(WO6)4
_chemical_formula_sum   'Tb1 Pr2 Y5 W4 O24'
_cell_volume   479.59414567
_cell_formula_units_Z   1
loop_
 _symmetry_equiv_pos_site_id
 _symmetry_equiv_pos_as_xyz
  1  'x, y, z'
loop_
 _atom_site_type_symbol
 _atom_site_label
 _atom_site_symmetry_multiplicity
 _atom_site_fract_x
 _atom_site_fract_y
 _atom_site_fract_z
 _atom_site_occupancy
  Tb  Tb0  1  0.258305  0.000000  0.750000  1
  Pr  Pr1  1  0.314734  0.500000  0.750000  1
  Pr  Pr2  1  0.685321  0.500000  0.250000  1
  Y  Y3  1  0.186812  0.797001  0.076909  1
  Y  Y4  1  0.741718  0.000000  0.250000  1
  Y  Y5  1  0.186812  0.202999  0.423091  1
  Y  Y6  1  0.813126  0.203040  0.923157  1
  Y  Y7  1  0.813126  0.796960  0.576843  1
  W  W8  1  0.746505  0.728001  0.884319  1
  W  W9  1  0.253522  0.728076  0.384277  1
  W  W10  1  0.746505  0.271999  0.615681  1
  W  W11  1  0.253522  0.271924  0.115723  1
  O  O12  1  0.853237  0.357886  0.455032  1
  O  O13  1  0.468095  0.845822  0.930463  1
  O  O14  1  0.853237  0.642114  0.044968  1
  O  O15  1  0.013658  0.280855  0.729641  1
  O  O16  1  0.986358  0.280782  0.229650  1
  O  O17  1  0.146857  0.357793  0.955029  1
  O  O18  1  0.651721  0.494655  0.887260  1
  O  O19  1  0.531955  0.154041  0.069653  1
  O  O20  1  0.146857  0.642207  0.544971  1
  O  O21  1  0.013658  0.719145  0.770359  1
  O  O22  1  0.455024  0.205593  0.272240  1
  O  O23  1  0.043243  0.940866  0.395710  1
  O  O24  1  0.468095  0.154178  0.569537  1
  O  O25  1  0.986358  0.719218  0.270350  1
  O  O26  1  0.956353  0.059197  0.604084  1
  O  O27  1  0.545289  0.205835  0.772262  1
  O  O28  1  0.545289  0.794165  0.727738  1
  O  O29  1  0.043243  0.059134  0.104290  1
  O  O30  1  0.651721  0.505345  0.612740  1
  O  O31  1  0.348207  0.505330  0.112794  1
  O  O32  1  0.455024  0.794407  0.227760  1
  O  O33  1  0.348207  0.494670  0.387206  1
  O  O34  1  0.531955  0.845959  0.430347  1
  O  O35  1  0.956353  0.940803  0.895916  1
