# generated using pymatgen
data_Er2UAl3FeRu2
_symmetry_space_group_name_H-M   'P 1'
_cell_length_a   6.76197321
_cell_length_b   6.76197181
_cell_length_c   4.03095900
_cell_angle_alpha   90.00000000
_cell_angle_beta   90.00000000
_cell_angle_gamma   117.14790421
_symmetry_Int_Tables_number   1
_chemical_formula_structural   Er2UAl3FeRu2
_chemical_formula_sum   'Er2 U1 Al3 Fe1 Ru2'
_cell_volume   164.00723842
_cell_formula_units_Z   1
loop_
 _symmetry_equiv_pos_site_id
 _symmetry_equiv_pos_as_xyz
  1  'x, y, z'
loop_
 _atom_site_type_symbol
 _atom_site_label
 _atom_site_symmetry_multiplicity
 _atom_site_fract_x
 _atom_site_fract_y
 _atom_site_fract_z
 _atom_site_occupancy
  Er  Er0  1  0.414067  0.009966  0.500000  1
  Er  Er1  1  0.009966  0.414067  0.500000  1
  U  U2  1  0.635519  0.635519  0.500000  1
  Al  Al3  1  0.754596  0.029930  0.000000  1
  Al  Al4  1  0.029930  0.754596  0.000000  1
  Al  Al5  1  0.199759  0.199759  0.000000  1
  Fe  Fe6  1  0.945011  0.945011  0.500000  1
  Ru  Ru7  1  0.376973  0.634177  0.000000  1
  Ru  Ru8  1  0.634177  0.376973  0.000000  1
