# generated using pymatgen
data_HfZr3(Ni3Pt)3
_symmetry_space_group_name_H-M   'P 1'
_cell_length_a   5.41838594
_cell_length_b   5.41838631
_cell_length_c   8.81901900
_cell_angle_alpha   90.00000000
_cell_angle_beta   90.00000000
_cell_angle_gamma   119.07560374
_symmetry_Int_Tables_number   1
_chemical_formula_structural   HfZr3(Ni3Pt)3
_chemical_formula_sum   'Hf1 Zr3 Ni9 Pt3'
_cell_volume   226.28787653
_cell_formula_units_Z   1
loop_
 _symmetry_equiv_pos_site_id
 _symmetry_equiv_pos_as_xyz
  1  'x, y, z'
loop_
 _atom_site_type_symbol
 _atom_site_label
 _atom_site_symmetry_multiplicity
 _atom_site_fract_x
 _atom_site_fract_y
 _atom_site_fract_z
 _atom_site_occupancy
  Hf  Hf0  1  0.674948  0.325052  0.750000  1
  Zr  Zr1  1  0.998077  0.001923  0.493592  1
  Zr  Zr2  1  0.998077  0.001923  0.006408  1
  Zr  Zr3  1  0.324804  0.675196  0.250000  1
  Ni  Ni4  1  0.504780  0.004109  0.497012  1
  Ni  Ni5  1  0.995891  0.495220  0.497012  1
  Ni  Ni6  1  0.504780  0.004109  0.002988  1
  Ni  Ni7  1  0.995891  0.495220  0.002988  1
  Ni  Ni8  1  0.824042  0.644187  0.250000  1
  Ni  Ni9  1  0.355813  0.175958  0.250000  1
  Ni  Ni10  1  0.819385  0.180615  0.250000  1
  Ni  Ni11  1  0.173126  0.345484  0.750000  1
  Ni  Ni12  1  0.654516  0.826874  0.750000  1
  Pt  Pt13  1  0.500316  0.499684  0.500140  1
  Pt  Pt14  1  0.500316  0.499684  0.999860  1
  Pt  Pt15  1  0.175240  0.824760  0.750000  1
