# generated using pymatgen
data_NdY2Be2(PPd5)4
_symmetry_space_group_name_H-M   'P 1'
_cell_length_a   8.69959602
_cell_length_b   8.62118724
_cell_length_c   8.62118827
_cell_angle_alpha   60.60263127
_cell_angle_beta   59.69868830
_cell_angle_gamma   59.69868128
_symmetry_Int_Tables_number   1
_chemical_formula_structural   NdY2Be2(PPd5)4
_chemical_formula_sum   'Nd1 Y2 Be2 P4 Pd20'
_cell_volume   457.13637862
_cell_formula_units_Z   1
loop_
 _symmetry_equiv_pos_site_id
 _symmetry_equiv_pos_as_xyz
  1  'x, y, z'
loop_
 _atom_site_type_symbol
 _atom_site_label
 _atom_site_symmetry_multiplicity
 _atom_site_fract_x
 _atom_site_fract_y
 _atom_site_fract_z
 _atom_site_occupancy
  Nd  Nd0  1  0.750000  0.750000  0.750000  1
  Y  Y1  1  0.250000  0.250000  0.250000  1
  Y  Y2  1  0.000000  0.000000  0.000000  1
  Be  Be3  1  0.733139  0.266861  0.266861  1
  Be  Be4  1  0.266861  0.733139  0.733139  1
  P  P5  1  0.265646  0.734354  0.265646  1
  P  P6  1  0.734354  0.265646  0.734354  1
  P  P7  1  0.265646  0.265646  0.734354  1
  P  P8  1  0.734354  0.734354  0.265646  1
  Pd  Pd9  1  0.387580  0.382660  0.382660  1
  Pd  Pd10  1  0.610358  0.615985  0.615985  1
  Pd  Pd11  1  0.382660  0.387580  0.847102  1
  Pd  Pd12  1  0.382660  0.847102  0.387580  1
  Pd  Pd13  1  0.615985  0.610358  0.157670  1
  Pd  Pd14  1  0.615985  0.157670  0.610358  1
  Pd  Pd15  1  0.847102  0.382660  0.382660  1
  Pd  Pd16  1  0.157670  0.615985  0.615985  1
  Pd  Pd17  1  0.343881  0.000697  0.000697  1
  Pd  Pd18  1  0.654725  0.000697  0.000697  1
  Pd  Pd19  1  0.000697  0.343881  0.654725  1
  Pd  Pd20  1  0.000697  0.654725  0.343881  1
  Pd  Pd21  1  0.997505  0.343181  0.003499  1
  Pd  Pd22  1  0.655816  0.003499  0.343181  1
  Pd  Pd23  1  0.003499  0.655816  0.997505  1
  Pd  Pd24  1  0.343181  0.997505  0.655816  1
  Pd  Pd25  1  0.997505  0.003499  0.343181  1
  Pd  Pd26  1  0.003499  0.997505  0.655816  1
  Pd  Pd27  1  0.655816  0.343181  0.003499  1
  Pd  Pd28  1  0.343181  0.655816  0.997505  1
