# generated using pymatgen
data_Yb2Al20Ir3Os
_symmetry_space_group_name_H-M   'P 1'
_cell_length_a   6.87250503
_cell_length_b   6.88335469
_cell_length_c   9.14790390
_cell_angle_alpha   89.92755395
_cell_angle_beta   89.86659647
_cell_angle_gamma   96.69615467
_symmetry_Int_Tables_number   1
_chemical_formula_structural   Yb2Al20Ir3Os
_chemical_formula_sum   'Yb2 Al20 Ir3 Os1'
_cell_volume   429.79604202
_cell_formula_units_Z   1
loop_
 _symmetry_equiv_pos_site_id
 _symmetry_equiv_pos_as_xyz
  1  'x, y, z'
loop_
 _atom_site_type_symbol
 _atom_site_label
 _atom_site_symmetry_multiplicity
 _atom_site_fract_x
 _atom_site_fract_y
 _atom_site_fract_z
 _atom_site_occupancy
  Yb  Yb0  1  0.627790  0.373947  0.749401  1
  Yb  Yb1  1  0.372210  0.626053  0.250599  1
  Al  Al2  1  0.276930  0.019174  0.750324  1
  Al  Al3  1  0.019353  0.279143  0.252216  1
  Al  Al4  1  0.723070  0.980826  0.249676  1
  Al  Al5  1  0.980647  0.720857  0.747784  1
  Al  Al6  1  0.877897  0.122668  0.951098  1
  Al  Al7  1  0.122103  0.877332  0.048902  1
  Al  Al8  1  0.878524  0.124568  0.547927  1
  Al  Al9  1  0.121476  0.875432  0.452073  1
  Al  Al10  1  0.648126  0.916166  0.749739  1
  Al  Al11  1  0.916563  0.647230  0.250793  1
  Al  Al12  1  0.351874  0.083834  0.250261  1
  Al  Al13  1  0.083437  0.352770  0.749207  1
  Al  Al14  1  0.344586  0.655903  0.897104  1
  Al  Al15  1  0.655414  0.344097  0.102896  1
  Al  Al16  1  0.343180  0.654866  0.601022  1
  Al  Al17  1  0.656820  0.345134  0.398978  1
  Al  Al18  1  0.723272  0.722783  0.000261  1
  Al  Al19  1  0.723316  0.721590  0.501159  1
  Al  Al20  1  0.276728  0.277217  0.999739  1
  Al  Al21  1  0.276684  0.278410  0.498841  1
  Ir  Ir22  1  0.500000  0.000000  0.000000  1
  Ir  Ir23  1  0.000000  0.500000  0.000000  1
  Ir  Ir24  1  0.500000  0.000000  0.500000  1
  Os  Os25  1  0.000000  0.500000  0.500000  1
