# generated using pymatgen
data_Ho2Pa3Al4Ga11
_symmetry_space_group_name_H-M   'P 1'
_cell_length_a   12.45866424
_cell_length_b   12.46133923
_cell_length_c   12.46133895
_cell_angle_alpha   28.56493612
_cell_angle_beta   28.53779260
_cell_angle_gamma   28.53779619
_symmetry_Int_Tables_number   1
_chemical_formula_structural   Ho2Pa3Al4Ga11
_chemical_formula_sum   'Ho2 Pa3 Al4 Ga11'
_cell_volume   390.52209280
_cell_formula_units_Z   1
loop_
 _symmetry_equiv_pos_site_id
 _symmetry_equiv_pos_as_xyz
  1  'x, y, z'
loop_
 _atom_site_type_symbol
 _atom_site_label
 _atom_site_symmetry_multiplicity
 _atom_site_fract_x
 _atom_site_fract_y
 _atom_site_fract_z
 _atom_site_occupancy
  Ho  Ho0  1  0.401661  0.400742  0.400742  1
  Ho  Ho1  1  0.598860  0.598940  0.598940  1
  Pa  Pa2  1  0.128983  0.131974  0.131974  1
  Pa  Pa3  1  0.869572  0.869438  0.869438  1
  Pa  Pa4  1  0.999160  0.999867  0.999867  1
  Al  Al5  1  0.437990  0.879430  0.879430  1
  Al  Al6  1  0.499251  0.501009  0.000076  1
  Al  Al7  1  0.499251  0.000076  0.501009  1
  Al  Al8  1  0.999433  0.500196  0.500196  1
  Ga  Ga9  1  0.882841  0.881108  0.432195  1
  Ga  Ga10  1  0.882841  0.432195  0.881108  1
  Ga  Ga11  1  0.118629  0.566224  0.118875  1
  Ga  Ga12  1  0.118629  0.118875  0.566224  1
  Ga  Ga13  1  0.566149  0.118821  0.118821  1
  Ga  Ga14  1  0.127398  0.636228  0.636228  1
  Ga  Ga15  1  0.634431  0.637216  0.127299  1
  Ga  Ga16  1  0.634431  0.127299  0.637216  1
  Ga  Ga17  1  0.364634  0.871154  0.364564  1
  Ga  Ga18  1  0.364634  0.364564  0.871154  1
  Ga  Ga19  1  0.871222  0.364645  0.364645  1
