# generated using pymatgen
data_Tb9Ho11(Bi2P)4
_symmetry_space_group_name_H-M   'P 1'
_cell_length_a   7.99885010
_cell_length_b   8.97685601
_cell_length_c   12.17584016
_cell_angle_alpha   89.99420836
_cell_angle_beta   89.98210074
_cell_angle_gamma   90.00080916
_symmetry_Int_Tables_number   1
_chemical_formula_structural   Tb9Ho11(Bi2P)4
_chemical_formula_sum   'Tb9 Ho11 Bi8 P4'
_cell_volume   874.28037939
_cell_formula_units_Z   1
loop_
 _symmetry_equiv_pos_site_id
 _symmetry_equiv_pos_as_xyz
  1  'x, y, z'
loop_
 _atom_site_type_symbol
 _atom_site_label
 _atom_site_symmetry_multiplicity
 _atom_site_fract_x
 _atom_site_fract_y
 _atom_site_fract_z
 _atom_site_occupancy
  Tb  Tb0  1  0.850184  0.749935  0.793934  1
  Tb  Tb1  1  0.149965  0.250091  0.206190  1
  Tb  Tb2  1  0.350111  0.250144  0.706252  1
  Tb  Tb3  1  0.649925  0.750078  0.293770  1
  Tb  Tb4  1  0.375476  0.750063  0.700188  1
  Tb  Tb5  1  0.624478  0.250052  0.299731  1
  Tb  Tb6  1  0.875653  0.250214  0.800131  1
  Tb  Tb7  1  0.124597  0.750007  0.200090  1
  Tb  Tb8  1  0.682940  0.049851  0.563811  1
  Ho  Ho9  1  0.958478  0.749981  0.501990  1
  Ho  Ho10  1  0.041924  0.250019  0.497812  1
  Ho  Ho11  1  0.458300  0.250070  0.998028  1
  Ho  Ho12  1  0.541632  0.749961  0.002044  1
  Ho  Ho13  1  0.317878  0.949350  0.436305  1
  Ho  Ho14  1  0.182123  0.949320  0.936329  1
  Ho  Ho15  1  0.317609  0.550572  0.436320  1
  Ho  Ho16  1  0.817944  0.050596  0.063674  1
  Ho  Ho17  1  0.682249  0.449685  0.563773  1
  Ho  Ho18  1  0.817867  0.449457  0.063745  1
  Ho  Ho19  1  0.182111  0.550711  0.936291  1
  Bi  Bi20  1  0.576525  0.490646  0.827537  1
  Bi  Bi21  1  0.423463  0.509394  0.172439  1
  Bi  Bi22  1  0.076588  0.509394  0.672459  1
  Bi  Bi23  1  0.423453  0.990666  0.172407  1
  Bi  Bi24  1  0.923479  0.490723  0.327490  1
  Bi  Bi25  1  0.576412  0.009399  0.827794  1
  Bi  Bi26  1  0.923467  0.009414  0.327304  1
  Bi  Bi27  1  0.076708  0.990704  0.672595  1
  P  P28  1  0.574718  0.748645  0.512746  1
  P  P29  1  0.423796  0.250860  0.486715  1
  P  P30  1  0.075393  0.250036  0.987006  1
  P  P31  1  0.924554  0.749961  0.013101  1
