# generated using pymatgen
data_Sr4HoNb2InO12
_symmetry_space_group_name_H-M   'P 1'
_cell_length_a   5.82856175
_cell_length_b   5.89850067
_cell_length_c   8.26854012
_cell_angle_alpha   89.85546619
_cell_angle_beta   90.15974443
_cell_angle_gamma   90.00280254
_symmetry_Int_Tables_number   1
_chemical_formula_structural   Sr4HoNb2InO12
_chemical_formula_sum   'Sr4 Ho1 Nb2 In1 O12'
_cell_volume   284.26854289
_cell_formula_units_Z   1
loop_
 _symmetry_equiv_pos_site_id
 _symmetry_equiv_pos_as_xyz
  1  'x, y, z'
loop_
 _atom_site_type_symbol
 _atom_site_label
 _atom_site_symmetry_multiplicity
 _atom_site_fract_x
 _atom_site_fract_y
 _atom_site_fract_z
 _atom_site_occupancy
  Sr  Sr0  1  0.991797  0.466361  0.252560  1
  Sr  Sr1  1  0.507100  0.964214  0.253269  1
  Sr  Sr2  1  0.492900  0.035786  0.746731  1
  Sr  Sr3  1  0.008202  0.533639  0.747440  1
  Ho  Ho4  1  0.000000  0.000000  0.000000  1
  Nb  Nb5  1  0.500001  0.500000  0.000000  1
  Nb  Nb6  1  0.000001  0.000000  0.500000  1
  In  In7  1  0.500000  0.500000  0.500000  1
  O  O8  1  0.775598  0.698873  0.040399  1
  O  O9  1  0.696855  0.223646  0.042827  1
  O  O10  1  0.422183  0.520758  0.239834  1
  O  O11  1  0.078069  0.020856  0.263620  1
  O  O12  1  0.797822  0.724445  0.457724  1
  O  O13  1  0.724986  0.204285  0.460703  1
  O  O14  1  0.275016  0.795715  0.539297  1
  O  O15  1  0.202179  0.275555  0.542275  1
  O  O16  1  0.921931  0.979144  0.736380  1
  O  O17  1  0.577817  0.479242  0.760166  1
  O  O18  1  0.303146  0.776354  0.957172  1
  O  O19  1  0.224404  0.301127  0.959601  1
