# generated using pymatgen
data_Cs2NiSe16
_symmetry_space_group_name_H-M   'P 1'
_cell_length_a   12.84877200
_cell_length_b   12.84877200
_cell_length_c   7.23795400
_cell_angle_alpha   90.00000000
_cell_angle_beta   90.00000000
_cell_angle_gamma   90.00000000
_symmetry_Int_Tables_number   1
_chemical_formula_structural   Cs2NiSe16
_chemical_formula_sum   'Cs4 Ni2 Se32'
_cell_volume   1194.92064335
_cell_formula_units_Z   2
loop_
 _symmetry_equiv_pos_site_id
 _symmetry_equiv_pos_as_xyz
  1  'x, y, z'
loop_
 _atom_site_type_symbol
 _atom_site_label
 _atom_site_symmetry_multiplicity
 _atom_site_fract_x
 _atom_site_fract_y
 _atom_site_fract_z
 _atom_site_occupancy
  Cs  Cs0  1  0.500000  0.000000  0.000000  1
  Cs  Cs1  1  0.000000  0.500000  0.000000  1
  Cs  Cs2  1  0.500000  0.500000  0.500000  1
  Cs  Cs3  1  0.000000  0.000000  0.500000  1
  Ni  Ni4  1  0.000000  0.000000  0.000000  1
  Ni  Ni5  1  0.500000  0.500000  0.000000  1
  Se  Se6  1  0.192914  0.422350  0.583039  1
  Se  Se7  1  0.807086  0.577650  0.583039  1
  Se  Se8  1  0.577650  0.192914  0.416961  1
  Se  Se9  1  0.422350  0.807086  0.416961  1
  Se  Se10  1  0.307086  0.922350  0.583039  1
  Se  Se11  1  0.077650  0.307086  0.416961  1
  Se  Se12  1  0.823478  0.966718  0.967660  1
  Se  Se13  1  0.033282  0.823478  0.032340  1
  Se  Se14  1  0.966718  0.176522  0.032340  1
  Se  Se15  1  0.176522  0.033282  0.967660  1
  Se  Se16  1  0.533282  0.676522  0.032340  1
  Se  Se17  1  0.466718  0.323478  0.032340  1
  Se  Se18  1  0.676522  0.466718  0.967660  1
  Se  Se19  1  0.323478  0.533282  0.967660  1
  Se  Se20  1  0.789787  0.203128  0.127214  1
  Se  Se21  1  0.796872  0.789787  0.872786  1
  Se  Se22  1  0.203128  0.210213  0.872786  1
  Se  Se23  1  0.210213  0.796872  0.127214  1
  Se  Se24  1  0.296872  0.710213  0.872786  1
  Se  Se25  1  0.703128  0.289787  0.872786  1
  Se  Se26  1  0.710213  0.703128  0.127214  1
  Se  Se27  1  0.289787  0.296872  0.127214  1
  Se  Se28  1  0.918381  0.306429  0.588070  1
  Se  Se29  1  0.693571  0.918381  0.411930  1
  Se  Se30  1  0.306429  0.081619  0.411930  1
  Se  Se31  1  0.081619  0.693571  0.588070  1
  Se  Se32  1  0.193571  0.581619  0.411930  1
  Se  Se33  1  0.806429  0.418381  0.411930  1
  Se  Se34  1  0.581619  0.806429  0.588070  1
  Se  Se35  1  0.418381  0.193571  0.588070  1
  Se  Se36  1  0.692914  0.077650  0.583039  1
  Se  Se37  1  0.922350  0.692914  0.416961  1
