# generated using pymatgen
data_Nd6Fe3Co14MoP12
_symmetry_space_group_name_H-M   'P 1'
_cell_length_a   3.78391400
_cell_length_b   10.71089400
_cell_length_c   12.37040900
_cell_angle_alpha   90.00000000
_cell_angle_beta   90.00000000
_cell_angle_gamma   90.00000000
_symmetry_Int_Tables_number   1
_chemical_formula_structural   Nd6Fe3Co14MoP12
_chemical_formula_sum   'Nd6 Fe3 Co14 Mo1 P12'
_cell_volume   501.36156516
_cell_formula_units_Z   1
loop_
 _symmetry_equiv_pos_site_id
 _symmetry_equiv_pos_as_xyz
  1  'x, y, z'
loop_
 _atom_site_type_symbol
 _atom_site_label
 _atom_site_symmetry_multiplicity
 _atom_site_fract_x
 _atom_site_fract_y
 _atom_site_fract_z
 _atom_site_occupancy
  Nd  Nd0  1  0.000000  0.500000  0.524223  1
  Nd  Nd1  1  0.500000  0.000000  0.479280  1
  Nd  Nd2  1  0.500000  0.819347  0.205038  1
  Nd  Nd3  1  0.500000  0.180653  0.205038  1
  Nd  Nd4  1  0.000000  0.681431  0.796005  1
  Nd  Nd5  1  0.000000  0.318569  0.796005  1
  Fe  Fe6  1  0.000000  0.000000  0.846842  1
  Fe  Fe7  1  0.000000  0.500000  0.987169  1
  Fe  Fe8  1  0.500000  0.000000  0.009992  1
  Co  Co9  1  0.500000  0.500000  0.700191  1
  Co  Co10  1  0.000000  0.000000  0.298258  1
  Co  Co11  1  0.500000  0.330532  0.992414  1
  Co  Co12  1  0.500000  0.669468  0.992414  1
  Co  Co13  1  0.000000  0.167168  0.004681  1
  Co  Co14  1  0.000000  0.832832  0.004681  1
  Co  Co15  1  0.500000  0.295697  0.431112  1
  Co  Co16  1  0.500000  0.704303  0.431112  1
  Co  Co17  1  0.000000  0.203901  0.569621  1
  Co  Co18  1  0.000000  0.796099  0.569621  1
  Co  Co19  1  0.500000  0.880896  0.709839  1
  Co  Co20  1  0.500000  0.119104  0.709839  1
  Co  Co21  1  0.000000  0.619750  0.291197  1
  Co  Co22  1  0.000000  0.380250  0.291197  1
  Mo  Mo23  1  0.500000  0.500000  0.153381  1
  P  P24  1  0.500000  0.500000  0.886485  1
  P  P25  1  0.000000  0.000000  0.111510  1
  P  P26  1  0.500000  0.500000  0.344419  1
  P  P27  1  0.000000  0.000000  0.663920  1
  P  P28  1  0.500000  0.304805  0.615113  1
  P  P29  1  0.500000  0.695195  0.615113  1
  P  P30  1  0.000000  0.193875  0.386109  1
  P  P31  1  0.000000  0.806125  0.386109  1
  P  P32  1  0.500000  0.849519  0.894382  1
  P  P33  1  0.500000  0.150481  0.894382  1
  P  P34  1  0.000000  0.653677  0.101654  1
  P  P35  1  0.000000  0.346323  0.101654  1
