# generated using pymatgen
data_TbDy3Al24Pt7Au2
_symmetry_space_group_name_H-M   'P 1'
_cell_length_a   7.56711139
_cell_length_b   7.58386224
_cell_length_c   13.15985803
_cell_angle_alpha   84.53105575
_cell_angle_beta   78.98323368
_cell_angle_gamma   59.92708948
_symmetry_Int_Tables_number   1
_chemical_formula_structural   TbDy3Al24Pt7Au2
_chemical_formula_sum   'Tb1 Dy3 Al24 Pt7 Au2'
_cell_volume   641.51179815
_cell_formula_units_Z   1
loop_
 _symmetry_equiv_pos_site_id
 _symmetry_equiv_pos_as_xyz
  1  'x, y, z'
loop_
 _atom_site_type_symbol
 _atom_site_label
 _atom_site_symmetry_multiplicity
 _atom_site_fract_x
 _atom_site_fract_y
 _atom_site_fract_z
 _atom_site_occupancy
  Tb  Tb0  1  0.392362  0.169445  0.809258  1
  Dy  Dy1  1  0.607625  0.830554  0.190775  1
  Dy  Dy2  1  0.733691  0.498986  0.810055  1
  Dy  Dy3  1  0.266306  0.501017  0.189944  1
  Al  Al4  1  0.683181  0.834312  0.945010  1
  Al  Al5  1  0.316845  0.165650  0.055027  1
  Al  Al6  1  0.145915  0.839067  0.562259  1
  Al  Al7  1  0.854086  0.160933  0.437744  1
  Al  Al8  1  0.487907  0.159495  0.559586  1
  Al  Al9  1  0.512097  0.840503  0.440403  1
  Al  Al10  1  0.222806  0.160523  0.326470  1
  Al  Al11  1  0.777243  0.839436  0.673510  1
  Al  Al12  1  0.440381  0.506634  0.673722  1
  Al  Al13  1  0.559626  0.493409  0.326260  1
  Al  Al14  1  0.109304  0.154671  0.672461  1
  Al  Al15  1  0.890663  0.845325  0.327519  1
  Al  Al16  1  0.352929  0.499142  0.944726  1
  Al  Al17  1  0.647067  0.500898  0.055291  1
  Al  Al18  1  0.015417  0.167270  0.953656  1
  Al  Al19  1  0.984540  0.832731  0.046361  1
  Al  Al20  1  0.195205  0.499332  0.437433  1
  Al  Al21  1  0.804793  0.500671  0.562569  1
  Al  Al22  1  0.732653  0.164686  0.183277  1
  Al  Al23  1  0.267333  0.835278  0.816722  1
  Al  Al24  1  0.060370  0.633757  0.817696  1
  Al  Al25  1  0.939599  0.366291  0.182304  1
  Al  Al26  1  0.854349  0.042265  0.816227  1
  Al  Al27  1  0.145698  0.957722  0.183773  1
  Pt  Pt28  1  0.657421  0.171644  0.999768  1
  Pt  Pt29  1  0.342588  0.828344  0.000252  1
  Pt  Pt30  1  0.537304  0.166819  0.362195  1
  Pt  Pt31  1  0.462701  0.833141  0.637786  1
  Pt  Pt32  1  0.779947  0.175195  0.636569  1
  Pt  Pt33  1  0.220097  0.824806  0.363406  1
  Pt  Pt34  1  0.999982  0.500016  0.000010  1
  Au  Au35  1  0.120172  0.490774  0.637876  1
  Au  Au36  1  0.879798  0.509263  0.362102  1
