# generated using pymatgen
data_Zn3CoP4(PbO8)2
_symmetry_space_group_name_H-M   'P 1'
_cell_length_a   5.12243420
_cell_length_b   8.73500284
_cell_length_c   9.44264852
_cell_angle_alpha   113.70252041
_cell_angle_beta   102.48565521
_cell_angle_gamma   92.67557173
_symmetry_Int_Tables_number   1
_chemical_formula_structural   Zn3CoP4(PbO8)2
_chemical_formula_sum   'Zn3 Co1 P4 Pb2 O16'
_cell_volume   373.47564353
_cell_formula_units_Z   1
loop_
 _symmetry_equiv_pos_site_id
 _symmetry_equiv_pos_as_xyz
  1  'x, y, z'
loop_
 _atom_site_type_symbol
 _atom_site_label
 _atom_site_symmetry_multiplicity
 _atom_site_fract_x
 _atom_site_fract_y
 _atom_site_fract_z
 _atom_site_occupancy
  Zn  Zn0  1  0.389889  0.610326  0.414170  1
  Zn  Zn1  1  0.843271  0.082986  0.297923  1
  Zn  Zn2  1  0.157092  0.916588  0.701953  1
  Co  Co3  1  0.613196  0.389465  0.583742  1
  P  P4  1  0.897225  0.722287  0.314370  1
  P  P5  1  0.103172  0.277334  0.685830  1
  P  P6  1  0.315621  0.212530  0.193856  1
  P  P7  1  0.684142  0.787503  0.806411  1
  Pb  Pb8  1  0.774556  0.269050  0.958961  1
  Pb  Pb9  1  0.223920  0.730894  0.039675  1
  O  O10  1  0.025084  0.433406  0.812626  1
  O  O11  1  0.968930  0.565715  0.185269  1
  O  O12  1  0.453343  0.061470  0.205259  1
  O  O13  1  0.546626  0.938682  0.795020  1
  O  O14  1  0.079352  0.732982  0.478503  1
  O  O15  1  0.921886  0.264740  0.520846  1
  O  O16  1  0.012970  0.118531  0.708072  1
  O  O17  1  0.987486  0.881069  0.292252  1
  O  O18  1  0.423813  0.368313  0.362148  1
  O  O19  1  0.577099  0.631488  0.638611  1
  O  O20  1  0.638615  0.740590  0.939598  1
  O  O21  1  0.361382  0.260569  0.061396  1
  O  O22  1  0.406175  0.290731  0.688435  1
  O  O23  1  0.595015  0.712472  0.314515  1
  O  O24  1  0.996119  0.833333  0.835570  1
  O  O25  1  0.004018  0.166947  0.164988  1
