# generated using pymatgen
data_Dy12Ni4HgRu
_symmetry_space_group_name_H-M   'P 1'
_cell_length_a   8.29648729
_cell_length_b   8.29616931
_cell_length_c   8.29648759
_cell_angle_alpha   110.98074849
_cell_angle_beta   109.47236292
_cell_angle_gamma   107.97603091
_symmetry_Int_Tables_number   1
_chemical_formula_structural   Dy12Ni4HgRu
_chemical_formula_sum   'Dy12 Ni4 Hg1 Ru1'
_cell_volume   439.27574724
_cell_formula_units_Z   1
loop_
 _symmetry_equiv_pos_site_id
 _symmetry_equiv_pos_as_xyz
  1  'x, y, z'
loop_
 _atom_site_type_symbol
 _atom_site_label
 _atom_site_symmetry_multiplicity
 _atom_site_fract_x
 _atom_site_fract_y
 _atom_site_fract_z
 _atom_site_occupancy
  Dy  Dy0  1  0.036411  0.724723  0.311653  1
  Dy  Dy1  1  0.963589  0.275277  0.688347  1
  Dy  Dy2  1  0.586931  0.275277  0.311688  1
  Dy  Dy3  1  0.413069  0.724723  0.688312  1
  Dy  Dy4  1  0.675591  0.869870  0.194278  1
  Dy  Dy5  1  0.324405  0.518645  0.194240  1
  Dy  Dy6  1  0.324410  0.130130  0.805722  1
  Dy  Dy7  1  0.675596  0.481355  0.805760  1
  Dy  Dy8  1  0.177567  0.218858  0.396456  1
  Dy  Dy9  1  0.822401  0.218858  0.041289  1
  Dy  Dy10  1  0.177599  0.781142  0.958711  1
  Dy  Dy11  1  0.822433  0.781142  0.603544  1
  Ni  Ni12  1  0.643990  0.500000  0.143990  1
  Ni  Ni13  1  0.356010  0.500000  0.856010  1
  Ni  Ni14  1  0.880238  0.880244  0.000005  1
  Ni  Ni15  1  0.119762  0.119756  0.999995  1
  Hg  Hg16  1  0.500000  0.000000  0.500000  1
  Ru  Ru17  1  0.000000  0.500000  0.500000  1
