# generated using pymatgen
data_Dy8Ni2AgHg
_symmetry_space_group_name_H-M   'P 1'
_cell_length_a   9.48074694
_cell_length_b   9.48074615
_cell_length_c   9.45706700
_cell_angle_alpha   60.08258924
_cell_angle_beta   60.08259197
_cell_angle_gamma   60.04499156
_symmetry_Int_Tables_number   1
_chemical_formula_structural   Dy8Ni2AgHg
_chemical_formula_sum   'Dy16 Ni4 Ag2 Hg2'
_cell_volume   602.02619638
_cell_formula_units_Z   2
loop_
 _symmetry_equiv_pos_site_id
 _symmetry_equiv_pos_as_xyz
  1  'x, y, z'
loop_
 _atom_site_type_symbol
 _atom_site_label
 _atom_site_symmetry_multiplicity
 _atom_site_fract_x
 _atom_site_fract_y
 _atom_site_fract_z
 _atom_site_occupancy
  Dy  Dy0  1  0.599469  0.599469  0.599360  1
  Dy  Dy1  1  0.599469  0.599469  0.201705  1
  Dy  Dy2  1  0.600892  0.198647  0.600231  1
  Dy  Dy3  1  0.198647  0.600892  0.600231  1
  Dy  Dy4  1  0.061318  0.439138  0.439733  1
  Dy  Dy5  1  0.439138  0.061318  0.059811  1
  Dy  Dy6  1  0.439138  0.061318  0.439733  1
  Dy  Dy7  1  0.061318  0.439138  0.059811  1
  Dy  Dy8  1  0.440388  0.440388  0.059612  1
  Dy  Dy9  1  0.061792  0.061792  0.438208  1
  Dy  Dy10  1  0.183953  0.813686  0.814473  1
  Dy  Dy11  1  0.813686  0.183953  0.187887  1
  Dy  Dy12  1  0.813686  0.183953  0.814473  1
  Dy  Dy13  1  0.183953  0.813686  0.187887  1
  Dy  Dy14  1  0.813564  0.813564  0.186436  1
  Dy  Dy15  1  0.186204  0.186204  0.813796  1
  Ni  Ni16  1  0.392972  0.392972  0.393466  1
  Ni  Ni17  1  0.392972  0.392972  0.820591  1
  Ni  Ni18  1  0.391943  0.822134  0.392962  1
  Ni  Ni19  1  0.822134  0.391943  0.392962  1
  Ag  Ag20  1  0.834102  0.834102  0.831236  1
  Ag  Ag21  1  0.834102  0.834102  0.500560  1
  Hg  Hg22  1  0.836426  0.498735  0.832419  1
  Hg  Hg23  1  0.498735  0.836426  0.832419  1
