# generated using pymatgen
data_Nd2Lu3Tl4
_symmetry_space_group_name_H-M   'P 1'
_cell_length_a   7.97931200
_cell_length_b   8.23417200
_cell_length_c   15.84223700
_cell_angle_alpha   90.00000000
_cell_angle_beta   90.00000000
_cell_angle_gamma   90.00000000
_symmetry_Int_Tables_number   1
_chemical_formula_structural   Nd2Lu3Tl4
_chemical_formula_sum   'Nd8 Lu12 Tl16'
_cell_volume   1040.88293248
_cell_formula_units_Z   4
loop_
 _symmetry_equiv_pos_site_id
 _symmetry_equiv_pos_as_xyz
  1  'x, y, z'
loop_
 _atom_site_type_symbol
 _atom_site_label
 _atom_site_symmetry_multiplicity
 _atom_site_fract_x
 _atom_site_fract_y
 _atom_site_fract_z
 _atom_site_occupancy
  Nd  Nd0  1  0.496112  0.682079  0.595435  1
  Nd  Nd1  1  0.996112  0.817921  0.904565  1
  Nd  Nd2  1  0.503888  0.317921  0.095435  1
  Nd  Nd3  1  0.003888  0.182079  0.404565  1
  Nd  Nd4  1  0.503888  0.317921  0.404565  1
  Nd  Nd5  1  0.003888  0.182079  0.095435  1
  Nd  Nd6  1  0.496112  0.682079  0.904565  1
  Nd  Nd7  1  0.996112  0.817921  0.595435  1
  Lu  Lu8  1  0.656382  0.161237  0.624607  1
  Lu  Lu9  1  0.156382  0.338763  0.875393  1
  Lu  Lu10  1  0.343618  0.838763  0.124607  1
  Lu  Lu11  1  0.843618  0.661237  0.375393  1
  Lu  Lu12  1  0.343618  0.838763  0.375393  1
  Lu  Lu13  1  0.843618  0.661237  0.124607  1
  Lu  Lu14  1  0.656382  0.161237  0.875393  1
  Lu  Lu15  1  0.156382  0.338763  0.624607  1
  Lu  Lu16  1  0.821592  0.497526  0.750000  1
  Lu  Lu17  1  0.321592  0.002474  0.750000  1
  Lu  Lu18  1  0.178408  0.502474  0.250000  1
  Lu  Lu19  1  0.678408  0.997526  0.250000  1
  Tl  Tl20  1  0.683983  0.959455  0.459800  1
  Tl  Tl21  1  0.183983  0.540545  0.040200  1
  Tl  Tl22  1  0.316017  0.040545  0.959800  1
  Tl  Tl23  1  0.816017  0.459455  0.540200  1
  Tl  Tl24  1  0.316017  0.040545  0.540200  1
  Tl  Tl25  1  0.816017  0.459455  0.959800  1
  Tl  Tl26  1  0.683983  0.959455  0.040200  1
  Tl  Tl27  1  0.183983  0.540545  0.459800  1
  Tl  Tl28  1  0.460748  0.376804  0.750000  1
  Tl  Tl29  1  0.960748  0.123196  0.750000  1
  Tl  Tl30  1  0.539252  0.623196  0.250000  1
  Tl  Tl31  1  0.039252  0.876804  0.250000  1
  Tl  Tl32  1  0.693186  0.858823  0.750000  1
  Tl  Tl33  1  0.193186  0.641177  0.750000  1
  Tl  Tl34  1  0.306814  0.141177  0.250000  1
  Tl  Tl35  1  0.806814  0.358823  0.250000  1
