# generated using pymatgen
data_Y3Ho(TmPt)4
_symmetry_space_group_name_H-M   'P 1'
_cell_length_a   4.75457600
_cell_length_b   7.12780472
_cell_length_c   8.71337600
_cell_angle_alpha   89.91036434
_cell_angle_beta   90.00000000
_cell_angle_gamma   90.00000000
_symmetry_Int_Tables_number   1
_chemical_formula_structural   Y3Ho(TmPt)4
_chemical_formula_sum   'Y3 Ho1 Tm4 Pt4'
_cell_volume   295.29324374
_cell_formula_units_Z   1
loop_
 _symmetry_equiv_pos_site_id
 _symmetry_equiv_pos_as_xyz
  1  'x, y, z'
loop_
 _atom_site_type_symbol
 _atom_site_label
 _atom_site_symmetry_multiplicity
 _atom_site_fract_x
 _atom_site_fract_y
 _atom_site_fract_z
 _atom_site_occupancy
  Y  Y0  1  0.250000  0.489987  0.170565  1
  Y  Y1  1  0.750000  0.009561  0.670751  1
  Y  Y2  1  0.750000  0.509773  0.829716  1
  Ho  Ho3  1  0.250000  0.990524  0.330927  1
  Tm  Tm4  1  0.250000  0.856394  0.921306  1
  Tm  Tm5  1  0.250000  0.356235  0.578651  1
  Tm  Tm6  1  0.750000  0.143234  0.079079  1
  Tm  Tm7  1  0.750000  0.644143  0.421009  1
  Pt  Pt8  1  0.250000  0.253516  0.906618  1
  Pt  Pt9  1  0.250000  0.754628  0.591933  1
  Pt  Pt10  1  0.750000  0.746739  0.093410  1
  Pt  Pt11  1  0.750000  0.245266  0.406034  1
