# generated using pymatgen
data_Tb8Zr3Si16Mo9
_symmetry_space_group_name_H-M   'P 1'
_cell_length_a   7.00910359
_cell_length_b   7.00910364
_cell_length_c   12.97307387
_cell_angle_alpha   89.90687033
_cell_angle_beta   90.09313262
_cell_angle_gamma   89.89757451
_symmetry_Int_Tables_number   1
_chemical_formula_structural   Tb8Zr3Si16Mo9
_chemical_formula_sum   'Tb8 Zr3 Si16 Mo9'
_cell_volume   637.33241506
_cell_formula_units_Z   1
loop_
 _symmetry_equiv_pos_site_id
 _symmetry_equiv_pos_as_xyz
  1  'x, y, z'
loop_
 _atom_site_type_symbol
 _atom_site_label
 _atom_site_symmetry_multiplicity
 _atom_site_fract_x
 _atom_site_fract_y
 _atom_site_fract_z
 _atom_site_occupancy
  Tb  Tb0  1  0.999718  0.337437  0.216494  1
  Tb  Tb1  1  0.004962  0.660964  0.720456  1
  Tb  Tb2  1  0.161132  0.496862  0.468284  1
  Tb  Tb3  1  0.500590  0.840870  0.031064  1
  Tb  Tb4  1  0.840870  0.500590  0.968936  1
  Tb  Tb5  1  0.496862  0.161132  0.531716  1
  Tb  Tb6  1  0.337437  0.999718  0.783506  1
  Tb  Tb7  1  0.660964  0.004962  0.279544  1
  Zr  Zr8  1  0.832042  0.832042  0.500000  1
  Zr  Zr9  1  0.329857  0.669040  0.247474  1
  Zr  Zr10  1  0.669040  0.329857  0.752526  1
  Si  Si11  1  0.371911  0.293659  0.316941  1
  Si  Si12  1  0.626358  0.707442  0.817368  1
  Si  Si13  1  0.205905  0.873002  0.567938  1
  Si  Si14  1  0.124575  0.804154  0.934903  1
  Si  Si15  1  0.804154  0.124575  0.065097  1
  Si  Si16  1  0.873002  0.205905  0.432062  1
  Si  Si17  1  0.293659  0.371911  0.683059  1
  Si  Si18  1  0.707442  0.626358  0.182632  1
  Si  Si19  1  0.286734  0.047978  0.182938  1
  Si  Si20  1  0.709581  0.957025  0.689429  1
  Si  Si21  1  0.455754  0.789973  0.438282  1
  Si  Si22  1  0.212290  0.532689  0.057734  1
  Si  Si23  1  0.532689  0.212290  0.942266  1
  Si  Si24  1  0.789973  0.455754  0.561718  1
  Si  Si25  1  0.047978  0.286734  0.817062  1
  Si  Si26  1  0.957025  0.709581  0.310571  1
  Mo  Mo27  1  0.167467  0.167467  0.000000  1
  Mo  Mo28  1  0.160875  0.995731  0.375104  1
  Mo  Mo29  1  0.834142  0.003718  0.877722  1
  Mo  Mo30  1  0.505427  0.660078  0.626653  1
  Mo  Mo31  1  0.342463  0.497595  0.874006  1
  Mo  Mo32  1  0.497595  0.342463  0.125994  1
  Mo  Mo33  1  0.660078  0.505427  0.373347  1
  Mo  Mo34  1  0.995731  0.160875  0.624896  1
  Mo  Mo35  1  0.003718  0.834142  0.122278  1
