# generated using pymatgen
data_NaLa(BrO3)4
_symmetry_space_group_name_H-M   'P 1'
_cell_length_a   7.14630198
_cell_length_b   7.00488172
_cell_length_c   7.31212800
_cell_angle_alpha   77.02094798
_cell_angle_beta   73.16607410
_cell_angle_gamma   116.62745819
_symmetry_Int_Tables_number   1
_chemical_formula_structural   NaLa(BrO3)4
_chemical_formula_sum   'Na1 La1 Br4 O12'
_cell_volume   285.06695744
_cell_formula_units_Z   1
loop_
 _symmetry_equiv_pos_site_id
 _symmetry_equiv_pos_as_xyz
  1  'x, y, z'
loop_
 _atom_site_type_symbol
 _atom_site_label
 _atom_site_symmetry_multiplicity
 _atom_site_fract_x
 _atom_site_fract_y
 _atom_site_fract_z
 _atom_site_occupancy
  Na  Na0  1  0.611232  0.390317  0.999234  1
  La  La1  1  0.375241  0.621705  0.493308  1
  Br  Br2  1  0.421955  0.820240  0.941756  1
  Br  Br3  1  0.749244  0.395149  0.462525  1
  Br  Br4  1  0.987106  0.087429  0.026455  1
  Br  Br5  1  0.101936  0.954551  0.526922  1
  O  O6  1  0.455983  0.648664  0.117221  1
  O  O7  1  0.586789  0.454161  0.632432  1
  O  O8  1  0.762589  0.535960  0.237495  1
  O  O9  1  0.539023  0.799696  0.715877  1
  O  O10  1  0.624854  0.092371  0.891136  1
  O  O11  1  0.019279  0.564242  0.444909  1
  O  O12  1  0.083853  0.370784  0.889410  1
  O  O13  1  0.371020  0.002104  0.400321  1
  O  O14  1  0.011886  0.779587  0.773164  1
  O  O15  1  0.770425  0.003586  0.262657  1
  O  O16  1  0.200421  0.104185  0.086444  1
  O  O17  1  0.169767  0.217870  0.531338  1
