# generated using pymatgen
data_RbBa4Fe8(NiP5)2
_symmetry_space_group_name_H-M   'P 1'
_cell_length_a   8.78564681
_cell_length_b   8.75344901
_cell_length_c   8.76948441
_cell_angle_alpha   121.87437126
_cell_angle_beta   121.88814317
_cell_angle_gamma   86.68259803
_symmetry_Int_Tables_number   1
_chemical_formula_structural   RbBa4Fe8(NiP5)2
_chemical_formula_sum   'Rb1 Ba4 Fe8 Ni2 P10'
_cell_volume   462.86111229
_cell_formula_units_Z   1
loop_
 _symmetry_equiv_pos_site_id
 _symmetry_equiv_pos_as_xyz
  1  'x, y, z'
loop_
 _atom_site_type_symbol
 _atom_site_label
 _atom_site_symmetry_multiplicity
 _atom_site_fract_x
 _atom_site_fract_y
 _atom_site_fract_z
 _atom_site_occupancy
  Rb  Rb0  1  0.001278  0.000097  0.001391  1
  Ba  Ba1  1  0.389632  0.801506  0.193088  1
  Ba  Ba2  1  0.801970  0.608735  0.411313  1
  Ba  Ba3  1  0.197983  0.391574  0.588196  1
  Ba  Ba4  1  0.609894  0.197804  0.806754  1
  Fe  Fe5  1  0.752117  0.248559  0.500451  1
  Fe  Fe6  1  0.150779  0.051034  0.700184  1
  Fe  Fe7  1  0.547093  0.850843  0.898825  1
  Fe  Fe8  1  0.650641  0.549978  0.700504  1
  Fe  Fe9  1  0.052924  0.352436  0.904414  1
  Fe  Fe10  1  0.450313  0.152856  0.102695  1
  Fe  Fe11  1  0.849451  0.946950  0.297435  1
  Fe  Fe12  1  0.247944  0.747732  0.495686  1
  Ni  Ni13  1  0.947945  0.649728  0.097998  1
  Ni  Ni14  1  0.350990  0.450489  0.301397  1
  P  P15  1  0.937338  0.532366  0.790538  1
  P  P16  1  0.338798  0.335740  0.993395  1
  P  P17  1  0.737485  0.139029  0.199909  1
  P  P18  1  0.142059  0.945193  0.407968  1
  P  P19  1  0.540527  0.744718  0.607250  1
  P  P20  1  0.652349  0.662577  0.995827  1
  P  P21  1  0.058550  0.460250  0.200229  1
  P  P22  1  0.469090  0.257871  0.405721  1
  P  P23  1  0.862052  0.060176  0.599330  1
  P  P24  1  0.260797  0.861759  0.799501  1
