# generated using pymatgen
data_Tl2Ir3Rh(PbO7)2
_symmetry_space_group_name_H-M   'P 1'
_cell_length_a   7.33849921
_cell_length_b   7.36041663
_cell_length_c   7.34192544
_cell_angle_alpha   59.91664675
_cell_angle_beta   59.62952196
_cell_angle_gamma   59.90114704
_symmetry_Int_Tables_number   1
_chemical_formula_structural   Tl2Ir3Rh(PbO7)2
_chemical_formula_sum   'Tl2 Ir3 Rh1 Pb2 O14'
_cell_volume   279.24010216
_cell_formula_units_Z   1
loop_
 _symmetry_equiv_pos_site_id
 _symmetry_equiv_pos_as_xyz
  1  'x, y, z'
loop_
 _atom_site_type_symbol
 _atom_site_label
 _atom_site_symmetry_multiplicity
 _atom_site_fract_x
 _atom_site_fract_y
 _atom_site_fract_z
 _atom_site_occupancy
  Tl  Tl0  1  0.625000  0.125000  0.125000  1
  Tl  Tl1  1  0.125000  0.125000  0.625000  1
  Ir  Ir2  1  0.125000  0.625000  0.625000  1
  Ir  Ir3  1  0.625000  0.125000  0.625000  1
  Ir  Ir4  1  0.625000  0.625000  0.625000  1
  Rh  Rh5  1  0.625000  0.625000  0.125000  1
  Pb  Pb6  1  0.125000  0.625000  0.125000  1
  Pb  Pb7  1  0.125000  0.125000  0.125000  1
  O  O8  1  0.705549  0.706745  0.296562  1
  O  O9  1  0.297600  0.299269  0.700488  1
  O  O10  1  0.701784  0.306006  0.686202  1
  O  O11  1  0.292093  0.705375  0.297157  1
  O  O12  1  0.297600  0.702642  0.700488  1
  O  O13  1  0.705549  0.291144  0.296562  1
  O  O14  1  0.544451  0.543255  0.953438  1
  O  O15  1  0.952400  0.950731  0.549512  1
  O  O16  1  0.548216  0.943994  0.563798  1
  O  O17  1  0.957907  0.544625  0.952843  1
  O  O18  1  0.952400  0.547358  0.549512  1
  O  O19  1  0.544451  0.958856  0.953438  1
  O  O20  1  0.256480  0.240041  0.263437  1
  O  O21  1  0.993520  0.009959  0.986563  1
