# generated using pymatgen
data_Y2Ho2InRh
_symmetry_space_group_name_H-M   'P 1'
_cell_length_a   9.66357428
_cell_length_b   9.68027064
_cell_length_c   9.67687450
_cell_angle_alpha   59.97772453
_cell_angle_beta   59.89224715
_cell_angle_gamma   59.92224317
_symmetry_Int_Tables_number   1
_chemical_formula_structural   Y2Ho2InRh
_chemical_formula_sum   'Y8 Ho8 In4 Rh4'
_cell_volume   639.09008386
_cell_formula_units_Z   4
loop_
 _symmetry_equiv_pos_site_id
 _symmetry_equiv_pos_as_xyz
  1  'x, y, z'
loop_
 _atom_site_type_symbol
 _atom_site_label
 _atom_site_symmetry_multiplicity
 _atom_site_fract_x
 _atom_site_fract_y
 _atom_site_fract_z
 _atom_site_occupancy
  Y  Y0  1  0.187781  0.188795  0.811929  1
  Y  Y1  1  0.600967  0.600021  0.199115  1
  Y  Y2  1  0.440828  0.059349  0.440311  1
  Y  Y3  1  0.440396  0.440435  0.059392  1
  Y  Y4  1  0.812315  0.187955  0.811772  1
  Y  Y5  1  0.186844  0.812234  0.188695  1
  Y  Y6  1  0.440333  0.059739  0.059508  1
  Y  Y7  1  0.187770  0.811500  0.811941  1
  Ho  Ho8  1  0.060050  0.439875  0.060155  1
  Ho  Ho9  1  0.812327  0.811405  0.188496  1
  Ho  Ho10  1  0.201129  0.599596  0.599702  1
  Ho  Ho11  1  0.059772  0.440318  0.439795  1
  Ho  Ho12  1  0.059770  0.060060  0.439802  1
  Ho  Ho13  1  0.812374  0.187724  0.188535  1
  Ho  Ho14  1  0.599961  0.201708  0.598977  1
  Ho  Ho15  1  0.599945  0.599388  0.598984  1
  In  In16  1  0.833067  0.833280  0.833429  1
  In  In17  1  0.833062  0.833448  0.500030  1
  In  In18  1  0.500327  0.833283  0.833150  1
  In  In19  1  0.833059  0.500269  0.833426  1
  Rh  Rh20  1  0.390766  0.822028  0.394644  1
  Rh  Rh21  1  0.390792  0.392572  0.394629  1
  Rh  Rh22  1  0.824799  0.391179  0.392828  1
  Rh  Rh23  1  0.391570  0.393842  0.820758  1
