# generated using pymatgen
data_KSc2(H6Ir)2
_symmetry_space_group_name_H-M   'P 1'
_cell_length_a   4.74204600
_cell_length_b   4.74204797
_cell_length_c   8.70855500
_cell_angle_alpha   90.00000000
_cell_angle_beta   90.00000000
_cell_angle_gamma   120.00000021
_symmetry_Int_Tables_number   1
_chemical_formula_structural   KSc2(H6Ir)2
_chemical_formula_sum   'K1 Sc2 H12 Ir2'
_cell_volume   169.59320020
_cell_formula_units_Z   1
loop_
 _symmetry_equiv_pos_site_id
 _symmetry_equiv_pos_as_xyz
  1  'x, y, z'
loop_
 _atom_site_type_symbol
 _atom_site_label
 _atom_site_symmetry_multiplicity
 _atom_site_fract_x
 _atom_site_fract_y
 _atom_site_fract_z
 _atom_site_occupancy
  K  K0  1  0.000000  0.000000  0.000000  1
  Sc  Sc1  1  0.666667  0.333333  0.371429  1
  Sc  Sc2  1  0.333333  0.666667  0.628571  1
  H  H3  1  0.159892  0.840108  0.395125  1
  H  H4  1  0.680216  0.840108  0.395125  1
  H  H5  1  0.159892  0.319784  0.395125  1
  H  H6  1  0.840108  0.159892  0.604875  1
  H  H7  1  0.319784  0.159892  0.604875  1
  H  H8  1  0.840108  0.680216  0.604875  1
  H  H9  1  0.500483  0.000965  0.823003  1
  H  H10  1  0.500483  0.499517  0.823003  1
  H  H11  1  0.999035  0.499517  0.823003  1
  H  H12  1  0.499517  0.999035  0.176997  1
  H  H13  1  0.499517  0.500483  0.176997  1
  H  H14  1  0.000965  0.500483  0.176997  1
  Ir  Ir15  1  0.666667  0.333333  0.709143  1
  Ir  Ir16  1  0.333333  0.666667  0.290857  1
