# generated using pymatgen
data_NdDy5(CI5)2
_symmetry_space_group_name_H-M   'P 1'
_cell_length_a   7.71292289
_cell_length_b   9.58506039
_cell_length_c   9.65064237
_cell_angle_alpha   106.84166339
_cell_angle_beta   96.12218036
_cell_angle_gamma   104.48923130
_symmetry_Int_Tables_number   1
_chemical_formula_structural   NdDy5(CI5)2
_chemical_formula_sum   'Nd1 Dy5 C2 I10'
_cell_volume   648.66994469
_cell_formula_units_Z   1
loop_
 _symmetry_equiv_pos_site_id
 _symmetry_equiv_pos_as_xyz
  1  'x, y, z'
loop_
 _atom_site_type_symbol
 _atom_site_label
 _atom_site_symmetry_multiplicity
 _atom_site_fract_x
 _atom_site_fract_y
 _atom_site_fract_z
 _atom_site_occupancy
  Nd  Nd0  1  0.107926  0.039811  0.774779  1
  Dy  Dy1  1  0.371014  0.130288  0.174946  1
  Dy  Dy2  1  0.895076  0.961086  0.217765  1
  Dy  Dy3  1  0.029423  0.744951  0.925943  1
  Dy  Dy4  1  0.972115  0.253462  0.073445  1
  Dy  Dy5  1  0.628825  0.869148  0.824792  1
  C  C6  1  0.908151  0.969069  0.961316  1
  C  C7  1  0.089760  0.028558  0.042908  1
  I  I8  1  0.198803  0.729819  0.652249  1
  I  I9  1  0.083810  0.373350  0.828981  1
  I  I10  1  0.456560  0.812830  0.093553  1
  I  I11  1  0.251561  0.083038  0.453460  1
  I  I12  1  0.552019  0.191226  0.910877  1
  I  I13  1  0.805230  0.259874  0.347307  1
  I  I14  1  0.341892  0.448089  0.269121  1
  I  I15  1  0.912794  0.639947  0.178121  1
  I  I16  1  0.659337  0.551832  0.730132  1
  I  I17  1  0.735705  0.913621  0.540306  1
