# generated using pymatgen
data_Ba3Eu2PdO9
_symmetry_space_group_name_H-M   'P 1'
_cell_length_a   6.11838250
_cell_length_b   6.11780089
_cell_length_c   14.75367785
_cell_angle_alpha   90.02730111
_cell_angle_beta   89.96257744
_cell_angle_gamma   119.97572389
_symmetry_Int_Tables_number   1
_chemical_formula_structural   Ba3Eu2PdO9
_chemical_formula_sum   'Ba6 Eu4 Pd2 O18'
_cell_volume   478.37555331
_cell_formula_units_Z   2
loop_
 _symmetry_equiv_pos_site_id
 _symmetry_equiv_pos_as_xyz
  1  'x, y, z'
loop_
 _atom_site_type_symbol
 _atom_site_label
 _atom_site_symmetry_multiplicity
 _atom_site_fract_x
 _atom_site_fract_y
 _atom_site_fract_z
 _atom_site_occupancy
  Ba  Ba0  1  0.333319  0.666668  0.085281  1
  Ba  Ba1  1  0.666681  0.333332  0.914719  1
  Ba  Ba2  1  0.333343  0.666702  0.585227  1
  Ba  Ba3  1  0.666657  0.333298  0.414773  1
  Ba  Ba4  1  0.000008  0.000005  0.250049  1
  Ba  Ba5  1  0.999992  0.999995  0.749951  1
  Eu  Eu6  1  0.333329  0.666670  0.839606  1
  Eu  Eu7  1  0.666671  0.333330  0.160394  1
  Eu  Eu8  1  0.333319  0.666665  0.339664  1
  Eu  Eu9  1  0.666681  0.333335  0.660336  1
  Pd  Pd10  1  0.000000  0.000000  0.000000  1
  Pd  Pd11  1  0.000000  0.000000  0.500000  1
  O  O12  1  0.898679  0.689491  0.577906  1
  O  O13  1  0.000068  0.553011  0.250037  1
  O  O14  1  0.209272  0.310380  0.922091  1
  O  O15  1  0.898860  0.209278  0.077908  1
  O  O16  1  0.790811  0.101354  0.577915  1
  O  O17  1  0.790728  0.689620  0.077909  1
  O  O18  1  0.689496  0.790813  0.422093  1
  O  O19  1  0.447060  0.000078  0.749957  1
  O  O20  1  0.553010  0.552935  0.749960  1
  O  O21  1  0.310504  0.209187  0.577907  1
  O  O22  1  0.101321  0.310509  0.422094  1
  O  O23  1  0.209189  0.898646  0.422085  1
  O  O24  1  0.310374  0.101102  0.077906  1
  O  O25  1  0.552940  0.999922  0.250043  1
  O  O26  1  0.446990  0.447065  0.250040  1
  O  O27  1  0.999932  0.446989  0.749963  1
  O  O28  1  0.101140  0.790722  0.922092  1
  O  O29  1  0.689626  0.898898  0.922094  1
