# generated using pymatgen
data_Th14TcRu5
_symmetry_space_group_name_H-M   'P 1'
_cell_length_a   9.92839900
_cell_length_b   9.97703651
_cell_length_c   6.33585474
_cell_angle_alpha   89.85487631
_cell_angle_beta   90.00000000
_cell_angle_gamma   119.83886540
_symmetry_Int_Tables_number   1
_chemical_formula_structural   Th14TcRu5
_chemical_formula_sum   'Th14 Tc1 Ru5'
_cell_volume   544.39941736
_cell_formula_units_Z   1
loop_
 _symmetry_equiv_pos_site_id
 _symmetry_equiv_pos_as_xyz
  1  'x, y, z'
loop_
 _atom_site_type_symbol
 _atom_site_label
 _atom_site_symmetry_multiplicity
 _atom_site_fract_x
 _atom_site_fract_y
 _atom_site_fract_z
 _atom_site_occupancy
  Th  Th0  1  0.461802  0.541128  0.298857  1
  Th  Th1  1  0.079326  0.541128  0.298857  1
  Th  Th2  1  0.919117  0.459283  0.797995  1
  Th  Th3  1  0.251516  0.126052  0.504868  1
  Th  Th4  1  0.540601  0.081203  0.797800  1
  Th  Th5  1  0.749570  0.873941  0.006291  1
  Th  Th6  1  0.666384  0.332768  0.285851  1
  Th  Th7  1  0.124372  0.873941  0.006291  1
  Th  Th8  1  0.459744  0.919488  0.299062  1
  Th  Th9  1  0.540165  0.459283  0.797995  1
  Th  Th10  1  0.874535  0.126052  0.504868  1
  Th  Th11  1  0.126415  0.252829  0.005154  1
  Th  Th12  1  0.874586  0.749173  0.506714  1
  Th  Th13  1  0.333476  0.666952  0.789776  1
  Tc  Tc14  1  0.813802  0.627606  0.048881  1
  Ru  Ru15  1  0.813224  0.184087  0.046684  1
  Ru  Ru16  1  0.626411  0.814135  0.547306  1
  Ru  Ru17  1  0.370863  0.184087  0.046684  1
  Ru  Ru18  1  0.186365  0.372729  0.546758  1
  Ru  Ru19  1  0.187725  0.814135  0.547306  1
