# generated using pymatgen
data_Hf16Co4Mo3Rh
_symmetry_space_group_name_H-M   'P 1'
_cell_length_a   8.65663565
_cell_length_b   8.65663512
_cell_length_c   8.65663634
_cell_angle_alpha   59.93894460
_cell_angle_beta   59.93893722
_cell_angle_gamma   59.93894500
_symmetry_Int_Tables_number   1
_chemical_formula_structural   Hf16Co4Mo3Rh
_chemical_formula_sum   'Hf16 Co4 Mo3 Rh1'
_cell_volume   458.06865243
_cell_formula_units_Z   1
loop_
 _symmetry_equiv_pos_site_id
 _symmetry_equiv_pos_as_xyz
  1  'x, y, z'
loop_
 _atom_site_type_symbol
 _atom_site_label
 _atom_site_symmetry_multiplicity
 _atom_site_fract_x
 _atom_site_fract_y
 _atom_site_fract_z
 _atom_site_occupancy
  Hf  Hf0  1  0.698934  0.100321  0.100321  1
  Hf  Hf1  1  0.100321  0.698934  0.100321  1
  Hf  Hf2  1  0.100321  0.100321  0.698934  1
  Hf  Hf3  1  0.100460  0.100460  0.100460  1
  Hf  Hf4  1  0.314101  0.314101  0.687534  1
  Hf  Hf5  1  0.685496  0.685496  0.314714  1
  Hf  Hf6  1  0.314101  0.687534  0.314101  1
  Hf  Hf7  1  0.685496  0.314714  0.685496  1
  Hf  Hf8  1  0.687534  0.314101  0.314101  1
  Hf  Hf9  1  0.314714  0.685496  0.685496  1
  Hf  Hf10  1  0.951814  0.951814  0.547523  1
  Hf  Hf11  1  0.551034  0.551034  0.947824  1
  Hf  Hf12  1  0.951814  0.547523  0.951814  1
  Hf  Hf13  1  0.551034  0.947824  0.551034  1
  Hf  Hf14  1  0.547523  0.951814  0.951814  1
  Hf  Hf15  1  0.947824  0.551034  0.551034  1
  Co  Co16  1  0.327532  0.889797  0.889797  1
  Co  Co17  1  0.889797  0.327532  0.889797  1
  Co  Co18  1  0.889797  0.889797  0.327532  1
  Co  Co19  1  0.890916  0.890916  0.890916  1
  Mo  Mo20  1  0.000594  0.332196  0.332196  1
  Mo  Mo21  1  0.332196  0.000594  0.332196  1
  Mo  Mo22  1  0.332196  0.332196  0.000594  1
  Rh  Rh23  1  0.334446  0.334446  0.334446  1
