# generated using pymatgen
data_DyHo2Lu3(Al3Os)8
_symmetry_space_group_name_H-M   'P 1'
_cell_length_a   8.77691108
_cell_length_b   8.77691145
_cell_length_c   9.59680000
_cell_angle_alpha   90.00000000
_cell_angle_beta   90.00000000
_cell_angle_gamma   119.98113351
_symmetry_Int_Tables_number   1
_chemical_formula_structural   DyHo2Lu3(Al3Os)8
_chemical_formula_sum   'Dy1 Ho2 Lu3 Al24 Os8'
_cell_volume   640.35827215
_cell_formula_units_Z   1
loop_
 _symmetry_equiv_pos_site_id
 _symmetry_equiv_pos_as_xyz
  1  'x, y, z'
loop_
 _atom_site_type_symbol
 _atom_site_label
 _atom_site_symmetry_multiplicity
 _atom_site_fract_x
 _atom_site_fract_y
 _atom_site_fract_z
 _atom_site_occupancy
  Dy  Dy0  1  0.806657  0.193343  0.750000  1
  Ho  Ho1  1  0.805118  0.610231  0.750000  1
  Ho  Ho2  1  0.389769  0.194882  0.750000  1
  Lu  Lu3  1  0.195304  0.391081  0.250000  1
  Lu  Lu4  1  0.608919  0.804696  0.250000  1
  Lu  Lu5  1  0.195371  0.804629  0.250000  1
  Al  Al6  1  0.333275  0.666725  0.021768  1
  Al  Al7  1  0.666770  0.333230  0.979836  1
  Al  Al8  1  0.666770  0.333230  0.520164  1
  Al  Al9  1  0.333275  0.666725  0.478232  1
  Al  Al10  1  0.163921  0.327566  0.575853  1
  Al  Al11  1  0.836543  0.673258  0.422830  1
  Al  Al12  1  0.672434  0.836079  0.575853  1
  Al  Al13  1  0.836543  0.673258  0.077170  1
  Al  Al14  1  0.326742  0.163457  0.422830  1
  Al  Al15  1  0.163921  0.327566  0.924147  1
  Al  Al16  1  0.163521  0.836479  0.575831  1
  Al  Al17  1  0.326742  0.163457  0.077170  1
  Al  Al18  1  0.836456  0.163544  0.422390  1
  Al  Al19  1  0.672434  0.836079  0.924147  1
  Al  Al20  1  0.836456  0.163544  0.077610  1
  Al  Al21  1  0.163521  0.836479  0.924169  1
  Al  Al22  1  0.561203  0.122938  0.250000  1
  Al  Al23  1  0.437595  0.875664  0.750000  1
  Al  Al24  1  0.877062  0.438797  0.250000  1
  Al  Al25  1  0.124336  0.562405  0.750000  1
  Al  Al26  1  0.561326  0.438674  0.250000  1
  Al  Al27  1  0.437931  0.562069  0.750000  1
  Al  Al28  1  0.999855  0.000145  0.250000  1
  Al  Al29  1  0.001289  0.998711  0.750000  1
  Os  Os30  1  0.499123  0.998980  0.001253  1
  Os  Os31  1  0.001020  0.500877  0.001253  1
  Os  Os32  1  0.499123  0.998980  0.498747  1
  Os  Os33  1  0.499536  0.500464  0.000957  1
  Os  Os34  1  0.001020  0.500877  0.498747  1
  Os  Os35  1  0.499536  0.500464  0.499043  1
  Os  Os36  1  0.999794  0.000206  0.000248  1
  Os  Os37  1  0.999794  0.000206  0.499752  1
