# generated using pymatgen
data_Zr3Bi4PtF28
_symmetry_space_group_name_H-M   'P 1'
_cell_length_a   5.78619269
_cell_length_b   9.32187207
_cell_length_c   12.45283985
_cell_angle_alpha   61.99857931
_cell_angle_beta   89.99183397
_cell_angle_gamma   89.89207578
_symmetry_Int_Tables_number   1
_chemical_formula_structural   Zr3Bi4PtF28
_chemical_formula_sum   'Zr3 Bi4 Pt1 F28'
_cell_volume   593.05191249
_cell_formula_units_Z   1
loop_
 _symmetry_equiv_pos_site_id
 _symmetry_equiv_pos_as_xyz
  1  'x, y, z'
loop_
 _atom_site_type_symbol
 _atom_site_label
 _atom_site_symmetry_multiplicity
 _atom_site_fract_x
 _atom_site_fract_y
 _atom_site_fract_z
 _atom_site_occupancy
  Zr  Zr0  1  0.755166  0.274411  0.957438  1
  Zr  Zr1  1  0.255660  0.723456  0.543734  1
  Zr  Zr2  1  0.244473  0.724596  0.043100  1
  Bi  Bi3  1  0.758372  0.819575  0.761401  1
  Bi  Bi4  1  0.258583  0.182167  0.734409  1
  Bi  Bi5  1  0.239803  0.181504  0.242513  1
  Bi  Bi6  1  0.743353  0.813694  0.264623  1
  Pt  Pt7  1  0.740925  0.272293  0.457194  1
  F  F8  1  0.454392  0.711574  0.917328  1
  F  F9  1  0.932044  0.292264  0.580823  1
  F  F10  1  0.542309  0.287102  0.082449  1
  F  F11  1  0.048630  0.713102  0.416127  1
  F  F12  1  0.454603  0.281640  0.540951  1
  F  F13  1  0.948841  0.723805  0.951627  1
  F  F14  1  0.551664  0.720598  0.454498  1
  F  F15  1  0.047598  0.274862  0.051214  1
  F  F16  1  0.773592  0.519340  0.861145  1
  F  F17  1  0.268638  0.479087  0.639337  1
  F  F18  1  0.223726  0.480931  0.139637  1
  F  F19  1  0.733123  0.511019  0.360766  1
  F  F20  1  0.759894  0.025197  0.059721  1
  F  F21  1  0.261586  0.972808  0.444099  1
  F  F22  1  0.238677  0.974255  0.938729  1
  F  F23  1  0.741127  0.031151  0.550298  1
  F  F24  1  0.974940  0.733219  0.639142  1
  F  F25  1  0.479204  0.265605  0.858214  1
  F  F26  1  0.022172  0.270506  0.367765  1
  F  F27  1  0.523261  0.733267  0.139418  1
  F  F28  1  0.048277  0.750925  0.170068  1
  F  F29  1  0.554404  0.259103  0.328346  1
  F  F30  1  0.958738  0.251666  0.830759  1
  F  F31  1  0.454129  0.746423  0.671321  1
  F  F32  1  0.413356  0.971178  0.233300  1
  F  F33  1  0.914971  0.028112  0.269959  1
  F  F34  1  0.588341  0.032503  0.769239  1
  F  F35  1  0.091426  0.967063  0.729310  1
