# generated using pymatgen
data_LaPr2Cd3CuPt2
_symmetry_space_group_name_H-M   'P 1'
_cell_length_a   7.92185300
_cell_length_b   7.90054481
_cell_length_c   3.90757700
_cell_angle_alpha   90.00000000
_cell_angle_beta   90.00000000
_cell_angle_gamma   120.08926219
_symmetry_Int_Tables_number   1
_chemical_formula_structural   LaPr2Cd3CuPt2
_chemical_formula_sum   'La1 Pr2 Cd3 Cu1 Pt2'
_cell_volume   211.60730699
_cell_formula_units_Z   1
loop_
 _symmetry_equiv_pos_site_id
 _symmetry_equiv_pos_as_xyz
  1  'x, y, z'
loop_
 _atom_site_type_symbol
 _atom_site_label
 _atom_site_symmetry_multiplicity
 _atom_site_fract_x
 _atom_site_fract_y
 _atom_site_fract_z
 _atom_site_occupancy
  La  La0  1  0.415946  0.000000  0.500000  1
  Pr  Pr1  1  0.000039  0.415203  0.500000  1
  Pr  Pr2  1  0.584836  0.584797  0.500000  1
  Cd  Cd3  1  0.757370  0.000000  0.000000  1
  Cd  Cd4  1  0.999266  0.755966  0.000000  1
  Cd  Cd5  1  0.243300  0.244034  0.000000  1
  Cu  Cu6  1  0.999734  0.000000  0.500000  1
  Pt  Pt7  1  0.333476  0.667444  0.000000  1
  Pt  Pt8  1  0.666033  0.332556  0.000000  1
