# generated using pymatgen
data_BaAgH9W
_symmetry_space_group_name_H-M   'P 1'
_cell_length_a   8.90144900
_cell_length_b   8.90144755
_cell_length_c   5.23850000
_cell_angle_alpha   90.00000000
_cell_angle_beta   90.00000000
_cell_angle_gamma   120.00000911
_symmetry_Int_Tables_number   1
_chemical_formula_structural   BaAgH9W
_chemical_formula_sum   'Ba3 Ag3 H27 W3'
_cell_volume   359.46688242
_cell_formula_units_Z   3
loop_
 _symmetry_equiv_pos_site_id
 _symmetry_equiv_pos_as_xyz
  1  'x, y, z'
loop_
 _atom_site_type_symbol
 _atom_site_label
 _atom_site_symmetry_multiplicity
 _atom_site_fract_x
 _atom_site_fract_y
 _atom_site_fract_z
 _atom_site_occupancy
  Ba  Ba0  1  0.000000  0.599944  0.000000  1
  Ba  Ba1  1  0.400056  0.400056  0.000000  1
  Ba  Ba2  1  0.599944  0.000000  0.000000  1
  Ag  Ag3  1  0.000000  0.251618  0.500000  1
  Ag  Ag4  1  0.748382  0.748382  0.500000  1
  Ag  Ag5  1  0.251618  0.000000  0.500000  1
  H  H6  1  0.796638  0.311034  0.739677  1
  H  H7  1  0.688966  0.485603  0.739677  1
  H  H8  1  0.514397  0.203362  0.739677  1
  H  H9  1  0.203362  0.514397  0.260323  1
  H  H10  1  0.514397  0.203362  0.260323  1
  H  H11  1  0.796638  0.311034  0.260323  1
  H  H12  1  0.688966  0.485603  0.260323  1
  H  H13  1  0.311034  0.796638  0.739677  1
  H  H14  1  0.485603  0.688966  0.739677  1
  H  H15  1  0.196604  0.000000  0.000000  1
  H  H16  1  0.803396  0.803396  0.000000  1
  H  H17  1  0.000000  0.196604  0.000000  1
  H  H18  1  0.861895  0.000000  0.251674  1
  H  H19  1  0.138105  0.138105  0.748326  1
  H  H20  1  0.000000  0.861895  0.748326  1
  H  H21  1  0.000000  0.861895  0.251674  1
  H  H22  1  0.138105  0.138105  0.251674  1
  H  H23  1  0.861895  0.000000  0.748326  1
  H  H24  1  0.125387  0.637787  0.500000  1
  H  H25  1  0.512400  0.874613  0.500000  1
  H  H26  1  0.362213  0.487600  0.500000  1
  H  H27  1  0.487600  0.362213  0.500000  1
  H  H28  1  0.874613  0.512400  0.500000  1
  H  H29  1  0.637787  0.125387  0.500000  1
  H  H30  1  0.203362  0.514397  0.739677  1
  H  H31  1  0.311034  0.796638  0.260323  1
  H  H32  1  0.485603  0.688966  0.260323  1
  W  W33  1  0.666667  0.333333  0.500000  1
  W  W34  1  0.333333  0.666667  0.500000  1
  W  W35  1  0.000000  0.000000  0.000000  1
