# generated using pymatgen
data_Yb2Co3O8
_symmetry_space_group_name_H-M   'P 1'
_cell_length_a   6.11080221
_cell_length_b   6.11080149
_cell_length_c   4.92598528
_cell_angle_alpha   72.76249392
_cell_angle_beta   72.76248896
_cell_angle_gamma   56.28883612
_symmetry_Int_Tables_number   1
_chemical_formula_structural   Yb2Co3O8
_chemical_formula_sum   'Yb2 Co3 O8'
_cell_volume   144.11468462
_cell_formula_units_Z   1
loop_
 _symmetry_equiv_pos_site_id
 _symmetry_equiv_pos_as_xyz
  1  'x, y, z'
loop_
 _atom_site_type_symbol
 _atom_site_label
 _atom_site_symmetry_multiplicity
 _atom_site_fract_x
 _atom_site_fract_y
 _atom_site_fract_z
 _atom_site_occupancy
  Yb  Yb0  1  0.727947  0.727947  0.327899  1
  Yb  Yb1  1  0.272053  0.272053  0.672101  1
  Co  Co2  1  0.000000  0.000000  0.500000  1
  Co  Co3  1  0.743493  0.256507  0.000000  1
  Co  Co4  1  0.256507  0.743493  0.000000  1
  O  O5  1  0.397656  0.397656  0.961551  1
  O  O6  1  0.602344  0.602344  0.038449  1
  O  O7  1  0.901980  0.901980  0.904723  1
  O  O8  1  0.098020  0.098020  0.095277  1
  O  O9  1  0.322657  0.878355  0.606951  1
  O  O10  1  0.878355  0.322657  0.606951  1
  O  O11  1  0.121645  0.677343  0.393049  1
  O  O12  1  0.677343  0.121645  0.393049  1
