# generated using pymatgen
data_BaTbTi4N7
_symmetry_space_group_name_H-M   'P 1'
_cell_length_a   6.48199300
_cell_length_b   6.48199259
_cell_length_c   10.51615600
_cell_angle_alpha   90.00000000
_cell_angle_beta   90.00000000
_cell_angle_gamma   119.99998677
_symmetry_Int_Tables_number   1
_chemical_formula_structural   BaTbTi4N7
_chemical_formula_sum   'Ba2 Tb2 Ti8 N14'
_cell_volume   382.65271367
_cell_formula_units_Z   2
loop_
 _symmetry_equiv_pos_site_id
 _symmetry_equiv_pos_as_xyz
  1  'x, y, z'
loop_
 _atom_site_type_symbol
 _atom_site_label
 _atom_site_symmetry_multiplicity
 _atom_site_fract_x
 _atom_site_fract_y
 _atom_site_fract_z
 _atom_site_occupancy
  Ba  Ba0  1  0.666667  0.333333  0.582105  1
  Ba  Ba1  1  0.333333  0.666667  0.082105  1
  Tb  Tb2  1  0.666667  0.333333  0.948967  1
  Tb  Tb3  1  0.333333  0.666667  0.448967  1
  Ti  Ti4  1  0.169343  0.338685  0.763562  1
  Ti  Ti5  1  0.830657  0.169343  0.263562  1
  Ti  Ti6  1  0.338685  0.169343  0.263562  1
  Ti  Ti7  1  0.661315  0.830657  0.763562  1
  Ti  Ti8  1  0.169343  0.830657  0.763562  1
  Ti  Ti9  1  0.830657  0.661315  0.263562  1
  Ti  Ti10  1  0.000000  0.000000  0.023424  1
  Ti  Ti11  1  0.000000  0.000000  0.523424  1
  N  N12  1  0.000000  0.000000  0.830532  1
  N  N13  1  0.000000  0.000000  0.330532  1
  N  N14  1  0.840723  0.681446  0.083546  1
  N  N15  1  0.159277  0.840723  0.583546  1
  N  N16  1  0.681446  0.840723  0.583546  1
  N  N17  1  0.318554  0.159277  0.083546  1
  N  N18  1  0.840723  0.159277  0.083546  1
  N  N19  1  0.159277  0.318554  0.583546  1
  N  N20  1  0.494023  0.505977  0.815490  1
  N  N21  1  0.988046  0.494023  0.315490  1
  N  N22  1  0.505977  0.011954  0.315490  1
  N  N23  1  0.494023  0.988046  0.815490  1
  N  N24  1  0.505977  0.494023  0.315490  1
  N  N25  1  0.011954  0.505977  0.815490  1
