# generated using pymatgen
data_Sm2Cr3O12
_symmetry_space_group_name_H-M   'P 1'
_cell_length_a   5.15846238
_cell_length_b   6.94692506
_cell_length_c   14.42386202
_cell_angle_alpha   84.42903056
_cell_angle_beta   79.92950601
_cell_angle_gamma   68.52772191
_symmetry_Int_Tables_number   1
_chemical_formula_structural   Sm2Cr3O12
_chemical_formula_sum   'Sm4 Cr6 O24'
_cell_volume   473.29169693
_cell_formula_units_Z   2
loop_
 _symmetry_equiv_pos_site_id
 _symmetry_equiv_pos_as_xyz
  1  'x, y, z'
loop_
 _atom_site_type_symbol
 _atom_site_label
 _atom_site_symmetry_multiplicity
 _atom_site_fract_x
 _atom_site_fract_y
 _atom_site_fract_z
 _atom_site_occupancy
  Sm  Sm0  1  0.363993  0.129255  0.125841  1
  Sm  Sm1  1  0.380227  0.793436  0.452203  1
  Sm  Sm2  1  0.636007  0.870745  0.874159  1
  Sm  Sm3  1  0.619773  0.206564  0.547797  1
  Cr  Cr4  1  0.902461  0.276955  0.953309  1
  Cr  Cr5  1  0.853414  0.974412  0.298121  1
  Cr  Cr6  1  0.869666  0.624943  0.620577  1
  Cr  Cr7  1  0.146586  0.025588  0.701879  1
  Cr  Cr8  1  0.097539  0.723045  0.046691  1
  Cr  Cr9  1  0.130334  0.375057  0.379423  1
  O  O10  1  0.835454  0.195784  0.681060  1
  O  O11  1  0.754082  0.862178  0.031321  1
  O  O12  1  0.826836  0.560075  0.370127  1
  O  O13  1  0.871473  0.511787  0.908902  1
  O  O14  1  0.913068  0.174651  0.242593  1
  O  O15  1  0.942176  0.826741  0.558060  1
  O  O16  1  0.320357  0.105768  0.766732  1
  O  O17  1  0.205784  0.844982  0.115619  1
  O  O18  1  0.327628  0.453618  0.440828  1
  O  O19  1  0.694989  0.693380  0.725362  1
  O  O20  1  0.708129  0.285755  0.058326  1
  O  O21  1  0.646771  0.020147  0.407765  1
  O  O22  1  0.291871  0.714245  0.941674  1
  O  O23  1  0.305011  0.306620  0.274638  1
  O  O24  1  0.353229  0.979853  0.592235  1
  O  O25  1  0.086932  0.825349  0.757407  1
  O  O26  1  0.128527  0.488213  0.091098  1
  O  O27  1  0.057824  0.173259  0.441940  1
  O  O28  1  0.245918  0.137822  0.968679  1
  O  O29  1  0.164546  0.804216  0.318940  1
  O  O30  1  0.173164  0.439925  0.629873  1
  O  O31  1  0.794216  0.155018  0.884381  1
  O  O32  1  0.679643  0.894232  0.233268  1
  O  O33  1  0.672372  0.546382  0.559172  1
