# generated using pymatgen
data_Ho8Ti8Nb4Si15Pb
_symmetry_space_group_name_H-M   'P 1'
_cell_length_a   7.12173065
_cell_length_b   7.07041501
_cell_length_c   13.03051718
_cell_angle_alpha   89.95504112
_cell_angle_beta   89.83425106
_cell_angle_gamma   89.93764716
_symmetry_Int_Tables_number   1
_chemical_formula_structural   Ho8Ti8Nb4Si15Pb
_chemical_formula_sum   'Ho8 Ti8 Nb4 Si15 Pb1'
_cell_volume   656.13000217
_cell_formula_units_Z   1
loop_
 _symmetry_equiv_pos_site_id
 _symmetry_equiv_pos_as_xyz
  1  'x, y, z'
loop_
 _atom_site_type_symbol
 _atom_site_label
 _atom_site_symmetry_multiplicity
 _atom_site_fract_x
 _atom_site_fract_y
 _atom_site_fract_z
 _atom_site_occupancy
  Ho  Ho0  1  0.343960  0.996314  0.460051  1
  Ho  Ho1  1  0.508803  0.833929  0.719043  1
  Ho  Ho2  1  0.500172  0.160050  0.216929  1
  Ho  Ho3  1  0.840812  0.498946  0.281842  1
  Ho  Ho4  1  0.159744  0.508101  0.786445  1
  Ho  Ho5  1  0.662298  0.997527  0.969720  1
  Ho  Ho6  1  0.988768  0.348698  0.526231  1
  Ho  Ho7  1  0.001406  0.660443  0.034081  1
  Ti  Ti8  1  0.154419  0.010678  0.883222  1
  Ti  Ti9  1  0.491219  0.651603  0.125600  1
  Ti  Ti10  1  0.517199  0.353706  0.625261  1
  Ti  Ti11  1  0.655365  0.492903  0.877408  1
  Ti  Ti12  1  0.345648  0.509595  0.374299  1
  Ti  Ti13  1  0.845138  0.990797  0.374692  1
  Ti  Ti14  1  0.011433  0.152759  0.124438  1
  Ti  Ti15  1  0.974832  0.831626  0.618658  1
  Nb  Nb16  1  0.326798  0.327195  0.001626  1
  Nb  Nb17  1  0.173808  0.826606  0.249507  1
  Nb  Nb18  1  0.815302  0.175963  0.752419  1
  Nb  Nb19  1  0.672277  0.672730  0.499579  1
  Si  Si20  1  0.372500  0.704689  0.935400  1
  Si  Si21  1  0.625538  0.295990  0.431634  1
  Si  Si22  1  0.705302  0.371296  0.067732  1
  Si  Si23  1  0.294067  0.628948  0.566405  1
  Si  Si24  1  0.797112  0.871818  0.183486  1
  Si  Si25  1  0.127902  0.203581  0.315635  1
  Si  Si26  1  0.872976  0.799934  0.817131  1
  Si  Si27  1  0.294978  0.953204  0.065775  1
  Si  Si28  1  0.548744  0.789517  0.311553  1
  Si  Si29  1  0.461822  0.208835  0.820743  1
  Si  Si30  1  0.795698  0.542967  0.688589  1
  Si  Si31  1  0.207910  0.453734  0.186688  1
  Si  Si32  1  0.704100  0.048343  0.563068  1
  Si  Si33  1  0.953753  0.293743  0.936814  1
  Si  Si34  1  0.047075  0.709264  0.433493  1
  Pb  Pb35  1  0.201122  0.123963  0.674805  1
