# generated using pymatgen
data_YEr3(WO6)2
_symmetry_space_group_name_H-M   'P 1'
_cell_length_a   5.37497900
_cell_length_b   7.67965193
_cell_length_c   11.42819402
_cell_angle_alpha   75.34334747
_cell_angle_beta   90.00000000
_cell_angle_gamma   90.00000000
_symmetry_Int_Tables_number   1
_chemical_formula_structural   YEr3(WO6)2
_chemical_formula_sum   'Y2 Er6 W4 O24'
_cell_volume   456.38218995
_cell_formula_units_Z   2
loop_
 _symmetry_equiv_pos_site_id
 _symmetry_equiv_pos_as_xyz
  1  'x, y, z'
loop_
 _atom_site_type_symbol
 _atom_site_label
 _atom_site_symmetry_multiplicity
 _atom_site_fract_x
 _atom_site_fract_y
 _atom_site_fract_z
 _atom_site_occupancy
  Y  Y0  1  0.684492  0.500000  0.250000  1
  Y  Y1  1  0.315508  0.500000  0.750000  1
  Er  Er2  1  0.183665  0.205261  0.421961  1
  Er  Er3  1  0.183665  0.794739  0.078039  1
  Er  Er4  1  0.816335  0.794739  0.578039  1
  Er  Er5  1  0.816335  0.205261  0.921961  1
  Er  Er6  1  0.740576  0.000000  0.250000  1
  Er  Er7  1  0.259424  0.000000  0.750000  1
  W  W8  1  0.255888  0.275536  0.114963  1
  W  W9  1  0.255888  0.724464  0.385037  1
  W  W10  1  0.744112  0.724464  0.885037  1
  W  W11  1  0.744112  0.275536  0.614963  1
  O  O12  1  0.458189  0.207095  0.273780  1
  O  O13  1  0.458189  0.792905  0.226220  1
  O  O14  1  0.541811  0.792905  0.726220  1
  O  O15  1  0.541811  0.207095  0.773780  1
  O  O16  1  0.043435  0.059283  0.104514  1
  O  O17  1  0.043435  0.940717  0.395486  1
  O  O18  1  0.956565  0.940717  0.895486  1
  O  O19  1  0.956565  0.059283  0.604514  1
  O  O20  1  0.981202  0.287663  0.229288  1
  O  O21  1  0.981202  0.712337  0.270712  1
  O  O22  1  0.018798  0.712337  0.770712  1
  O  O23  1  0.018798  0.287663  0.729288  1
  O  O24  1  0.850296  0.364638  0.451679  1
  O  O25  1  0.850296  0.635362  0.048321  1
  O  O26  1  0.149704  0.635362  0.548321  1
  O  O27  1  0.149704  0.364638  0.951679  1
  O  O28  1  0.641142  0.510594  0.614130  1
  O  O29  1  0.641142  0.489406  0.885870  1
  O  O30  1  0.358858  0.489406  0.385870  1
  O  O31  1  0.358858  0.510594  0.114130  1
  O  O32  1  0.463499  0.153310  0.569441  1
  O  O33  1  0.463499  0.846690  0.930559  1
  O  O34  1  0.536501  0.846690  0.430559  1
  O  O35  1  0.536501  0.153310  0.069441  1
