# generated using pymatgen
data_SrIn3PdPb
_symmetry_space_group_name_H-M   'P 1'
_cell_length_a   9.09360281
_cell_length_b   9.09360299
_cell_length_c   7.71178000
_cell_angle_alpha   90.00000000
_cell_angle_beta   90.00000000
_cell_angle_gamma   150.31405555
_symmetry_Int_Tables_number   1
_chemical_formula_structural   SrIn3PdPb
_chemical_formula_sum   'Sr2 In6 Pd2 Pb2'
_cell_volume   315.82550361
_cell_formula_units_Z   2
loop_
 _symmetry_equiv_pos_site_id
 _symmetry_equiv_pos_as_xyz
  1  'x, y, z'
loop_
 _atom_site_type_symbol
 _atom_site_label
 _atom_site_symmetry_multiplicity
 _atom_site_fract_x
 _atom_site_fract_y
 _atom_site_fract_z
 _atom_site_occupancy
  Sr  Sr0  1  0.122943  0.877057  0.750000  1
  Sr  Sr1  1  0.877057  0.122943  0.250000  1
  In  In2  1  0.311969  0.688031  0.946883  1
  In  In3  1  0.688031  0.311969  0.053117  1
  In  In4  1  0.311969  0.688031  0.553117  1
  In  In5  1  0.688031  0.311969  0.446883  1
  In  In6  1  0.072858  0.927142  0.250000  1
  In  In7  1  0.927142  0.072858  0.750000  1
  Pd  Pd8  1  0.772384  0.227616  0.750000  1
  Pd  Pd9  1  0.227616  0.772384  0.250000  1
  Pb  Pb10  1  0.500000  0.500000  0.000000  1
  Pb  Pb11  1  0.500000  0.500000  0.500000  1
