# generated using pymatgen
data_Tb8MgCd(SiB4)4
_symmetry_space_group_name_H-M   'P 1'
_cell_length_a   7.20309100
_cell_length_b   7.20309100
_cell_length_c   7.89900400
_cell_angle_alpha   90.00000000
_cell_angle_beta   90.00000000
_cell_angle_gamma   90.00000000
_symmetry_Int_Tables_number   1
_chemical_formula_structural   Tb8MgCd(SiB4)4
_chemical_formula_sum   'Tb8 Mg1 Cd1 Si4 B16'
_cell_volume   409.83603066
_cell_formula_units_Z   1
loop_
 _symmetry_equiv_pos_site_id
 _symmetry_equiv_pos_as_xyz
  1  'x, y, z'
loop_
 _atom_site_type_symbol
 _atom_site_label
 _atom_site_symmetry_multiplicity
 _atom_site_fract_x
 _atom_site_fract_y
 _atom_site_fract_z
 _atom_site_occupancy
  Tb  Tb0  1  0.682802  0.183528  0.232970  1
  Tb  Tb1  1  0.317198  0.816472  0.767030  1
  Tb  Tb2  1  0.317198  0.816472  0.232970  1
  Tb  Tb3  1  0.816472  0.682802  0.232970  1
  Tb  Tb4  1  0.816472  0.682802  0.767030  1
  Tb  Tb5  1  0.682802  0.183528  0.767030  1
  Tb  Tb6  1  0.183528  0.317198  0.767030  1
  Tb  Tb7  1  0.183528  0.317198  0.232970  1
  Mg  Mg8  1  0.500000  0.500000  0.500000  1
  Cd  Cd9  1  0.000000  0.000000  0.500000  1
  Si  Si10  1  0.117320  0.610880  0.500000  1
  Si  Si11  1  0.882680  0.389120  0.500000  1
  Si  Si12  1  0.389120  0.117320  0.500000  1
  Si  Si13  1  0.610880  0.882680  0.500000  1
  B  B14  1  0.174745  0.039755  0.000000  1
  B  B15  1  0.825255  0.960245  0.000000  1
  B  B16  1  0.960245  0.174745  0.000000  1
  B  B17  1  0.326840  0.539834  0.000000  1
  B  B18  1  0.039755  0.825255  0.000000  1
  B  B19  1  0.673160  0.460166  0.000000  1
  B  B20  1  0.539834  0.673160  0.000000  1
  B  B21  1  0.460166  0.326840  0.000000  1
  B  B22  1  0.089579  0.588974  0.000000  1
  B  B23  1  0.910421  0.411026  0.000000  1
  B  B24  1  0.411026  0.089579  0.000000  1
  B  B25  1  0.588974  0.910421  0.000000  1
  B  B26  1  0.000000  0.000000  0.157405  1
  B  B27  1  0.000000  0.000000  0.842595  1
  B  B28  1  0.500000  0.500000  0.838121  1
  B  B29  1  0.500000  0.500000  0.161879  1
