# generated using pymatgen
data_Dy8Sc12Si9Ge7
_symmetry_space_group_name_H-M   'P 1'
_cell_length_a   7.16167861
_cell_length_b   7.41578607
_cell_length_c   14.08347034
_cell_angle_alpha   90.01184168
_cell_angle_beta   89.92210733
_cell_angle_gamma   90.08478282
_symmetry_Int_Tables_number   1
_chemical_formula_structural   Dy8Sc12Si9Ge7
_chemical_formula_sum   'Dy8 Sc12 Si9 Ge7'
_cell_volume   747.96421066
_cell_formula_units_Z   1
loop_
 _symmetry_equiv_pos_site_id
 _symmetry_equiv_pos_as_xyz
  1  'x, y, z'
loop_
 _atom_site_type_symbol
 _atom_site_label
 _atom_site_symmetry_multiplicity
 _atom_site_fract_x
 _atom_site_fract_y
 _atom_site_fract_z
 _atom_site_occupancy
  Dy  Dy0  1  0.010266  0.175095  0.098339  1
  Dy  Dy1  1  0.992810  0.824439  0.902234  1
  Dy  Dy2  1  0.491369  0.677061  0.901885  1
  Dy  Dy3  1  0.992619  0.823004  0.598682  1
  Dy  Dy4  1  0.507209  0.322591  0.098662  1
  Dy  Dy5  1  0.007624  0.176834  0.401062  1
  Dy  Dy6  1  0.507249  0.323039  0.401039  1
  Dy  Dy7  1  0.492975  0.676742  0.598788  1
  Sc  Sc8  1  0.165239  0.501309  0.750032  1
  Sc  Sc9  1  0.834978  0.498855  0.249933  1
  Sc  Sc10  1  0.334885  0.001162  0.248635  1
  Sc  Sc11  1  0.665018  0.998728  0.749965  1
  Sc  Sc12  1  0.336326  0.172603  0.626665  1
  Sc  Sc13  1  0.663521  0.827226  0.373208  1
  Sc  Sc14  1  0.163528  0.672972  0.373302  1
  Sc  Sc15  1  0.662822  0.826497  0.126677  1
  Sc  Sc16  1  0.836398  0.327568  0.626690  1
  Sc  Sc17  1  0.334793  0.172499  0.873889  1
  Sc  Sc18  1  0.835049  0.326304  0.873934  1
  Sc  Sc19  1  0.166043  0.675735  0.125680  1
  Si  Si20  1  0.036821  0.117420  0.750212  1
  Si  Si21  1  0.962549  0.882173  0.249844  1
  Si  Si22  1  0.462585  0.617022  0.249960  1
  Si  Si23  1  0.537237  0.382380  0.750406  1
  Si  Si24  1  0.289418  0.872003  0.750105  1
  Si  Si25  1  0.710797  0.127869  0.249836  1
  Si  Si26  1  0.209990  0.372742  0.249677  1
  Si  Si27  1  0.789859  0.627910  0.750466  1
  Si  Si28  1  0.335123  0.962666  0.040261  1
  Ge  Ge29  1  0.170974  0.460634  0.540620  1
  Ge  Ge30  1  0.828859  0.539169  0.459214  1
  Ge  Ge31  1  0.329213  0.960762  0.459143  1
  Ge  Ge32  1  0.830297  0.538681  0.040763  1
  Ge  Ge33  1  0.670768  0.039391  0.540504  1
  Ge  Ge34  1  0.169371  0.461103  0.959479  1
  Ge  Ge35  1  0.665418  0.037810  0.960213  1
