# generated using pymatgen
data_PrUCN
_symmetry_space_group_name_H-M   'P 1'
_cell_length_a   6.23272308
_cell_length_b   6.23272254
_cell_length_c   6.23272338
_cell_angle_alpha   33.38117118
_cell_angle_beta   33.38117464
_cell_angle_gamma   33.38117361
_symmetry_Int_Tables_number   1
_chemical_formula_structural   PrUCN
_chemical_formula_sum   'Pr1 U1 C1 N1'
_cell_volume   65.26828053
_cell_formula_units_Z   1
loop_
 _symmetry_equiv_pos_site_id
 _symmetry_equiv_pos_as_xyz
  1  'x, y, z'
loop_
 _atom_site_type_symbol
 _atom_site_label
 _atom_site_symmetry_multiplicity
 _atom_site_fract_x
 _atom_site_fract_y
 _atom_site_fract_z
 _atom_site_occupancy
  Pr  Pr0  1  0.000788  0.000788  0.000788  1
  U  U1  1  0.499027  0.499027  0.499027  1
  C  C2  1  0.231010  0.231010  0.231010  1
  N  N3  1  0.769176  0.769176  0.769176  1
