# generated using pymatgen
data_Tm5Lu3(P3Ir4)4
_symmetry_space_group_name_H-M   'P 1'
_cell_length_a   12.92135200
_cell_length_b   12.92135193
_cell_length_c   3.97966900
_cell_angle_alpha   90.00000000
_cell_angle_beta   90.00000000
_cell_angle_gamma   120.00000018
_symmetry_Int_Tables_number   1
_chemical_formula_structural   Tm5Lu3(P3Ir4)4
_chemical_formula_sum   'Tm5 Lu3 P12 Ir16'
_cell_volume   575.43131925
_cell_formula_units_Z   1
loop_
 _symmetry_equiv_pos_site_id
 _symmetry_equiv_pos_as_xyz
  1  'x, y, z'
loop_
 _atom_site_type_symbol
 _atom_site_label
 _atom_site_symmetry_multiplicity
 _atom_site_fract_x
 _atom_site_fract_y
 _atom_site_fract_z
 _atom_site_occupancy
  Tm  Tm0  1  0.333333  0.666667  0.500000  1
  Tm  Tm1  1  0.666667  0.333333  0.500000  1
  Tm  Tm2  1  0.000000  0.814324  0.000000  1
  Tm  Tm3  1  0.185676  0.185676  0.000000  1
  Tm  Tm4  1  0.814324  0.000000  0.000000  1
  Lu  Lu5  1  0.000000  0.446794  0.500000  1
  Lu  Lu6  1  0.553206  0.553206  0.500000  1
  Lu  Lu7  1  0.446794  0.000000  0.500000  1
  P  P8  1  0.000000  0.652213  0.500000  1
  P  P9  1  0.347787  0.347787  0.500000  1
  P  P10  1  0.652213  0.000000  0.500000  1
  P  P11  1  0.516144  0.687523  0.000000  1
  P  P12  1  0.312477  0.828621  0.000000  1
  P  P13  1  0.171379  0.483856  0.000000  1
  P  P14  1  0.483856  0.171379  0.000000  1
  P  P15  1  0.687523  0.516144  0.000000  1
  P  P16  1  0.828621  0.312477  0.000000  1
  P  P17  1  0.000000  0.176276  0.500000  1
  P  P18  1  0.823724  0.823724  0.500000  1
  P  P19  1  0.176276  0.000000  0.500000  1
  Ir  Ir20  1  0.509018  0.865730  0.000000  1
  Ir  Ir21  1  0.134270  0.643289  0.000000  1
  Ir  Ir22  1  0.356711  0.490982  0.000000  1
  Ir  Ir23  1  0.490982  0.356711  0.000000  1
  Ir  Ir24  1  0.865730  0.509018  0.000000  1
  Ir  Ir25  1  0.643289  0.134270  0.000000  1
  Ir  Ir26  1  0.000000  0.275734  0.000000  1
  Ir  Ir27  1  0.724266  0.724266  0.000000  1
  Ir  Ir28  1  0.275734  0.000000  0.000000  1
  Ir  Ir29  1  0.630003  0.808682  0.500000  1
  Ir  Ir30  1  0.191318  0.821321  0.500000  1
  Ir  Ir31  1  0.178679  0.369997  0.500000  1
  Ir  Ir32  1  0.369997  0.178679  0.500000  1
  Ir  Ir33  1  0.808682  0.630003  0.500000  1
  Ir  Ir34  1  0.821321  0.191318  0.500000  1
  Ir  Ir35  1  0.000000  0.000000  0.500000  1
