# generated using pymatgen
data_Tm6Fe3Si6Ru
_symmetry_space_group_name_H-M   'P 1'
_cell_length_a   5.59221623
_cell_length_b   5.59221753
_cell_length_c   13.49172763
_cell_angle_alpha   89.80443086
_cell_angle_beta   90.19556980
_cell_angle_gamma   137.22679915
_symmetry_Int_Tables_number   1
_chemical_formula_structural   Tm6Fe3Si6Ru
_chemical_formula_sum   'Tm6 Fe3 Si6 Ru1'
_cell_volume   286.52672512
_cell_formula_units_Z   1
loop_
 _symmetry_equiv_pos_site_id
 _symmetry_equiv_pos_as_xyz
  1  'x, y, z'
loop_
 _atom_site_type_symbol
 _atom_site_label
 _atom_site_symmetry_multiplicity
 _atom_site_fract_x
 _atom_site_fract_y
 _atom_site_fract_z
 _atom_site_occupancy
  Tm  Tm0  1  0.638105  0.361895  0.248802  1
  Tm  Tm1  1  0.362415  0.637585  0.750793  1
  Tm  Tm2  1  0.919327  0.080673  0.111862  1
  Tm  Tm3  1  0.079552  0.920448  0.889918  1
  Tm  Tm4  1  0.079559  0.920441  0.613246  1
  Tm  Tm5  1  0.921922  0.078078  0.384647  1
  Fe  Fe6  1  0.213103  0.786897  0.418471  1
  Fe  Fe7  1  0.214123  0.785877  0.081164  1
  Fe  Fe8  1  0.785320  0.214680  0.920351  1
  Si  Si9  1  0.326407  0.673593  0.249359  1
  Si  Si10  1  0.671831  0.328169  0.754572  1
  Si  Si11  1  0.624001  0.375999  0.039818  1
  Si  Si12  1  0.375551  0.624449  0.961066  1
  Si  Si13  1  0.382785  0.617215  0.535195  1
  Si  Si14  1  0.619483  0.380517  0.457654  1
  Ru  Ru15  1  0.786515  0.213485  0.583082  1
