# generated using pymatgen
data_La5Y3(RhBr6)2
_symmetry_space_group_name_H-M   'P 1'
_cell_length_a   4.21768300
_cell_length_b   13.71615529
_cell_length_c   14.59023900
_cell_angle_alpha   89.47705980
_cell_angle_beta   90.00000000
_cell_angle_gamma   90.00000000
_symmetry_Int_Tables_number   1
_chemical_formula_structural   La5Y3(RhBr6)2
_chemical_formula_sum   'La5 Y3 Rh2 Br12'
_cell_volume   844.01593370
_cell_formula_units_Z   1
loop_
 _symmetry_equiv_pos_site_id
 _symmetry_equiv_pos_as_xyz
  1  'x, y, z'
loop_
 _atom_site_type_symbol
 _atom_site_label
 _atom_site_symmetry_multiplicity
 _atom_site_fract_x
 _atom_site_fract_y
 _atom_site_fract_z
 _atom_site_occupancy
  La  La0  1  0.500000  0.106681  0.349370  1
  La  La1  1  0.500000  0.884289  0.644761  1
  La  La2  1  0.500000  0.610497  0.146884  1
  La  La3  1  0.500000  0.393588  0.856937  1
  La  La4  1  0.000000  0.130723  0.586755  1
  Y  Y5  1  0.000000  0.873003  0.415459  1
  Y  Y6  1  0.000000  0.627571  0.918153  1
  Y  Y7  1  0.000000  0.374740  0.085996  1
  Rh  Rh8  1  0.500000  0.997915  0.498993  1
  Rh  Rh9  1  0.500000  0.501410  0.002116  1
  Br  Br10  1  0.500000  0.243641  0.168533  1
  Br  Br11  1  0.500000  0.754015  0.830394  1
  Br  Br12  1  0.500000  0.745320  0.328845  1
  Br  Br13  1  0.500000  0.268712  0.675073  1
  Br  Br14  1  0.000000  0.253844  0.412520  1
  Br  Br15  1  0.000000  0.741385  0.572796  1
  Br  Br16  1  0.000000  0.755781  0.075638  1
  Br  Br17  1  0.000000  0.247951  0.926398  1
  Br  Br18  1  0.000000  0.987754  0.246695  1
  Br  Br19  1  0.000000  0.997249  0.753886  1
  Br  Br20  1  0.000000  0.491138  0.251861  1
  Br  Br21  1  0.000000  0.512794  0.751938  1
