# generated using pymatgen
data_Th8Si12Ir3Au
_symmetry_space_group_name_H-M   'P 1'
_cell_length_a   8.25959200
_cell_length_b   8.25959107
_cell_length_c   8.48313500
_cell_angle_alpha   90.00000000
_cell_angle_beta   90.00000000
_cell_angle_gamma   119.99999572
_symmetry_Int_Tables_number   1
_chemical_formula_structural   Th8Si12Ir3Au
_chemical_formula_sum   'Th8 Si12 Ir3 Au1'
_cell_volume   501.19204574
_cell_formula_units_Z   1
loop_
 _symmetry_equiv_pos_site_id
 _symmetry_equiv_pos_as_xyz
  1  'x, y, z'
loop_
 _atom_site_type_symbol
 _atom_site_label
 _atom_site_symmetry_multiplicity
 _atom_site_fract_x
 _atom_site_fract_y
 _atom_site_fract_z
 _atom_site_occupancy
  Th  Th0  1  0.000000  0.000000  0.748960  1
  Th  Th1  1  0.000000  0.000000  0.251065  1
  Th  Th2  1  0.496055  0.503945  0.745495  1
  Th  Th3  1  0.496055  0.992112  0.745495  1
  Th  Th4  1  0.007888  0.503945  0.745495  1
  Th  Th5  1  0.496699  0.503301  0.254428  1
  Th  Th6  1  0.006603  0.503301  0.254428  1
  Th  Th7  1  0.496699  0.993397  0.254428  1
  Si  Si8  1  0.837429  0.162571  0.999882  1
  Si  Si9  1  0.837429  0.674857  0.999882  1
  Si  Si10  1  0.325143  0.162571  0.999882  1
  Si  Si11  1  0.833258  0.166742  0.500465  1
  Si  Si12  1  0.833258  0.666517  0.500465  1
  Si  Si13  1  0.333483  0.166742  0.500465  1
  Si  Si14  1  0.165368  0.834632  0.499565  1
  Si  Si15  1  0.669264  0.834632  0.499565  1
  Si  Si16  1  0.165368  0.330736  0.499565  1
  Si  Si17  1  0.167448  0.832552  0.000279  1
  Si  Si18  1  0.665103  0.832552  0.000279  1
  Si  Si19  1  0.167448  0.334897  0.000279  1
  Ir  Ir20  1  0.666667  0.333333  0.501041  1
  Ir  Ir21  1  0.333333  0.666667  0.499120  1
  Ir  Ir22  1  0.333333  0.666667  0.001108  1
  Au  Au23  1  0.666667  0.333333  0.998363  1
