# generated using pymatgen
data_Tm4MoRu7
_symmetry_space_group_name_H-M   'P 1'
_cell_length_a   5.40866142
_cell_length_b   5.20486191
_cell_length_c   8.92741500
_cell_angle_alpha   90.00000000
_cell_angle_beta   90.00000000
_cell_angle_gamma   121.27787194
_symmetry_Int_Tables_number   1
_chemical_formula_structural   Tm4MoRu7
_chemical_formula_sum   'Tm4 Mo1 Ru7'
_cell_volume   214.79185500
_cell_formula_units_Z   1
loop_
 _symmetry_equiv_pos_site_id
 _symmetry_equiv_pos_as_xyz
  1  'x, y, z'
loop_
 _atom_site_type_symbol
 _atom_site_label
 _atom_site_symmetry_multiplicity
 _atom_site_fract_x
 _atom_site_fract_y
 _atom_site_fract_z
 _atom_site_occupancy
  Tm  Tm0  1  0.671407  0.343042  0.563891  1
  Tm  Tm1  1  0.335653  0.671484  0.430507  1
  Tm  Tm2  1  0.335653  0.671484  0.069493  1
  Tm  Tm3  1  0.671407  0.343042  0.936109  1
  Mo  Mo4  1  0.163731  0.327943  0.750000  1
  Ru  Ru5  1  0.009843  0.019167  0.499695  1
  Ru  Ru6  1  0.009843  0.019167  0.000305  1
  Ru  Ru7  1  0.170529  0.819618  0.750000  1
  Ru  Ru8  1  0.649379  0.819554  0.750000  1
  Ru  Ru9  1  0.819036  0.638357  0.250000  1
  Ru  Ru10  1  0.832812  0.163616  0.250000  1
  Ru  Ru11  1  0.330709  0.163525  0.250000  1
