# generated using pymatgen
data_BaV4(As5O11)2
_symmetry_space_group_name_H-M   'P 1'
_cell_length_a   10.57744354
_cell_length_b   10.27360494
_cell_length_c   12.38074400
_cell_angle_alpha   65.37013389
_cell_angle_beta   97.26013759
_cell_angle_gamma   99.47307339
_symmetry_Int_Tables_number   1
_chemical_formula_structural   BaV4(As5O11)2
_chemical_formula_sum   'Ba2 V8 As20 O44'
_cell_volume   1203.80554223
_cell_formula_units_Z   2
loop_
 _symmetry_equiv_pos_site_id
 _symmetry_equiv_pos_as_xyz
  1  'x, y, z'
loop_
 _atom_site_type_symbol
 _atom_site_label
 _atom_site_symmetry_multiplicity
 _atom_site_fract_x
 _atom_site_fract_y
 _atom_site_fract_z
 _atom_site_occupancy
  Ba  Ba0  1  0.757258  0.982700  0.520614  1
  Ba  Ba1  1  0.242742  0.017300  0.479386  1
  V  V2  1  0.515132  0.223565  0.255098  1
  V  V3  1  0.484868  0.776435  0.744902  1
  V  V4  1  0.749549  0.664967  0.839672  1
  V  V5  1  0.250451  0.335033  0.160328  1
  V  V6  1  0.980443  0.249944  0.263513  1
  V  V7  1  0.019557  0.750056  0.736487  1
  V  V8  1  0.747877  0.398733  0.095407  1
  V  V9  1  0.252123  0.601267  0.904593  1
  As  As10  1  0.829347  0.461175  0.700197  1
  As  As11  1  0.170653  0.538825  0.299803  1
  As  As12  1  0.758378  0.381633  0.371068  1
  As  As13  1  0.241622  0.618367  0.628932  1
  As  As14  1  0.563009  0.594115  0.605994  1
  As  As15  1  0.436991  0.405885  0.394006  1
  As  As16  1  0.507130  0.598745  0.116139  1
  As  As17  1  0.492870  0.401255  0.883861  1
  As  As18  1  0.971394  0.709680  0.481056  1
  As  As19  1  0.028606  0.290320  0.518944  1
  As  As20  1  0.535879  0.125889  0.683557  1
  As  As21  1  0.464121  0.874111  0.316443  1
  As  As22  1  0.943210  0.986824  0.824109  1
  As  As23  1  0.056790  0.013176  0.175891  1
  As  As24  1  0.666239  0.918470  0.930963  1
  As  As25  1  0.333761  0.081530  0.069037  1
  As  As26  1  0.998106  0.322606  0.962565  1
  As  As27  1  0.001894  0.677394  0.037435  1
  As  As28  1  0.734463  0.038910  0.201183  1
  As  As29  1  0.265537  0.961090  0.798817  1
  O  O30  1  0.868464  0.589564  0.771437  1
  O  O31  1  0.131536  0.410436  0.228563  1
  O  O32  1  0.652100  0.198712  0.163971  1
  O  O33  1  0.347900  0.801288  0.836029  1
  O  O34  1  0.841411  0.602784  0.003289  1
  O  O35  1  0.158589  0.397216  0.996711  1
  O  O36  1  0.630838  0.779631  0.869429  1
  O  O37  1  0.369162  0.220369  0.130571  1
  O  O38  1  0.879238  0.854537  0.761483  1
  O  O39  1  0.120762  0.145463  0.238517  1
  O  O40  1  0.912496  0.312361  0.083988  1
  O  O41  1  0.087504  0.687639  0.916012  1
  O  O42  1  0.586022  0.439927  0.155195  1
  O  O43  1  0.413978  0.560073  0.844805  1
  O  O44  1  0.654411  0.464354  0.926258  1
  O  O45  1  0.345589  0.535646  0.073742  1
  O  O46  1  0.626351  0.711507  0.682387  1
  O  O47  1  0.373649  0.288493  0.317613  1
  O  O48  1  0.791571  0.039800  0.832688  1
  O  O49  1  0.208429  0.960200  0.167312  1
  O  O50  1  0.856935  0.070311  0.303563  1
  O  O51  1  0.143065  0.929689  0.696437  1
  O  O52  1  0.555723  0.983538  0.645606  1
  O  O53  1  0.444277  0.016462  0.354394  1
  O  O54  1  0.715220  0.559246  0.578904  1
  O  O55  1  0.284780  0.440754  0.421096  1
  O  O56  1  0.641474  0.902609  0.326134  1
  O  O57  1  0.358526  0.097391  0.673866  1
  O  O58  1  0.957292  0.814815  0.560222  1
  O  O59  1  0.042708  0.185185  0.439778  1
  O  O60  1  0.959544  0.524242  0.603680  1
  O  O61  1  0.040456  0.475758  0.396320  1
  O  O62  1  0.544563  0.032609  0.850133  1
  O  O63  1  0.455437  0.967391  0.149867  1
  O  O64  1  0.524950  0.425122  0.734446  1
  O  O65  1  0.475050  0.574878  0.265554  1
  O  O66  1  0.843803  0.374280  0.252500  1
  O  O67  1  0.156196  0.625720  0.747500  1
  O  O68  1  0.851542  0.269434  0.506495  1
  O  O69  1  0.148458  0.730566  0.493505  1
  O  O70  1  0.639321  0.230837  0.388013  1
  O  O71  1  0.360679  0.769163  0.611987  1
  O  O72  1  0.967036  0.863130  0.980259  1
  O  O73  1  0.032964  0.136870  0.019741  1
