# generated using pymatgen
data_YbDyNi7
_symmetry_space_group_name_H-M   'P 1'
_cell_length_a   4.87433989
_cell_length_b   4.87433806
_cell_length_c   12.27564346
_cell_angle_alpha   78.54857639
_cell_angle_beta   78.54857912
_cell_angle_gamma   59.99999450
_symmetry_Int_Tables_number   1
_chemical_formula_structural   YbDyNi7
_chemical_formula_sum   'Yb2 Dy2 Ni14'
_cell_volume   245.85730611
_cell_formula_units_Z   2
loop_
 _symmetry_equiv_pos_site_id
 _symmetry_equiv_pos_as_xyz
  1  'x, y, z'
loop_
 _atom_site_type_symbol
 _atom_site_label
 _atom_site_symmetry_multiplicity
 _atom_site_fract_x
 _atom_site_fract_y
 _atom_site_fract_z
 _atom_site_occupancy
  Yb  Yb0  1  0.851103  0.851103  0.446689  1
  Yb  Yb1  1  0.148897  0.148897  0.553311  1
  Dy  Dy2  1  0.947772  0.947772  0.156686  1
  Dy  Dy3  1  0.052228  0.052228  0.843314  1
  Ni  Ni4  1  0.500000  0.500000  0.500000  1
  Ni  Ni5  1  0.722253  0.722253  0.833239  1
  Ni  Ni6  1  0.277747  0.277747  0.166761  1
  Ni  Ni7  1  0.611465  0.611465  0.165606  1
  Ni  Ni8  1  0.388535  0.388535  0.834394  1
  Ni  Ni9  1  0.000000  0.500000  0.000000  1
  Ni  Ni10  1  0.500000  0.000000  0.000000  1
  Ni  Ni11  1  0.500000  0.500000  0.000000  1
  Ni  Ni12  1  0.389371  0.389371  0.331354  1
  Ni  Ni13  1  0.889905  0.389371  0.331354  1
  Ni  Ni14  1  0.389371  0.889905  0.331354  1
  Ni  Ni15  1  0.610629  0.610629  0.668646  1
  Ni  Ni16  1  0.110095  0.610629  0.668646  1
  Ni  Ni17  1  0.610629  0.110095  0.668646  1
