# generated using pymatgen
data_Li2MnTc3O8
_symmetry_space_group_name_H-M   'P 1'
_cell_length_a   5.78008070
_cell_length_b   5.80941606
_cell_length_c   10.44201100
_cell_angle_alpha   90.00000000
_cell_angle_beta   90.00000000
_cell_angle_gamma   120.19923859
_symmetry_Int_Tables_number   1
_chemical_formula_structural   Li2MnTc3O8
_chemical_formula_sum   'Li4 Mn2 Tc6 O16'
_cell_volume   303.04403492
_cell_formula_units_Z   2
loop_
 _symmetry_equiv_pos_site_id
 _symmetry_equiv_pos_as_xyz
  1  'x, y, z'
loop_
 _atom_site_type_symbol
 _atom_site_label
 _atom_site_symmetry_multiplicity
 _atom_site_fract_x
 _atom_site_fract_y
 _atom_site_fract_z
 _atom_site_occupancy
  Li  Li0  1  0.333706  0.666891  0.887546  1
  Li  Li1  1  0.000626  0.000120  0.994310  1
  Li  Li2  1  0.999374  0.999880  0.494310  1
  Li  Li3  1  0.666294  0.333109  0.387546  1
  Mn  Mn4  1  0.333607  0.666927  0.498059  1
  Mn  Mn5  1  0.666393  0.333073  0.998059  1
  Tc  Tc6  1  0.184824  0.814307  0.211861  1
  Tc  Tc7  1  0.184881  0.370527  0.211881  1
  Tc  Tc8  1  0.625716  0.812842  0.212057  1
  Tc  Tc9  1  0.374284  0.187158  0.712057  1
  Tc  Tc10  1  0.815119  0.629473  0.711881  1
  Tc  Tc11  1  0.815176  0.185693  0.711861  1
  O  O12  1  0.158570  0.842402  0.611026  1
  O  O13  1  0.029316  0.514631  0.339271  1
  O  O14  1  0.331605  0.665879  0.077014  1
  O  O15  1  0.999665  0.999735  0.308249  1
  O  O16  1  0.000335  0.000265  0.808249  1
  O  O17  1  0.158603  0.316199  0.610954  1
  O  O18  1  0.487783  0.972606  0.341041  1
  O  O19  1  0.487875  0.515081  0.341064  1
  O  O20  1  0.318174  0.159066  0.109613  1
  O  O21  1  0.681826  0.840934  0.609613  1
  O  O22  1  0.512125  0.484919  0.841064  1
  O  O23  1  0.512217  0.027394  0.841041  1
  O  O24  1  0.668395  0.334121  0.577014  1
  O  O25  1  0.841397  0.683801  0.110954  1
  O  O26  1  0.970684  0.485369  0.839271  1
  O  O27  1  0.841430  0.157598  0.111026  1
