# generated using pymatgen
data_Ta4Be4RuW
_symmetry_space_group_name_H-M   'P 1'
_cell_length_a   6.35444700
_cell_length_b   6.35444700
_cell_length_c   3.30629600
_cell_angle_alpha   90.00000000
_cell_angle_beta   90.00000000
_cell_angle_gamma   90.00000000
_symmetry_Int_Tables_number   1
_chemical_formula_structural   Ta4Be4RuW
_chemical_formula_sum   'Ta4 Be4 Ru1 W1'
_cell_volume   133.50491519
_cell_formula_units_Z   1
loop_
 _symmetry_equiv_pos_site_id
 _symmetry_equiv_pos_as_xyz
  1  'x, y, z'
loop_
 _atom_site_type_symbol
 _atom_site_label
 _atom_site_symmetry_multiplicity
 _atom_site_fract_x
 _atom_site_fract_y
 _atom_site_fract_z
 _atom_site_occupancy
  Ta  Ta0  1  0.676445  0.177968  0.500000  1
  Ta  Ta1  1  0.323555  0.822032  0.500000  1
  Ta  Ta2  1  0.177968  0.323555  0.500000  1
  Ta  Ta3  1  0.822032  0.676445  0.500000  1
  Be  Be4  1  0.116180  0.620051  0.000000  1
  Be  Be5  1  0.883820  0.379949  0.000000  1
  Be  Be6  1  0.620051  0.883820  0.000000  1
  Be  Be7  1  0.379949  0.116180  0.000000  1
  Ru  Ru8  1  0.000000  0.000000  0.000000  1
  W  W9  1  0.500000  0.500000  0.000000  1
