# generated using pymatgen
data_Pa2Ta3Si4
_symmetry_space_group_name_H-M   'P 1'
_cell_length_a   6.87451400
_cell_length_b   7.06971800
_cell_length_c   13.39883300
_cell_angle_alpha   90.00000000
_cell_angle_beta   90.00000000
_cell_angle_gamma   90.00000000
_symmetry_Int_Tables_number   1
_chemical_formula_structural   Pa2Ta3Si4
_chemical_formula_sum   'Pa8 Ta12 Si16'
_cell_volume   651.19501270
_cell_formula_units_Z   4
loop_
 _symmetry_equiv_pos_site_id
 _symmetry_equiv_pos_as_xyz
  1  'x, y, z'
loop_
 _atom_site_type_symbol
 _atom_site_label
 _atom_site_symmetry_multiplicity
 _atom_site_fract_x
 _atom_site_fract_y
 _atom_site_fract_z
 _atom_site_occupancy
  Pa  Pa0  1  0.000854  0.169907  0.405189  1
  Pa  Pa1  1  0.500854  0.330093  0.094811  1
  Pa  Pa2  1  0.499146  0.669907  0.594811  1
  Pa  Pa3  1  0.999146  0.830093  0.905189  1
  Pa  Pa4  1  0.999146  0.830093  0.594811  1
  Pa  Pa5  1  0.499146  0.669907  0.905189  1
  Pa  Pa6  1  0.500854  0.330093  0.405189  1
  Pa  Pa7  1  0.000854  0.169907  0.094811  1
  Ta  Ta8  1  0.338461  0.826625  0.124047  1
  Ta  Ta9  1  0.838461  0.673375  0.375953  1
  Ta  Ta10  1  0.661539  0.173375  0.624047  1
  Ta  Ta11  1  0.161539  0.326625  0.875953  1
  Ta  Ta12  1  0.161539  0.326625  0.624047  1
  Ta  Ta13  1  0.661539  0.173375  0.875953  1
  Ta  Ta14  1  0.333443  0.999915  0.750000  1
  Ta  Ta15  1  0.838461  0.673375  0.124047  1
  Ta  Ta16  1  0.666557  0.000085  0.250000  1
  Ta  Ta17  1  0.166557  0.499915  0.250000  1
  Ta  Ta18  1  0.833443  0.500085  0.750000  1
  Ta  Ta19  1  0.338461  0.826625  0.375953  1
  Si  Si20  1  0.336550  0.040595  0.541497  1
  Si  Si21  1  0.836550  0.459405  0.958503  1
  Si  Si22  1  0.663450  0.959405  0.041497  1
  Si  Si23  1  0.163450  0.540595  0.458503  1
  Si  Si24  1  0.163450  0.540595  0.041497  1
  Si  Si25  1  0.663450  0.959405  0.458503  1
  Si  Si26  1  0.836550  0.459405  0.541497  1
  Si  Si27  1  0.336550  0.040595  0.958503  1
  Si  Si28  1  0.799113  0.371991  0.250000  1
  Si  Si29  1  0.299113  0.128009  0.250000  1
  Si  Si30  1  0.700887  0.871991  0.750000  1
  Si  Si31  1  0.200887  0.628009  0.750000  1
  Si  Si32  1  0.042455  0.876686  0.250000  1
  Si  Si33  1  0.542455  0.623314  0.250000  1
  Si  Si34  1  0.457545  0.376686  0.750000  1
  Si  Si35  1  0.957545  0.123314  0.750000  1
