# generated using pymatgen
data_TbDy(OsO4)2
_symmetry_space_group_name_H-M   'P 1'
_cell_length_a   5.37412278
_cell_length_b   7.72582143
_cell_length_c   7.45422754
_cell_angle_alpha   79.45200259
_cell_angle_beta   91.23492321
_cell_angle_gamma   94.14818204
_symmetry_Int_Tables_number   1
_chemical_formula_structural   TbDy(OsO4)2
_chemical_formula_sum   'Tb2 Dy2 Os4 O16'
_cell_volume   303.45802238
_cell_formula_units_Z   2
loop_
 _symmetry_equiv_pos_site_id
 _symmetry_equiv_pos_as_xyz
  1  'x, y, z'
loop_
 _atom_site_type_symbol
 _atom_site_label
 _atom_site_symmetry_multiplicity
 _atom_site_fract_x
 _atom_site_fract_y
 _atom_site_fract_z
 _atom_site_occupancy
  Tb  Tb0  1  0.262167  0.114508  0.611520  1
  Tb  Tb1  1  0.737833  0.885492  0.388480  1
  Dy  Dy2  1  0.194192  0.169896  0.101189  1
  Dy  Dy3  1  0.805808  0.830104  0.898811  1
  Os  Os4  1  0.245846  0.662093  0.207250  1
  Os  Os5  1  0.754154  0.337907  0.792750  1
  Os  Os6  1  0.715691  0.336334  0.299850  1
  Os  Os7  1  0.284309  0.663666  0.700150  1
  O  O8  1  0.049656  0.471724  0.714490  1
  O  O9  1  0.950344  0.528276  0.285510  1
  O  O10  1  0.616739  0.328039  0.549355  1
  O  O11  1  0.383261  0.671961  0.450645  1
  O  O12  1  0.847467  0.321158  0.053958  1
  O  O13  1  0.152533  0.678842  0.946042  1
  O  O14  1  0.411800  0.442040  0.196412  1
  O  O15  1  0.588200  0.557960  0.803588  1
  O  O16  1  0.050119  0.886116  0.176982  1
  O  O17  1  0.949881  0.113884  0.823018  1
  O  O18  1  0.491443  0.111610  0.321440  1
  O  O19  1  0.508557  0.888390  0.678560  1
  O  O20  1  0.452537  0.198330  0.869883  1
  O  O21  1  0.547463  0.801670  0.130117  1
  O  O22  1  0.977505  0.163936  0.381120  1
  O  O23  1  0.022495  0.836064  0.618880  1
