# generated using pymatgen
data_Mn2Fe(NiPt2)3
_symmetry_space_group_name_H-M   'P 1'
_cell_length_a   3.70915200
_cell_length_b   3.86061900
_cell_length_c   11.63324400
_cell_angle_alpha   90.00000000
_cell_angle_beta   90.00000000
_cell_angle_gamma   90.00000000
_symmetry_Int_Tables_number   1
_chemical_formula_structural   Mn2Fe(NiPt2)3
_chemical_formula_sum   'Mn2 Fe1 Ni3 Pt6'
_cell_volume   166.58366468
_cell_formula_units_Z   1
loop_
 _symmetry_equiv_pos_site_id
 _symmetry_equiv_pos_as_xyz
  1  'x, y, z'
loop_
 _atom_site_type_symbol
 _atom_site_label
 _atom_site_symmetry_multiplicity
 _atom_site_fract_x
 _atom_site_fract_y
 _atom_site_fract_z
 _atom_site_occupancy
  Mn  Mn0  1  0.000000  0.000000  0.333722  1
  Mn  Mn1  1  0.000000  0.000000  0.666278  1
  Fe  Fe2  1  0.000000  0.000000  0.000000  1
  Ni  Ni3  1  0.000000  0.500000  0.163481  1
  Ni  Ni4  1  0.000000  0.500000  0.500000  1
  Ni  Ni5  1  0.000000  0.500000  0.836519  1
  Pt  Pt6  1  0.500000  0.500000  0.000000  1
  Pt  Pt7  1  0.500000  0.500000  0.332206  1
  Pt  Pt8  1  0.500000  0.500000  0.667794  1
  Pt  Pt9  1  0.500000  0.000000  0.164555  1
  Pt  Pt10  1  0.500000  0.000000  0.500000  1
  Pt  Pt11  1  0.500000  0.000000  0.835445  1
