# generated using pymatgen
data_Pr8Ho12Ga15Ge
_symmetry_space_group_name_H-M   'P 1'
_cell_length_a   7.59669500
_cell_length_b   7.96080564
_cell_length_c   15.30293800
_cell_angle_alpha   90.00000000
_cell_angle_beta   90.00000000
_cell_angle_gamma   89.84630289
_symmetry_Int_Tables_number   1
_chemical_formula_structural   Pr8Ho12Ga15Ge
_chemical_formula_sum   'Pr8 Ho12 Ga15 Ge1'
_cell_volume   925.45427823
_cell_formula_units_Z   1
loop_
 _symmetry_equiv_pos_site_id
 _symmetry_equiv_pos_as_xyz
  1  'x, y, z'
loop_
 _atom_site_type_symbol
 _atom_site_label
 _atom_site_symmetry_multiplicity
 _atom_site_fract_x
 _atom_site_fract_y
 _atom_site_fract_z
 _atom_site_occupancy
  Pr  Pr0  1  0.978933  0.820276  0.094960  1
  Pr  Pr1  1  0.478829  0.678875  0.405771  1
  Pr  Pr2  1  0.520818  0.320746  0.906277  1
  Pr  Pr3  1  0.020012  0.177330  0.595397  1
  Pr  Pr4  1  0.020012  0.177330  0.904603  1
  Pr  Pr5  1  0.520818  0.320746  0.593723  1
  Pr  Pr6  1  0.478829  0.678875  0.094229  1
  Pr  Pr7  1  0.978933  0.820276  0.405040  1
  Ho  Ho8  1  0.656072  0.988970  0.250000  1
  Ho  Ho9  1  0.156447  0.511587  0.250000  1
  Ho  Ho10  1  0.844988  0.489548  0.750000  1
  Ho  Ho11  1  0.344721  0.011962  0.750000  1
  Ho  Ho12  1  0.680487  0.825546  0.877633  1
  Ho  Ho13  1  0.177396  0.677539  0.621993  1
  Ho  Ho14  1  0.820473  0.324899  0.121050  1
  Ho  Ho15  1  0.319936  0.174771  0.378476  1
  Ho  Ho16  1  0.319936  0.174771  0.121524  1
  Ho  Ho17  1  0.820473  0.324899  0.378950  1
  Ho  Ho18  1  0.177396  0.677539  0.878007  1
  Ho  Ho19  1  0.680487  0.825546  0.622367  1
  Ga  Ga20  1  0.767723  0.620951  0.250000  1
  Ga  Ga21  1  0.268368  0.878710  0.250000  1
  Ga  Ga22  1  0.729758  0.122639  0.750000  1
  Ga  Ga23  1  0.233274  0.378971  0.750000  1
  Ga  Ga24  1  0.025870  0.113620  0.250000  1
  Ga  Ga25  1  0.526894  0.386224  0.250000  1
  Ga  Ga26  1  0.473500  0.614133  0.750000  1
  Ga  Ga27  1  0.849509  0.531953  0.958158  1
  Ga  Ga28  1  0.349299  0.967513  0.541659  1
  Ga  Ga29  1  0.651304  0.030578  0.040537  1
  Ga  Ga30  1  0.151636  0.468110  0.459864  1
  Ga  Ga31  1  0.151636  0.468110  0.040136  1
  Ga  Ga32  1  0.651304  0.030578  0.459463  1
  Ga  Ga33  1  0.349299  0.967513  0.958341  1
  Ga  Ga34  1  0.849509  0.531953  0.541842  1
  Ge  Ge35  1  0.975120  0.886416  0.750000  1
