# generated using pymatgen
data_NdH8I
_symmetry_space_group_name_H-M   'P 1'
_cell_length_a   3.96051398
_cell_length_b   3.95386281
_cell_length_c   12.89028409
_cell_angle_alpha   103.65686894
_cell_angle_beta   88.64664803
_cell_angle_gamma   60.08100456
_symmetry_Int_Tables_number   1
_chemical_formula_structural   NdH8I
_chemical_formula_sum   'Nd1 H8 I1'
_cell_volume   167.59364471
_cell_formula_units_Z   1
loop_
 _symmetry_equiv_pos_site_id
 _symmetry_equiv_pos_as_xyz
  1  'x, y, z'
loop_
 _atom_site_type_symbol
 _atom_site_label
 _atom_site_symmetry_multiplicity
 _atom_site_fract_x
 _atom_site_fract_y
 _atom_site_fract_z
 _atom_site_occupancy
  Nd  Nd0  1  0.302341  0.868637  0.913281  1
  H  H1  1  0.267581  0.133081  0.556599  1
  H  H2  1  0.955974  0.458974  0.412513  1
  H  H3  1  0.676583  0.126892  0.838871  1
  H  H4  1  0.004481  0.319020  0.356632  1
  H  H5  1  0.977864  0.518280  0.895910  1
  H  H6  1  0.466332  0.528603  0.704706  1
  H  H7  1  0.155399  0.189592  0.611623  1
  H  H8  1  0.477716  0.714060  0.703757  1
  I  I9  1  0.521784  0.393884  0.094790  1
