# generated using pymatgen
data_TbNd2Gd3Ta2O14
_symmetry_space_group_name_H-M   'P 1'
_cell_length_a   6.55686634
_cell_length_b   6.56775230
_cell_length_c   7.65762400
_cell_angle_alpha   90.00000000
_cell_angle_beta   90.00000000
_cell_angle_gamma   109.54634297
_symmetry_Int_Tables_number   1
_chemical_formula_structural   TbNd2Gd3Ta2O14
_chemical_formula_sum   'Tb1 Nd2 Gd3 Ta2 O14'
_cell_volume   310.76287705
_cell_formula_units_Z   1
loop_
 _symmetry_equiv_pos_site_id
 _symmetry_equiv_pos_as_xyz
  1  'x, y, z'
loop_
 _atom_site_type_symbol
 _atom_site_label
 _atom_site_symmetry_multiplicity
 _atom_site_fract_x
 _atom_site_fract_y
 _atom_site_fract_z
 _atom_site_occupancy
  Tb  Tb0  1  0.465862  0.999514  0.250000  1
  Nd  Nd1  1  0.499781  0.499691  0.499295  1
  Nd  Nd2  1  0.499781  0.499691  0.000705  1
  Gd  Gd3  1  0.000255  0.533112  0.250000  1
  Gd  Gd4  1  0.999819  0.466709  0.750000  1
  Gd  Gd5  1  0.532814  0.000399  0.750000  1
  Ta  Ta6  1  0.999610  0.999930  0.499466  1
  Ta  Ta7  1  0.999610  0.999930  0.000534  1
  O  O8  1  0.939509  0.059853  0.750000  1
  O  O9  1  0.062796  0.939666  0.250000  1
  O  O10  1  0.360257  0.641773  0.250000  1
  O  O11  1  0.639399  0.360038  0.750000  1
  O  O12  1  0.367158  0.633392  0.750000  1
  O  O13  1  0.631858  0.363805  0.250000  1
  O  O14  1  0.318731  0.069247  0.970660  1
  O  O15  1  0.682154  0.931718  0.466422  1
  O  O16  1  0.318731  0.069247  0.529340  1
  O  O17  1  0.682154  0.931718  0.033578  1
  O  O18  1  0.069994  0.317913  0.468835  1
  O  O19  1  0.929866  0.682370  0.968740  1
  O  O20  1  0.929866  0.682370  0.531260  1
  O  O21  1  0.069994  0.317913  0.031165  1
