# generated using pymatgen
data_TmLu2Al3Ge2Ir
_symmetry_space_group_name_H-M   'P 1'
_cell_length_a   6.87592700
_cell_length_b   6.88095858
_cell_length_c   4.18037600
_cell_angle_alpha   90.00000000
_cell_angle_beta   90.00000000
_cell_angle_gamma   119.97580919
_symmetry_Int_Tables_number   1
_chemical_formula_structural   TmLu2Al3Ge2Ir
_chemical_formula_sum   'Tm1 Lu2 Al3 Ge2 Ir1'
_cell_volume   171.32943835
_cell_formula_units_Z   1
loop_
 _symmetry_equiv_pos_site_id
 _symmetry_equiv_pos_as_xyz
  1  'x, y, z'
loop_
 _atom_site_type_symbol
 _atom_site_label
 _atom_site_symmetry_multiplicity
 _atom_site_fract_x
 _atom_site_fract_y
 _atom_site_fract_z
 _atom_site_occupancy
  Tm  Tm0  1  0.413298  0.000000  0.000000  1
  Lu  Lu1  1  0.000311  0.412603  0.000000  1
  Lu  Lu2  1  0.587707  0.587396  0.000000  1
  Al  Al3  1  0.768667  0.000000  0.500001  1
  Al  Al4  1  0.231414  0.231485  0.500001  1
  Al  Al5  1  0.999928  0.768514  0.500001  1
  Ge  Ge6  1  0.667330  0.334357  0.500001  1
  Ge  Ge7  1  0.332973  0.665644  0.500001  1
  Ir  Ir8  1  0.998370  0.000000  0.000000  1
