# generated using pymatgen
data_Tb12IrPd3
_symmetry_space_group_name_H-M   'P 1'
_cell_length_a   6.48551207
_cell_length_b   7.12461308
_cell_length_c   9.64694700
_cell_angle_alpha   90.00000000
_cell_angle_beta   90.00000000
_cell_angle_gamma   90.14650896
_symmetry_Int_Tables_number   1
_chemical_formula_structural   Tb12IrPd3
_chemical_formula_sum   'Tb12 Ir1 Pd3'
_cell_volume   445.75274739
_cell_formula_units_Z   1
loop_
 _symmetry_equiv_pos_site_id
 _symmetry_equiv_pos_as_xyz
  1  'x, y, z'
loop_
 _atom_site_type_symbol
 _atom_site_label
 _atom_site_symmetry_multiplicity
 _atom_site_fract_x
 _atom_site_fract_y
 _atom_site_fract_z
 _atom_site_occupancy
  Tb  Tb0  1  0.327791  0.680988  0.057717  1
  Tb  Tb1  1  0.171095  0.179129  0.440230  1
  Tb  Tb2  1  0.672053  0.324469  0.563314  1
  Tb  Tb3  1  0.822546  0.816358  0.937260  1
  Tb  Tb4  1  0.672053  0.324469  0.936686  1
  Tb  Tb5  1  0.822546  0.816358  0.562740  1
  Tb  Tb6  1  0.327791  0.680988  0.442283  1
  Tb  Tb7  1  0.171095  0.179129  0.059770  1
  Tb  Tb8  1  0.866715  0.525578  0.250000  1
  Tb  Tb9  1  0.634634  0.027379  0.250000  1
  Tb  Tb10  1  0.140343  0.475711  0.750000  1
  Tb  Tb11  1  0.370696  0.965132  0.750000  1
  Ir  Ir12  1  0.556350  0.615491  0.750000  1
  Pd  Pd13  1  0.059659  0.886667  0.250000  1
  Pd  Pd14  1  0.439129  0.388916  0.250000  1
  Pd  Pd15  1  0.945503  0.113238  0.750000  1
