# generated using pymatgen
data_TbZr3(Al8Pt3)3
_symmetry_space_group_name_H-M   'P 1'
_cell_length_a   7.49823789
_cell_length_b   7.50489037
_cell_length_c   13.01702087
_cell_angle_alpha   84.55616666
_cell_angle_beta   78.94100514
_cell_angle_gamma   59.93906187
_symmetry_Int_Tables_number   1
_chemical_formula_structural   TbZr3(Al8Pt3)3
_chemical_formula_sum   'Tb1 Zr3 Al24 Pt9'
_cell_volume   622.21111208
_cell_formula_units_Z   1
loop_
 _symmetry_equiv_pos_site_id
 _symmetry_equiv_pos_as_xyz
  1  'x, y, z'
loop_
 _atom_site_type_symbol
 _atom_site_label
 _atom_site_symmetry_multiplicity
 _atom_site_fract_x
 _atom_site_fract_y
 _atom_site_fract_z
 _atom_site_occupancy
  Tb  Tb0  1  0.266811  0.501360  0.190683  1
  Zr  Zr1  1  0.392847  0.167762  0.810658  1
  Zr  Zr2  1  0.606872  0.831659  0.188894  1
  Zr  Zr3  1  0.733211  0.499165  0.810332  1
  Al  Al4  1  0.681848  0.833480  0.940661  1
  Al  Al5  1  0.318653  0.163531  0.055704  1
  Al  Al6  1  0.146163  0.832749  0.563444  1
  Al  Al7  1  0.854065  0.167243  0.436824  1
  Al  Al8  1  0.480124  0.166421  0.561407  1
  Al  Al9  1  0.519939  0.833446  0.438633  1
  Al  Al10  1  0.220391  0.163426  0.327566  1
  Al  Al11  1  0.778565  0.834648  0.676466  1
  Al  Al12  1  0.437624  0.504350  0.676405  1
  Al  Al13  1  0.562886  0.495741  0.327579  1
  Al  Al14  1  0.108166  0.162217  0.674463  1
  Al  Al15  1  0.888476  0.839695  0.329162  1
  Al  Al16  1  0.357792  0.496083  0.938844  1
  Al  Al17  1  0.647725  0.503540  0.055431  1
  Al  Al18  1  0.017011  0.170502  0.948201  1
  Al  Al19  1  0.981598  0.832850  0.047321  1
  Al  Al20  1  0.186698  0.499532  0.440259  1
  Al  Al21  1  0.812754  0.500150  0.561362  1
  Al  Al22  1  0.734138  0.158457  0.183518  1
  Al  Al23  1  0.272364  0.836200  0.816115  1
  Al  Al24  1  0.061312  0.625586  0.815084  1
  Al  Al25  1  0.932848  0.373894  0.184780  1
  Al  Al26  1  0.849458  0.047655  0.815836  1
  Al  Al27  1  0.149331  0.959291  0.184446  1
  Pt  Pt28  1  0.120354  0.489935  0.639343  1
  Pt  Pt29  1  0.879203  0.508972  0.361641  1
  Pt  Pt30  1  0.656532  0.172736  0.999032  1
  Pt  Pt31  1  0.342855  0.827956  0.999610  1
  Pt  Pt32  1  0.536885  0.166576  0.361711  1
  Pt  Pt33  1  0.463988  0.833155  0.638802  1
  Pt  Pt34  1  0.777639  0.176549  0.637838  1
  Pt  Pt35  1  0.221366  0.824259  0.362937  1
  Pt  Pt36  1  0.001509  0.499230  0.999009  1
