# generated using pymatgen
data_Li2Tb3MgInSn2
_symmetry_space_group_name_H-M   'P 1'
_cell_length_a   7.31803208
_cell_length_b   7.31803172
_cell_length_c   4.68769600
_cell_angle_alpha   90.00000000
_cell_angle_beta   90.00000000
_cell_angle_gamma   118.96381824
_symmetry_Int_Tables_number   1
_chemical_formula_structural   Li2Tb3MgInSn2
_chemical_formula_sum   'Li2 Tb3 Mg1 In1 Sn2'
_cell_volume   219.64392854
_cell_formula_units_Z   1
loop_
 _symmetry_equiv_pos_site_id
 _symmetry_equiv_pos_as_xyz
  1  'x, y, z'
loop_
 _atom_site_type_symbol
 _atom_site_label
 _atom_site_symmetry_multiplicity
 _atom_site_fract_x
 _atom_site_fract_y
 _atom_site_fract_z
 _atom_site_occupancy
  Li  Li0  1  0.238547  0.005148  0.500000  1
  Li  Li1  1  0.005148  0.238547  0.500000  1
  Tb  Tb2  1  0.556274  0.993878  0.000000  1
  Tb  Tb3  1  0.993878  0.556274  0.000000  1
  Tb  Tb4  1  0.436727  0.436727  0.000000  1
  Mg  Mg5  1  0.771563  0.771563  0.500000  1
  In  In6  1  0.012152  0.012152  0.000000  1
  Sn  Sn7  1  0.322972  0.662739  0.500000  1
  Sn  Sn8  1  0.662739  0.322972  0.500000  1
