# generated using pymatgen
data_LiSc2Ti3(AsRu)6
_symmetry_space_group_name_H-M   'P 1'
_cell_length_a   7.56934750
_cell_length_b   7.56253151
_cell_length_c   7.56934775
_cell_angle_alpha   128.15329500
_cell_angle_beta   121.36679715
_cell_angle_gamma   82.07653332
_symmetry_Int_Tables_number   1
_chemical_formula_structural   LiSc2Ti3(AsRu)6
_chemical_formula_sum   'Li1 Sc2 Ti3 As6 Ru6'
_cell_volume   279.82908521
_cell_formula_units_Z   1
loop_
 _symmetry_equiv_pos_site_id
 _symmetry_equiv_pos_as_xyz
  1  'x, y, z'
loop_
 _atom_site_type_symbol
 _atom_site_label
 _atom_site_symmetry_multiplicity
 _atom_site_fract_x
 _atom_site_fract_y
 _atom_site_fract_z
 _atom_site_occupancy
  Li  Li0  1  0.474672  0.236834  0.262161  1
  Sc  Sc1  1  0.525311  0.794679  0.769368  1
  Sc  Sc2  1  0.745556  0.661552  0.415995  1
  Ti  Ti3  1  0.248384  0.669417  0.921033  1
  Ti  Ti4  1  0.052051  0.848165  0.296114  1
  Ti  Ti5  1  0.950643  0.243325  0.792682  1
  As  As6  1  0.836325  0.571784  0.748810  1
  As  As7  1  0.163459  0.919953  0.750290  1
  As  As8  1  0.669664  0.919953  0.256495  1
  As  As9  1  0.322975  0.571784  0.235459  1
  As  As10  1  0.292723  0.313637  0.520915  1
  As  As11  1  0.724055  0.207270  0.983216  1
  Ru  Ru12  1  0.665184  0.496845  0.915540  1
  Ru  Ru13  1  0.337860  0.246498  0.829209  1
  Ru  Ru14  1  0.917290  0.246498  0.408639  1
  Ru  Ru15  1  0.081306  0.496845  0.331663  1
  Ru  Ru16  1  0.021883  0.997677  0.027018  1
  Ru  Ru17  1  0.470659  0.997677  0.475794  1
