# generated using pymatgen
data_Ce2Th(B2C)3
_symmetry_space_group_name_H-M   'P 1'
_cell_length_a   5.37960216
_cell_length_b   5.37960346
_cell_length_c   5.37960288
_cell_angle_alpha   76.21784554
_cell_angle_beta   76.21784548
_cell_angle_gamma   76.21783514
_symmetry_Int_Tables_number   1
_chemical_formula_structural   Ce2Th(B2C)3
_chemical_formula_sum   'Ce2 Th1 B6 C3'
_cell_volume   144.10699543
_cell_formula_units_Z   1
loop_
 _symmetry_equiv_pos_site_id
 _symmetry_equiv_pos_as_xyz
  1  'x, y, z'
loop_
 _atom_site_type_symbol
 _atom_site_label
 _atom_site_symmetry_multiplicity
 _atom_site_fract_x
 _atom_site_fract_y
 _atom_site_fract_z
 _atom_site_occupancy
  Ce  Ce0  1  0.685216  0.685216  0.685216  1
  Ce  Ce1  1  0.314784  0.314784  0.314784  1
  Th  Th2  1  0.000000  0.000000  0.000000  1
  B  B3  1  0.500000  0.775120  0.224880  1
  B  B4  1  0.224880  0.500000  0.775120  1
  B  B5  1  0.775120  0.224880  0.500000  1
  B  B6  1  0.500000  0.224880  0.775120  1
  B  B7  1  0.224880  0.775120  0.500000  1
  B  B8  1  0.775120  0.500000  0.224880  1
  C  C9  1  0.000000  0.000000  0.500000  1
  C  C10  1  0.000000  0.500000  0.000000  1
  C  C11  1  0.500000  0.000000  0.000000  1
