# generated using pymatgen
data_Tm8Ti12Si15Pt
_symmetry_space_group_name_H-M   'P 1'
_cell_length_a   7.03967312
_cell_length_b   6.98985537
_cell_length_c   12.88700732
_cell_angle_alpha   89.91095285
_cell_angle_beta   89.91386564
_cell_angle_gamma   90.01197527
_symmetry_Int_Tables_number   1
_chemical_formula_structural   Tm8Ti12Si15Pt
_chemical_formula_sum   'Tm8 Ti12 Si15 Pt1'
_cell_volume   634.12041189
_cell_formula_units_Z   1
loop_
 _symmetry_equiv_pos_site_id
 _symmetry_equiv_pos_as_xyz
  1  'x, y, z'
loop_
 _atom_site_type_symbol
 _atom_site_label
 _atom_site_symmetry_multiplicity
 _atom_site_fract_x
 _atom_site_fract_y
 _atom_site_fract_z
 _atom_site_occupancy
  Tm  Tm0  1  0.340325  0.001890  0.465896  1
  Tm  Tm1  1  0.501573  0.838704  0.717705  1
  Tm  Tm2  1  0.500640  0.159785  0.216915  1
  Tm  Tm3  1  0.841994  0.497065  0.282984  1
  Tm  Tm4  1  0.157099  0.502064  0.782974  1
  Tm  Tm5  1  0.659522  0.997630  0.967755  1
  Tm  Tm6  1  0.001661  0.339404  0.534471  1
  Tm  Tm7  1  0.998938  0.659818  0.033292  1
  Ti  Ti8  1  0.326129  0.326747  0.001265  1
  Ti  Ti9  1  0.173895  0.826308  0.249882  1
  Ti  Ti10  1  0.823010  0.172975  0.749820  1
  Ti  Ti11  1  0.673707  0.671817  0.499309  1
  Ti  Ti12  1  0.154447  0.010821  0.876567  1
  Ti  Ti13  1  0.492171  0.651788  0.126170  1
  Ti  Ti14  1  0.501986  0.345547  0.626337  1
  Ti  Ti15  1  0.654290  0.496647  0.875622  1
  Ti  Ti16  1  0.348657  0.506773  0.373212  1
  Ti  Ti17  1  0.847235  0.992657  0.375049  1
  Ti  Ti18  1  0.007402  0.151453  0.125300  1
  Ti  Ti19  1  0.988001  0.848747  0.619008  1
  Si  Si20  1  0.368340  0.703103  0.934143  1
  Si  Si21  1  0.632242  0.296955  0.433038  1
  Si  Si22  1  0.703252  0.368858  0.067478  1
  Si  Si23  1  0.301011  0.632504  0.564363  1
  Si  Si24  1  0.795579  0.868390  0.182455  1
  Si  Si25  1  0.131353  0.202986  0.316388  1
  Si  Si26  1  0.868144  0.798397  0.816916  1
  Si  Si27  1  0.292594  0.953787  0.065760  1
  Si  Si28  1  0.547296  0.791570  0.314910  1
  Si  Si29  1  0.457073  0.212814  0.818398  1
  Si  Si30  1  0.790357  0.547363  0.685797  1
  Si  Si31  1  0.207281  0.453457  0.184916  1
  Si  Si32  1  0.705961  0.046845  0.563075  1
  Si  Si33  1  0.952048  0.292208  0.936849  1
  Si  Si34  1  0.048100  0.707672  0.433201  1
  Pt  Pt35  1  0.206687  0.124449  0.682780  1
