# generated using pymatgen
data_Ho4ThHgPd14
_symmetry_space_group_name_H-M   'P 1'
_cell_length_a   4.17157000
_cell_length_b   4.10051400
_cell_length_c   20.80689600
_cell_angle_alpha   90.00000000
_cell_angle_beta   90.00000000
_cell_angle_gamma   90.00000000
_symmetry_Int_Tables_number   1
_chemical_formula_structural   Ho4ThHgPd14
_chemical_formula_sum   'Ho4 Th1 Hg1 Pd14'
_cell_volume   355.91404878
_cell_formula_units_Z   1
loop_
 _symmetry_equiv_pos_site_id
 _symmetry_equiv_pos_as_xyz
  1  'x, y, z'
loop_
 _atom_site_type_symbol
 _atom_site_label
 _atom_site_symmetry_multiplicity
 _atom_site_fract_x
 _atom_site_fract_y
 _atom_site_fract_z
 _atom_site_occupancy
  Ho  Ho0  1  0.000000  0.000000  0.199072  1
  Ho  Ho1  1  0.000000  0.000000  0.390011  1
  Ho  Ho2  1  0.000000  0.000000  0.609989  1
  Ho  Ho3  1  0.000000  0.000000  0.800928  1
  Th  Th4  1  0.000000  0.000000  0.000000  1
  Hg  Hg5  1  0.500000  0.000000  0.500000  1
  Pd  Pd6  1  0.500000  0.500000  0.000000  1
  Pd  Pd7  1  0.500000  0.500000  0.199827  1
  Pd  Pd8  1  0.500000  0.500000  0.397609  1
  Pd  Pd9  1  0.500000  0.500000  0.602391  1
  Pd  Pd10  1  0.500000  0.500000  0.800173  1
  Pd  Pd11  1  0.500000  0.000000  0.100626  1
  Pd  Pd12  1  0.500000  0.000000  0.297906  1
  Pd  Pd13  1  0.500000  0.000000  0.702094  1
  Pd  Pd14  1  0.500000  0.000000  0.899374  1
  Pd  Pd15  1  0.000000  0.500000  0.100609  1
  Pd  Pd16  1  0.000000  0.500000  0.297506  1
  Pd  Pd17  1  0.000000  0.500000  0.500000  1
  Pd  Pd18  1  0.000000  0.500000  0.702494  1
  Pd  Pd19  1  0.000000  0.500000  0.899391  1
