# generated using pymatgen
data_LuHf2Zr7Sn6
_symmetry_space_group_name_H-M   'P 1'
_cell_length_a   8.58921925
_cell_length_b   8.58922022
_cell_length_c   5.82364404
_cell_angle_alpha   89.99299178
_cell_angle_beta   89.99298544
_cell_angle_gamma   120.58712241
_symmetry_Int_Tables_number   1
_chemical_formula_structural   LuHf2Zr7Sn6
_chemical_formula_sum   'Lu1 Hf2 Zr7 Sn6'
_cell_volume   369.85624464
_cell_formula_units_Z   1
loop_
 _symmetry_equiv_pos_site_id
 _symmetry_equiv_pos_as_xyz
  1  'x, y, z'
loop_
 _atom_site_type_symbol
 _atom_site_label
 _atom_site_symmetry_multiplicity
 _atom_site_fract_x
 _atom_site_fract_y
 _atom_site_fract_z
 _atom_site_occupancy
  Lu  Lu0  1  0.764841  0.764841  0.750454  1
  Hf  Hf1  1  0.332611  0.665321  0.499620  1
  Hf  Hf2  1  0.665321  0.332611  0.499620  1
  Zr  Zr3  1  0.250169  0.001444  0.750531  1
  Zr  Zr4  1  0.001444  0.250169  0.750531  1
  Zr  Zr5  1  0.238969  0.238969  0.249543  1
  Zr  Zr6  1  0.751555  0.999664  0.249455  1
  Zr  Zr7  1  0.999664  0.751555  0.249455  1
  Zr  Zr8  1  0.665506  0.332830  0.000686  1
  Zr  Zr9  1  0.332830  0.665506  0.000686  1
  Sn  Sn10  1  0.392560  0.392560  0.747994  1
  Sn  Sn11  1  0.606328  0.001559  0.748106  1
  Sn  Sn12  1  0.001559  0.606328  0.748106  1
  Sn  Sn13  1  0.605845  0.605845  0.251740  1
  Sn  Sn14  1  0.391313  0.999488  0.251736  1
  Sn  Sn15  1  0.999488  0.391313  0.251736  1
