# generated using pymatgen
data_Cs6CeYBr12
_symmetry_space_group_name_H-M   'P 1'
_cell_length_a   10.06186166
_cell_length_b   10.08342983
_cell_length_c   8.35704600
_cell_angle_alpha   90.00000000
_cell_angle_beta   90.00000000
_cell_angle_gamma   90.16659168
_symmetry_Int_Tables_number   1
_chemical_formula_structural   Cs6CeYBr12
_chemical_formula_sum   'Cs6 Ce1 Y1 Br12'
_cell_volume   847.88622466
_cell_formula_units_Z   1
loop_
 _symmetry_equiv_pos_site_id
 _symmetry_equiv_pos_as_xyz
  1  'x, y, z'
loop_
 _atom_site_type_symbol
 _atom_site_label
 _atom_site_symmetry_multiplicity
 _atom_site_fract_x
 _atom_site_fract_y
 _atom_site_fract_z
 _atom_site_occupancy
  Cs  Cs0  1  0.000000  0.000000  0.500000  1
  Cs  Cs1  1  0.000000  0.000000  0.000000  1
  Cs  Cs2  1  0.236514  0.585860  0.500000  1
  Cs  Cs3  1  0.763486  0.414140  0.500000  1
  Cs  Cs4  1  0.414307  0.232201  0.000000  1
  Cs  Cs5  1  0.585693  0.767799  0.000000  1
  Ce  Ce6  1  0.000000  0.500000  0.000000  1
  Y  Y7  1  0.500000  0.000000  0.500000  1
  Br  Br8  1  0.690777  0.057628  0.739196  1
  Br  Br9  1  0.309223  0.942372  0.739196  1
  Br  Br10  1  0.940153  0.697487  0.246344  1
  Br  Br11  1  0.059847  0.302513  0.246344  1
  Br  Br12  1  0.309223  0.942372  0.260804  1
  Br  Br13  1  0.690777  0.057628  0.260804  1
  Br  Br14  1  0.059847  0.302513  0.753656  1
  Br  Br15  1  0.940153  0.697487  0.753656  1
  Br  Br16  1  0.568985  0.730751  0.500000  1
  Br  Br17  1  0.431015  0.269249  0.500000  1
  Br  Br18  1  0.279599  0.570110  0.000000  1
  Br  Br19  1  0.720401  0.429890  0.000000  1
