# generated using pymatgen
data_Li3Dy4ScPt4
_symmetry_space_group_name_H-M   'P 1'
_cell_length_a   4.03697400
_cell_length_b   7.10964501
_cell_length_c   8.64702285
_cell_angle_alpha   91.50030039
_cell_angle_beta   90.00000000
_cell_angle_gamma   90.00000000
_symmetry_Int_Tables_number   1
_chemical_formula_structural   Li3Dy4ScPt4
_chemical_formula_sum   'Li3 Dy4 Sc1 Pt4'
_cell_volume   248.09703194
_cell_formula_units_Z   1
loop_
 _symmetry_equiv_pos_site_id
 _symmetry_equiv_pos_as_xyz
  1  'x, y, z'
loop_
 _atom_site_type_symbol
 _atom_site_label
 _atom_site_symmetry_multiplicity
 _atom_site_fract_x
 _atom_site_fract_y
 _atom_site_fract_z
 _atom_site_occupancy
  Li  Li0  1  0.250000  0.875320  0.945879  1
  Li  Li1  1  0.750000  0.128254  0.057734  1
  Li  Li2  1  0.750000  0.640786  0.430836  1
  Dy  Dy3  1  0.250000  0.458557  0.174318  1
  Dy  Dy4  1  0.750000  0.552276  0.831399  1
  Dy  Dy5  1  0.750000  0.028363  0.689591  1
  Dy  Dy6  1  0.250000  0.948263  0.318919  1
  Sc  Sc7  1  0.250000  0.374173  0.556181  1
  Pt  Pt8  1  0.250000  0.744331  0.622608  1
  Pt  Pt9  1  0.750000  0.242481  0.382244  1
  Pt  Pt10  1  0.750000  0.748367  0.124626  1
  Pt  Pt11  1  0.250000  0.258828  0.865665  1
