# generated using pymatgen
data_Zr2TaNbAs2
_symmetry_space_group_name_H-M   'P 1'
_cell_length_a   7.11733900
_cell_length_b   3.63707900
_cell_length_c   8.57444900
_cell_angle_alpha   90.00000000
_cell_angle_beta   90.00000000
_cell_angle_gamma   90.00000000
_symmetry_Int_Tables_number   1
_chemical_formula_structural   Zr2TaNbAs2
_chemical_formula_sum   'Zr4 Ta2 Nb2 As4'
_cell_volume   221.96096676
_cell_formula_units_Z   2
loop_
 _symmetry_equiv_pos_site_id
 _symmetry_equiv_pos_as_xyz
  1  'x, y, z'
loop_
 _atom_site_type_symbol
 _atom_site_label
 _atom_site_symmetry_multiplicity
 _atom_site_fract_x
 _atom_site_fract_y
 _atom_site_fract_z
 _atom_site_occupancy
  Zr  Zr0  1  0.459544  0.250001  0.165727  1
  Zr  Zr1  1  0.959543  0.250001  0.334273  1
  Zr  Zr2  1  0.040664  0.750000  0.667528  1
  Zr  Zr3  1  0.540663  0.750000  0.832472  1
  Ta  Ta4  1  0.366591  0.250001  0.559786  1
  Ta  Ta5  1  0.866590  0.250001  0.940214  1
  Nb  Nb6  1  0.133242  0.750000  0.058651  1
  Nb  Nb7  1  0.633241  0.750000  0.441349  1
  As  As8  1  0.754828  0.750000  0.142812  1
  As  As9  1  0.254828  0.750000  0.357188  1
  As  As10  1  0.745133  0.250001  0.643697  1
  As  As11  1  0.245133  0.250001  0.856302  1
