# generated using pymatgen
data_LuU3Si3Ge3Ru7
_symmetry_space_group_name_H-M   'P 1'
_cell_length_a   7.15776327
_cell_length_b   7.09833664
_cell_length_c   7.16355986
_cell_angle_alpha   109.32138555
_cell_angle_beta   109.65435338
_cell_angle_gamma   109.28585497
_symmetry_Int_Tables_number   1
_chemical_formula_structural   LuU3Si3Ge3Ru7
_chemical_formula_sum   'Lu1 U3 Si3 Ge3 Ru7'
_cell_volume   280.70438815
_cell_formula_units_Z   1
loop_
 _symmetry_equiv_pos_site_id
 _symmetry_equiv_pos_as_xyz
  1  'x, y, z'
loop_
 _atom_site_type_symbol
 _atom_site_label
 _atom_site_symmetry_multiplicity
 _atom_site_fract_x
 _atom_site_fract_y
 _atom_site_fract_z
 _atom_site_occupancy
  Lu  Lu0  1  0.000000  0.503816  0.000444  1
  U  U1  1  0.000000  0.999709  0.488916  1
  U  U2  1  0.503913  0.999919  0.002215  1
  U  U3  1  0.496087  0.496006  0.498302  1
  Si  Si4  1  0.684650  0.680306  0.998714  1
  Si  Si5  1  0.315350  0.995657  0.314064  1
  Si  Si6  1  0.000000  0.319991  0.314145  1
  Ge  Ge7  1  0.304473  0.308289  0.998407  1
  Ge  Ge8  1  0.695527  0.003815  0.693935  1
  Ge  Ge9  1  0.000000  0.691990  0.694130  1
  Ru  Ru10  1  0.745471  0.245379  0.488575  1
  Ru  Ru11  1  0.748141  0.499974  0.249727  1
  Ru  Ru12  1  0.493552  0.248206  0.742957  1
  Ru  Ru13  1  0.254529  0.499908  0.743104  1
  Ru  Ru14  1  0.251859  0.751832  0.501586  1
  Ru  Ru15  1  0.506448  0.754654  0.249406  1
  Ru  Ru16  1  0.000000  0.000549  0.021372  1
