# generated using pymatgen
data_Ho9Er3Zn(InFe)2
_symmetry_space_group_name_H-M   'P 1'
_cell_length_a   8.37329573
_cell_length_b   8.37472494
_cell_length_c   8.37329530
_cell_angle_alpha   109.74797084
_cell_angle_beta   109.74447109
_cell_angle_gamma   108.91576299
_symmetry_Int_Tables_number   1
_chemical_formula_structural   Ho9Er3Zn(InFe)2
_chemical_formula_sum   'Ho9 Er3 Zn1 In2 Fe2'
_cell_volume   452.00993952
_cell_formula_units_Z   1
loop_
 _symmetry_equiv_pos_site_id
 _symmetry_equiv_pos_as_xyz
  1  'x, y, z'
loop_
 _atom_site_type_symbol
 _atom_site_label
 _atom_site_symmetry_multiplicity
 _atom_site_fract_x
 _atom_site_fract_y
 _atom_site_fract_z
 _atom_site_occupancy
  Ho  Ho0  1  0.306368  0.305389  0.611391  1
  Ho  Ho1  1  0.692981  0.694378  0.387619  1
  Ho  Ho2  1  0.306760  0.694378  0.001397  1
  Ho  Ho3  1  0.693997  0.305389  0.999022  1
  Ho  Ho4  1  0.446950  0.202494  0.244668  1
  Ho  Ho5  1  0.553845  0.797532  0.756002  1
  Ho  Ho6  1  0.957825  0.202494  0.755543  1
  Ho  Ho7  1  0.201086  0.958508  0.757423  1
  Ho  Ho8  1  0.041529  0.797532  0.243686  1
  Er  Er9  1  0.798688  0.041187  0.242499  1
  Er  Er10  1  0.200880  0.443375  0.242495  1
  Er  Er11  1  0.799001  0.556499  0.757498  1
  Zn  Zn12  1  0.000054  0.000762  0.000708  1
  In  In13  1  0.499414  0.000243  0.500829  1
  In  In14  1  0.999585  0.499752  0.500166  1
  Fe  Fe15  1  0.387639  0.387324  0.999685  1
  Fe  Fe16  1  0.613397  0.612764  0.999367  1
