# generated using pymatgen
data_RbYBi2Se5
_symmetry_space_group_name_H-M   'P 1'
_cell_length_a   4.17588100
_cell_length_b   12.45158200
_cell_length_c   22.31454100
_cell_angle_alpha   90.00000000
_cell_angle_beta   90.00000000
_cell_angle_gamma   90.00000000
_symmetry_Int_Tables_number   1
_chemical_formula_structural   RbYBi2Se5
_chemical_formula_sum   'Rb4 Y4 Bi8 Se20'
_cell_volume   1160.27411923
_cell_formula_units_Z   4
loop_
 _symmetry_equiv_pos_site_id
 _symmetry_equiv_pos_as_xyz
  1  'x, y, z'
loop_
 _atom_site_type_symbol
 _atom_site_label
 _atom_site_symmetry_multiplicity
 _atom_site_fract_x
 _atom_site_fract_y
 _atom_site_fract_z
 _atom_site_occupancy
  Rb  Rb0  1  0.250000  0.489611  0.211057  1
  Rb  Rb1  1  0.750000  0.510389  0.788943  1
  Rb  Rb2  1  0.750000  0.989611  0.288943  1
  Rb  Rb3  1  0.250000  0.010389  0.711057  1
  Y  Y4  1  0.250000  0.363782  0.024263  1
  Y  Y5  1  0.750000  0.636218  0.975737  1
  Y  Y6  1  0.750000  0.863782  0.475737  1
  Y  Y7  1  0.250000  0.136218  0.524263  1
  Bi  Bi8  1  0.250000  0.802469  0.126810  1
  Bi  Bi9  1  0.750000  0.197531  0.873190  1
  Bi  Bi10  1  0.750000  0.302469  0.373190  1
  Bi  Bi11  1  0.250000  0.697531  0.626810  1
  Bi  Bi12  1  0.250000  0.595677  0.423515  1
  Bi  Bi13  1  0.750000  0.404323  0.576485  1
  Bi  Bi14  1  0.750000  0.095677  0.076485  1
  Bi  Bi15  1  0.250000  0.904323  0.923515  1
  Se  Se16  1  0.250000  0.811194  0.389797  1
  Se  Se17  1  0.750000  0.188806  0.610203  1
  Se  Se18  1  0.750000  0.311194  0.110203  1
  Se  Se19  1  0.250000  0.688806  0.889797  1
  Se  Se20  1  0.250000  0.247734  0.294659  1
  Se  Se21  1  0.750000  0.752266  0.705341  1
  Se  Se22  1  0.750000  0.747734  0.205341  1
  Se  Se23  1  0.250000  0.252266  0.794659  1
  Se  Se24  1  0.250000  0.355392  0.481086  1
  Se  Se25  1  0.750000  0.644608  0.518914  1
  Se  Se26  1  0.750000  0.855392  0.018914  1
  Se  Se27  1  0.250000  0.144608  0.981086  1
  Se  Se28  1  0.250000  0.026250  0.159657  1
  Se  Se29  1  0.750000  0.973750  0.840343  1
  Se  Se30  1  0.750000  0.526250  0.340343  1
  Se  Se31  1  0.250000  0.473750  0.659657  1
  Se  Se32  1  0.250000  0.583424  0.059888  1
  Se  Se33  1  0.750000  0.416576  0.940112  1
  Se  Se34  1  0.750000  0.083424  0.440112  1
  Se  Se35  1  0.250000  0.916576  0.559888  1
