# generated using pymatgen
data_TbY4In2Hg2PdPt
_symmetry_space_group_name_H-M   'P 1'
_cell_length_a   8.05370600
_cell_length_b   18.38326602
_cell_length_c   3.64385700
_cell_angle_alpha   90.00000000
_cell_angle_beta   90.00000000
_cell_angle_gamma   90.07324331
_symmetry_Int_Tables_number   1
_chemical_formula_structural   TbY4In2Hg2PdPt
_chemical_formula_sum   'Tb2 Y8 In4 Hg4 Pd2 Pt2'
_cell_volume   539.48504949
_cell_formula_units_Z   2
loop_
 _symmetry_equiv_pos_site_id
 _symmetry_equiv_pos_as_xyz
  1  'x, y, z'
loop_
 _atom_site_type_symbol
 _atom_site_label
 _atom_site_symmetry_multiplicity
 _atom_site_fract_x
 _atom_site_fract_y
 _atom_site_fract_z
 _atom_site_occupancy
  Tb  Tb0  1  0.890387  0.583983  0.000000  1
  Tb  Tb1  1  0.109613  0.416017  0.000000  1
  Y  Y2  1  0.500000  0.500000  0.000000  1
  Y  Y3  1  0.000000  0.000000  0.000000  1
  Y  Y4  1  0.742500  0.283854  0.000000  1
  Y  Y5  1  0.257500  0.716146  0.000000  1
  Y  Y6  1  0.751057  0.785276  0.000000  1
  Y  Y7  1  0.248943  0.214724  0.000000  1
  Y  Y8  1  0.610037  0.084602  0.000000  1
  Y  Y9  1  0.389963  0.915398  0.000000  1
  In  In10  1  0.579810  0.648820  0.500000  1
  In  In11  1  0.420190  0.351180  0.500000  1
  In  In12  1  0.922208  0.149302  0.500000  1
  In  In13  1  0.077792  0.850698  0.500000  1
  Hg  Hg14  1  0.713450  0.934127  0.500000  1
  Hg  Hg15  1  0.286550  0.065873  0.500000  1
  Hg  Hg16  1  0.787695  0.433040  0.500000  1
  Hg  Hg17  1  0.212305  0.566960  0.500000  1
  Pd  Pd18  1  0.966613  0.697955  0.500000  1
  Pd  Pd19  1  0.033387  0.302045  0.500000  1
  Pt  Pt20  1  0.533530  0.198353  0.500000  1
  Pt  Pt21  1  0.466470  0.801647  0.500000  1
