# generated using pymatgen
data_Gd20Ru5Rh7
_symmetry_space_group_name_H-M   'P 1'
_cell_length_a   10.92275692
_cell_length_b   10.92275750
_cell_length_c   6.44279100
_cell_angle_alpha   90.02347380
_cell_angle_beta   90.02347380
_cell_angle_gamma   90.01866976
_symmetry_Int_Tables_number   1
_chemical_formula_structural   Gd20Ru5Rh7
_chemical_formula_sum   'Gd20 Ru5 Rh7'
_cell_volume   768.66747993
_cell_formula_units_Z   1
loop_
 _symmetry_equiv_pos_site_id
 _symmetry_equiv_pos_as_xyz
  1  'x, y, z'
loop_
 _atom_site_type_symbol
 _atom_site_label
 _atom_site_symmetry_multiplicity
 _atom_site_fract_x
 _atom_site_fract_y
 _atom_site_fract_z
 _atom_site_occupancy
  Gd  Gd0  1  0.293899  0.087032  0.378341  1
  Gd  Gd1  1  0.293904  0.911084  0.878142  1
  Gd  Gd2  1  0.706553  0.086879  0.878260  1
  Gd  Gd3  1  0.706159  0.912955  0.378272  1
  Gd  Gd4  1  0.585252  0.792936  0.877571  1
  Gd  Gd5  1  0.587000  0.206215  0.378430  1
  Gd  Gd6  1  0.412254  0.792242  0.379982  1
  Gd  Gd7  1  0.412792  0.206068  0.878215  1
  Gd  Gd8  1  0.207064  0.414748  0.622429  1
  Gd  Gd9  1  0.207758  0.587746  0.120018  1
  Gd  Gd10  1  0.793785  0.413000  0.121570  1
  Gd  Gd11  1  0.793932  0.587208  0.621785  1
  Gd  Gd12  1  0.912968  0.706101  0.121659  1
  Gd  Gd13  1  0.913121  0.293447  0.621740  1
  Gd  Gd14  1  0.088916  0.706096  0.621858  1
  Gd  Gd15  1  0.087045  0.293841  0.121728  1
  Gd  Gd16  1  0.000107  0.999776  0.500101  1
  Gd  Gd17  1  0.000224  0.999893  0.999899  1
  Gd  Gd18  1  0.498846  0.500720  0.999402  1
  Gd  Gd19  1  0.499280  0.501154  0.500598  1
  Ru  Ru20  1  0.348385  0.651615  0.750000  1
  Ru  Ru21  1  0.500087  0.000761  0.123143  1
  Ru  Ru22  1  0.500184  0.000676  0.622684  1
  Ru  Ru23  1  0.999324  0.499816  0.877316  1
  Ru  Ru24  1  0.999239  0.499913  0.376857  1
  Rh  Rh25  1  0.847598  0.152402  0.250000  1
  Rh  Rh26  1  0.847612  0.847580  0.749564  1
  Rh  Rh27  1  0.152420  0.152388  0.750436  1
  Rh  Rh28  1  0.151481  0.848519  0.250000  1
  Rh  Rh29  1  0.652352  0.347648  0.750000  1
  Rh  Rh30  1  0.653332  0.652874  0.249971  1
  Rh  Rh31  1  0.347126  0.346668  0.250029  1
