# generated using pymatgen
data_Tb3YbIr7Ru
_symmetry_space_group_name_H-M   'P 1'
_cell_length_a   5.34304722
_cell_length_b   5.36039700
_cell_length_c   8.73727696
_cell_angle_alpha   89.99927462
_cell_angle_beta   89.95465872
_cell_angle_gamma   120.10865053
_symmetry_Int_Tables_number   1
_chemical_formula_structural   Tb3YbIr7Ru
_chemical_formula_sum   'Tb3 Yb1 Ir7 Ru1'
_cell_volume   216.47911069
_cell_formula_units_Z   1
loop_
 _symmetry_equiv_pos_site_id
 _symmetry_equiv_pos_as_xyz
  1  'x, y, z'
loop_
 _atom_site_type_symbol
 _atom_site_label
 _atom_site_symmetry_multiplicity
 _atom_site_fract_x
 _atom_site_fract_y
 _atom_site_fract_z
 _atom_site_occupancy
  Tb  Tb0  1  0.666848  0.333421  0.574869  1
  Tb  Tb1  1  0.333450  0.666740  0.431052  1
  Tb  Tb2  1  0.333048  0.666538  0.062263  1
  Yb  Yb3  1  0.666674  0.333324  0.934680  1
  Ir  Ir4  1  0.002432  0.001225  0.498865  1
  Ir  Ir5  1  0.002240  0.001118  0.999771  1
  Ir  Ir6  1  0.169290  0.338487  0.749469  1
  Ir  Ir7  1  0.169288  0.830822  0.749473  1
  Ir  Ir8  1  0.659551  0.829780  0.749398  1
  Ir  Ir9  1  0.827958  0.659174  0.250188  1
  Ir  Ir10  1  0.827980  0.168753  0.250176  1
  Ru  Ru11  1  0.341242  0.170619  0.249795  1
