# generated using pymatgen
data_CaDyLu6(B6Os)4
_symmetry_space_group_name_H-M   'P 1'
_cell_length_a   3.60598600
_cell_length_b   9.06186356
_cell_length_c   11.44498376
_cell_angle_alpha   89.93361644
_cell_angle_beta   90.00000000
_cell_angle_gamma   90.00000000
_symmetry_Int_Tables_number   1
_chemical_formula_structural   CaDyLu6(B6Os)4
_chemical_formula_sum   'Ca1 Dy1 Lu6 B24 Os4'
_cell_volume   373.98694691
_cell_formula_units_Z   1
loop_
 _symmetry_equiv_pos_site_id
 _symmetry_equiv_pos_as_xyz
  1  'x, y, z'
loop_
 _atom_site_type_symbol
 _atom_site_label
 _atom_site_symmetry_multiplicity
 _atom_site_fract_x
 _atom_site_fract_y
 _atom_site_fract_z
 _atom_site_occupancy
  Ca  Ca0  1  0.000000  0.678618  0.586121  1
  Dy  Dy1  1  0.000000  0.322687  0.414761  1
  Lu  Lu2  1  0.000000  0.820357  0.084921  1
  Lu  Lu3  1  0.000000  0.178837  0.913916  1
  Lu  Lu4  1  0.000000  0.942789  0.372132  1
  Lu  Lu5  1  0.000000  0.055475  0.628585  1
  Lu  Lu6  1  0.000000  0.443934  0.126657  1
  Lu  Lu7  1  0.000000  0.556777  0.872110  1
  B  B8  1  0.500000  0.554399  0.431822  1
  B  B9  1  0.500000  0.445268  0.568029  1
  B  B10  1  0.500000  0.053981  0.066029  1
  B  B11  1  0.500000  0.946804  0.934631  1
  B  B12  1  0.500000  0.749999  0.417670  1
  B  B13  1  0.500000  0.249727  0.581926  1
  B  B14  1  0.500000  0.249436  0.079478  1
  B  B15  1  0.500000  0.751101  0.920453  1
  B  B16  1  0.500000  0.792051  0.263785  1
  B  B17  1  0.500000  0.207106  0.735939  1
  B  B18  1  0.500000  0.291254  0.233118  1
  B  B19  1  0.500000  0.709292  0.767105  1
  B  B20  1  0.500000  0.631124  0.183015  1
  B  B21  1  0.500000  0.368522  0.816193  1
  B  B22  1  0.500000  0.130186  0.314655  1
  B  B23  1  0.500000  0.870109  0.686175  1
  B  B24  1  0.500000  0.981729  0.211964  1
  B  B25  1  0.500000  0.018305  0.788714  1
  B  B26  1  0.500000  0.482856  0.285732  1
  B  B27  1  0.500000  0.516896  0.714039  1
  B  B28  1  0.500000  0.605043  0.028609  1
  B  B29  1  0.500000  0.394769  0.971008  1
  B  B30  1  0.500000  0.101944  0.471931  1
  B  B31  1  0.500000  0.899282  0.527750  1
  Os  Os32  1  0.000000  0.638878  0.317948  1
  Os  Os33  1  0.000000  0.359362  0.681514  1
  Os  Os34  1  0.000000  0.137261  0.178017  1
  Os  Os35  1  0.000000  0.863841  0.823548  1
