# generated using pymatgen
data_Lu5Sc3Os4
_symmetry_space_group_name_H-M   'P 1'
_cell_length_a   4.13467600
_cell_length_b   7.22403540
_cell_length_c   8.60367155
_cell_angle_alpha   89.56893927
_cell_angle_beta   90.00000000
_cell_angle_gamma   90.00000000
_symmetry_Int_Tables_number   1
_chemical_formula_structural   Lu5Sc3Os4
_chemical_formula_sum   'Lu5 Sc3 Os4'
_cell_volume   256.97618682
_cell_formula_units_Z   1
loop_
 _symmetry_equiv_pos_site_id
 _symmetry_equiv_pos_as_xyz
  1  'x, y, z'
loop_
 _atom_site_type_symbol
 _atom_site_label
 _atom_site_symmetry_multiplicity
 _atom_site_fract_x
 _atom_site_fract_y
 _atom_site_fract_z
 _atom_site_occupancy
  Lu  Lu0  1  0.250000  0.980966  0.329924  1
  Lu  Lu1  1  0.750000  0.026445  0.674082  1
  Lu  Lu2  1  0.250000  0.469948  0.164179  1
  Lu  Lu3  1  0.750000  0.529721  0.829443  1
  Lu  Lu4  1  0.750000  0.647310  0.436596  1
  Sc  Sc5  1  0.250000  0.352610  0.562564  1
  Sc  Sc6  1  0.750000  0.142268  0.059485  1
  Sc  Sc7  1  0.250000  0.856496  0.939816  1
  Os  Os8  1  0.250000  0.238385  0.874772  1
  Os  Os9  1  0.750000  0.761311  0.120771  1
  Os  Os10  1  0.250000  0.736709  0.633859  1
  Os  Os11  1  0.750000  0.257831  0.374510  1
