# generated using pymatgen
data_Ac3TaO7
_symmetry_space_group_name_H-M   'P 1'
_cell_length_a   6.99800821
_cell_length_b   6.99800767
_cell_length_c   4.04878100
_cell_angle_alpha   90.00000000
_cell_angle_beta   90.00000000
_cell_angle_gamma   110.72116548
_symmetry_Int_Tables_number   1
_chemical_formula_structural   Ac3TaO7
_chemical_formula_sum   'Ac3 Ta1 O7'
_cell_volume   185.45147839
_cell_formula_units_Z   1
loop_
 _symmetry_equiv_pos_site_id
 _symmetry_equiv_pos_as_xyz
  1  'x, y, z'
loop_
 _atom_site_type_symbol
 _atom_site_label
 _atom_site_symmetry_multiplicity
 _atom_site_fract_x
 _atom_site_fract_y
 _atom_site_fract_z
 _atom_site_occupancy
  Ac  Ac0  1  0.000000  0.000000  0.000000  1
  Ac  Ac1  1  0.500000  0.000000  0.500000  1
  Ac  Ac2  1  0.000000  0.500000  0.500000  1
  Ta  Ta3  1  0.500000  0.500000  0.000000  1
  O  O4  1  0.500000  0.500000  0.500000  1
  O  O5  1  0.435166  0.193480  0.000000  1
  O  O6  1  0.806520  0.564834  0.000000  1
  O  O7  1  0.564834  0.806520  0.000000  1
  O  O8  1  0.193480  0.435166  0.000000  1
  O  O9  1  0.129782  0.870218  0.500000  1
  O  O10  1  0.870218  0.129782  0.500000  1
