# generated using pymatgen
data_Lu2Zn14Ni3
_symmetry_space_group_name_H-M   'P 1'
_cell_length_a   6.63885311
_cell_length_b   6.63885316
_cell_length_c   6.63885345
_cell_angle_alpha   82.75175064
_cell_angle_beta   82.75174649
_cell_angle_gamma   82.75175600
_symmetry_Int_Tables_number   1
_chemical_formula_structural   Lu2Zn14Ni3
_chemical_formula_sum   'Lu2 Zn14 Ni3'
_cell_volume   286.13269418
_cell_formula_units_Z   1
loop_
 _symmetry_equiv_pos_site_id
 _symmetry_equiv_pos_as_xyz
  1  'x, y, z'
loop_
 _atom_site_type_symbol
 _atom_site_label
 _atom_site_symmetry_multiplicity
 _atom_site_fract_x
 _atom_site_fract_y
 _atom_site_fract_z
 _atom_site_occupancy
  Lu  Lu0  1  0.664478  0.664478  0.664478  1
  Lu  Lu1  1  0.335522  0.335522  0.335522  1
  Zn  Zn2  1  0.347812  0.347812  0.849245  1
  Zn  Zn3  1  0.849245  0.347812  0.347812  1
  Zn  Zn4  1  0.106438  0.106438  0.106438  1
  Zn  Zn5  1  0.893562  0.893562  0.893562  1
  Zn  Zn6  1  0.297383  0.702617  0.000000  1
  Zn  Zn7  1  0.702617  0.000000  0.297383  1
  Zn  Zn8  1  0.000000  0.297383  0.702617  1
  Zn  Zn9  1  0.702617  0.297383  0.000000  1
  Zn  Zn10  1  0.297383  0.000000  0.702617  1
  Zn  Zn11  1  0.000000  0.702617  0.297383  1
  Zn  Zn12  1  0.150755  0.652188  0.652188  1
  Zn  Zn13  1  0.652188  0.652188  0.150755  1
  Zn  Zn14  1  0.652188  0.150755  0.652188  1
  Zn  Zn15  1  0.347812  0.849245  0.347812  1
  Ni  Ni16  1  0.000000  0.000000  0.500000  1
  Ni  Ni17  1  0.000000  0.500000  0.000000  1
  Ni  Ni18  1  0.500000  0.000000  0.000000  1
