# generated using pymatgen
data_Ti6In4BCl18
_symmetry_space_group_name_H-M   'P 1'
_cell_length_a   9.60316629
_cell_length_b   9.86136872
_cell_length_c   9.92532700
_cell_angle_alpha   118.31048847
_cell_angle_beta   100.04359708
_cell_angle_gamma   104.16321663
_symmetry_Int_Tables_number   1
_chemical_formula_structural   Ti6In4BCl18
_chemical_formula_sum   'Ti6 In4 B1 Cl18'
_cell_volume   754.48363475
_cell_formula_units_Z   1
loop_
 _symmetry_equiv_pos_site_id
 _symmetry_equiv_pos_as_xyz
  1  'x, y, z'
loop_
 _atom_site_type_symbol
 _atom_site_label
 _atom_site_symmetry_multiplicity
 _atom_site_fract_x
 _atom_site_fract_y
 _atom_site_fract_z
 _atom_site_occupancy
  Ti  Ti0  1  0.349386  0.444147  0.771589  1
  Ti  Ti1  1  0.361079  0.624416  0.131920  1
  Ti  Ti2  1  0.645477  0.735474  0.043911  1
  Ti  Ti3  1  0.650614  0.555853  0.228411  1
  Ti  Ti4  1  0.354523  0.264526  0.956089  1
  Ti  Ti5  1  0.638921  0.375584  0.868080  1
  In  In6  1  0.185191  0.724618  0.558676  1
  In  In7  1  0.846153  0.963741  0.772574  1
  In  In8  1  0.153847  0.036259  0.227426  1
  In  In9  1  0.814809  0.275382  0.441324  1
  B  B10  1  0.500000  0.500000  0.000000  1
  Cl  Cl11  1  0.812836  0.425500  0.106466  1
  Cl  Cl12  1  0.514625  0.696109  0.393792  1
  Cl  Cl13  1  0.179831  0.986996  0.901380  1
  Cl  Cl14  1  0.187164  0.574500  0.893534  1
  Cl  Cl15  1  0.822419  0.822783  0.300560  1
  Cl  Cl16  1  0.503883  0.302125  0.202718  1
  Cl  Cl17  1  0.794616  0.233329  0.718824  1
  Cl  Cl18  1  0.177581  0.177217  0.699440  1
  Cl  Cl19  1  0.508215  0.895020  0.189578  1
  Cl  Cl20  1  0.810651  0.624709  0.905983  1
  Cl  Cl21  1  0.205384  0.766671  0.281176  1
  Cl  Cl22  1  0.169270  0.379286  0.507300  1
  Cl  Cl23  1  0.496117  0.697875  0.797282  1
  Cl  Cl24  1  0.820169  0.013004  0.098620  1
  Cl  Cl25  1  0.485375  0.303891  0.606208  1
  Cl  Cl26  1  0.189349  0.375291  0.094017  1
  Cl  Cl27  1  0.830730  0.620714  0.492700  1
  Cl  Cl28  1  0.491785  0.104980  0.810422  1
