# generated using pymatgen
data_Pr2NdMg3Sn2Pd
_symmetry_space_group_name_H-M   'P 1'
_cell_length_a   7.65807636
_cell_length_b   7.65807669
_cell_length_c   4.63398000
_cell_angle_alpha   90.00000000
_cell_angle_beta   90.00000000
_cell_angle_gamma   119.96464346
_symmetry_Int_Tables_number   1
_chemical_formula_structural   Pr2NdMg3Sn2Pd
_chemical_formula_sum   'Pr2 Nd1 Mg3 Sn2 Pd1'
_cell_volume   235.43921951
_cell_formula_units_Z   1
loop_
 _symmetry_equiv_pos_site_id
 _symmetry_equiv_pos_as_xyz
  1  'x, y, z'
loop_
 _atom_site_type_symbol
 _atom_site_label
 _atom_site_symmetry_multiplicity
 _atom_site_fract_x
 _atom_site_fract_y
 _atom_site_fract_z
 _atom_site_occupancy
  Pr  Pr0  1  0.598531  0.999968  0.000000  1
  Pr  Pr1  1  0.999968  0.598531  0.000000  1
  Nd  Nd2  1  0.401373  0.401373  0.000000  1
  Mg  Mg3  1  0.231511  0.000149  0.500000  1
  Mg  Mg4  1  0.000149  0.231511  0.500000  1
  Mg  Mg5  1  0.768450  0.768450  0.500000  1
  Sn  Sn6  1  0.333416  0.666425  0.500000  1
  Sn  Sn7  1  0.666425  0.333416  0.500000  1
  Pd  Pd8  1  0.000177  0.000177  0.000000  1
