# generated using pymatgen
data_Nd20Si15Se
_symmetry_space_group_name_H-M   'P 1'
_cell_length_a   7.87566035
_cell_length_b   7.91532237
_cell_length_c   15.16200940
_cell_angle_alpha   89.24816502
_cell_angle_beta   90.26213669
_cell_angle_gamma   90.17557488
_symmetry_Int_Tables_number   1
_chemical_formula_structural   Nd20Si15Se
_chemical_formula_sum   'Nd20 Si15 Se1'
_cell_volume   945.07973464
_cell_formula_units_Z   1
loop_
 _symmetry_equiv_pos_site_id
 _symmetry_equiv_pos_as_xyz
  1  'x, y, z'
loop_
 _atom_site_type_symbol
 _atom_site_label
 _atom_site_symmetry_multiplicity
 _atom_site_fract_x
 _atom_site_fract_y
 _atom_site_fract_z
 _atom_site_occupancy
  Nd  Nd0  1  0.481215  0.368619  0.125519  1
  Nd  Nd1  1  0.980125  0.132938  0.626543  1
  Nd  Nd2  1  0.869975  0.018632  0.875564  1
  Nd  Nd3  1  0.129996  0.974674  0.379512  1
  Nd  Nd4  1  0.513911  0.633572  0.620708  1
  Nd  Nd5  1  0.370419  0.483563  0.874823  1
  Nd  Nd6  1  0.635430  0.513901  0.373207  1
  Nd  Nd7  1  0.018849  0.872126  0.123357  1
  Nd  Nd8  1  0.624074  0.986242  0.447902  1
  Nd  Nd9  1  0.378559  0.009833  0.947762  1
  Nd  Nd10  1  0.988598  0.620088  0.551563  1
  Nd  Nd11  1  0.488530  0.875400  0.199588  1
  Nd  Nd12  1  0.516557  0.134362  0.703772  1
  Nd  Nd13  1  0.876701  0.491117  0.802572  1
  Nd  Nd14  1  0.119726  0.504266  0.298160  1
  Nd  Nd15  1  0.009674  0.378731  0.052812  1
  Nd  Nd16  1  0.307067  0.318970  0.498827  1
  Nd  Nd17  1  0.189781  0.810437  0.754116  1
  Nd  Nd18  1  0.810503  0.186544  0.249621  1
  Nd  Nd19  1  0.688085  0.690918  0.999079  1
  Si  Si20  1  0.712571  0.077887  0.059980  1
  Si  Si21  1  0.921891  0.280285  0.441011  1
  Si  Si22  1  0.426171  0.202377  0.311224  1
  Si  Si23  1  0.574579  0.789082  0.807534  1
  Si  Si24  1  0.210446  0.428287  0.689418  1
  Si  Si25  1  0.786348  0.577782  0.188890  1
  Si  Si26  1  0.074790  0.711361  0.940766  1
  Si  Si27  1  0.803363  0.832878  0.698235  1
  Si  Si28  1  0.197348  0.162619  0.203522  1
  Si  Si29  1  0.832949  0.805448  0.298616  1
  Si  Si30  1  0.332917  0.674019  0.433803  1
  Si  Si31  1  0.666684  0.303722  0.950455  1
  Si  Si32  1  0.694576  0.332219  0.549926  1
  Si  Si33  1  0.303667  0.667076  0.049935  1
  Si  Si34  1  0.167282  0.197930  0.800302  1
  Se  Se35  1  0.296642  0.952095  0.571377  1
