# generated using pymatgen
data_Tb3ErTi4(SiO9)2
_symmetry_space_group_name_H-M   'P 1'
_cell_length_a   11.26962800
_cell_length_b   4.91324498
_cell_length_c   12.40352057
_cell_angle_alpha   84.40592404
_cell_angle_beta   90.00000000
_cell_angle_gamma   90.00000000
_symmetry_Int_Tables_number   1
_chemical_formula_structural   Tb3ErTi4(SiO9)2
_chemical_formula_sum   'Tb6 Er2 Ti8 Si4 O36'
_cell_volume   683.51758982
_cell_formula_units_Z   2
loop_
 _symmetry_equiv_pos_site_id
 _symmetry_equiv_pos_as_xyz
  1  'x, y, z'
loop_
 _atom_site_type_symbol
 _atom_site_label
 _atom_site_symmetry_multiplicity
 _atom_site_fract_x
 _atom_site_fract_y
 _atom_site_fract_z
 _atom_site_occupancy
  Tb  Tb0  1  0.358656  0.697073  0.931952  1
  Tb  Tb1  1  0.858656  0.302927  0.068048  1
  Tb  Tb2  1  0.637904  0.733905  0.421176  1
  Tb  Tb3  1  0.137904  0.266095  0.578824  1
  Tb  Tb4  1  0.362134  0.766165  0.577743  1
  Tb  Tb5  1  0.862134  0.233835  0.422257  1
  Er  Er6  1  0.641306  0.808830  0.068740  1
  Er  Er7  1  0.141306  0.191170  0.931260  1
  Ti  Ti8  1  0.837281  0.950299  0.850090  1
  Ti  Ti9  1  0.337281  0.049701  0.149910  1
  Ti  Ti10  1  0.162925  0.548923  0.148909  1
  Ti  Ti11  1  0.662925  0.451077  0.851091  1
  Ti  Ti12  1  0.835424  0.582538  0.640173  1
  Ti  Ti13  1  0.335424  0.417462  0.359827  1
  Ti  Ti14  1  0.163878  0.917242  0.359939  1
  Ti  Ti15  1  0.663878  0.082758  0.640061  1
  Si  Si16  1  0.594300  0.319546  0.246192  1
  Si  Si17  1  0.094300  0.680454  0.753808  1
  Si  Si18  1  0.405275  0.179643  0.753277  1
  Si  Si19  1  0.905275  0.820357  0.246723  1
  O  O20  1  0.839760  0.753012  0.133759  1
  O  O21  1  0.339760  0.246988  0.866241  1
  O  O22  1  0.158361  0.756173  0.865937  1
  O  O23  1  0.658361  0.243827  0.134063  1
  O  O24  1  0.787727  0.914131  0.553709  1
  O  O25  1  0.287727  0.085869  0.446291  1
  O  O26  1  0.211779  0.585743  0.446437  1
  O  O27  1  0.711779  0.414257  0.553563  1
  O  O28  1  0.950133  0.079134  0.932443  1
  O  O29  1  0.450133  0.920866  0.067557  1
  O  O30  1  0.052775  0.417454  0.064488  1
  O  O31  1  0.552775  0.582546  0.935512  1
  O  O32  1  0.600744  0.654629  0.243439  1
  O  O33  1  0.100744  0.345371  0.756561  1
  O  O34  1  0.400762  0.844787  0.754014  1
  O  O35  1  0.900762  0.155213  0.245986  1
  O  O36  1  0.949598  0.769195  0.746646  1
  O  O37  1  0.449598  0.230805  0.253354  1
  O  O38  1  0.049699  0.729353  0.252410  1
  O  O39  1  0.549699  0.270647  0.747590  1
  O  O40  1  0.787861  0.621201  0.935653  1
  O  O41  1  0.287861  0.378799  0.064347  1
  O  O42  1  0.212648  0.880262  0.063506  1
  O  O43  1  0.712648  0.119738  0.936494  1
  O  O44  1  0.951598  0.443843  0.563814  1
  O  O45  1  0.451598  0.556157  0.436186  1
  O  O46  1  0.048435  0.055086  0.437191  1
  O  O47  1  0.548435  0.944914  0.562809  1
  O  O48  1  0.836740  0.685956  0.356313  1
  O  O49  1  0.336740  0.314044  0.643687  1
  O  O50  1  0.162886  0.812864  0.643822  1
  O  O51  1  0.662886  0.187136  0.356178  1
  O  O52  1  0.707590  0.767403  0.745042  1
  O  O53  1  0.207590  0.232597  0.254958  1
  O  O54  1  0.291819  0.732517  0.254836  1
  O  O55  1  0.791819  0.267483  0.745164  1
