# generated using pymatgen
data_Dy5Si12Ru6Rh13
_symmetry_space_group_name_H-M   'P 1'
_cell_length_a   12.75424368
_cell_length_b   12.75476892
_cell_length_c   4.02110200
_cell_angle_alpha   90.00000000
_cell_angle_beta   90.00000000
_cell_angle_gamma   120.27660372
_symmetry_Int_Tables_number   1
_chemical_formula_structural   Dy5Si12Ru6Rh13
_chemical_formula_sum   'Dy5 Si12 Ru6 Rh13'
_cell_volume   564.91848033
_cell_formula_units_Z   1
loop_
 _symmetry_equiv_pos_site_id
 _symmetry_equiv_pos_as_xyz
  1  'x, y, z'
loop_
 _atom_site_type_symbol
 _atom_site_label
 _atom_site_symmetry_multiplicity
 _atom_site_fract_x
 _atom_site_fract_y
 _atom_site_fract_z
 _atom_site_occupancy
  Dy  Dy0  1  0.669485  0.332924  0.000000  1
  Dy  Dy1  1  0.332626  0.668077  0.000000  1
  Dy  Dy2  1  0.813127  0.999644  0.500000  1
  Dy  Dy3  1  0.184305  0.185926  0.500000  1
  Dy  Dy4  1  0.999715  0.812676  0.500000  1
  Si  Si5  1  0.622322  0.996982  0.000000  1
  Si  Si6  1  0.374996  0.375010  0.000000  1
  Si  Si7  1  0.000566  0.622815  0.000000  1
  Si  Si8  1  0.690558  0.524301  0.500000  1
  Si  Si9  1  0.837881  0.309785  0.500000  1
  Si  Si10  1  0.311162  0.837198  0.500000  1
  Si  Si11  1  0.524567  0.691764  0.500000  1
  Si  Si12  1  0.183351  0.001152  0.000000  1
  Si  Si13  1  0.816006  0.815808  0.000000  1
  Si  Si14  1  0.997499  0.182701  0.000000  1
  Si  Si15  1  0.475470  0.165954  0.500000  1
  Si  Si16  1  0.163168  0.476113  0.500000  1
  Ru  Ru17  1  0.512096  0.875677  0.500000  1
  Ru  Ru18  1  0.721820  0.720986  0.500000  1
  Ru  Ru19  1  0.002190  0.277461  0.500000  1
  Ru  Ru20  1  0.001340  0.439398  0.000000  1
  Ru  Ru21  1  0.813314  0.191085  0.000000  1
  Ru  Ru22  1  0.277336  0.001249  0.500000  1
  Rh  Rh23  1  0.622900  0.807166  0.000000  1
  Rh  Rh24  1  0.187071  0.377939  0.000000  1
  Rh  Rh25  1  0.376986  0.186643  0.000000  1
  Rh  Rh26  1  0.190067  0.815255  0.000000  1
  Rh  Rh27  1  0.810134  0.623186  0.000000  1
  Rh  Rh28  1  0.873787  0.510033  0.500000  1
  Rh  Rh29  1  0.489004  0.363200  0.500000  1
  Rh  Rh30  1  0.635589  0.125218  0.500000  1
  Rh  Rh31  1  0.126425  0.638811  0.500000  1
  Rh  Rh32  1  0.363363  0.489678  0.500000  1
  Rh  Rh33  1  0.999732  0.999800  0.000000  1
  Rh  Rh34  1  0.440165  0.000946  0.000000  1
  Rh  Rh35  1  0.559877  0.557437  0.000000  1
