# generated using pymatgen
data_Pr2ThIn3IrRh2
_symmetry_space_group_name_H-M   'P 1'
_cell_length_a   7.69217124
_cell_length_b   7.86532453
_cell_length_c   4.02306000
_cell_angle_alpha   90.00000000
_cell_angle_beta   90.00000000
_cell_angle_gamma   120.92068062
_symmetry_Int_Tables_number   1
_chemical_formula_structural   Pr2ThIn3IrRh2
_chemical_formula_sum   'Pr2 Th1 In3 Ir1 Rh2'
_cell_volume   208.80860159
_cell_formula_units_Z   1
loop_
 _symmetry_equiv_pos_site_id
 _symmetry_equiv_pos_as_xyz
  1  'x, y, z'
loop_
 _atom_site_type_symbol
 _atom_site_label
 _atom_site_symmetry_multiplicity
 _atom_site_fract_x
 _atom_site_fract_y
 _atom_site_fract_z
 _atom_site_occupancy
  Pr  Pr0  1  0.409631  0.412993  0.500000  1
  Pr  Pr1  1  0.587156  0.996853  0.500000  1
  Th  Th2  1  0.000243  0.582231  0.500000  1
  In  In3  1  0.742746  0.749051  0.000000  1
  In  In4  1  0.999353  0.239616  0.000000  1
  In  In5  1  0.258239  0.007627  0.000000  1
  Ir  Ir6  1  0.306744  0.663898  0.000000  1
  Rh  Rh7  1  0.999985  0.988177  0.500000  1
  Rh  Rh8  1  0.695903  0.359557  0.000000  1
