# generated using pymatgen
data_La3TbFe4(P3Rh4)4
_symmetry_space_group_name_H-M   'P 1'
_cell_length_a   3.89423200
_cell_length_b   10.87068660
_cell_length_c   12.51488467
_cell_angle_alpha   89.88726839
_cell_angle_beta   90.00000000
_cell_angle_gamma   90.00000000
_symmetry_Int_Tables_number   1
_chemical_formula_structural   La3TbFe4(P3Rh4)4
_chemical_formula_sum   'La3 Tb1 Fe4 P12 Rh16'
_cell_volume   529.79128247
_cell_formula_units_Z   1
loop_
 _symmetry_equiv_pos_site_id
 _symmetry_equiv_pos_as_xyz
  1  'x, y, z'
loop_
 _atom_site_type_symbol
 _atom_site_label
 _atom_site_symmetry_multiplicity
 _atom_site_fract_x
 _atom_site_fract_y
 _atom_site_fract_z
 _atom_site_occupancy
  La  La0  1  0.250000  0.583838  0.708188  1
  La  La1  1  0.250000  0.916770  0.208449  1
  La  La2  1  0.750000  0.416234  0.291402  1
  Tb  Tb3  1  0.750000  0.083322  0.792187  1
  Fe  Fe4  1  0.250000  0.461360  0.932496  1
  Fe  Fe5  1  0.250000  0.036961  0.436827  1
  Fe  Fe6  1  0.750000  0.535967  0.065249  1
  Fe  Fe7  1  0.750000  0.965337  0.569796  1
  P  P8  1  0.250000  0.428892  0.102795  1
  P  P9  1  0.250000  0.070170  0.607942  1
  P  P10  1  0.750000  0.568961  0.895189  1
  P  P11  1  0.750000  0.929981  0.398895  1
  P  P12  1  0.250000  0.271972  0.868842  1
  P  P13  1  0.250000  0.223259  0.372793  1
  P  P14  1  0.750000  0.724186  0.126290  1
  P  P15  1  0.750000  0.776764  0.628549  1
  P  P16  1  0.250000  0.605318  0.390902  1
  P  P17  1  0.250000  0.899333  0.889683  1
  P  P18  1  0.750000  0.395671  0.608609  1
  P  P19  1  0.750000  0.105361  0.109351  1
  Rh  Rh20  1  0.250000  0.717870  0.991080  1
  Rh  Rh21  1  0.250000  0.784291  0.493186  1
  Rh  Rh22  1  0.750000  0.283667  0.007054  1
  Rh  Rh23  1  0.750000  0.216016  0.508629  1
  Rh  Rh24  1  0.250000  0.407983  0.484062  1
  Rh  Rh25  1  0.250000  0.093136  0.977330  1
  Rh  Rh26  1  0.750000  0.592118  0.516204  1
  Rh  Rh27  1  0.750000  0.910476  0.015745  1
  Rh  Rh28  1  0.250000  0.226073  0.173054  1
  Rh  Rh29  1  0.250000  0.267454  0.675554  1
  Rh  Rh30  1  0.750000  0.772191  0.826114  1
  Rh  Rh31  1  0.750000  0.728851  0.325419  1
  Rh  Rh32  1  0.250000  0.884518  0.702297  1
  Rh  Rh33  1  0.250000  0.618347  0.198715  1
  Rh  Rh34  1  0.750000  0.118235  0.301581  1
  Rh  Rh35  1  0.750000  0.379118  0.799543  1
