# generated using pymatgen
data_AcZn10Pt
_symmetry_space_group_name_H-M   'P 1'
_cell_length_a   6.93736845
_cell_length_b   8.40472820
_cell_length_c   8.42777282
_cell_angle_alpha   99.79070490
_cell_angle_beta   114.29683655
_cell_angle_gamma   65.59662772
_symmetry_Int_Tables_number   1
_chemical_formula_structural   AcZn10Pt
_chemical_formula_sum   'Ac2 Zn20 Pt2'
_cell_volume   407.85765114
_cell_formula_units_Z   2
loop_
 _symmetry_equiv_pos_site_id
 _symmetry_equiv_pos_as_xyz
  1  'x, y, z'
loop_
 _atom_site_type_symbol
 _atom_site_label
 _atom_site_symmetry_multiplicity
 _atom_site_fract_x
 _atom_site_fract_y
 _atom_site_fract_z
 _atom_site_occupancy
  Ac  Ac0  1  0.996174  0.999999  0.992322  1
  Ac  Ac1  1  0.253836  0.499971  0.507660  1
  Zn  Zn2  1  0.505922  0.000010  0.011627  1
  Zn  Zn3  1  0.901684  0.668913  0.084982  1
  Zn  Zn4  1  0.183306  0.331081  0.085107  1
  Zn  Zn5  1  0.349124  0.583052  0.170955  1
  Zn  Zn6  1  0.821854  0.416975  0.170972  1
  Zn  Zn7  1  0.428133  0.083036  0.329035  1
  Zn  Zn8  1  0.900869  0.916957  0.329042  1
  Zn  Zn9  1  0.066656  0.168920  0.414893  1
  Zn  Zn10  1  0.348320  0.831090  0.415039  1
  Zn  Zn11  1  0.744022  0.500018  0.488364  1
  Zn  Zn12  1  0.760349  0.173454  0.581320  1
  Zn  Zn13  1  0.821012  0.826506  0.581287  1
  Zn  Zn14  1  0.485666  0.083068  0.670704  1
  Zn  Zn15  1  0.185023  0.916858  0.670689  1
  Zn  Zn16  1  0.124995  0.250004  0.750016  1
  Zn  Zn17  1  0.625011  0.750003  0.750017  1
  Zn  Zn18  1  0.764315  0.416932  0.829291  1
  Zn  Zn19  1  0.065008  0.583109  0.829309  1
  Zn  Zn20  1  0.489695  0.326546  0.918697  1
  Zn  Zn21  1  0.429000  0.673478  0.918676  1
  Pt  Pt22  1  0.625028  0.250000  0.250015  1
  Pt  Pt23  1  0.624995  0.750023  0.249984  1
