# generated using pymatgen
data_Lu7ScTi9Si16Mo3
_symmetry_space_group_name_H-M   'P 1'
_cell_length_a   6.73155729
_cell_length_b   6.90192575
_cell_length_c   13.15496406
_cell_angle_alpha   89.94312161
_cell_angle_beta   89.97053659
_cell_angle_gamma   90.06688667
_symmetry_Int_Tables_number   1
_chemical_formula_structural   Lu7ScTi9Si16Mo3
_chemical_formula_sum   'Lu7 Sc1 Ti9 Si16 Mo3'
_cell_volume   611.18815282
_cell_formula_units_Z   1
loop_
 _symmetry_equiv_pos_site_id
 _symmetry_equiv_pos_as_xyz
  1  'x, y, z'
loop_
 _atom_site_type_symbol
 _atom_site_label
 _atom_site_symmetry_multiplicity
 _atom_site_fract_x
 _atom_site_fract_y
 _atom_site_fract_z
 _atom_site_occupancy
  Lu  Lu0  1  0.502098  0.326336  0.096993  1
  Lu  Lu1  1  0.002706  0.173741  0.402887  1
  Lu  Lu2  1  0.496200  0.670900  0.595364  1
  Lu  Lu3  1  0.997574  0.826545  0.906251  1
  Lu  Lu4  1  0.494875  0.670666  0.905685  1
  Lu  Lu5  1  0.997943  0.825949  0.595454  1
  Lu  Lu6  1  0.502694  0.326421  0.401673  1
  Sc  Sc7  1  0.002536  0.175860  0.098552  1
  Ti  Ti8  1  0.835756  0.327557  0.627028  1
  Ti  Ti9  1  0.332730  0.174964  0.873362  1
  Ti  Ti10  1  0.167901  0.673951  0.126337  1
  Ti  Ti11  1  0.668237  0.827972  0.372400  1
  Ti  Ti12  1  0.166971  0.674147  0.372218  1
  Ti  Ti13  1  0.667932  0.827813  0.125900  1
  Ti  Ti14  1  0.835777  0.326079  0.874047  1
  Ti  Ti15  1  0.332743  0.174745  0.626722  1
  Ti  Ti16  1  0.661342  0.008736  0.750454  1
  Si  Si17  1  0.661368  0.038158  0.540684  1
  Si  Si18  1  0.159959  0.458000  0.960006  1
  Si  Si19  1  0.334462  0.965195  0.042736  1
  Si  Si20  1  0.837643  0.539228  0.457845  1
  Si  Si21  1  0.339723  0.961874  0.457629  1
  Si  Si22  1  0.839533  0.534821  0.043153  1
  Si  Si23  1  0.660948  0.037996  0.959893  1
  Si  Si24  1  0.160989  0.461005  0.541340  1
  Si  Si25  1  0.535870  0.377047  0.750341  1
  Si  Si26  1  0.035645  0.122861  0.750324  1
  Si  Si27  1  0.465380  0.622631  0.249363  1
  Si  Si28  1  0.965763  0.879618  0.248233  1
  Si  Si29  1  0.795229  0.630343  0.750800  1
  Si  Si30  1  0.294602  0.869656  0.750501  1
  Si  Si31  1  0.201827  0.368855  0.248297  1
  Si  Si32  1  0.706769  0.130031  0.248412  1
  Mo  Mo33  1  0.159954  0.490307  0.750488  1
  Mo  Mo34  1  0.338558  0.990757  0.249207  1
  Mo  Mo35  1  0.839764  0.509238  0.249423  1
