# generated using pymatgen
data_ZrScBIr5Rh
_symmetry_space_group_name_H-M   'P 1'
_cell_length_a   5.72899484
_cell_length_b   5.72899012
_cell_length_c   5.71696200
_cell_angle_alpha   60.06946658
_cell_angle_beta   60.06938971
_cell_angle_gamma   60.06073677
_symmetry_Int_Tables_number   1
_chemical_formula_structural   ZrScBIr5Rh
_chemical_formula_sum   'Zr1 Sc1 B1 Ir5 Rh1'
_cell_volume   132.88046443
_cell_formula_units_Z   1
loop_
 _symmetry_equiv_pos_site_id
 _symmetry_equiv_pos_as_xyz
  1  'x, y, z'
loop_
 _atom_site_type_symbol
 _atom_site_label
 _atom_site_symmetry_multiplicity
 _atom_site_fract_x
 _atom_site_fract_y
 _atom_site_fract_z
 _atom_site_occupancy
  Zr  Zr0  1  0.249770  0.249770  0.250230  1
  Sc  Sc1  1  0.750100  0.750100  0.749900  1
  B  B2  1  0.000042  0.000042  0.999958  1
  Ir  Ir3  1  0.258081  0.741530  0.258546  1
  Ir  Ir4  1  0.741530  0.258081  0.258546  1
  Ir  Ir5  1  0.258999  0.258999  0.741001  1
  Ir  Ir6  1  0.741530  0.258081  0.741843  1
  Ir  Ir7  1  0.258081  0.741530  0.741843  1
  Rh  Rh8  1  0.741867  0.741867  0.258133  1
