# generated using pymatgen
data_Sc2TaNi8Pt
_symmetry_space_group_name_H-M   'P 1'
_cell_length_a   3.74804900
_cell_length_b   3.74804900
_cell_length_c   11.12372700
_cell_angle_alpha   90.00000000
_cell_angle_beta   90.00000000
_cell_angle_gamma   90.00000000
_symmetry_Int_Tables_number   1
_chemical_formula_structural   Sc2TaNi8Pt
_chemical_formula_sum   'Sc2 Ta1 Ni8 Pt1'
_cell_volume   156.26468534
_cell_formula_units_Z   1
loop_
 _symmetry_equiv_pos_site_id
 _symmetry_equiv_pos_as_xyz
  1  'x, y, z'
loop_
 _atom_site_type_symbol
 _atom_site_label
 _atom_site_symmetry_multiplicity
 _atom_site_fract_x
 _atom_site_fract_y
 _atom_site_fract_z
 _atom_site_occupancy
  Sc  Sc0  1  0.000000  0.000000  0.336196  1
  Sc  Sc1  1  0.000000  0.000000  0.667940  1
  Ta  Ta2  1  0.000000  0.000000  0.996699  1
  Ni  Ni3  1  0.500000  0.500000  0.996500  1
  Ni  Ni4  1  0.500000  0.500000  0.674094  1
  Ni  Ni5  1  0.500000  0.000000  0.153237  1
  Ni  Ni6  1  0.500000  0.000000  0.506876  1
  Ni  Ni7  1  0.500000  0.000000  0.839475  1
  Ni  Ni8  1  0.000000  0.500000  0.153237  1
  Ni  Ni9  1  0.000000  0.500000  0.506876  1
  Ni  Ni10  1  0.000000  0.500000  0.839475  1
  Pt  Pt11  1  0.500000  0.500000  0.329396  1
