# generated using pymatgen
data_Ho2Pa(Co3P2)3
_symmetry_space_group_name_H-M   'P 1'
_cell_length_a   3.71444600
_cell_length_b   10.53353500
_cell_length_c   12.14281300
_cell_angle_alpha   90.00000000
_cell_angle_beta   90.00000000
_cell_angle_gamma   90.00000000
_symmetry_Int_Tables_number   1
_chemical_formula_structural   Ho2Pa(Co3P2)3
_chemical_formula_sum   'Ho4 Pa2 Co18 P12'
_cell_volume   475.10270006
_cell_formula_units_Z   2
loop_
 _symmetry_equiv_pos_site_id
 _symmetry_equiv_pos_as_xyz
  1  'x, y, z'
loop_
 _atom_site_type_symbol
 _atom_site_label
 _atom_site_symmetry_multiplicity
 _atom_site_fract_x
 _atom_site_fract_y
 _atom_site_fract_z
 _atom_site_occupancy
  Ho  Ho0  1  0.500000  0.815702  0.205038  1
  Ho  Ho1  1  0.500000  0.184298  0.205038  1
  Ho  Ho2  1  0.000000  0.684298  0.794962  1
  Ho  Ho3  1  0.000000  0.315702  0.794962  1
  Pa  Pa4  1  0.000000  0.500000  0.528849  1
  Pa  Pa5  1  0.500000  0.000000  0.471151  1
  Co  Co6  1  0.000000  0.500000  0.985467  1
  Co  Co7  1  0.500000  0.000000  0.014533  1
  Co  Co8  1  0.500000  0.300838  0.431684  1
  Co  Co9  1  0.500000  0.699162  0.431684  1
  Co  Co10  1  0.000000  0.199162  0.568316  1
  Co  Co11  1  0.000000  0.800838  0.568316  1
  Co  Co12  1  0.500000  0.879918  0.710310  1
  Co  Co13  1  0.500000  0.120082  0.710310  1
  Co  Co14  1  0.000000  0.620082  0.289690  1
  Co  Co15  1  0.000000  0.379918  0.289690  1
  Co  Co16  1  0.500000  0.333968  0.994085  1
  Co  Co17  1  0.500000  0.666032  0.994085  1
  Co  Co18  1  0.000000  0.166032  0.005915  1
  Co  Co19  1  0.000000  0.833968  0.005915  1
  Co  Co20  1  0.500000  0.500000  0.158764  1
  Co  Co21  1  0.000000  0.000000  0.841236  1
  Co  Co22  1  0.500000  0.500000  0.697185  1
  Co  Co23  1  0.000000  0.000000  0.302815  1
  P  P24  1  0.500000  0.307320  0.617294  1
  P  P25  1  0.500000  0.692680  0.617294  1
  P  P26  1  0.000000  0.192680  0.382706  1
  P  P27  1  0.000000  0.807320  0.382706  1
  P  P28  1  0.500000  0.500000  0.879673  1
  P  P29  1  0.000000  0.000000  0.120327  1
  P  P30  1  0.500000  0.847055  0.894217  1
  P  P31  1  0.500000  0.152945  0.894217  1
  P  P32  1  0.000000  0.652945  0.105783  1
  P  P33  1  0.000000  0.347055  0.105783  1
  P  P34  1  0.500000  0.500000  0.343452  1
  P  P35  1  0.000000  0.000000  0.656548  1
