# generated using pymatgen
data_Lu4Fe4OsRu3
_symmetry_space_group_name_H-M   'P 1'
_cell_length_a   5.15835077
_cell_length_b   5.08859908
_cell_length_c   8.67253400
_cell_angle_alpha   90.00000000
_cell_angle_beta   90.00000000
_cell_angle_gamma   120.62618208
_symmetry_Int_Tables_number   1
_chemical_formula_structural   Lu4Fe4OsRu3
_chemical_formula_sum   'Lu4 Fe4 Os1 Ru3'
_cell_volume   195.88929253
_cell_formula_units_Z   1
loop_
 _symmetry_equiv_pos_site_id
 _symmetry_equiv_pos_as_xyz
  1  'x, y, z'
loop_
 _atom_site_type_symbol
 _atom_site_label
 _atom_site_symmetry_multiplicity
 _atom_site_fract_x
 _atom_site_fract_y
 _atom_site_fract_z
 _atom_site_occupancy
  Lu  Lu0  1  0.331772  0.664924  0.435576  1
  Lu  Lu1  1  0.665427  0.333946  0.565274  1
  Lu  Lu2  1  0.665427  0.333946  0.934726  1
  Lu  Lu3  1  0.331772  0.664924  0.064424  1
  Fe  Fe4  1  0.171808  0.339172  0.750000  1
  Fe  Fe5  1  0.173389  0.830142  0.750000  1
  Fe  Fe6  1  0.339199  0.169854  0.250000  1
  Fe  Fe7  1  0.832667  0.664558  0.250000  1
  Os  Os8  1  0.657212  0.828427  0.750000  1
  Ru  Ru9  1  0.002466  0.997999  0.999984  1
  Ru  Ru10  1  0.826395  0.174107  0.250000  1
  Ru  Ru11  1  0.002466  0.997999  0.500016  1
