# generated using pymatgen
data_ScHg4S2Cl5
_symmetry_space_group_name_H-M   'P 1'
_cell_length_a   10.14887900
_cell_length_b   9.24218447
_cell_length_c   16.12793500
_cell_angle_alpha   59.35058398
_cell_angle_beta   90.00000000
_cell_angle_gamma   90.00000000
_symmetry_Int_Tables_number   1
_chemical_formula_structural   ScHg4S2Cl5
_chemical_formula_sum   'Sc4 Hg16 S8 Cl20'
_cell_volume   1301.43578381
_cell_formula_units_Z   4
loop_
 _symmetry_equiv_pos_site_id
 _symmetry_equiv_pos_as_xyz
  1  'x, y, z'
loop_
 _atom_site_type_symbol
 _atom_site_label
 _atom_site_symmetry_multiplicity
 _atom_site_fract_x
 _atom_site_fract_y
 _atom_site_fract_z
 _atom_site_occupancy
  Sc  Sc0  1  0.001749  0.014723  0.739944  1
  Sc  Sc1  1  0.498251  0.014723  0.239944  1
  Sc  Sc2  1  0.998251  0.985277  0.260056  1
  Sc  Sc3  1  0.501749  0.985277  0.760056  1
  Hg  Hg4  1  0.749755  0.849889  0.049635  1
  Hg  Hg5  1  0.750245  0.849889  0.549635  1
  Hg  Hg6  1  0.250245  0.150111  0.950365  1
  Hg  Hg7  1  0.249755  0.150111  0.450365  1
  Hg  Hg8  1  0.749642  0.175578  0.946570  1
  Hg  Hg9  1  0.750358  0.175578  0.446570  1
  Hg  Hg10  1  0.250358  0.824422  0.053430  1
  Hg  Hg11  1  0.249642  0.824422  0.553430  1
  Hg  Hg12  1  0.741123  0.518770  0.991094  1
  Hg  Hg13  1  0.758877  0.518770  0.491094  1
  Hg  Hg14  1  0.258877  0.481230  0.008906  1
  Hg  Hg15  1  0.241123  0.481230  0.508906  1
  Hg  Hg16  1  0.505611  0.507316  0.649170  1
  Hg  Hg17  1  0.994389  0.507316  0.149170  1
  Hg  Hg18  1  0.494389  0.492684  0.350830  1
  Hg  Hg19  1  0.005611  0.492684  0.850830  1
  S  S20  1  0.756700  0.539074  0.132740  1
  S  S21  1  0.743300  0.539074  0.632740  1
  S  S22  1  0.243300  0.460926  0.867260  1
  S  S23  1  0.256700  0.460926  0.367260  1
  S  S24  1  0.733971  0.487559  0.353362  1
  S  S25  1  0.766029  0.487559  0.853362  1
  S  S26  1  0.266029  0.512441  0.646638  1
  S  S27  1  0.233971  0.512441  0.146638  1
  Cl  Cl28  1  0.499290  0.181182  0.825945  1
  Cl  Cl29  1  0.000710  0.181182  0.325945  1
  Cl  Cl30  1  0.500710  0.818818  0.174055  1
  Cl  Cl31  1  0.999290  0.818818  0.674055  1
  Cl  Cl32  1  0.499255  0.793777  0.698714  1
  Cl  Cl33  1  0.000745  0.793777  0.198714  1
  Cl  Cl34  1  0.500745  0.206223  0.301286  1
  Cl  Cl35  1  0.999255  0.206223  0.801286  1
  Cl  Cl36  1  0.536171  0.229798  0.594675  1
  Cl  Cl37  1  0.963829  0.229798  0.094675  1
  Cl  Cl38  1  0.463829  0.770202  0.405325  1
  Cl  Cl39  1  0.036171  0.770202  0.905325  1
  Cl  Cl40  1  0.973574  0.247778  0.570642  1
  Cl  Cl41  1  0.526426  0.247778  0.070642  1
  Cl  Cl42  1  0.026426  0.752222  0.429358  1
  Cl  Cl43  1  0.473574  0.752222  0.929358  1
  Cl  Cl44  1  0.751758  0.952768  0.784135  1
  Cl  Cl45  1  0.748242  0.952768  0.284135  1
  Cl  Cl46  1  0.248242  0.047232  0.215865  1
  Cl  Cl47  1  0.251758  0.047232  0.715865  1
