# generated using pymatgen
data_HoEr2Be2(PPd5)4
_symmetry_space_group_name_H-M   'P 1'
_cell_length_a   8.65811852
_cell_length_b   8.58406420
_cell_length_c   8.58406307
_cell_angle_alpha   60.57158388
_cell_angle_beta   59.71420843
_cell_angle_gamma   59.71421084
_symmetry_Int_Tables_number   1
_chemical_formula_structural   HoEr2Be2(PPd5)4
_chemical_formula_sum   'Ho1 Er2 Be2 P4 Pd20'
_cell_volume   451.05466890
_cell_formula_units_Z   1
loop_
 _symmetry_equiv_pos_site_id
 _symmetry_equiv_pos_as_xyz
  1  'x, y, z'
loop_
 _atom_site_type_symbol
 _atom_site_label
 _atom_site_symmetry_multiplicity
 _atom_site_fract_x
 _atom_site_fract_y
 _atom_site_fract_z
 _atom_site_occupancy
  Ho  Ho0  1  0.750000  0.750000  0.750000  1
  Er  Er1  1  0.250000  0.250000  0.250000  1
  Er  Er2  1  0.000000  0.000000  0.000000  1
  Be  Be3  1  0.733569  0.266431  0.266431  1
  Be  Be4  1  0.266431  0.733569  0.733569  1
  P  P5  1  0.266365  0.733635  0.266365  1
  P  P6  1  0.733635  0.266365  0.733635  1
  P  P7  1  0.266365  0.266365  0.733635  1
  P  P8  1  0.733635  0.733635  0.266365  1
  Pd  Pd9  1  0.387509  0.382230  0.382230  1
  Pd  Pd10  1  0.612432  0.617723  0.617723  1
  Pd  Pd11  1  0.382230  0.387509  0.848034  1
  Pd  Pd12  1  0.382230  0.848034  0.387509  1
  Pd  Pd13  1  0.617723  0.612432  0.152121  1
  Pd  Pd14  1  0.617723  0.152121  0.612432  1
  Pd  Pd15  1  0.848034  0.382230  0.382230  1
  Pd  Pd16  1  0.152121  0.617723  0.617723  1
  Pd  Pd17  1  0.344244  0.000019  0.000019  1
  Pd  Pd18  1  0.655718  0.000019  0.000019  1
  Pd  Pd19  1  0.000019  0.344244  0.655718  1
  Pd  Pd20  1  0.000019  0.655718  0.344244  1
  Pd  Pd21  1  0.997108  0.343456  0.002920  1
  Pd  Pd22  1  0.656517  0.002920  0.343456  1
  Pd  Pd23  1  0.002920  0.656517  0.997108  1
  Pd  Pd24  1  0.343456  0.997108  0.656517  1
  Pd  Pd25  1  0.997108  0.002920  0.343456  1
  Pd  Pd26  1  0.002920  0.997108  0.656517  1
  Pd  Pd27  1  0.656517  0.343456  0.002920  1
  Pd  Pd28  1  0.343456  0.656517  0.997108  1
