# generated using pymatgen
data_YEr3Si4(RuRh)2
_symmetry_space_group_name_H-M   'P 1'
_cell_length_a   4.30778600
_cell_length_b   6.91901535
_cell_length_c   7.19396431
_cell_angle_alpha   90.11175703
_cell_angle_beta   90.00000000
_cell_angle_gamma   90.00000000
_symmetry_Int_Tables_number   1
_chemical_formula_structural   YEr3Si4(RuRh)2
_chemical_formula_sum   'Y1 Er3 Si4 Ru2 Rh2'
_cell_volume   214.42028447
_cell_formula_units_Z   1
loop_
 _symmetry_equiv_pos_site_id
 _symmetry_equiv_pos_as_xyz
  1  'x, y, z'
loop_
 _atom_site_type_symbol
 _atom_site_label
 _atom_site_symmetry_multiplicity
 _atom_site_fract_x
 _atom_site_fract_y
 _atom_site_fract_z
 _atom_site_occupancy
  Y  Y0  1  0.250000  0.987945  0.812792  1
  Er  Er1  1  0.750000  0.013016  0.189610  1
  Er  Er2  1  0.250000  0.493299  0.686667  1
  Er  Er3  1  0.750000  0.506699  0.313039  1
  Si  Si4  1  0.250000  0.302382  0.100907  1
  Si  Si5  1  0.750000  0.697337  0.900155  1
  Si  Si6  1  0.250000  0.798996  0.385146  1
  Si  Si7  1  0.750000  0.201800  0.613621  1
  Ru  Ru8  1  0.750000  0.345720  0.933105  1
  Ru  Ru9  1  0.250000  0.653160  0.068254  1
  Rh  Rh10  1  0.750000  0.844532  0.563873  1
  Rh  Rh11  1  0.250000  0.155114  0.432832  1
