# generated using pymatgen
data_Sm3Gd3(CCl5)2
_symmetry_space_group_name_H-M   'P 1'
_cell_length_a   7.36644608
_cell_length_b   8.80097918
_cell_length_c   8.89687300
_cell_angle_alpha   108.41047281
_cell_angle_beta   96.43450229
_cell_angle_gamma   106.04600953
_symmetry_Int_Tables_number   1
_chemical_formula_structural   Sm3Gd3(CCl5)2
_chemical_formula_sum   'Sm3 Gd3 C2 Cl10'
_cell_volume   513.23309948
_cell_formula_units_Z   1
loop_
 _symmetry_equiv_pos_site_id
 _symmetry_equiv_pos_as_xyz
  1  'x, y, z'
loop_
 _atom_site_type_symbol
 _atom_site_label
 _atom_site_symmetry_multiplicity
 _atom_site_fract_x
 _atom_site_fract_y
 _atom_site_fract_z
 _atom_site_occupancy
  Sm  Sm0  1  0.880144  0.949579  0.230759  1
  Sm  Sm1  1  0.120635  0.048714  0.769117  1
  Sm  Sm2  1  0.027353  0.716141  0.912169  1
  Gd  Gd3  1  0.972640  0.282934  0.087658  1
  Gd  Gd4  1  0.609438  0.846606  0.794388  1
  Gd  Gd5  1  0.391127  0.154045  0.205747  1
  C  C6  1  0.904550  0.966743  0.952115  1
  C  C7  1  0.095559  0.035667  0.048811  1
  Cl  Cl8  1  0.763065  0.917865  0.544437  1
  Cl  Cl9  1  0.237518  0.083680  0.455930  1
  Cl  Cl10  1  0.458254  0.828657  0.078432  1
  Cl  Cl11  1  0.542411  0.172373  0.922353  1
  Cl  Cl12  1  0.808856  0.255545  0.344270  1
  Cl  Cl13  1  0.193099  0.744460  0.653520  1
  Cl  Cl14  1  0.910479  0.627691  0.165437  1
  Cl  Cl15  1  0.088319  0.370088  0.836610  1
  Cl  Cl16  1  0.659091  0.544039  0.722669  1
  Cl  Cl17  1  0.337463  0.455173  0.275576  1
