# generated using pymatgen
data_Tb2TmIn3Pt2Au
_symmetry_space_group_name_H-M   'P 1'
_cell_length_a   7.80162265
_cell_length_b   7.76871679
_cell_length_c   3.83297400
_cell_angle_alpha   90.00000000
_cell_angle_beta   90.00000000
_cell_angle_gamma   120.09338230
_symmetry_Int_Tables_number   1
_chemical_formula_structural   Tb2TmIn3Pt2Au
_chemical_formula_sum   'Tb2 Tm1 In3 Pt2 Au1'
_cell_volume   200.99779898
_cell_formula_units_Z   1
loop_
 _symmetry_equiv_pos_site_id
 _symmetry_equiv_pos_as_xyz
  1  'x, y, z'
loop_
 _atom_site_type_symbol
 _atom_site_label
 _atom_site_symmetry_multiplicity
 _atom_site_fract_x
 _atom_site_fract_y
 _atom_site_fract_z
 _atom_site_occupancy
  Tb  Tb0  1  0.013505  0.410562  0.000000  1
  Tb  Tb1  1  0.589785  0.603154  0.000000  1
  Tm  Tm2  1  0.395879  0.985600  0.000000  1
  In  In3  1  0.262214  0.259413  0.500000  1
  In  In4  1  0.000162  0.739128  0.500000  1
  In  In5  1  0.738777  0.001427  0.500000  1
  Pt  Pt6  1  0.001150  0.999909  0.000000  1
  Pt  Pt7  1  0.333931  0.669929  0.500000  1
  Au  Au8  1  0.664599  0.330877  0.500000  1
