# generated using pymatgen
data_Pr5Dy15(SnBi)8
_symmetry_space_group_name_H-M   'P 1'
_cell_length_a   8.27177155
_cell_length_b   8.29000638
_cell_length_c   15.74930685
_cell_angle_alpha   90.11351406
_cell_angle_beta   89.54537968
_cell_angle_gamma   89.88217774
_symmetry_Int_Tables_number   1
_chemical_formula_structural   Pr5Dy15(SnBi)8
_chemical_formula_sum   'Pr5 Dy15 Sn8 Bi8'
_cell_volume   1079.93939657
_cell_formula_units_Z   1
loop_
 _symmetry_equiv_pos_site_id
 _symmetry_equiv_pos_as_xyz
  1  'x, y, z'
loop_
 _atom_site_type_symbol
 _atom_site_label
 _atom_site_symmetry_multiplicity
 _atom_site_fract_x
 _atom_site_fract_y
 _atom_site_fract_z
 _atom_site_occupancy
  Pr  Pr0  1  0.953721  0.822731  0.106823  1
  Pr  Pr1  1  0.457439  0.675140  0.105862  1
  Pr  Pr2  1  0.955452  0.826212  0.394113  1
  Pr  Pr3  1  0.544291  0.326256  0.605957  1
  Pr  Pr4  1  0.041312  0.175652  0.895398  1
  Dy  Dy5  1  0.379499  0.839370  0.875714  1
  Dy  Dy6  1  0.882413  0.661193  0.623942  1
  Dy  Dy7  1  0.616161  0.162158  0.376467  1
  Dy  Dy8  1  0.117338  0.338877  0.125169  1
  Dy  Dy9  1  0.616170  0.160393  0.125317  1
  Dy  Dy10  1  0.112119  0.337793  0.376659  1
  Dy  Dy11  1  0.388010  0.838473  0.624483  1
  Dy  Dy12  1  0.883150  0.661539  0.874253  1
  Dy  Dy13  1  0.552068  0.329350  0.887138  1
  Dy  Dy14  1  0.056415  0.169341  0.613207  1
  Dy  Dy15  1  0.444643  0.669580  0.387474  1
  Dy  Dy16  1  0.216473  0.498061  0.749261  1
  Dy  Dy17  1  0.717311  0.002924  0.750705  1
  Dy  Dy18  1  0.783862  0.501777  0.249174  1
  Dy  Dy19  1  0.283003  0.996353  0.251367  1
  Sn  Sn20  1  0.581992  0.629581  0.750706  1
  Sn  Sn21  1  0.083041  0.870489  0.748747  1
  Sn  Sn22  1  0.416578  0.370302  0.251153  1
  Sn  Sn23  1  0.916557  0.129853  0.250700  1
  Sn  Sn24  1  0.355181  0.141924  0.752171  1
  Sn  Sn25  1  0.856555  0.358429  0.747974  1
  Sn  Sn26  1  0.643354  0.858470  0.252714  1
  Sn  Sn27  1  0.146655  0.638681  0.250634  1
  Bi  Bi28  1  0.278452  0.028737  0.046260  1
  Bi  Bi29  1  0.767927  0.480899  0.452711  1
  Bi  Bi30  1  0.731838  0.980885  0.547159  1
  Bi  Bi31  1  0.226947  0.524576  0.954196  1
  Bi  Bi32  1  0.714170  0.970798  0.955250  1
  Bi  Bi33  1  0.218968  0.530839  0.542337  1
  Bi  Bi34  1  0.281309  0.029924  0.458272  1
  Bi  Bi35  1  0.779626  0.462440  0.040533  1
