# generated using pymatgen
data_Ti10Sn6C
_symmetry_space_group_name_H-M   'P 1'
_cell_length_a   8.06344200
_cell_length_b   8.06344010
_cell_length_c   5.44290300
_cell_angle_alpha   90.00000000
_cell_angle_beta   90.00000000
_cell_angle_gamma   119.99999958
_symmetry_Int_Tables_number   1
_chemical_formula_structural   Ti10Sn6C
_chemical_formula_sum   'Ti10 Sn6 C1'
_cell_volume   306.47994346
_cell_formula_units_Z   1
loop_
 _symmetry_equiv_pos_site_id
 _symmetry_equiv_pos_as_xyz
  1  'x, y, z'
loop_
 _atom_site_type_symbol
 _atom_site_label
 _atom_site_symmetry_multiplicity
 _atom_site_fract_x
 _atom_site_fract_y
 _atom_site_fract_z
 _atom_site_occupancy
  Ti  Ti0  1  0.666667  0.333333  0.500000  1
  Ti  Ti1  1  0.333333  0.666667  0.500000  1
  Ti  Ti2  1  0.333333  0.666667  0.000000  1
  Ti  Ti3  1  0.666667  0.333333  0.000000  1
  Ti  Ti4  1  0.776544  0.776544  0.267232  1
  Ti  Ti5  1  0.223456  0.000000  0.267232  1
  Ti  Ti6  1  0.000000  0.223456  0.267232  1
  Ti  Ti7  1  0.223456  0.223456  0.732768  1
  Ti  Ti8  1  0.776544  0.000000  0.732768  1
  Ti  Ti9  1  0.000000  0.776544  0.732768  1
  Sn  Sn10  1  0.398243  0.398243  0.245969  1
  Sn  Sn11  1  0.601757  0.000000  0.245969  1
  Sn  Sn12  1  0.000000  0.601757  0.245969  1
  Sn  Sn13  1  0.601757  0.601757  0.754031  1
  Sn  Sn14  1  0.398243  0.000000  0.754031  1
  Sn  Sn15  1  0.000000  0.398243  0.754031  1
  C  C16  1  0.000000  0.000000  0.500000  1
