# generated using pymatgen
data_Y9Th3(Cd3C)4
_symmetry_space_group_name_H-M   'P 1'
_cell_length_a   9.60247063
_cell_length_b   9.61391884
_cell_length_c   9.60242300
_cell_angle_alpha   120.03933343
_cell_angle_beta   89.80850197
_cell_angle_gamma   120.03991475
_symmetry_Int_Tables_number   1
_chemical_formula_structural   Y9Th3(Cd3C)4
_chemical_formula_sum   'Y9 Th3 Cd12 C4'
_cell_volume   627.12109724
_cell_formula_units_Z   1
loop_
 _symmetry_equiv_pos_site_id
 _symmetry_equiv_pos_as_xyz
  1  'x, y, z'
loop_
 _atom_site_type_symbol
 _atom_site_label
 _atom_site_symmetry_multiplicity
 _atom_site_fract_x
 _atom_site_fract_y
 _atom_site_fract_z
 _atom_site_occupancy
  Y  Y0  1  0.934790  0.372169  0.183847  1
  Y  Y1  1  0.934802  0.746477  0.183881  1
  Y  Y2  1  0.686471  0.249619  0.437774  1
  Y  Y3  1  0.686445  0.874604  0.437763  1
  Y  Y4  1  0.316155  0.127827  0.565215  1
  Y  Y5  1  0.316128  0.753527  0.565202  1
  Y  Y6  1  0.687244  0.249996  0.812751  1
  Y  Y7  1  0.062231  0.625395  0.813547  1
  Y  Y8  1  0.062217  0.250376  0.813521  1
  Th  Th9  1  0.309704  0.750013  0.190306  1
  Th  Th10  1  0.062309  0.249996  0.437690  1
  Th  Th11  1  0.939390  0.750002  0.560617  1
  Cd  Cd12  1  0.998302  0.998082  0.997864  1
  Cd  Cd13  1  0.500583  0.000788  0.999417  1
  Cd  Cd14  1  0.500583  0.499216  0.999419  1
  Cd  Cd15  1  0.706675  0.913110  0.119549  1
  Cd  Cd16  1  0.292987  0.087344  0.207020  1
  Cd  Cd17  1  0.292981  0.412666  0.207012  1
  Cd  Cd18  1  0.621827  0.413830  0.205832  1
  Cd  Cd19  1  0.502137  0.501923  0.501700  1
  Cd  Cd20  1  0.380453  0.586893  0.793329  1
  Cd  Cd21  1  0.706256  0.582309  0.793747  1
  Cd  Cd22  1  0.706257  0.917693  0.793745  1
  Cd  Cd23  1  0.294169  0.086175  0.878176  1
  C  C24  1  0.003588  0.503445  0.003304  1
  C  C25  1  0.999319  0.000851  0.500684  1
  C  C26  1  0.496685  0.996545  0.496401  1
  C  C27  1  0.999319  0.499142  0.500691  1
