# generated using pymatgen
data_HoEr(MgIn2)2
_symmetry_space_group_name_H-M   'P 1'
_cell_length_a   6.44245232
_cell_length_b   6.44245224
_cell_length_c   9.26363500
_cell_angle_alpha   90.00000000
_cell_angle_beta   90.00000000
_cell_angle_gamma   91.73079580
_symmetry_Int_Tables_number   1
_chemical_formula_structural   HoEr(MgIn2)2
_chemical_formula_sum   'Ho2 Er2 Mg4 In8'
_cell_volume   384.31352871
_cell_formula_units_Z   2
loop_
 _symmetry_equiv_pos_site_id
 _symmetry_equiv_pos_as_xyz
  1  'x, y, z'
loop_
 _atom_site_type_symbol
 _atom_site_label
 _atom_site_symmetry_multiplicity
 _atom_site_fract_x
 _atom_site_fract_y
 _atom_site_fract_z
 _atom_site_occupancy
  Ho  Ho0  1  0.506243  0.506243  0.250000  1
  Ho  Ho1  1  0.493757  0.493757  0.750000  1
  Er  Er2  1  0.995236  0.995236  0.250000  1
  Er  Er3  1  0.004764  0.004764  0.750000  1
  Mg  Mg4  1  0.248631  0.751369  0.500000  1
  Mg  Mg5  1  0.248631  0.751369  0.000000  1
  Mg  Mg6  1  0.751369  0.248631  0.500000  1
  Mg  Mg7  1  0.751369  0.248631  0.000000  1
  In  In8  1  0.250178  0.250178  0.004980  1
  In  In9  1  0.749822  0.749822  0.995020  1
  In  In10  1  0.250178  0.250178  0.495020  1
  In  In11  1  0.749822  0.749822  0.504980  1
  In  In12  1  0.496679  0.006407  0.250000  1
  In  In13  1  0.993593  0.503321  0.750000  1
  In  In14  1  0.503321  0.993593  0.750000  1
  In  In15  1  0.006407  0.496679  0.250000  1
