# generated using pymatgen
data_CaZr2As3
_symmetry_space_group_name_H-M   'P 1'
_cell_length_a   3.94815500
_cell_length_b   3.94815429
_cell_length_c   9.61204100
_cell_angle_alpha   90.00000000
_cell_angle_beta   90.00000000
_cell_angle_gamma   119.99999755
_symmetry_Int_Tables_number   1
_chemical_formula_structural   CaZr2As3
_chemical_formula_sum   'Ca1 Zr2 As3'
_cell_volume   129.75812689
_cell_formula_units_Z   1
loop_
 _symmetry_equiv_pos_site_id
 _symmetry_equiv_pos_as_xyz
  1  'x, y, z'
loop_
 _atom_site_type_symbol
 _atom_site_label
 _atom_site_symmetry_multiplicity
 _atom_site_fract_x
 _atom_site_fract_y
 _atom_site_fract_z
 _atom_site_occupancy
  Ca  Ca0  1  0.000000  0.000000  0.000000  1
  Zr  Zr1  1  0.333333  0.666667  0.656882  1
  Zr  Zr2  1  0.666667  0.333333  0.343118  1
  As  As3  1  0.333333  0.666667  0.184862  1
  As  As4  1  0.666667  0.333333  0.815138  1
  As  As5  1  0.000000  0.000000  0.500000  1
