# generated using pymatgen
data_Yb2Y5Er(B6Os)4
_symmetry_space_group_name_H-M   'P 1'
_cell_length_a   3.65054100
_cell_length_b   9.16205364
_cell_length_c   11.55896401
_cell_angle_alpha   89.83140562
_cell_angle_beta   90.00000000
_cell_angle_gamma   90.00000000
_symmetry_Int_Tables_number   1
_chemical_formula_structural   Yb2Y5Er(B6Os)4
_chemical_formula_sum   'Yb2 Y5 Er1 B24 Os4'
_cell_volume   386.60466657
_cell_formula_units_Z   1
loop_
 _symmetry_equiv_pos_site_id
 _symmetry_equiv_pos_as_xyz
  1  'x, y, z'
loop_
 _atom_site_type_symbol
 _atom_site_label
 _atom_site_symmetry_multiplicity
 _atom_site_fract_x
 _atom_site_fract_y
 _atom_site_fract_z
 _atom_site_occupancy
  Yb  Yb0  1  0.000000  0.324757  0.414558  1
  Yb  Yb1  1  0.000000  0.675236  0.585581  1
  Y  Y2  1  0.000000  0.821935  0.086221  1
  Y  Y3  1  0.000000  0.178103  0.913589  1
  Y  Y4  1  0.000000  0.942097  0.370454  1
  Y  Y5  1  0.000000  0.057922  0.629670  1
  Y  Y6  1  0.000000  0.442995  0.129829  1
  Er  Er7  1  0.000000  0.557253  0.869484  1
  B  B8  1  0.500000  0.553918  0.432633  1
  B  B9  1  0.500000  0.446111  0.567568  1
  B  B10  1  0.500000  0.053612  0.066888  1
  B  B11  1  0.500000  0.946128  0.933008  1
  B  B12  1  0.500000  0.747389  0.418049  1
  B  B13  1  0.500000  0.252743  0.582040  1
  B  B14  1  0.500000  0.247841  0.081422  1
  B  B15  1  0.500000  0.751413  0.918415  1
  B  B16  1  0.500000  0.790596  0.264991  1
  B  B17  1  0.500000  0.209668  0.735062  1
  B  B18  1  0.500000  0.289771  0.234418  1
  B  B19  1  0.500000  0.709603  0.765829  1
  B  B20  1  0.500000  0.631490  0.185705  1
  B  B21  1  0.500000  0.369151  0.814490  1
  B  B22  1  0.500000  0.131148  0.313608  1
  B  B23  1  0.500000  0.868671  0.686521  1
  B  B24  1  0.500000  0.983476  0.211492  1
  B  B25  1  0.500000  0.016360  0.788560  1
  B  B26  1  0.500000  0.483970  0.288522  1
  B  B27  1  0.500000  0.516383  0.712033  1
  B  B28  1  0.500000  0.603812  0.027968  1
  B  B29  1  0.500000  0.396767  0.970825  1
  B  B30  1  0.500000  0.100244  0.472201  1
  B  B31  1  0.500000  0.899752  0.527864  1
  Os  Os32  1  0.000000  0.639309  0.319603  1
  Os  Os33  1  0.000000  0.361208  0.680895  1
  Os  Os34  1  0.000000  0.136730  0.177710  1
  Os  Os35  1  0.000000  0.862438  0.822294  1
