# generated using pymatgen
data_Zr8C4O
_symmetry_space_group_name_H-M   'P 1'
_cell_length_a   6.60748111
_cell_length_b   6.60748085
_cell_length_c   6.60748173
_cell_angle_alpha   60.49913459
_cell_angle_beta   60.49913082
_cell_angle_gamma   60.49913300
_symmetry_Int_Tables_number   1
_chemical_formula_structural   Zr8C4O
_chemical_formula_sum   'Zr8 C4 O1'
_cell_volume   206.28346186
_cell_formula_units_Z   1
loop_
 _symmetry_equiv_pos_site_id
 _symmetry_equiv_pos_as_xyz
  1  'x, y, z'
loop_
 _atom_site_type_symbol
 _atom_site_label
 _atom_site_symmetry_multiplicity
 _atom_site_fract_x
 _atom_site_fract_y
 _atom_site_fract_z
 _atom_site_occupancy
  Zr  Zr0  1  0.753463  0.753463  0.753463  1
  Zr  Zr1  1  0.747259  0.241421  0.747259  1
  Zr  Zr2  1  0.252741  0.758579  0.252741  1
  Zr  Zr3  1  0.241421  0.747259  0.747259  1
  Zr  Zr4  1  0.758579  0.252741  0.252741  1
  Zr  Zr5  1  0.246537  0.246537  0.246537  1
  Zr  Zr6  1  0.252741  0.252741  0.758579  1
  Zr  Zr7  1  0.747259  0.747259  0.241421  1
  C  C8  1  0.000000  0.000000  0.500000  1
  C  C9  1  0.000000  0.500000  0.000000  1
  C  C10  1  0.500000  0.000000  0.000000  1
  C  C11  1  0.500000  0.500000  0.500000  1
  O  O12  1  0.000000  0.000000  0.000000  1
