# generated using pymatgen
data_Zr3Sc3Al8Si8Rh7
_symmetry_space_group_name_H-M   'P 1'
_cell_length_a   8.60979636
_cell_length_b   8.60180778
_cell_length_c   8.59869153
_cell_angle_alpha   60.07343530
_cell_angle_beta   59.98123435
_cell_angle_gamma   59.94532411
_symmetry_Int_Tables_number   1
_chemical_formula_structural   Zr3Sc3Al8Si8Rh7
_chemical_formula_sum   'Zr3 Sc3 Al8 Si8 Rh7'
_cell_volume   450.29674540
_cell_formula_units_Z   1
loop_
 _symmetry_equiv_pos_site_id
 _symmetry_equiv_pos_as_xyz
  1  'x, y, z'
loop_
 _atom_site_type_symbol
 _atom_site_label
 _atom_site_symmetry_multiplicity
 _atom_site_fract_x
 _atom_site_fract_y
 _atom_site_fract_z
 _atom_site_occupancy
  Zr  Zr0  1  0.304999  0.305935  0.694064  1
  Zr  Zr1  1  0.693301  0.306698  0.693301  1
  Zr  Zr2  1  0.694064  0.695000  0.304999  1
  Sc  Sc3  1  0.692076  0.307923  0.306608  1
  Sc  Sc4  1  0.306608  0.693391  0.692076  1
  Sc  Sc5  1  0.306124  0.693875  0.306124  1
  Al  Al6  1  0.122363  0.121033  0.121541  1
  Al  Al7  1  0.121584  0.122353  0.634559  1
  Al  Al8  1  0.634559  0.121503  0.121584  1
  Al  Al9  1  0.121541  0.635062  0.122363  1
  Al  Al10  1  0.877646  0.878415  0.878496  1
  Al  Al11  1  0.878966  0.877636  0.364941  1
  Al  Al12  1  0.878496  0.365444  0.877646  1
  Al  Al13  1  0.364941  0.878458  0.878966  1
  Si  Si14  1  0.344881  0.345004  0.344799  1
  Si  Si15  1  0.343868  0.344567  0.967446  1
  Si  Si16  1  0.967446  0.344118  0.343868  1
  Si  Si17  1  0.344799  0.965314  0.344881  1
  Si  Si18  1  0.655433  0.656132  0.655882  1
  Si  Si19  1  0.654996  0.655119  0.034686  1
  Si  Si20  1  0.655882  0.032554  0.655433  1
  Si  Si21  1  0.034686  0.655201  0.654996  1
  Rh  Rh22  1  0.999513  0.000487  0.999513  1
  Rh  Rh23  1  0.500207  0.000626  0.999374  1
  Rh  Rh24  1  0.999374  0.499793  0.500207  1
  Rh  Rh25  1  0.000772  0.499228  0.000772  1
  Rh  Rh26  1  0.999834  0.000166  0.500269  1
  Rh  Rh27  1  0.500772  0.999228  0.500772  1
  Rh  Rh28  1  0.500269  0.499731  0.999834  1
