# generated using pymatgen
data_Tb7NiSn23Os5
_symmetry_space_group_name_H-M   'P 1'
_cell_length_a   9.89916800
_cell_length_b   9.86740633
_cell_length_c   10.12487435
_cell_angle_alpha   90.22678616
_cell_angle_beta   90.00000000
_cell_angle_gamma   120.10654256
_symmetry_Int_Tables_number   1
_chemical_formula_structural   Tb7NiSn23Os5
_chemical_formula_sum   'Tb7 Ni1 Sn23 Os5'
_cell_volume   855.55942001
_cell_formula_units_Z   1
loop_
 _symmetry_equiv_pos_site_id
 _symmetry_equiv_pos_as_xyz
  1  'x, y, z'
loop_
 _atom_site_type_symbol
 _atom_site_label
 _atom_site_symmetry_multiplicity
 _atom_site_fract_x
 _atom_site_fract_y
 _atom_site_fract_z
 _atom_site_occupancy
  Tb  Tb0  1  0.005908  0.011816  0.993109  1
  Tb  Tb1  1  0.035555  0.516325  0.306455  1
  Tb  Tb2  1  0.481740  0.963479  0.305152  1
  Tb  Tb3  1  0.480769  0.516325  0.306455  1
  Tb  Tb4  1  0.967641  0.483638  0.695912  1
  Tb  Tb5  1  0.515992  0.031984  0.696260  1
  Tb  Tb6  1  0.515998  0.483638  0.695912  1
  Ni  Ni7  1  0.829406  0.658813  0.199518  1
  Sn  Sn8  1  0.999507  0.999016  0.497308  1
  Sn  Sn9  1  0.112531  0.880563  0.275949  1
  Sn  Sn10  1  0.768031  0.880563  0.275949  1
  Sn  Sn11  1  0.116772  0.233545  0.276582  1
  Sn  Sn12  1  0.882846  0.115524  0.719879  1
  Sn  Sn13  1  0.232679  0.115524  0.719879  1
  Sn  Sn14  1  0.882743  0.765484  0.724296  1
  Sn  Sn15  1  0.349470  0.000549  0.999968  1
  Sn  Sn16  1  0.653260  0.652306  0.003737  1
  Sn  Sn17  1  0.998790  0.350865  0.999899  1
  Sn  Sn18  1  0.352074  0.350865  0.999899  1
  Sn  Sn19  1  0.999046  0.652306  0.003737  1
  Sn  Sn20  1  0.651078  0.000549  0.999968  1
  Sn  Sn21  1  0.781210  0.562420  0.457346  1
  Sn  Sn22  1  0.779463  0.219504  0.461245  1
  Sn  Sn23  1  0.440040  0.219504  0.461245  1
  Sn  Sn24  1  0.220220  0.440441  0.539607  1
  Sn  Sn25  1  0.219851  0.779805  0.539203  1
  Sn  Sn26  1  0.559953  0.779805  0.539203  1
  Sn  Sn27  1  0.665655  0.331309  0.178795  1
  Sn  Sn28  1  0.333201  0.666405  0.825248  1
  Sn  Sn29  1  0.667161  0.334322  0.875619  1
  Sn  Sn30  1  0.332885  0.665772  0.125131  1
  Os  Os31  1  0.168713  0.829566  0.799102  1
  Os  Os32  1  0.660854  0.829566  0.799102  1
  Os  Os33  1  0.168674  0.337348  0.800124  1
  Os  Os34  1  0.830926  0.170281  0.201603  1
  Os  Os35  1  0.339355  0.170281  0.201603  1
