# generated using pymatgen
data_Dy16Er4Si15Ag
_symmetry_space_group_name_H-M   'P 1'
_cell_length_a   7.44371022
_cell_length_b   7.68540538
_cell_length_c   14.64194742
_cell_angle_alpha   89.84363665
_cell_angle_beta   89.46134881
_cell_angle_gamma   90.17022235
_symmetry_Int_Tables_number   1
_chemical_formula_structural   Dy16Er4Si15Ag
_chemical_formula_sum   'Dy16 Er4 Si15 Ag1'
_cell_volume   837.59161494
_cell_formula_units_Z   1
loop_
 _symmetry_equiv_pos_site_id
 _symmetry_equiv_pos_as_xyz
  1  'x, y, z'
loop_
 _atom_site_type_symbol
 _atom_site_label
 _atom_site_symmetry_multiplicity
 _atom_site_fract_x
 _atom_site_fract_y
 _atom_site_fract_z
 _atom_site_occupancy
  Dy  Dy0  1  0.975541  0.822602  0.101304  1
  Dy  Dy1  1  0.471526  0.683786  0.401147  1
  Dy  Dy2  1  0.520969  0.315266  0.898844  1
  Dy  Dy3  1  0.029842  0.182407  0.598567  1
  Dy  Dy4  1  0.030031  0.176524  0.899867  1
  Dy  Dy5  1  0.529487  0.316440  0.598412  1
  Dy  Dy6  1  0.473355  0.682756  0.100732  1
  Dy  Dy7  1  0.969581  0.816804  0.400100  1
  Dy  Dy8  1  0.675800  0.825279  0.876136  1
  Dy  Dy9  1  0.181528  0.680150  0.621827  1
  Dy  Dy10  1  0.820435  0.323834  0.124156  1
  Dy  Dy11  1  0.318005  0.178365  0.377168  1
  Dy  Dy12  1  0.322678  0.178697  0.123613  1
  Dy  Dy13  1  0.819362  0.320481  0.377214  1
  Dy  Dy14  1  0.182145  0.676040  0.877759  1
  Dy  Dy15  1  0.681728  0.820958  0.622377  1
  Er  Er16  1  0.648373  0.990576  0.250088  1
  Er  Er17  1  0.150249  0.511506  0.248265  1
  Er  Er18  1  0.848525  0.488577  0.749513  1
  Er  Er19  1  0.349644  0.011878  0.749993  1
  Si  Si20  1  0.766321  0.629068  0.251532  1
  Si  Si21  1  0.267048  0.872406  0.251177  1
  Si  Si22  1  0.733668  0.126501  0.748801  1
  Si  Si23  1  0.230991  0.372926  0.747680  1
  Si  Si24  1  0.021296  0.104488  0.250388  1
  Si  Si25  1  0.522896  0.396330  0.252071  1
  Si  Si26  1  0.476174  0.603954  0.748209  1
  Si  Si27  1  0.977769  0.893134  0.748605  1
  Si  Si28  1  0.354420  0.971567  0.540281  1
  Si  Si29  1  0.649923  0.028469  0.041592  1
  Si  Si30  1  0.146616  0.470490  0.459873  1
  Si  Si31  1  0.158176  0.471149  0.042659  1
  Si  Si32  1  0.645656  0.028602  0.459184  1
  Si  Si33  1  0.351510  0.969487  0.960972  1
  Si  Si34  1  0.855077  0.529562  0.539237  1
  Ag  Ag35  1  0.843651  0.528936  0.960655  1
