# generated using pymatgen
data_Pr5SmCd23Ge
_symmetry_space_group_name_H-M   'P 1'
_cell_length_a   10.11501616
_cell_length_b   10.11351624
_cell_length_c   10.11351511
_cell_angle_alpha   60.00980199
_cell_angle_beta   59.99509464
_cell_angle_gamma   59.99509486
_symmetry_Int_Tables_number   1
_chemical_formula_structural   Pr5SmCd23Ge
_chemical_formula_sum   'Pr5 Sm1 Cd23 Ge1'
_cell_volume   731.56991931
_cell_formula_units_Z   1
loop_
 _symmetry_equiv_pos_site_id
 _symmetry_equiv_pos_as_xyz
  1  'x, y, z'
loop_
 _atom_site_type_symbol
 _atom_site_label
 _atom_site_symmetry_multiplicity
 _atom_site_fract_x
 _atom_site_fract_y
 _atom_site_fract_z
 _atom_site_occupancy
  Pr  Pr0  1  0.792235  0.791760  0.207765  1
  Pr  Pr1  1  0.208240  0.791760  0.207765  1
  Pr  Pr2  1  0.791704  0.208296  0.208296  1
  Pr  Pr3  1  0.208240  0.207765  0.791760  1
  Pr  Pr4  1  0.792235  0.207765  0.791760  1
  Sm  Sm5  1  0.207573  0.792427  0.792427  1
  Cd  Cd6  1  0.833904  0.834578  0.497612  1
  Cd  Cd7  1  0.833904  0.497612  0.834578  1
  Cd  Cd8  1  0.495486  0.834012  0.834012  1
  Cd  Cd9  1  0.836488  0.834012  0.834012  1
  Cd  Cd10  1  0.165988  0.163512  0.504514  1
  Cd  Cd11  1  0.165988  0.504514  0.163512  1
  Cd  Cd12  1  0.502388  0.166096  0.166096  1
  Cd  Cd13  1  0.165422  0.166096  0.166096  1
  Cd  Cd14  1  0.621920  0.623621  0.132542  1
  Cd  Cd15  1  0.621920  0.132542  0.623621  1
  Cd  Cd16  1  0.133602  0.622631  0.622631  1
  Cd  Cd17  1  0.621138  0.622631  0.622631  1
  Cd  Cd18  1  0.377369  0.378862  0.866398  1
  Cd  Cd19  1  0.377369  0.866398  0.378862  1
  Cd  Cd20  1  0.867458  0.378080  0.378080  1
  Cd  Cd21  1  0.376379  0.378080  0.378080  1
  Cd  Cd22  1  0.000342  0.999658  0.500173  1
  Cd  Cd23  1  0.499827  0.999658  0.500173  1
  Cd  Cd24  1  0.000344  0.499656  0.499656  1
  Cd  Cd25  1  0.499827  0.500173  0.999658  1
  Cd  Cd26  1  0.000342  0.500173  0.999658  1
  Cd  Cd27  1  0.500344  0.999656  0.999656  1
  Cd  Cd28  1  0.500320  0.499680  0.499680  1
  Ge  Ge29  1  0.001702  0.998298  0.998298  1
