# generated using pymatgen
data_Lu3Sn3Ir2Pt
_symmetry_space_group_name_H-M   'P 1'
_cell_length_a   7.49239500
_cell_length_b   7.49239477
_cell_length_c   3.85407100
_cell_angle_alpha   90.00000000
_cell_angle_beta   90.00000000
_cell_angle_gamma   119.99998779
_symmetry_Int_Tables_number   1
_chemical_formula_structural   Lu3Sn3Ir2Pt
_chemical_formula_sum   'Lu3 Sn3 Ir2 Pt1'
_cell_volume   187.36640033
_cell_formula_units_Z   1
loop_
 _symmetry_equiv_pos_site_id
 _symmetry_equiv_pos_as_xyz
  1  'x, y, z'
loop_
 _atom_site_type_symbol
 _atom_site_label
 _atom_site_symmetry_multiplicity
 _atom_site_fract_x
 _atom_site_fract_y
 _atom_site_fract_z
 _atom_site_occupancy
  Lu  Lu0  1  0.406005  0.398370  0.500000  1
  Lu  Lu1  1  0.601630  0.007635  0.500000  1
  Lu  Lu2  1  0.992365  0.593995  0.500000  1
  Sn  Sn3  1  0.739472  0.736276  0.000000  1
  Sn  Sn4  1  0.263724  0.003196  0.000000  1
  Sn  Sn5  1  0.996804  0.260528  0.000000  1
  Ir  Ir6  1  0.666667  0.333333  0.000000  1
  Ir  Ir7  1  0.000000  0.000000  0.500000  1
  Pt  Pt8  1  0.333333  0.666667  0.000000  1
