# generated using pymatgen
data_Cs8Ba4HfZrAs8
_symmetry_space_group_name_H-M   'P 1'
_cell_length_a   11.24321123
_cell_length_b   11.24685826
_cell_length_c   8.26931034
_cell_angle_alpha   87.57149082
_cell_angle_beta   87.60064374
_cell_angle_gamma   119.39691646
_symmetry_Int_Tables_number   1
_chemical_formula_structural   Cs8Ba4HfZrAs8
_chemical_formula_sum   'Cs8 Ba4 Hf1 Zr1 As8'
_cell_volume   907.84206220
_cell_formula_units_Z   1
loop_
 _symmetry_equiv_pos_site_id
 _symmetry_equiv_pos_as_xyz
  1  'x, y, z'
loop_
 _atom_site_type_symbol
 _atom_site_label
 _atom_site_symmetry_multiplicity
 _atom_site_fract_x
 _atom_site_fract_y
 _atom_site_fract_z
 _atom_site_occupancy
  Cs  Cs0  1  0.474458  0.940045  0.389991  1
  Cs  Cs1  1  0.939872  0.474361  0.889894  1
  Cs  Cs2  1  0.869415  0.724450  0.157892  1
  Cs  Cs3  1  0.259745  0.123952  0.241316  1
  Cs  Cs4  1  0.857743  0.142898  0.190933  1
  Cs  Cs5  1  0.123897  0.259584  0.741074  1
  Cs  Cs6  1  0.724682  0.869505  0.657698  1
  Cs  Cs7  1  0.142787  0.857868  0.690708  1
  Ba  Ba8  1  0.075226  0.534758  0.401207  1
  Ba  Ba9  1  0.476377  0.531743  0.377418  1
  Ba  Ba10  1  0.535139  0.075901  0.900865  1
  Ba  Ba11  1  0.531982  0.476144  0.877270  1
  Hf  Hf12  1  0.663078  0.336785  0.489312  1
  Zr  Zr13  1  0.336656  0.663183  0.988896  1
  As  As14  1  0.631042  0.326927  0.172293  1
  As  As15  1  0.326725  0.630612  0.669233  1
  As  As16  1  0.216784  0.415051  0.139272  1
  As  As17  1  0.593219  0.789435  0.069124  1
  As  As18  1  0.217738  0.799283  0.092585  1
  As  As19  1  0.788431  0.591306  0.568485  1
  As  As20  1  0.416694  0.217556  0.638123  1
  As  As21  1  0.798118  0.218464  0.591744  1
