# generated using pymatgen
data_La2Zn14Ir3
_symmetry_space_group_name_H-M   'P 1'
_cell_length_a   6.90610959
_cell_length_b   6.90610922
_cell_length_c   6.90610955
_cell_angle_alpha   82.94240354
_cell_angle_beta   97.05759466
_cell_angle_gamma   97.05759914
_symmetry_Int_Tables_number   1
_chemical_formula_structural   La2Zn14Ir3
_chemical_formula_sum   'La2 Zn14 Ir3'
_cell_volume   322.46194903
_cell_formula_units_Z   1
loop_
 _symmetry_equiv_pos_site_id
 _symmetry_equiv_pos_as_xyz
  1  'x, y, z'
loop_
 _atom_site_type_symbol
 _atom_site_label
 _atom_site_symmetry_multiplicity
 _atom_site_fract_x
 _atom_site_fract_y
 _atom_site_fract_z
 _atom_site_occupancy
  La  La0  1  0.668716  0.331283  0.331284  1
  La  La1  1  0.331284  0.668715  0.668716  1
  Zn  Zn2  1  0.289908  0.289908  0.000000  1
  Zn  Zn3  1  0.710091  0.710091  0.000000  1
  Zn  Zn4  1  0.899742  0.100257  0.100258  1
  Zn  Zn5  1  0.347832  0.652169  0.157572  1
  Zn  Zn6  1  0.289908  0.000000  0.289908  1
  Zn  Zn7  1  0.000000  0.710092  0.289908  1
  Zn  Zn8  1  0.157572  0.347831  0.347831  1
  Zn  Zn9  1  0.652169  0.842428  0.347831  1
  Zn  Zn10  1  0.347832  0.157572  0.652168  1
  Zn  Zn11  1  0.842429  0.652169  0.652168  1
  Zn  Zn12  1  0.710091  0.000000  0.710091  1
  Zn  Zn13  1  0.000000  0.289909  0.710092  1
  Zn  Zn14  1  0.652169  0.347831  0.842428  1
  Zn  Zn15  1  0.100257  0.899742  0.899743  1
  Ir  Ir16  1  0.500000  0.000000  0.999999  1
  Ir  Ir17  1  0.000001  0.500000  0.000000  1
  Ir  Ir18  1  0.000000  0.999999  0.499999  1
