# generated using pymatgen
data_Li4PrNd(HoSi3)2
_symmetry_space_group_name_H-M   'P 1'
_cell_length_a   9.34794910
_cell_length_b   9.34794766
_cell_length_c   6.80237900
_cell_angle_alpha   90.00000000
_cell_angle_beta   90.00000000
_cell_angle_gamma   153.19463391
_symmetry_Int_Tables_number   1
_chemical_formula_structural   Li4PrNd(HoSi3)2
_chemical_formula_sum   'Li4 Pr1 Nd1 Ho2 Si6'
_cell_volume   268.06033189
_cell_formula_units_Z   1
loop_
 _symmetry_equiv_pos_site_id
 _symmetry_equiv_pos_as_xyz
  1  'x, y, z'
loop_
 _atom_site_type_symbol
 _atom_site_label
 _atom_site_symmetry_multiplicity
 _atom_site_fract_x
 _atom_site_fract_y
 _atom_site_fract_z
 _atom_site_occupancy
  Li  Li0  1  0.190307  0.809693  0.059962  1
  Li  Li1  1  0.190307  0.809693  0.440038  1
  Li  Li2  1  0.809724  0.190276  0.939982  1
  Li  Li3  1  0.809724  0.190276  0.560018  1
  Pr  Pr4  1  0.553761  0.446239  0.250000  1
  Nd  Nd5  1  0.446234  0.553766  0.750000  1
  Ho  Ho6  1  0.343960  0.656040  0.250000  1
  Ho  Ho7  1  0.656026  0.343974  0.750000  1
  Si  Si8  1  0.723552  0.276448  0.250000  1
  Si  Si9  1  0.276593  0.723407  0.750000  1
  Si  Si10  1  0.059615  0.940385  0.924752  1
  Si  Si11  1  0.940291  0.059709  0.074602  1
  Si  Si12  1  0.940291  0.059709  0.425398  1
  Si  Si13  1  0.059615  0.940385  0.575248  1
