# generated using pymatgen
data_Nd2PaCo2Sn7
_symmetry_space_group_name_H-M   'P 1'
_cell_length_a   13.64617052
_cell_length_b   13.64616998
_cell_length_c   4.54955900
_cell_angle_alpha   90.00000000
_cell_angle_beta   90.00000000
_cell_angle_gamma   160.30060509
_symmetry_Int_Tables_number   1
_chemical_formula_structural   Nd2PaCo2Sn7
_chemical_formula_sum   'Nd2 Pa1 Co2 Sn7'
_cell_volume   285.58191783
_cell_formula_units_Z   1
loop_
 _symmetry_equiv_pos_site_id
 _symmetry_equiv_pos_as_xyz
  1  'x, y, z'
loop_
 _atom_site_type_symbol
 _atom_site_label
 _atom_site_symmetry_multiplicity
 _atom_site_fract_x
 _atom_site_fract_y
 _atom_site_fract_z
 _atom_site_occupancy
  Nd  Nd0  1  0.814965  0.185034  0.500000  1
  Nd  Nd1  1  0.185034  0.814965  0.500000  1
  Pa  Pa2  1  0.500000  0.500000  0.000000  1
  Co  Co3  1  0.625022  0.374978  0.000000  1
  Co  Co4  1  0.374978  0.625022  0.000000  1
  Sn  Sn5  1  0.911874  0.088125  0.000000  1
  Sn  Sn6  1  0.717677  0.282322  0.000000  1
  Sn  Sn7  1  0.282322  0.717677  0.000000  1
  Sn  Sn8  1  0.088125  0.911874  0.000000  1
  Sn  Sn9  1  0.000000  0.000000  0.500000  1
  Sn  Sn10  1  0.587427  0.412572  0.500000  1
  Sn  Sn11  1  0.412572  0.587427  0.500000  1
