# generated using pymatgen
data_ErTm5(AuO7)2
_symmetry_space_group_name_H-M   'P 1'
_cell_length_a   6.41468993
_cell_length_b   6.41469024
_cell_length_c   7.34725503
_cell_angle_alpha   90.00828324
_cell_angle_beta   89.99171628
_cell_angle_gamma   108.75203646
_symmetry_Int_Tables_number   1
_chemical_formula_structural   ErTm5(AuO7)2
_chemical_formula_sum   'Er1 Tm5 Au2 O14'
_cell_volume   286.27878256
_cell_formula_units_Z   1
loop_
 _symmetry_equiv_pos_site_id
 _symmetry_equiv_pos_as_xyz
  1  'x, y, z'
loop_
 _atom_site_type_symbol
 _atom_site_label
 _atom_site_symmetry_multiplicity
 _atom_site_fract_x
 _atom_site_fract_y
 _atom_site_fract_z
 _atom_site_occupancy
  Er  Er0  1  0.499478  0.499478  0.000000  1
  Tm  Tm1  1  0.001799  0.471170  0.749650  1
  Tm  Tm2  1  0.998200  0.528828  0.250161  1
  Tm  Tm3  1  0.528828  0.998200  0.749839  1
  Tm  Tm4  1  0.471170  0.001799  0.250350  1
  Tm  Tm5  1  0.500546  0.500546  0.500000  1
  Au  Au6  1  0.999947  0.999947  0.500000  1
  Au  Au7  1  0.000051  0.000051  0.000000  1
  O  O8  1  0.639529  0.360472  0.748981  1
  O  O9  1  0.360472  0.639529  0.251019  1
  O  O10  1  0.917309  0.082692  0.749987  1
  O  O11  1  0.082692  0.917309  0.250013  1
  O  O12  1  0.915911  0.666561  0.524750  1
  O  O13  1  0.083301  0.333310  0.024763  1
  O  O14  1  0.333310  0.083301  0.975237  1
  O  O15  1  0.666561  0.915911  0.475250  1
  O  O16  1  0.366650  0.633356  0.748837  1
  O  O17  1  0.633356  0.366650  0.251163  1
  O  O18  1  0.917015  0.666904  0.975066  1
  O  O19  1  0.083750  0.333221  0.475082  1
  O  O20  1  0.333221  0.083750  0.524918  1
  O  O21  1  0.666904  0.917015  0.024934  1
