# generated using pymatgen
data_Ti14VFeAs12
_symmetry_space_group_name_H-M   'P 1'
_cell_length_a   7.27123193
_cell_length_b   7.27122214
_cell_length_c   18.62019833
_cell_angle_alpha   90.09574747
_cell_angle_beta   89.90430813
_cell_angle_gamma   151.74758085
_symmetry_Int_Tables_number   1
_chemical_formula_structural   Ti14VFeAs12
_chemical_formula_sum   'Ti14 V1 Fe1 As12'
_cell_volume   466.00196050
_cell_formula_units_Z   1
loop_
 _symmetry_equiv_pos_site_id
 _symmetry_equiv_pos_as_xyz
  1  'x, y, z'
loop_
 _atom_site_type_symbol
 _atom_site_label
 _atom_site_symmetry_multiplicity
 _atom_site_fract_x
 _atom_site_fract_y
 _atom_site_fract_z
 _atom_site_occupancy
  Ti  Ti0  1  0.062068  0.937932  0.750145  1
  Ti  Ti1  1  0.937932  0.062068  0.249855  1
  Ti  Ti2  1  0.731679  0.268321  0.161069  1
  Ti  Ti3  1  0.268321  0.731679  0.838931  1
  Ti  Ti4  1  0.268483  0.731517  0.661565  1
  Ti  Ti5  1  0.731517  0.268483  0.338435  1
  Ti  Ti6  1  0.534610  0.465389  0.114878  1
  Ti  Ti7  1  0.465390  0.534611  0.885122  1
  Ti  Ti8  1  0.466099  0.533900  0.615257  1
  Ti  Ti9  1  0.533901  0.466100  0.384743  1
  Ti  Ti10  1  0.661301  0.338699  0.973121  1
  Ti  Ti11  1  0.338699  0.661301  0.026879  1
  Ti  Ti12  1  0.336981  0.663019  0.473673  1
  Ti  Ti13  1  0.663019  0.336981  0.526327  1
  V  V14  1  0.000000  0.000000  0.500000  1
  Fe  Fe15  1  0.000000  0.000000  0.000000  1
  As  As16  1  0.421055  0.578945  0.750210  1
  As  As17  1  0.578945  0.421055  0.249790  1
  As  As18  1  0.700992  0.299009  0.750293  1
  As  As19  1  0.299008  0.700991  0.249707  1
  As  As20  1  0.903535  0.096464  0.115135  1
  As  As21  1  0.096465  0.903536  0.884865  1
  As  As22  1  0.098135  0.901864  0.615839  1
  As  As23  1  0.901865  0.098136  0.384161  1
  As  As24  1  0.840185  0.159815  0.925669  1
  As  As25  1  0.159815  0.840185  0.074331  1
  As  As26  1  0.159264  0.840737  0.425366  1
  As  As27  1  0.840736  0.159263  0.574634  1
