# generated using pymatgen
data_Sb13Ru3
_symmetry_space_group_name_H-M   'P 1'
_cell_length_a   8.39780814
_cell_length_b   8.39780938
_cell_length_c   8.39781000
_cell_angle_alpha   109.72268629
_cell_angle_beta   109.72269656
_cell_angle_gamma   109.72271373
_symmetry_Int_Tables_number   1
_chemical_formula_structural   Sb13Ru3
_chemical_formula_sum   'Sb13 Ru3'
_cell_volume   451.61215937
_cell_formula_units_Z   1
loop_
 _symmetry_equiv_pos_site_id
 _symmetry_equiv_pos_as_xyz
  1  'x, y, z'
loop_
 _atom_site_type_symbol
 _atom_site_label
 _atom_site_symmetry_multiplicity
 _atom_site_fract_x
 _atom_site_fract_y
 _atom_site_fract_z
 _atom_site_occupancy
  Sb  Sb0  1  0.500000  0.500000  0.500000  1
  Sb  Sb1  1  0.328952  0.844828  0.173555  1
  Sb  Sb2  1  0.671048  0.155172  0.826445  1
  Sb  Sb3  1  0.334055  0.121678  0.505671  1
  Sb  Sb4  1  0.665945  0.878322  0.494329  1
  Sb  Sb5  1  0.844828  0.173555  0.328952  1
  Sb  Sb6  1  0.155172  0.826445  0.671048  1
  Sb  Sb7  1  0.121678  0.505671  0.334055  1
  Sb  Sb8  1  0.878322  0.494329  0.665945  1
  Sb  Sb9  1  0.173555  0.328952  0.844828  1
  Sb  Sb10  1  0.826445  0.671048  0.155172  1
  Sb  Sb11  1  0.505671  0.334055  0.121678  1
  Sb  Sb12  1  0.494329  0.665945  0.878322  1
  Ru  Ru13  1  0.500000  0.000000  0.000000  1
  Ru  Ru14  1  0.000000  0.500000  0.000000  1
  Ru  Ru15  1  0.000000  0.000000  0.500000  1
