# generated using pymatgen
data_Dy2YSn3GeRh2
_symmetry_space_group_name_H-M   'P 1'
_cell_length_a   7.41494694
_cell_length_b   7.42152270
_cell_length_c   4.15979300
_cell_angle_alpha   90.00000000
_cell_angle_beta   90.00000000
_cell_angle_gamma   120.02839271
_symmetry_Int_Tables_number   1
_chemical_formula_structural   Dy2YSn3GeRh2
_chemical_formula_sum   'Dy2 Y1 Sn3 Ge1 Rh2'
_cell_volume   198.18879413
_cell_formula_units_Z   1
loop_
 _symmetry_equiv_pos_site_id
 _symmetry_equiv_pos_as_xyz
  1  'x, y, z'
loop_
 _atom_site_type_symbol
 _atom_site_label
 _atom_site_symmetry_multiplicity
 _atom_site_fract_x
 _atom_site_fract_y
 _atom_site_fract_z
 _atom_site_occupancy
  Dy  Dy0  1  0.586694  0.989667  0.500000  1
  Dy  Dy1  1  0.010302  0.597060  0.500000  1
  Y  Y2  1  0.403773  0.412852  0.500000  1
  Sn  Sn3  1  0.742406  0.757009  0.000000  1
  Sn  Sn4  1  0.243197  0.985393  0.000000  1
  Sn  Sn5  1  0.014378  0.257695  0.000000  1
  Ge  Ge6  1  0.667009  0.333396  0.000000  1
  Rh  Rh7  1  0.333026  0.667850  0.000000  1
  Rh  Rh8  1  0.999214  0.999077  0.500000  1
