# generated using pymatgen
data_RbV4Br11
_symmetry_space_group_name_H-M   'P 1'
_cell_length_a   6.96119100
_cell_length_b   7.66311000
_cell_length_c   18.50042800
_cell_angle_alpha   90.00000000
_cell_angle_beta   90.00000000
_cell_angle_gamma   90.00000000
_symmetry_Int_Tables_number   1
_chemical_formula_structural   RbV4Br11
_chemical_formula_sum   'Rb2 V8 Br22'
_cell_volume   986.89372013
_cell_formula_units_Z   2
loop_
 _symmetry_equiv_pos_site_id
 _symmetry_equiv_pos_as_xyz
  1  'x, y, z'
loop_
 _atom_site_type_symbol
 _atom_site_label
 _atom_site_symmetry_multiplicity
 _atom_site_fract_x
 _atom_site_fract_y
 _atom_site_fract_z
 _atom_site_occupancy
  Rb  Rb0  1  0.091909  0.500000  0.750000  1
  Rb  Rb1  1  0.908091  0.500000  0.250000  1
  V  V2  1  0.349449  0.000000  0.668139  1
  V  V3  1  0.650551  0.000000  0.331861  1
  V  V4  1  0.349449  0.000000  0.831861  1
  V  V5  1  0.650551  0.000000  0.168139  1
  V  V6  1  0.500000  0.258203  0.500000  1
  V  V7  1  0.500000  0.258203  0.000000  1
  V  V8  1  0.500000  0.741797  0.500000  1
  V  V9  1  0.500000  0.741797  0.000000  1
  Br  Br10  1  0.646621  0.000000  0.579370  1
  Br  Br11  1  0.353379  0.000000  0.420630  1
  Br  Br12  1  0.646621  0.000000  0.920630  1
  Br  Br13  1  0.353379  0.000000  0.079370  1
  Br  Br14  1  0.207899  0.761272  0.586534  1
  Br  Br15  1  0.792101  0.761272  0.413466  1
  Br  Br16  1  0.207899  0.761272  0.913466  1
  Br  Br17  1  0.792101  0.761272  0.086534  1
  Br  Br18  1  0.792101  0.238728  0.413466  1
  Br  Br19  1  0.207899  0.238728  0.586534  1
  Br  Br20  1  0.792101  0.238728  0.086534  1
  Br  Br21  1  0.207899  0.238728  0.913466  1
  Br  Br22  1  0.334608  0.500000  0.427666  1
  Br  Br23  1  0.665392  0.500000  0.572334  1
  Br  Br24  1  0.334608  0.500000  0.072334  1
  Br  Br25  1  0.665392  0.500000  0.927666  1
  Br  Br26  1  0.051919  0.000000  0.750000  1
  Br  Br27  1  0.948081  0.000000  0.250000  1
  Br  Br28  1  0.507239  0.230949  0.750000  1
  Br  Br29  1  0.492761  0.230949  0.250000  1
  Br  Br30  1  0.492761  0.769051  0.250000  1
  Br  Br31  1  0.507239  0.769051  0.750000  1
