# generated using pymatgen
data_Cs6Na4TaNbP6
_symmetry_space_group_name_H-M   'P 1'
_cell_length_a   10.48619807
_cell_length_b   10.48620005
_cell_length_c   16.78839900
_cell_angle_alpha   90.00000000
_cell_angle_beta   90.00000000
_cell_angle_gamma   141.94468727
_symmetry_Int_Tables_number   1
_chemical_formula_structural   Cs6Na4TaNbP6
_chemical_formula_sum   'Cs12 Na8 Ta2 Nb2 P12'
_cell_volume   1137.95098379
_cell_formula_units_Z   2
loop_
 _symmetry_equiv_pos_site_id
 _symmetry_equiv_pos_as_xyz
  1  'x, y, z'
loop_
 _atom_site_type_symbol
 _atom_site_label
 _atom_site_symmetry_multiplicity
 _atom_site_fract_x
 _atom_site_fract_y
 _atom_site_fract_z
 _atom_site_occupancy
  Cs  Cs0  1  0.944514  0.611827  0.827395  1
  Cs  Cs1  1  0.555486  0.888173  0.327395  1
  Cs  Cs2  1  0.388173  0.055486  0.172605  1
  Cs  Cs3  1  0.055723  0.388205  0.172547  1
  Cs  Cs4  1  0.888205  0.555723  0.327453  1
  Cs  Cs5  1  0.444277  0.111795  0.672547  1
  Cs  Cs6  1  0.611795  0.944277  0.827453  1
  Cs  Cs7  1  0.279118  0.279005  0.314576  1
  Cs  Cs8  1  0.779005  0.779118  0.185424  1
  Cs  Cs9  1  0.220882  0.220995  0.814576  1
  Cs  Cs10  1  0.720995  0.720882  0.685424  1
  Cs  Cs11  1  0.111827  0.444514  0.672605  1
  Na  Na12  1  0.921375  0.078625  0.000000  1
  Na  Na13  1  0.578625  0.421375  0.500000  1
  Na  Na14  1  0.078639  0.921361  0.000000  1
  Na  Na15  1  0.421361  0.578639  0.500000  1
  Na  Na16  1  0.755552  0.244448  0.000000  1
  Na  Na17  1  0.744448  0.255552  0.500000  1
  Na  Na18  1  0.244495  0.755505  0.000000  1
  Na  Na19  1  0.255505  0.744495  0.500000  1
  Ta  Ta20  1  0.581585  0.418415  0.000000  1
  Ta  Ta21  1  0.918415  0.081585  0.500000  1
  Nb  Nb22  1  0.417737  0.582263  0.000000  1
  Nb  Nb23  1  0.082263  0.917737  0.500000  1
  P  P24  1  0.856696  0.552624  0.085661  1
  P  P25  1  0.447376  0.143304  0.914339  1
  P  P26  1  0.643304  0.947376  0.585661  1
  P  P27  1  0.946134  0.641047  0.586413  1
  P  P28  1  0.141047  0.446134  0.913587  1
  P  P29  1  0.553866  0.858953  0.086413  1
  P  P30  1  0.358953  0.053866  0.413587  1
  P  P31  1  0.192273  0.193761  0.581026  1
  P  P32  1  0.693761  0.692273  0.918974  1
  P  P33  1  0.307727  0.306239  0.081026  1
  P  P34  1  0.052624  0.356696  0.414339  1
  P  P35  1  0.806239  0.807727  0.418974  1
