# generated using pymatgen
data_Tb3Ga2Co9B4
_symmetry_space_group_name_H-M   'P 1'
_cell_length_a   5.14162022
_cell_length_b   5.14243133
_cell_length_c   9.55251900
_cell_angle_alpha   89.99997409
_cell_angle_beta   90.00011652
_cell_angle_gamma   119.96096411
_symmetry_Int_Tables_number   1
_chemical_formula_structural   Tb3Ga2Co9B4
_chemical_formula_sum   'Tb3 Ga2 Co9 B4'
_cell_volume   218.82036302
_cell_formula_units_Z   1
loop_
 _symmetry_equiv_pos_site_id
 _symmetry_equiv_pos_as_xyz
  1  'x, y, z'
loop_
 _atom_site_type_symbol
 _atom_site_label
 _atom_site_symmetry_multiplicity
 _atom_site_fract_x
 _atom_site_fract_y
 _atom_site_fract_z
 _atom_site_occupancy
  Tb  Tb0  1  0.999985  0.000000  0.999969  1
  Tb  Tb1  1  0.999996  0.000000  0.340588  1
  Tb  Tb2  1  0.000002  0.000000  0.659520  1
  Ga  Ga3  1  0.333360  0.666719  0.999912  1
  Ga  Ga4  1  0.666614  0.333282  0.999912  1
  Co  Co5  1  0.499998  0.000000  0.500003  1
  Co  Co6  1  0.499998  0.500001  0.500033  1
  Co  Co7  1  0.999997  0.499999  0.500037  1
  Co  Co8  1  0.499992  0.000000  0.207344  1
  Co  Co9  1  0.499991  0.499999  0.207277  1
  Co  Co10  1  0.999990  0.500000  0.207294  1
  Co  Co11  1  0.500000  0.000000  0.792642  1
  Co  Co12  1  0.499998  0.500002  0.792694  1
  Co  Co13  1  0.999997  0.499999  0.792701  1
  B  B14  1  0.333335  0.666587  0.349411  1
  B  B15  1  0.666652  0.333414  0.349411  1
  B  B16  1  0.666643  0.333372  0.650628  1
  B  B17  1  0.333351  0.666628  0.650628  1
