# generated using pymatgen
data_YZrB6Ru
_symmetry_space_group_name_H-M   'P 1'
_cell_length_a   3.56749200
_cell_length_b   9.06098200
_cell_length_c   11.43315000
_cell_angle_alpha   90.00000000
_cell_angle_beta   90.00000000
_cell_angle_gamma   90.00000000
_symmetry_Int_Tables_number   1
_chemical_formula_structural   YZrB6Ru
_chemical_formula_sum   'Y4 Zr4 B24 Ru4'
_cell_volume   369.57635420
_cell_formula_units_Z   4
loop_
 _symmetry_equiv_pos_site_id
 _symmetry_equiv_pos_as_xyz
  1  'x, y, z'
loop_
 _atom_site_type_symbol
 _atom_site_label
 _atom_site_symmetry_multiplicity
 _atom_site_fract_x
 _atom_site_fract_y
 _atom_site_fract_z
 _atom_site_occupancy
  Y  Y0  1  0.000000  0.322065  0.413342  1
  Y  Y1  1  0.000000  0.677935  0.586658  1
  Y  Y2  1  0.000000  0.822065  0.086658  1
  Y  Y3  1  0.000000  0.177935  0.913342  1
  Zr  Zr4  1  0.000000  0.944683  0.374086  1
  Zr  Zr5  1  0.000000  0.055317  0.625914  1
  Zr  Zr6  1  0.000000  0.444683  0.125914  1
  Zr  Zr7  1  0.000000  0.555317  0.874086  1
  B  B8  1  0.500000  0.554207  0.433628  1
  B  B9  1  0.500000  0.445793  0.566372  1
  B  B10  1  0.500000  0.054207  0.066372  1
  B  B11  1  0.500000  0.945793  0.933628  1
  B  B12  1  0.500000  0.751402  0.418963  1
  B  B13  1  0.500000  0.248598  0.581037  1
  B  B14  1  0.500000  0.251402  0.081037  1
  B  B15  1  0.500000  0.748598  0.918963  1
  B  B16  1  0.500000  0.794749  0.264341  1
  B  B17  1  0.500000  0.205251  0.735659  1
  B  B18  1  0.500000  0.294749  0.235659  1
  B  B19  1  0.500000  0.705251  0.764341  1
  B  B20  1  0.500000  0.630275  0.183343  1
  B  B21  1  0.500000  0.369725  0.816657  1
  B  B22  1  0.500000  0.130275  0.316657  1
  B  B23  1  0.500000  0.869725  0.683343  1
  B  B24  1  0.500000  0.982018  0.213101  1
  B  B25  1  0.500000  0.017982  0.786899  1
  B  B26  1  0.500000  0.482018  0.286899  1
  B  B27  1  0.500000  0.517982  0.713101  1
  B  B28  1  0.500000  0.602359  0.027866  1
  B  B29  1  0.500000  0.397641  0.972134  1
  B  B30  1  0.500000  0.102359  0.472134  1
  B  B31  1  0.500000  0.897641  0.527866  1
  Ru  Ru32  1  0.000000  0.641726  0.319263  1
  Ru  Ru33  1  0.000000  0.358274  0.680737  1
  Ru  Ru34  1  0.000000  0.141726  0.180737  1
  Ru  Ru35  1  0.000000  0.858274  0.819263  1
