# generated using pymatgen
data_La4Ir2Pd
_symmetry_space_group_name_H-M   'P 1'
_cell_length_a   7.87110178
_cell_length_b   7.85835881
_cell_length_c   7.86850969
_cell_angle_alpha   108.94917973
_cell_angle_beta   109.73884409
_cell_angle_gamma   109.68686388
_symmetry_Int_Tables_number   1
_chemical_formula_structural   La4Ir2Pd
_chemical_formula_sum   'La8 Ir4 Pd2'
_cell_volume   374.82306209
_cell_formula_units_Z   2
loop_
 _symmetry_equiv_pos_site_id
 _symmetry_equiv_pos_as_xyz
  1  'x, y, z'
loop_
 _atom_site_type_symbol
 _atom_site_label
 _atom_site_symmetry_multiplicity
 _atom_site_fract_x
 _atom_site_fract_y
 _atom_site_fract_z
 _atom_site_occupancy
  La  La0  1  0.117648  0.496128  0.990294  1
  La  La1  1  0.505298  0.000423  0.615893  1
  La  La2  1  0.393543  0.392921  0.390121  1
  La  La3  1  0.996546  0.115358  0.508332  1
  La  La4  1  0.882352  0.878480  0.872646  1
  La  La5  1  0.003454  0.618812  0.511787  1
  La  La6  1  0.606457  0.499378  0.996578  1
  La  La7  1  0.494702  0.995126  0.110596  1
  Ir  Ir8  1  0.375641  0.628772  0.751164  1
  Ir  Ir9  1  0.246302  0.122311  0.875180  1
  Ir  Ir10  1  0.753698  0.376009  0.628878  1
  Ir  Ir11  1  0.624359  0.753131  0.375523  1
  Pd  Pd12  1  0.876997  0.250074  0.125002  1
  Pd  Pd13  1  0.123003  0.873077  0.248006  1
