# generated using pymatgen
data_CaY6IrI12
_symmetry_space_group_name_H-M   'P 1'
_cell_length_a   9.84586150
_cell_length_b   9.84586067
_cell_length_c   9.84585939
_cell_angle_alpha   107.26760577
_cell_angle_beta   107.26761026
_cell_angle_gamma   107.26760808
_symmetry_Int_Tables_number   1
_chemical_formula_structural   CaY6IrI12
_chemical_formula_sum   'Ca1 Y6 Ir1 I12'
_cell_volume   789.01482540
_cell_formula_units_Z   1
loop_
 _symmetry_equiv_pos_site_id
 _symmetry_equiv_pos_as_xyz
  1  'x, y, z'
loop_
 _atom_site_type_symbol
 _atom_site_label
 _atom_site_symmetry_multiplicity
 _atom_site_fract_x
 _atom_site_fract_y
 _atom_site_fract_z
 _atom_site_occupancy
  Ca  Ca0  1  0.500000  0.500000  0.500000  1
  Y  Y1  1  0.904031  0.700297  0.976233  1
  Y  Y2  1  0.976233  0.904031  0.700297  1
  Y  Y3  1  0.700297  0.976233  0.904031  1
  Y  Y4  1  0.095969  0.299703  0.023767  1
  Y  Y5  1  0.023767  0.095969  0.299703  1
  Y  Y6  1  0.299703  0.023767  0.095969  1
  Ir  Ir7  1  0.000000  0.000000  0.000000  1
  I  I8  1  0.620235  0.848624  0.542565  1
  I  I9  1  0.542565  0.620235  0.848624  1
  I  I10  1  0.848624  0.542565  0.620235  1
  I  I11  1  0.379765  0.151376  0.457435  1
  I  I12  1  0.457435  0.379765  0.151376  1
  I  I13  1  0.151376  0.457435  0.379765  1
  I  I14  1  0.678918  0.073103  0.223714  1
  I  I15  1  0.223714  0.678918  0.073103  1
  I  I16  1  0.073103  0.223714  0.678918  1
  I  I17  1  0.321082  0.926897  0.776286  1
  I  I18  1  0.776286  0.321082  0.926897  1
  I  I19  1  0.926897  0.776286  0.321082  1
