# generated using pymatgen
data_Y3Pa(PtRh)2
_symmetry_space_group_name_H-M   'P 1'
_cell_length_a   4.38513800
_cell_length_b   5.67116009
_cell_length_c   7.08011885
_cell_angle_alpha   87.94112077
_cell_angle_beta   90.00000000
_cell_angle_gamma   90.00000000
_symmetry_Int_Tables_number   1
_chemical_formula_structural   Y3Pa(PtRh)2
_chemical_formula_sum   'Y3 Pa1 Pt2 Rh2'
_cell_volume   175.96053123
_cell_formula_units_Z   1
loop_
 _symmetry_equiv_pos_site_id
 _symmetry_equiv_pos_as_xyz
  1  'x, y, z'
loop_
 _atom_site_type_symbol
 _atom_site_label
 _atom_site_symmetry_multiplicity
 _atom_site_fract_x
 _atom_site_fract_y
 _atom_site_fract_z
 _atom_site_occupancy
  Y  Y0  1  0.750000  0.355067  0.817526  1
  Y  Y1  1  0.750000  0.150052  0.324190  1
  Y  Y2  1  0.250000  0.856102  0.685209  1
  Pa  Pa3  1  0.250000  0.648825  0.181487  1
  Pt  Pt4  1  0.250000  0.156260  0.049916  1
  Pt  Pt5  1  0.250000  0.356466  0.539958  1
  Rh  Rh6  1  0.750000  0.816387  0.986676  1
  Rh  Rh7  1  0.750000  0.660843  0.415037  1
