# generated using pymatgen
data_Ta4Mn3SiRu8
_symmetry_space_group_name_H-M   'P 1'
_cell_length_a   6.18729900
_cell_length_b   4.38000100
_cell_length_c   8.76310700
_cell_angle_alpha   90.00000000
_cell_angle_beta   89.99981586
_cell_angle_gamma   90.00000000
_symmetry_Int_Tables_number   1
_chemical_formula_structural   Ta4Mn3SiRu8
_chemical_formula_sum   'Ta4 Mn3 Si1 Ru8'
_cell_volume   237.48349294
_cell_formula_units_Z   1
loop_
 _symmetry_equiv_pos_site_id
 _symmetry_equiv_pos_as_xyz
  1  'x, y, z'
loop_
 _atom_site_type_symbol
 _atom_site_label
 _atom_site_symmetry_multiplicity
 _atom_site_fract_x
 _atom_site_fract_y
 _atom_site_fract_z
 _atom_site_occupancy
  Ta  Ta0  1  0.749996  0.249999  0.124989  1
  Ta  Ta1  1  0.249997  0.749999  0.377222  1
  Ta  Ta2  1  0.750003  0.249999  0.624989  1
  Ta  Ta3  1  0.250004  0.749999  0.872808  1
  Mn  Mn4  1  0.749991  0.749999  0.374594  1
  Mn  Mn5  1  0.250001  0.249999  0.624963  1
  Mn  Mn6  1  0.750006  0.749999  0.875420  1
  Si  Si7  1  0.249995  0.249999  0.125011  1
  Ru  Ru8  1  0.006728  0.749999  0.125051  1
  Ru  Ru9  1  0.493274  0.749999  0.125047  1
  Ru  Ru10  1  0.003066  0.249999  0.370402  1
  Ru  Ru11  1  0.496936  0.249999  0.370410  1
  Ru  Ru12  1  0.500532  0.749999  0.625020  1
  Ru  Ru13  1  0.999463  0.749999  0.625021  1
  Ru  Ru14  1  0.497015  0.249999  0.879524  1
  Ru  Ru15  1  0.002993  0.249999  0.879525  1
