# generated using pymatgen
data_Rb2PrDy5F20
_symmetry_space_group_name_H-M   'P 1'
_cell_length_a   8.37273927
_cell_length_b   8.37274159
_cell_length_c   8.31091300
_cell_angle_alpha   60.24381314
_cell_angle_beta   60.24379675
_cell_angle_gamma   59.51198485
_symmetry_Int_Tables_number   1
_chemical_formula_structural   Rb2PrDy5F20
_chemical_formula_sum   'Rb2 Pr1 Dy5 F20'
_cell_volume   411.92737712
_cell_formula_units_Z   1
loop_
 _symmetry_equiv_pos_site_id
 _symmetry_equiv_pos_as_xyz
  1  'x, y, z'
loop_
 _atom_site_type_symbol
 _atom_site_label
 _atom_site_symmetry_multiplicity
 _atom_site_fract_x
 _atom_site_fract_y
 _atom_site_fract_z
 _atom_site_occupancy
  Rb  Rb0  1  0.249025  0.249023  0.250976  1
  Rb  Rb1  1  0.749025  0.749025  0.750975  1
  Pr  Pr2  1  0.758612  0.758612  0.241388  1
  Dy  Dy3  1  0.759185  0.239464  0.240816  1
  Dy  Dy4  1  0.239464  0.759184  0.760536  1
  Dy  Dy5  1  0.239464  0.759184  0.240816  1
  Dy  Dy6  1  0.759185  0.239464  0.760536  1
  Dy  Dy7  1  0.240315  0.240315  0.759685  1
  F  F8  1  0.833615  0.490744  0.509256  1
  F  F9  1  0.171702  0.500315  0.499685  1
  F  F10  1  0.490744  0.833615  0.166385  1
  F  F11  1  0.500315  0.171701  0.828299  1
  F  F12  1  0.490744  0.833615  0.509256  1
  F  F13  1  0.171701  0.500315  0.828299  1
  F  F14  1  0.500315  0.171701  0.499686  1
  F  F15  1  0.833615  0.490744  0.166385  1
  F  F16  1  0.500044  0.500045  0.826721  1
  F  F17  1  0.500044  0.500044  0.173189  1
  F  F18  1  0.173280  0.826810  0.499956  1
  F  F19  1  0.826810  0.173280  0.499956  1
  F  F20  1  0.110095  0.110095  0.109882  1
  F  F21  1  0.893104  0.893104  0.880639  1
  F  F22  1  0.110095  0.110095  0.669928  1
  F  F23  1  0.119362  0.666847  0.106896  1
  F  F24  1  0.893104  0.893104  0.333153  1
  F  F25  1  0.890118  0.330073  0.889905  1
  F  F26  1  0.666847  0.119362  0.106896  1
  F  F27  1  0.330073  0.890118  0.889905  1
