# generated using pymatgen
data_PrEuUCo2Si7
_symmetry_space_group_name_H-M   'P 1'
_cell_length_a   4.06091735
_cell_length_b   4.13037500
_cell_length_c   12.54222578
_cell_angle_alpha   90.00000000
_cell_angle_beta   99.31660920
_cell_angle_gamma   90.00000000
_symmetry_Int_Tables_number   1
_chemical_formula_structural   PrEuUCo2Si7
_chemical_formula_sum   'Pr1 Eu1 U1 Co2 Si7'
_cell_volume   207.59709636
_cell_formula_units_Z   1
loop_
 _symmetry_equiv_pos_site_id
 _symmetry_equiv_pos_as_xyz
  1  'x, y, z'
loop_
 _atom_site_type_symbol
 _atom_site_label
 _atom_site_symmetry_multiplicity
 _atom_site_fract_x
 _atom_site_fract_y
 _atom_site_fract_z
 _atom_site_occupancy
  Pr  Pr0  1  0.681355  0.000000  0.362711  1
  Eu  Eu1  1  0.318693  0.000000  0.637387  1
  U  U2  1  0.999530  0.500000  0.999059  1
  Co  Co3  1  0.124669  0.500000  0.249340  1
  Co  Co4  1  0.875699  0.500000  0.751396  1
  Si  Si5  1  0.499496  0.000000  0.998992  1
  Si  Si6  1  0.415637  0.500000  0.831273  1
  Si  Si7  1  0.583800  0.500000  0.167600  1
  Si  Si8  1  0.083742  0.000000  0.167485  1
  Si  Si9  1  0.915593  0.000000  0.831185  1
  Si  Si10  1  0.220980  0.500000  0.441959  1
  Si  Si11  1  0.780806  0.500000  0.561613  1
