# generated using pymatgen
data_Yb4MnOs5Ru2
_symmetry_space_group_name_H-M   'P 1'
_cell_length_a   5.29352772
_cell_length_b   5.16531320
_cell_length_c   8.81596866
_cell_angle_alpha   89.97627454
_cell_angle_beta   89.72894935
_cell_angle_gamma   119.25500258
_symmetry_Int_Tables_number   1
_chemical_formula_structural   Yb4MnOs5Ru2
_chemical_formula_sum   'Yb4 Mn1 Os5 Ru2'
_cell_volume   210.30379990
_cell_formula_units_Z   1
loop_
 _symmetry_equiv_pos_site_id
 _symmetry_equiv_pos_as_xyz
  1  'x, y, z'
loop_
 _atom_site_type_symbol
 _atom_site_label
 _atom_site_symmetry_multiplicity
 _atom_site_fract_x
 _atom_site_fract_y
 _atom_site_fract_z
 _atom_site_occupancy
  Yb  Yb0  1  0.667394  0.333824  0.567030  1
  Yb  Yb1  1  0.334907  0.667317  0.431456  1
  Yb  Yb2  1  0.330665  0.665312  0.065609  1
  Yb  Yb3  1  0.665598  0.332872  0.935398  1
  Mn  Mn4  1  0.996650  0.998280  0.500092  1
  Os  Os5  1  0.171081  0.340392  0.746532  1
  Os  Os6  1  0.171520  0.830361  0.746575  1
  Os  Os7  1  0.659649  0.829810  0.746176  1
  Os  Os8  1  0.835569  0.661929  0.252601  1
  Os  Os9  1  0.835112  0.174274  0.252544  1
  Ru  Ru10  1  0.987381  0.993616  0.000121  1
  Ru  Ru11  1  0.344472  0.172014  0.255866  1
