# generated using pymatgen
data_Ho16MgCd(HgIr2)2
_symmetry_space_group_name_H-M   'P 1'
_cell_length_a   9.58985195
_cell_length_b   9.60217193
_cell_length_c   9.60192600
_cell_angle_alpha   60.00084724
_cell_angle_beta   59.95834240
_cell_angle_gamma   60.02302665
_symmetry_Int_Tables_number   1
_chemical_formula_structural   Ho16MgCd(HgIr2)2
_chemical_formula_sum   'Ho16 Mg1 Cd1 Hg2 Ir4'
_cell_volume   625.12386069
_cell_formula_units_Z   1
loop_
 _symmetry_equiv_pos_site_id
 _symmetry_equiv_pos_as_xyz
  1  'x, y, z'
loop_
 _atom_site_type_symbol
 _atom_site_label
 _atom_site_symmetry_multiplicity
 _atom_site_fract_x
 _atom_site_fract_y
 _atom_site_fract_z
 _atom_site_occupancy
  Ho  Ho0  1  0.598351  0.599742  0.596477  1
  Ho  Ho1  1  0.598351  0.599742  0.205431  1
  Ho  Ho2  1  0.601809  0.197926  0.600133  1
  Ho  Ho3  1  0.202456  0.601563  0.597990  1
  Ho  Ho4  1  0.060680  0.437258  0.440305  1
  Ho  Ho5  1  0.439011  0.059065  0.060107  1
  Ho  Ho6  1  0.439011  0.059065  0.441816  1
  Ho  Ho7  1  0.060680  0.437258  0.061756  1
  Ho  Ho8  1  0.438318  0.438449  0.061616  1
  Ho  Ho9  1  0.058686  0.058537  0.441389  1
  Ho  Ho10  1  0.187722  0.810891  0.812783  1
  Ho  Ho11  1  0.811207  0.185930  0.190271  1
  Ho  Ho12  1  0.811207  0.185930  0.812593  1
  Ho  Ho13  1  0.187722  0.810891  0.188604  1
  Ho  Ho14  1  0.812073  0.811629  0.188149  1
  Ho  Ho15  1  0.189739  0.186278  0.811991  1
  Mg  Mg16  1  0.825976  0.523798  0.825112  1
  Cd  Cd17  1  0.505532  0.830573  0.831947  1
  Hg  Hg18  1  0.834438  0.832086  0.836953  1
  Hg  Hg19  1  0.834438  0.832086  0.496521  1
  Ir  Ir20  1  0.392653  0.391761  0.391309  1
  Ir  Ir21  1  0.392653  0.391761  0.824278  1
  Ir  Ir22  1  0.392104  0.826062  0.390918  1
  Ir  Ir23  1  0.825181  0.391722  0.391549  1
