# generated using pymatgen
data_TbDy(ThPd2)2
_symmetry_space_group_name_H-M   'P 1'
_cell_length_a   3.84730400
_cell_length_b   4.46361300
_cell_length_c   11.15826900
_cell_angle_alpha   90.00000000
_cell_angle_beta   90.00000000
_cell_angle_gamma   90.00000000
_symmetry_Int_Tables_number   1
_chemical_formula_structural   TbDy(ThPd2)2
_chemical_formula_sum   'Tb1 Dy1 Th2 Pd4'
_cell_volume   191.61957158
_cell_formula_units_Z   1
loop_
 _symmetry_equiv_pos_site_id
 _symmetry_equiv_pos_as_xyz
  1  'x, y, z'
loop_
 _atom_site_type_symbol
 _atom_site_label
 _atom_site_symmetry_multiplicity
 _atom_site_fract_x
 _atom_site_fract_y
 _atom_site_fract_z
 _atom_site_occupancy
  Tb  Tb0  1  0.000000  0.000000  0.144320  1
  Dy  Dy1  1  0.500000  0.500000  0.356560  1
  Th  Th2  1  0.000000  0.500000  0.871525  1
  Th  Th3  1  0.500000  0.000000  0.628206  1
  Pd  Pd4  1  0.500000  0.500000  0.085702  1
  Pd  Pd5  1  0.000000  0.500000  0.592515  1
  Pd  Pd6  1  0.000000  0.000000  0.414355  1
  Pd  Pd7  1  0.500000  0.000000  0.906816  1
