# generated using pymatgen
data_Hf8In4Co3Cu5
_symmetry_space_group_name_H-M   'P 1'
_cell_length_a   7.20705731
_cell_length_b   7.20705731
_cell_length_c   6.70877779
_cell_angle_alpha   90.14584719
_cell_angle_beta   90.14584719
_cell_angle_gamma   90.46507438
_symmetry_Int_Tables_number   1
_chemical_formula_structural   Hf8In4Co3Cu5
_chemical_formula_sum   'Hf8 In4 Co3 Cu5'
_cell_volume   348.45139990
_cell_formula_units_Z   1
loop_
 _symmetry_equiv_pos_site_id
 _symmetry_equiv_pos_as_xyz
  1  'x, y, z'
loop_
 _atom_site_type_symbol
 _atom_site_label
 _atom_site_symmetry_multiplicity
 _atom_site_fract_x
 _atom_site_fract_y
 _atom_site_fract_z
 _atom_site_occupancy
  Hf  Hf0  1  0.155246  0.155246  0.006617  1
  Hf  Hf1  1  0.830975  0.830975  0.996779  1
  Hf  Hf2  1  0.651533  0.353100  0.493082  1
  Hf  Hf3  1  0.353100  0.651533  0.493082  1
  Hf  Hf4  1  0.675385  0.337720  0.006914  1
  Hf  Hf5  1  0.337720  0.675385  0.006914  1
  Hf  Hf6  1  0.806497  0.806497  0.502746  1
  Hf  Hf7  1  0.191638  0.191638  0.490411  1
  In  In8  1  0.502010  0.004482  0.246656  1
  In  In9  1  0.498428  0.000878  0.752032  1
  In  In10  1  0.004482  0.502010  0.246656  1
  In  In11  1  0.000878  0.498428  0.752032  1
  Co  Co12  1  0.370811  0.370811  0.225061  1
  Co  Co13  1  0.622448  0.622448  0.767784  1
  Co  Co14  1  0.630394  0.630394  0.229917  1
  Cu  Cu15  1  0.876249  0.124219  0.712740  1
  Cu  Cu16  1  0.874746  0.121313  0.285490  1
  Cu  Cu17  1  0.371930  0.371930  0.786855  1
  Cu  Cu18  1  0.121313  0.874746  0.285490  1
  Cu  Cu19  1  0.124219  0.876249  0.712740  1
