# generated using pymatgen
data_Tm9Lu(SiPb3)2
_symmetry_space_group_name_H-M   'P 1'
_cell_length_a   9.21620600
_cell_length_b   9.21620468
_cell_length_c   6.43990100
_cell_angle_alpha   90.00000000
_cell_angle_beta   90.00000000
_cell_angle_gamma   120.00000473
_symmetry_Int_Tables_number   1
_chemical_formula_structural   Tm9Lu(SiPb3)2
_chemical_formula_sum   'Tm9 Lu1 Si2 Pb6'
_cell_volume   473.71167338
_cell_formula_units_Z   1
loop_
 _symmetry_equiv_pos_site_id
 _symmetry_equiv_pos_as_xyz
  1  'x, y, z'
loop_
 _atom_site_type_symbol
 _atom_site_label
 _atom_site_symmetry_multiplicity
 _atom_site_fract_x
 _atom_site_fract_y
 _atom_site_fract_z
 _atom_site_occupancy
  Tm  Tm0  1  0.248810  0.999925  0.749917  1
  Tm  Tm1  1  0.751115  0.999925  0.250083  1
  Tm  Tm2  1  0.000075  0.248885  0.749917  1
  Tm  Tm3  1  0.000075  0.751190  0.250083  1
  Tm  Tm4  1  0.751115  0.751190  0.749917  1
  Tm  Tm5  1  0.248810  0.248885  0.250083  1
  Tm  Tm6  1  0.333333  0.666667  0.500000  1
  Tm  Tm7  1  0.666667  0.333333  0.500000  1
  Tm  Tm8  1  0.666667  0.333333  0.000000  1
  Lu  Lu9  1  0.333333  0.666667  0.000000  1
  Si  Si10  1  0.000000  0.000000  0.500000  1
  Si  Si11  1  0.000000  0.000000  0.000000  1
  Pb  Pb12  1  0.606056  0.999739  0.750077  1
  Pb  Pb13  1  0.393683  0.999739  0.249923  1
  Pb  Pb14  1  0.000261  0.606317  0.750077  1
  Pb  Pb15  1  0.000261  0.393944  0.249923  1
  Pb  Pb16  1  0.393683  0.393944  0.750077  1
  Pb  Pb17  1  0.606056  0.606317  0.249923  1
