# generated using pymatgen
data_Sr4NbFeO8
_symmetry_space_group_name_H-M   'P 1'
_cell_length_a   6.98423046
_cell_length_b   6.98423049
_cell_length_c   5.66628600
_cell_angle_alpha   90.00000000
_cell_angle_beta   90.00000000
_cell_angle_gamma   132.09950697
_symmetry_Int_Tables_number   1
_chemical_formula_structural   Sr4NbFeO8
_chemical_formula_sum   'Sr4 Nb1 Fe1 O8'
_cell_volume   205.08257290
_cell_formula_units_Z   1
loop_
 _symmetry_equiv_pos_site_id
 _symmetry_equiv_pos_as_xyz
  1  'x, y, z'
loop_
 _atom_site_type_symbol
 _atom_site_label
 _atom_site_symmetry_multiplicity
 _atom_site_fract_x
 _atom_site_fract_y
 _atom_site_fract_z
 _atom_site_occupancy
  Sr  Sr0  1  0.647704  0.352296  0.000000  1
  Sr  Sr1  1  0.144912  0.855088  0.500000  1
  Sr  Sr2  1  0.855088  0.144912  0.500000  1
  Sr  Sr3  1  0.352296  0.647704  0.000000  1
  Nb  Nb4  1  0.500000  0.500000  0.500000  1
  Fe  Fe5  1  0.000000  0.000000  0.000000  1
  O  O6  1  0.748743  0.748743  0.252628  1
  O  O7  1  0.251257  0.251257  0.747372  1
  O  O8  1  0.251257  0.251257  0.252628  1
  O  O9  1  0.748743  0.748743  0.747372  1
  O  O10  1  0.838127  0.161873  0.000000  1
  O  O11  1  0.339067  0.660933  0.500000  1
  O  O12  1  0.660933  0.339067  0.500000  1
  O  O13  1  0.161873  0.838127  0.000000  1
