# generated using pymatgen
data_Pr2Sc2ReB12Ru
_symmetry_space_group_name_H-M   'P 1'
_cell_length_a   3.64777200
_cell_length_b   9.10098391
_cell_length_c   11.57145743
_cell_angle_alpha   90.07422681
_cell_angle_beta   90.00000000
_cell_angle_gamma   90.00000000
_symmetry_Int_Tables_number   1
_chemical_formula_structural   Pr2Sc2ReB12Ru
_chemical_formula_sum   'Pr4 Sc4 Re2 B24 Ru2'
_cell_volume   384.15255795
_cell_formula_units_Z   2
loop_
 _symmetry_equiv_pos_site_id
 _symmetry_equiv_pos_as_xyz
  1  'x, y, z'
loop_
 _atom_site_type_symbol
 _atom_site_label
 _atom_site_symmetry_multiplicity
 _atom_site_fract_x
 _atom_site_fract_y
 _atom_site_fract_z
 _atom_site_occupancy
  Pr  Pr0  1  0.000000  0.321030  0.414647  1
  Pr  Pr1  1  0.000000  0.678970  0.585353  1
  Pr  Pr2  1  0.000000  0.822084  0.084661  1
  Pr  Pr3  1  0.000000  0.177916  0.915339  1
  Sc  Sc4  1  0.000000  0.945581  0.370610  1
  Sc  Sc5  1  0.000000  0.054419  0.629390  1
  Sc  Sc6  1  0.000000  0.443085  0.128800  1
  Sc  Sc7  1  0.000000  0.556915  0.871200  1
  Re  Re8  1  0.000000  0.142107  0.183748  1
  Re  Re9  1  0.000000  0.857893  0.816252  1
  B  B10  1  0.500000  0.557781  0.428717  1
  B  B11  1  0.500000  0.442219  0.571283  1
  B  B12  1  0.500000  0.056658  0.070714  1
  B  B13  1  0.500000  0.943342  0.929286  1
  B  B14  1  0.500000  0.754580  0.414872  1
  B  B15  1  0.500000  0.245420  0.585128  1
  B  B16  1  0.500000  0.254966  0.084680  1
  B  B17  1  0.500000  0.745034  0.915320  1
  B  B18  1  0.500000  0.793405  0.265825  1
  B  B19  1  0.500000  0.206595  0.734175  1
  B  B20  1  0.500000  0.294564  0.234667  1
  B  B21  1  0.500000  0.705436  0.765333  1
  B  B22  1  0.500000  0.627852  0.183997  1
  B  B23  1  0.500000  0.372148  0.816003  1
  B  B24  1  0.500000  0.128460  0.316868  1
  B  B25  1  0.500000  0.871540  0.683132  1
  B  B26  1  0.500000  0.983466  0.215979  1
  B  B27  1  0.500000  0.016534  0.784021  1
  B  B28  1  0.500000  0.484396  0.284900  1
  B  B29  1  0.500000  0.515604  0.715100  1
  B  B30  1  0.500000  0.594651  0.025340  1
  B  B31  1  0.500000  0.405349  0.974660  1
  B  B32  1  0.500000  0.095144  0.475059  1
  B  B33  1  0.500000  0.904856  0.524941  1
  Ru  Ru34  1  0.000000  0.641524  0.316697  1
  Ru  Ru35  1  0.000000  0.358476  0.683303  1
