# generated using pymatgen
data_Er8Lu12Si15Se
_symmetry_space_group_name_H-M   'P 1'
_cell_length_a   7.36578038
_cell_length_b   7.54020136
_cell_length_c   14.35197400
_cell_angle_alpha   89.67825386
_cell_angle_beta   86.74838428
_cell_angle_gamma   89.85512437
_symmetry_Int_Tables_number   1
_chemical_formula_structural   Er8Lu12Si15Se
_chemical_formula_sum   'Er8 Lu12 Si15 Se1'
_cell_volume   795.80321673
_cell_formula_units_Z   1
loop_
 _symmetry_equiv_pos_site_id
 _symmetry_equiv_pos_as_xyz
  1  'x, y, z'
loop_
 _atom_site_type_symbol
 _atom_site_label
 _atom_site_symmetry_multiplicity
 _atom_site_fract_x
 _atom_site_fract_y
 _atom_site_fract_z
 _atom_site_occupancy
  Er  Er0  1  0.013902  0.179825  0.098630  1
  Er  Er1  1  0.986663  0.822368  0.900713  1
  Er  Er2  1  0.487015  0.681105  0.901224  1
  Er  Er3  1  0.010024  0.830607  0.601548  1
  Er  Er4  1  0.513309  0.320130  0.098914  1
  Er  Er5  1  0.981501  0.167699  0.395993  1
  Er  Er6  1  0.493131  0.312831  0.397194  1
  Er  Er7  1  0.519944  0.685626  0.602588  1
  Lu  Lu8  1  0.177025  0.507407  0.753267  1
  Lu  Lu9  1  0.822304  0.493514  0.253014  1
  Lu  Lu10  1  0.320662  0.003283  0.252203  1
  Lu  Lu11  1  0.679159  0.996805  0.748126  1
  Lu  Lu12  1  0.363008  0.162378  0.622031  1
  Lu  Lu13  1  0.638623  0.831210  0.378825  1
  Lu  Lu14  1  0.136710  0.665318  0.379929  1
  Lu  Lu15  1  0.664241  0.820260  0.123361  1
  Lu  Lu16  1  0.857732  0.335055  0.619377  1
  Lu  Lu17  1  0.334662  0.178894  0.875579  1
  Lu  Lu18  1  0.833841  0.324321  0.875269  1
  Lu  Lu19  1  0.165943  0.676289  0.123665  1
  Si  Si20  1  0.050479  0.115783  0.748677  1
  Si  Si21  1  0.948372  0.885189  0.248810  1
  Si  Si22  1  0.448367  0.609547  0.250954  1
  Si  Si23  1  0.549175  0.389841  0.748201  1
  Si  Si24  1  0.299221  0.868697  0.751813  1
  Si  Si25  1  0.701789  0.128417  0.246709  1
  Si  Si26  1  0.202492  0.367828  0.248780  1
  Si  Si27  1  0.800881  0.633704  0.750861  1
  Si  Si28  1  0.788838  0.529450  0.456258  1
  Si  Si29  1  0.291205  0.965476  0.458419  1
  Si  Si30  1  0.844583  0.530729  0.039369  1
  Si  Si31  1  0.704116  0.035634  0.542392  1
  Si  Si32  1  0.154582  0.470560  0.959850  1
  Si  Si33  1  0.655278  0.032821  0.960247  1
  Si  Si34  1  0.343734  0.968742  0.039607  1
  Se  Se35  1  0.217488  0.472662  0.547604  1
