# generated using pymatgen
data_Tb4TcCl4
_symmetry_space_group_name_H-M   'P 1'
_cell_length_a   8.65686039
_cell_length_b   8.65686107
_cell_length_c   6.55917021
_cell_angle_alpha   89.91218979
_cell_angle_beta   89.91218275
_cell_angle_gamma   89.54672518
_symmetry_Int_Tables_number   1
_chemical_formula_structural   Tb4TcCl4
_chemical_formula_sum   'Tb8 Tc2 Cl8'
_cell_volume   491.53580584
_cell_formula_units_Z   2
loop_
 _symmetry_equiv_pos_site_id
 _symmetry_equiv_pos_as_xyz
  1  'x, y, z'
loop_
 _atom_site_type_symbol
 _atom_site_label
 _atom_site_symmetry_multiplicity
 _atom_site_fract_x
 _atom_site_fract_y
 _atom_site_fract_z
 _atom_site_occupancy
  Tb  Tb0  1  0.104833  0.742165  0.987074  1
  Tb  Tb1  1  0.257835  0.895167  0.512926  1
  Tb  Tb2  1  0.895167  0.257835  0.012926  1
  Tb  Tb3  1  0.742165  0.104833  0.487074  1
  Tb  Tb4  1  0.743276  0.896096  0.005638  1
  Tb  Tb5  1  0.103904  0.256724  0.494362  1
  Tb  Tb6  1  0.256724  0.103904  0.994362  1
  Tb  Tb7  1  0.896096  0.743276  0.505638  1
  Tc  Tc8  1  0.006834  0.993166  0.250000  1
  Tc  Tc9  1  0.993166  0.006834  0.750000  1
  Cl  Cl10  1  0.418733  0.821060  0.905012  1
  Cl  Cl11  1  0.178940  0.581267  0.594988  1
  Cl  Cl12  1  0.581267  0.178940  0.094988  1
  Cl  Cl13  1  0.821060  0.418733  0.405012  1
  Cl  Cl14  1  0.814375  0.583610  0.904961  1
  Cl  Cl15  1  0.416390  0.185625  0.595039  1
  Cl  Cl16  1  0.185625  0.416390  0.095039  1
  Cl  Cl17  1  0.583610  0.814375  0.404961  1
