# generated using pymatgen
data_CuIrRh3Pb3O14
_symmetry_space_group_name_H-M   'P 1'
_cell_length_a   7.28328876
_cell_length_b   7.28328868
_cell_length_c   7.20332641
_cell_angle_alpha   59.41781934
_cell_angle_beta   59.41782116
_cell_angle_gamma   59.86629450
_symmetry_Int_Tables_number   1
_chemical_formula_structural   CuIrRh3Pb3O14
_chemical_formula_sum   'Cu1 Ir1 Rh3 Pb3 O14'
_cell_volume   267.52356871
_cell_formula_units_Z   1
loop_
 _symmetry_equiv_pos_site_id
 _symmetry_equiv_pos_as_xyz
  1  'x, y, z'
loop_
 _atom_site_type_symbol
 _atom_site_label
 _atom_site_symmetry_multiplicity
 _atom_site_fract_x
 _atom_site_fract_y
 _atom_site_fract_z
 _atom_site_occupancy
  Cu  Cu0  1  0.125000  0.125000  0.625000  1
  Ir  Ir1  1  0.625000  0.625000  0.625000  1
  Rh  Rh2  1  0.125000  0.625000  0.625000  1
  Rh  Rh3  1  0.625000  0.125000  0.625000  1
  Rh  Rh4  1  0.625000  0.625000  0.125000  1
  Pb  Pb5  1  0.625000  0.125000  0.125000  1
  Pb  Pb6  1  0.125000  0.625000  0.125000  1
  Pb  Pb7  1  0.125000  0.125000  0.125000  1
  O  O8  1  0.708938  0.708938  0.290681  1
  O  O9  1  0.295663  0.295663  0.702737  1
  O  O10  1  0.690009  0.304893  0.707037  1
  O  O11  1  0.290883  0.709258  0.288197  1
  O  O12  1  0.304893  0.690009  0.707037  1
  O  O13  1  0.709258  0.290883  0.288197  1
  O  O14  1  0.541062  0.541062  0.959319  1
  O  O15  1  0.954337  0.954337  0.547263  1
  O  O16  1  0.559991  0.945107  0.542963  1
  O  O17  1  0.959117  0.540742  0.961803  1
  O  O18  1  0.945107  0.559991  0.542963  1
  O  O19  1  0.540742  0.959117  0.961803  1
  O  O20  1  0.233609  0.233609  0.302064  1
  O  O21  1  0.016391  0.016391  0.947936  1
