# generated using pymatgen
data_La4TaMo3O14
_symmetry_space_group_name_H-M   'P 1'
_cell_length_a   7.52716739
_cell_length_b   7.65308498
_cell_length_c   7.52716800
_cell_angle_alpha   60.54278793
_cell_angle_beta   59.99999731
_cell_angle_gamma   60.54278881
_symmetry_Int_Tables_number   1
_chemical_formula_structural   La4TaMo3O14
_chemical_formula_sum   'La4 Ta1 Mo3 O14'
_cell_volume   309.10033070
_cell_formula_units_Z   1
loop_
 _symmetry_equiv_pos_site_id
 _symmetry_equiv_pos_as_xyz
  1  'x, y, z'
loop_
 _atom_site_type_symbol
 _atom_site_label
 _atom_site_symmetry_multiplicity
 _atom_site_fract_x
 _atom_site_fract_y
 _atom_site_fract_z
 _atom_site_occupancy
  La  La0  1  0.625000  0.125000  0.125000  1
  La  La1  1  0.125000  0.625000  0.125000  1
  La  La2  1  0.125000  0.125000  0.625000  1
  La  La3  1  0.125000  0.125000  0.125000  1
  Ta  Ta4  1  0.625000  0.125000  0.625000  1
  Mo  Mo5  1  0.125000  0.625000  0.625000  1
  Mo  Mo6  1  0.625000  0.625000  0.125000  1
  Mo  Mo7  1  0.625000  0.625000  0.625000  1
  O  O8  1  0.249374  0.251879  0.249374  1
  O  O9  1  0.000626  0.998121  0.000626  1
  O  O10  1  0.701674  0.718188  0.290069  1
  O  O11  1  0.306366  0.291176  0.701230  1
  O  O12  1  0.701230  0.291176  0.701230  1
  O  O13  1  0.290069  0.718188  0.290069  1
  O  O14  1  0.290069  0.718188  0.701674  1
  O  O15  1  0.701230  0.291176  0.306366  1
  O  O16  1  0.548326  0.531812  0.959931  1
  O  O17  1  0.943634  0.958824  0.548770  1
  O  O18  1  0.548770  0.958824  0.548770  1
  O  O19  1  0.959931  0.531812  0.959931  1
  O  O20  1  0.959931  0.531812  0.548326  1
  O  O21  1  0.548770  0.958824  0.943634  1
