# generated using pymatgen
data_Pm2Se2S
_symmetry_space_group_name_H-M   'P 1'
_cell_length_a   4.09421400
_cell_length_b   10.93275400
_cell_length_c   11.36581500
_cell_angle_alpha   90.00000000
_cell_angle_beta   90.00000000
_cell_angle_gamma   90.00000000
_symmetry_Int_Tables_number   1
_chemical_formula_structural   Pm2Se2S
_chemical_formula_sum   'Pm8 Se8 S4'
_cell_volume   508.74563717
_cell_formula_units_Z   4
loop_
 _symmetry_equiv_pos_site_id
 _symmetry_equiv_pos_as_xyz
  1  'x, y, z'
loop_
 _atom_site_type_symbol
 _atom_site_label
 _atom_site_symmetry_multiplicity
 _atom_site_fract_x
 _atom_site_fract_y
 _atom_site_fract_z
 _atom_site_occupancy
  Pm  Pm0  1  0.250000  0.002782  0.697926  1
  Pm  Pm1  1  0.750000  0.997218  0.302074  1
  Pm  Pm2  1  0.750000  0.502782  0.802074  1
  Pm  Pm3  1  0.250000  0.497218  0.197926  1
  Pm  Pm4  1  0.250000  0.320819  0.509090  1
  Pm  Pm5  1  0.750000  0.679181  0.490910  1
  Pm  Pm6  1  0.750000  0.820819  0.990910  1
  Pm  Pm7  1  0.250000  0.179181  0.009090  1
  Se  Se8  1  0.250000  0.873170  0.457096  1
  Se  Se9  1  0.750000  0.126830  0.542904  1
  Se  Se10  1  0.750000  0.373170  0.042904  1
  Se  Se11  1  0.250000  0.626830  0.957096  1
  Se  Se12  1  0.250000  0.299905  0.769570  1
  Se  Se13  1  0.750000  0.700095  0.230430  1
  Se  Se14  1  0.750000  0.799905  0.730430  1
  Se  Se15  1  0.250000  0.200095  0.269570  1
  S  S16  1  0.750000  0.055186  0.881691  1
  S  S17  1  0.250000  0.944814  0.118309  1
  S  S18  1  0.250000  0.555186  0.618309  1
  S  S19  1  0.750000  0.444814  0.381691  1
