# generated using pymatgen
data_Sm4DyY(AlC3)2
_symmetry_space_group_name_H-M   'P 1'
_cell_length_a   3.65435100
_cell_length_b   7.26089864
_cell_length_c   10.04606513
_cell_angle_alpha   89.55652424
_cell_angle_beta   90.00000000
_cell_angle_gamma   90.00000000
_symmetry_Int_Tables_number   1
_chemical_formula_structural   Sm4DyY(AlC3)2
_chemical_formula_sum   'Sm4 Dy1 Y1 Al2 C6'
_cell_volume   266.55302372
_cell_formula_units_Z   1
loop_
 _symmetry_equiv_pos_site_id
 _symmetry_equiv_pos_as_xyz
  1  'x, y, z'
loop_
 _atom_site_type_symbol
 _atom_site_label
 _atom_site_symmetry_multiplicity
 _atom_site_fract_x
 _atom_site_fract_y
 _atom_site_fract_z
 _atom_site_occupancy
  Sm  Sm0  1  0.500000  0.512611  0.194337  1
  Sm  Sm1  1  0.500000  0.487203  0.805694  1
  Sm  Sm2  1  0.000000  0.750299  0.460116  1
  Sm  Sm3  1  0.000000  0.249658  0.540011  1
  Dy  Dy4  1  0.500000  0.987864  0.200233  1
  Y  Y5  1  0.500000  0.011448  0.800001  1
  Al  Al6  1  0.000000  0.767615  0.006271  1
  Al  Al7  1  0.000000  0.232411  0.993730  1
  C  C8  1  0.500000  0.507534  0.565483  1
  C  C9  1  0.500000  0.492435  0.434485  1
  C  C10  1  0.500000  0.991918  0.565336  1
  C  C11  1  0.500000  0.007988  0.434299  1
  C  C12  1  0.000000  0.756196  0.207343  1
  C  C13  1  0.000000  0.244820  0.792663  1
