# generated using pymatgen
data_AlTc4As5
_symmetry_space_group_name_H-M   'P 1'
_cell_length_a   6.21932465
_cell_length_b   6.81943120
_cell_length_c   8.24469171
_cell_angle_alpha   95.67073268
_cell_angle_beta   100.79912484
_cell_angle_gamma   103.18606378
_symmetry_Int_Tables_number   1
_chemical_formula_structural   AlTc4As5
_chemical_formula_sum   'Al2 Tc8 As10'
_cell_volume   330.74386103
_cell_formula_units_Z   2
loop_
 _symmetry_equiv_pos_site_id
 _symmetry_equiv_pos_as_xyz
  1  'x, y, z'
loop_
 _atom_site_type_symbol
 _atom_site_label
 _atom_site_symmetry_multiplicity
 _atom_site_fract_x
 _atom_site_fract_y
 _atom_site_fract_z
 _atom_site_occupancy
  Al  Al0  1  0.736803  0.572994  0.373047  1
  Al  Al1  1  0.263197  0.427006  0.626953  1
  Tc  Tc2  1  0.890628  0.423082  0.126619  1
  Tc  Tc3  1  0.109372  0.576918  0.873381  1
  Tc  Tc4  1  0.383905  0.425803  0.125482  1
  Tc  Tc5  1  0.616095  0.574197  0.874518  1
  Tc  Tc6  1  0.559165  0.881177  0.369460  1
  Tc  Tc7  1  0.440835  0.118823  0.630540  1
  Tc  Tc8  1  0.067571  0.883429  0.371907  1
  Tc  Tc9  1  0.932429  0.116571  0.628093  1
  As  As10  1  0.233707  0.576962  0.365728  1
  As  As11  1  0.766293  0.423038  0.634272  1
  As  As12  1  0.868020  0.156712  0.322159  1
  As  As13  1  0.131980  0.843288  0.677841  1
  As  As14  1  0.373526  0.162174  0.325483  1
  As  As15  1  0.626474  0.837826  0.674517  1
  As  As16  1  0.535204  0.195085  0.949588  1
  As  As17  1  0.464796  0.804915  0.050412  1
  As  As18  1  0.035828  0.194208  0.946889  1
  As  As19  1  0.964172  0.805792  0.053111  1
