# generated using pymatgen
data_Nd3InAg2Pd3
_symmetry_space_group_name_H-M   'P 1'
_cell_length_a   7.60385200
_cell_length_b   7.71567093
_cell_length_c   4.02642800
_cell_angle_alpha   90.00000000
_cell_angle_beta   90.00000000
_cell_angle_gamma   119.52174067
_symmetry_Int_Tables_number   1
_chemical_formula_structural   Nd3InAg2Pd3
_chemical_formula_sum   'Nd3 In1 Ag2 Pd3'
_cell_volume   205.55629905
_cell_formula_units_Z   1
loop_
 _symmetry_equiv_pos_site_id
 _symmetry_equiv_pos_as_xyz
  1  'x, y, z'
loop_
 _atom_site_type_symbol
 _atom_site_label
 _atom_site_symmetry_multiplicity
 _atom_site_fract_x
 _atom_site_fract_y
 _atom_site_fract_z
 _atom_site_occupancy
  Nd  Nd0  1  0.994165  0.590680  0.000000  1
  Nd  Nd1  1  0.403485  0.409320  0.000000  1
  Nd  Nd2  1  0.605545  0.000000  0.000000  1
  In  In3  1  0.251745  0.000000  0.500000  1
  Ag  Ag4  1  0.745716  0.745051  0.500000  1
  Ag  Ag5  1  0.000665  0.254949  0.500000  1
  Pd  Pd6  1  0.329500  0.670966  0.500000  1
  Pd  Pd7  1  0.010643  0.000000  0.000000  1
  Pd  Pd8  1  0.658535  0.329034  0.500000  1
