# generated using pymatgen
data_DyEr3Ni2C5
_symmetry_space_group_name_H-M   'P 1'
_cell_length_a   3.60133200
_cell_length_b   3.67957100
_cell_length_c   11.54085100
_cell_angle_alpha   90.00000000
_cell_angle_beta   90.00000000
_cell_angle_gamma   90.00000000
_symmetry_Int_Tables_number   1
_chemical_formula_structural   DyEr3Ni2C5
_chemical_formula_sum   'Dy1 Er3 Ni2 C5'
_cell_volume   152.93193424
_cell_formula_units_Z   1
loop_
 _symmetry_equiv_pos_site_id
 _symmetry_equiv_pos_as_xyz
  1  'x, y, z'
loop_
 _atom_site_type_symbol
 _atom_site_label
 _atom_site_symmetry_multiplicity
 _atom_site_fract_x
 _atom_site_fract_y
 _atom_site_fract_z
 _atom_site_occupancy
  Dy  Dy0  1  0.000000  0.999147  0.000000  1
  Er  Er1  1  0.500000  0.502309  0.204086  1
  Er  Er2  1  0.500000  0.502309  0.795914  1
  Er  Er3  1  0.500000  0.208757  0.500000  1
  Ni  Ni4  1  0.000000  0.698890  0.384914  1
  Ni  Ni5  1  0.000000  0.698890  0.615086  1
  C  C6  1  0.000000  0.999516  0.230489  1
  C  C7  1  0.000000  0.999516  0.769511  1
  C  C8  1  0.000000  0.198594  0.333227  1
  C  C9  1  0.000000  0.198594  0.666773  1
  C  C10  1  0.500000  0.494977  0.000000  1
