# generated using pymatgen
data_Tb8ReSi16W11
_symmetry_space_group_name_H-M   'P 1'
_cell_length_a   6.88013470
_cell_length_b   6.88013530
_cell_length_c   12.79345932
_cell_angle_alpha   90.04331846
_cell_angle_beta   90.04331722
_cell_angle_gamma   90.31454287
_symmetry_Int_Tables_number   1
_chemical_formula_structural   Tb8ReSi16W11
_chemical_formula_sum   'Tb8 Re1 Si16 W11'
_cell_volume   605.58501278
_cell_formula_units_Z   1
loop_
 _symmetry_equiv_pos_site_id
 _symmetry_equiv_pos_as_xyz
  1  'x, y, z'
loop_
 _atom_site_type_symbol
 _atom_site_label
 _atom_site_symmetry_multiplicity
 _atom_site_fract_x
 _atom_site_fract_y
 _atom_site_fract_z
 _atom_site_occupancy
  Tb  Tb0  1  0.002368  0.336820  0.219084  1
  Tb  Tb1  1  0.996846  0.662006  0.718880  1
  Tb  Tb2  1  0.163549  0.501744  0.469666  1
  Tb  Tb3  1  0.498256  0.836451  0.030334  1
  Tb  Tb4  1  0.836343  0.497516  0.968406  1
  Tb  Tb5  1  0.502484  0.163657  0.531594  1
  Tb  Tb6  1  0.337994  0.003154  0.781120  1
  Tb  Tb7  1  0.663180  0.997632  0.280916  1
  Re  Re8  1  0.666766  0.333234  0.750000  1
  Si  Si9  1  0.375477  0.298567  0.315975  1
  Si  Si10  1  0.622346  0.697042  0.814767  1
  Si  Si11  1  0.202358  0.875709  0.565934  1
  Si  Si12  1  0.124291  0.797642  0.934066  1
  Si  Si13  1  0.797590  0.124863  0.065442  1
  Si  Si14  1  0.875137  0.202410  0.434558  1
  Si  Si15  1  0.302958  0.377654  0.685233  1
  Si  Si16  1  0.701433  0.624523  0.184025  1
  Si  Si17  1  0.287847  0.034932  0.186172  1
  Si  Si18  1  0.715136  0.968354  0.688142  1
  Si  Si19  1  0.463741  0.789101  0.435547  1
  Si  Si20  1  0.210899  0.536259  0.064453  1
  Si  Si21  1  0.537401  0.212719  0.934309  1
  Si  Si22  1  0.787281  0.462599  0.565691  1
  Si  Si23  1  0.031646  0.284864  0.811858  1
  Si  Si24  1  0.965068  0.712153  0.313828  1
  W  W25  1  0.166424  0.167116  0.999361  1
  W  W26  1  0.832884  0.833576  0.500639  1
  W  W27  1  0.333676  0.666324  0.250000  1
  W  W28  1  0.164603  0.000634  0.376782  1
  W  W29  1  0.834403  0.995605  0.877706  1
  W  W30  1  0.500538  0.670028  0.624661  1
  W  W31  1  0.329972  0.499462  0.875339  1
  W  W32  1  0.499294  0.333945  0.125098  1
  W  W33  1  0.666055  0.500706  0.374902  1
  W  W34  1  0.004395  0.165597  0.622294  1
  W  W35  1  0.999366  0.835397  0.123218  1
