# generated using pymatgen
data_Ho16MgCd3TcPt3
_symmetry_space_group_name_H-M   'P 1'
_cell_length_a   9.69619545
_cell_length_b   9.69619616
_cell_length_c   9.69619579
_cell_angle_alpha   59.15163371
_cell_angle_beta   59.15163163
_cell_angle_gamma   59.15162988
_symmetry_Int_Tables_number   1
_chemical_formula_structural   Ho16MgCd3TcPt3
_chemical_formula_sum   'Ho16 Mg1 Cd3 Tc1 Pt3'
_cell_volume   632.13531070
_cell_formula_units_Z   1
loop_
 _symmetry_equiv_pos_site_id
 _symmetry_equiv_pos_as_xyz
  1  'x, y, z'
loop_
 _atom_site_type_symbol
 _atom_site_label
 _atom_site_symmetry_multiplicity
 _atom_site_fract_x
 _atom_site_fract_y
 _atom_site_fract_z
 _atom_site_occupancy
  Ho  Ho0  1  0.602221  0.602221  0.602221  1
  Ho  Ho1  1  0.599560  0.599560  0.199797  1
  Ho  Ho2  1  0.599560  0.199797  0.599560  1
  Ho  Ho3  1  0.199797  0.599560  0.599560  1
  Ho  Ho4  1  0.064797  0.438507  0.438507  1
  Ho  Ho5  1  0.438256  0.060651  0.060651  1
  Ho  Ho6  1  0.438507  0.064797  0.438507  1
  Ho  Ho7  1  0.060651  0.438256  0.060651  1
  Ho  Ho8  1  0.438507  0.438507  0.064797  1
  Ho  Ho9  1  0.060651  0.060651  0.438256  1
  Ho  Ho10  1  0.186226  0.815728  0.815728  1
  Ho  Ho11  1  0.806987  0.187607  0.187607  1
  Ho  Ho12  1  0.815728  0.186226  0.815728  1
  Ho  Ho13  1  0.187607  0.806987  0.187607  1
  Ho  Ho14  1  0.815728  0.815728  0.186226  1
  Ho  Ho15  1  0.187607  0.187607  0.806987  1
  Mg  Mg16  1  0.825941  0.825941  0.825941  1
  Cd  Cd17  1  0.831500  0.831500  0.503596  1
  Cd  Cd18  1  0.831500  0.503596  0.831500  1
  Cd  Cd19  1  0.503596  0.831500  0.831500  1
  Tc  Tc20  1  0.394145  0.394145  0.394145  1
  Pt  Pt21  1  0.394227  0.394227  0.822468  1
  Pt  Pt22  1  0.394227  0.822468  0.394227  1
  Pt  Pt23  1  0.822468  0.394227  0.394227  1
