# generated using pymatgen
data_HoTm2Co5(P3Ir2)2
_symmetry_space_group_name_H-M   'P 1'
_cell_length_a   3.77840700
_cell_length_b   10.82139200
_cell_length_c   12.50304700
_cell_angle_alpha   90.00000000
_cell_angle_beta   90.00000000
_cell_angle_gamma   90.00000000
_symmetry_Int_Tables_number   1
_chemical_formula_structural   HoTm2Co5(P3Ir2)2
_chemical_formula_sum   'Ho2 Tm4 Co10 P12 Ir8'
_cell_volume   511.21987562
_cell_formula_units_Z   2
loop_
 _symmetry_equiv_pos_site_id
 _symmetry_equiv_pos_as_xyz
  1  'x, y, z'
loop_
 _atom_site_type_symbol
 _atom_site_label
 _atom_site_symmetry_multiplicity
 _atom_site_fract_x
 _atom_site_fract_y
 _atom_site_fract_z
 _atom_site_occupancy
  Ho  Ho0  1  0.000000  0.500000  0.521335  1
  Ho  Ho1  1  0.500000  0.000000  0.478665  1
  Tm  Tm2  1  0.500000  0.815807  0.196994  1
  Tm  Tm3  1  0.500000  0.184193  0.196994  1
  Tm  Tm4  1  0.000000  0.684193  0.803006  1
  Tm  Tm5  1  0.000000  0.315807  0.803006  1
  Co  Co6  1  0.000000  0.500000  0.991970  1
  Co  Co7  1  0.500000  0.000000  0.008030  1
  Co  Co8  1  0.500000  0.878530  0.716977  1
  Co  Co9  1  0.500000  0.121470  0.716977  1
  Co  Co10  1  0.000000  0.621470  0.283023  1
  Co  Co11  1  0.000000  0.378530  0.283023  1
  Co  Co12  1  0.500000  0.332617  0.995350  1
  Co  Co13  1  0.500000  0.667383  0.995350  1
  Co  Co14  1  0.000000  0.167383  0.004650  1
  Co  Co15  1  0.000000  0.832617  0.004650  1
  P  P16  1  0.500000  0.310129  0.626152  1
  P  P17  1  0.500000  0.689871  0.626152  1
  P  P18  1  0.000000  0.189871  0.373848  1
  P  P19  1  0.000000  0.810129  0.373848  1
  P  P20  1  0.500000  0.500000  0.894518  1
  P  P21  1  0.000000  0.000000  0.105482  1
  P  P22  1  0.500000  0.842333  0.896588  1
  P  P23  1  0.500000  0.157667  0.896588  1
  P  P24  1  0.000000  0.657667  0.103412  1
  P  P25  1  0.000000  0.342333  0.103412  1
  P  P26  1  0.500000  0.500000  0.344140  1
  P  P27  1  0.000000  0.000000  0.655860  1
  Ir  Ir28  1  0.500000  0.298319  0.425820  1
  Ir  Ir29  1  0.500000  0.701681  0.425820  1
  Ir  Ir30  1  0.000000  0.201681  0.574180  1
  Ir  Ir31  1  0.000000  0.798319  0.574180  1
  Ir  Ir32  1  0.500000  0.500000  0.158893  1
  Ir  Ir33  1  0.000000  0.000000  0.841107  1
  Ir  Ir34  1  0.500000  0.500000  0.709662  1
  Ir  Ir35  1  0.000000  0.000000  0.290338  1
