# generated using pymatgen
data_CaHo5Er2(B6Ru)4
_symmetry_space_group_name_H-M   'P 1'
_cell_length_a   3.64947700
_cell_length_b   9.12554781
_cell_length_c   11.51520705
_cell_angle_alpha   89.91321833
_cell_angle_beta   90.00000000
_cell_angle_gamma   90.00000000
_symmetry_Int_Tables_number   1
_chemical_formula_structural   CaHo5Er2(B6Ru)4
_chemical_formula_sum   'Ca1 Ho5 Er2 B24 Ru4'
_cell_volume   383.49599169
_cell_formula_units_Z   1
loop_
 _symmetry_equiv_pos_site_id
 _symmetry_equiv_pos_as_xyz
  1  'x, y, z'
loop_
 _atom_site_type_symbol
 _atom_site_label
 _atom_site_symmetry_multiplicity
 _atom_site_fract_x
 _atom_site_fract_y
 _atom_site_fract_z
 _atom_site_occupancy
  Ca  Ca0  1  0.000000  0.322902  0.413859  1
  Ho  Ho1  1  0.000000  0.675739  0.585078  1
  Ho  Ho2  1  0.000000  0.822601  0.086188  1
  Ho  Ho3  1  0.000000  0.177977  0.914681  1
  Ho  Ho4  1  0.000000  0.944031  0.371014  1
  Ho  Ho5  1  0.000000  0.057576  0.628407  1
  Er  Er6  1  0.000000  0.443311  0.129300  1
  Er  Er7  1  0.000000  0.555954  0.872255  1
  B  B8  1  0.500000  0.554742  0.432628  1
  B  B9  1  0.500000  0.446258  0.567961  1
  B  B10  1  0.500000  0.053435  0.066321  1
  B  B11  1  0.500000  0.945651  0.932628  1
  B  B12  1  0.500000  0.748517  0.419214  1
  B  B13  1  0.500000  0.252098  0.581675  1
  B  B14  1  0.500000  0.248049  0.080183  1
  B  B15  1  0.500000  0.751368  0.919644  1
  B  B16  1  0.500000  0.791592  0.265676  1
  B  B17  1  0.500000  0.209530  0.734693  1
  B  B18  1  0.500000  0.290250  0.232994  1
  B  B19  1  0.500000  0.708777  0.766317  1
  B  B20  1  0.500000  0.632068  0.185379  1
  B  B21  1  0.500000  0.368636  0.815583  1
  B  B22  1  0.500000  0.131005  0.313509  1
  B  B23  1  0.500000  0.868163  0.685231  1
  B  B24  1  0.500000  0.983322  0.211522  1
  B  B25  1  0.500000  0.016314  0.787525  1
  B  B26  1  0.500000  0.484307  0.287167  1
  B  B27  1  0.500000  0.516659  0.713129  1
  B  B28  1  0.500000  0.607358  0.029770  1
  B  B29  1  0.500000  0.392950  0.970793  1
  B  B30  1  0.500000  0.103795  0.471276  1
  B  B31  1  0.500000  0.894416  0.529153  1
  Ru  Ru32  1  0.000000  0.640109  0.320007  1
  Ru  Ru33  1  0.000000  0.362051  0.681107  1
  Ru  Ru34  1  0.000000  0.136857  0.177015  1
  Ru  Ru35  1  0.000000  0.861632  0.821119  1
