# generated using pymatgen
data_Pr4Pd4PbAu
_symmetry_space_group_name_H-M   'P 1'
_cell_length_a   7.88602400
_cell_length_b   7.88602400
_cell_length_c   3.90543400
_cell_angle_alpha   90.00000000
_cell_angle_beta   90.00000000
_cell_angle_gamma   90.00000000
_symmetry_Int_Tables_number   1
_chemical_formula_structural   Pr4Pd4PbAu
_chemical_formula_sum   'Pr4 Pd4 Pb1 Au1'
_cell_volume   242.87649772
_cell_formula_units_Z   1
loop_
 _symmetry_equiv_pos_site_id
 _symmetry_equiv_pos_as_xyz
  1  'x, y, z'
loop_
 _atom_site_type_symbol
 _atom_site_label
 _atom_site_symmetry_multiplicity
 _atom_site_fract_x
 _atom_site_fract_y
 _atom_site_fract_z
 _atom_site_occupancy
  Pr  Pr0  1  0.329498  0.815866  0.500000  1
  Pr  Pr1  1  0.670502  0.184134  0.500000  1
  Pr  Pr2  1  0.815866  0.670502  0.500000  1
  Pr  Pr3  1  0.184134  0.329498  0.500000  1
  Pd  Pd4  1  0.873144  0.376158  0.000000  1
  Pd  Pd5  1  0.623842  0.873144  0.000000  1
  Pd  Pd6  1  0.376158  0.126856  0.000000  1
  Pd  Pd7  1  0.126856  0.623842  0.000000  1
  Pb  Pb8  1  0.000000  0.000000  0.000000  1
  Au  Au9  1  0.500000  0.500000  0.000000  1
