# generated using pymatgen
data_TmU2Sn3Ir2Ru
_symmetry_space_group_name_H-M   'P 1'
_cell_length_a   7.43284849
_cell_length_b   7.43284889
_cell_length_c   3.99735200
_cell_angle_alpha   90.00000000
_cell_angle_beta   90.00000000
_cell_angle_gamma   120.94161899
_symmetry_Int_Tables_number   1
_chemical_formula_structural   TmU2Sn3Ir2Ru
_chemical_formula_sum   'Tm1 U2 Sn3 Ir2 Ru1'
_cell_volume   189.41490854
_cell_formula_units_Z   1
loop_
 _symmetry_equiv_pos_site_id
 _symmetry_equiv_pos_as_xyz
  1  'x, y, z'
loop_
 _atom_site_type_symbol
 _atom_site_label
 _atom_site_symmetry_multiplicity
 _atom_site_fract_x
 _atom_site_fract_y
 _atom_site_fract_z
 _atom_site_occupancy
  Tm  Tm0  1  0.408632  0.408632  0.500000  1
  U  U1  1  0.587643  0.001209  0.500000  1
  U  U2  1  0.001209  0.587643  0.500000  1
  Sn  Sn3  1  0.736364  0.736364  0.000000  1
  Sn  Sn4  1  0.253774  0.009160  0.000000  1
  Sn  Sn5  1  0.009160  0.253774  0.000000  1
  Ir  Ir6  1  0.682890  0.331465  0.000000  1
  Ir  Ir7  1  0.331465  0.682890  0.000000  1
  Ru  Ru8  1  0.988863  0.988863  0.500000  1
