# generated using pymatgen
data_Sr2TbSi5PPd20
_symmetry_space_group_name_H-M   'P 1'
_cell_length_a   8.78240778
_cell_length_b   8.78423163
_cell_length_c   8.78094118
_cell_angle_alpha   59.99740199
_cell_angle_beta   60.01742148
_cell_angle_gamma   59.99609342
_symmetry_Int_Tables_number   1
_chemical_formula_structural   Sr2TbSi5PPd20
_chemical_formula_sum   'Sr2 Tb1 Si5 P1 Pd20'
_cell_volume   479.04822842
_cell_formula_units_Z   1
loop_
 _symmetry_equiv_pos_site_id
 _symmetry_equiv_pos_as_xyz
  1  'x, y, z'
loop_
 _atom_site_type_symbol
 _atom_site_label
 _atom_site_symmetry_multiplicity
 _atom_site_fract_x
 _atom_site_fract_y
 _atom_site_fract_z
 _atom_site_occupancy
  Sr  Sr0  1  0.250298  0.250031  0.249819  1
  Sr  Sr1  1  0.749980  0.750236  0.749933  1
  Tb  Tb2  1  0.001164  0.001189  0.998819  1
  Si  Si3  1  0.732207  0.266363  0.267918  1
  Si  Si4  1  0.266373  0.732213  0.733501  1
  Si  Si5  1  0.266531  0.732000  0.268141  1
  Si  Si6  1  0.732004  0.266558  0.733339  1
  Si  Si7  1  0.267604  0.267625  0.732397  1
  P  P8  1  0.733531  0.733494  0.266455  1
  Pd  Pd9  1  0.386553  0.386358  0.386566  1
  Pd  Pd10  1  0.613649  0.613839  0.611881  1
  Pd  Pd11  1  0.386406  0.386539  0.840496  1
  Pd  Pd12  1  0.388129  0.839248  0.386393  1
  Pd  Pd13  1  0.613786  0.613633  0.160706  1
  Pd  Pd14  1  0.613418  0.159581  0.613414  1
  Pd  Pd15  1  0.839454  0.388047  0.386158  1
  Pd  Pd16  1  0.159399  0.613495  0.613638  1
  Pd  Pd17  1  0.343820  0.999857  0.000029  1
  Pd  Pd18  1  0.656557  0.998261  0.001887  1
  Pd  Pd19  1  0.999848  0.343805  0.656328  1
  Pd  Pd20  1  0.998284  0.656597  0.343195  1
  Pd  Pd21  1  0.999767  0.343837  0.000031  1
  Pd  Pd22  1  0.656701  0.998263  0.343237  1
  Pd  Pd23  1  0.998362  0.656628  0.001886  1
  Pd  Pd24  1  0.343793  0.999855  0.656227  1
  Pd  Pd25  1  0.000577  0.000645  0.343522  1
  Pd  Pd26  1  0.000642  0.000601  0.655248  1
  Pd  Pd27  1  0.656620  0.344740  0.999357  1
  Pd  Pd28  1  0.344542  0.656459  0.999477  1
