# generated using pymatgen
data_U3AlGa2Ir3
_symmetry_space_group_name_H-M   'P 1'
_cell_length_a   6.95148733
_cell_length_b   6.91769696
_cell_length_c   4.07979300
_cell_angle_alpha   90.00000000
_cell_angle_beta   90.00000000
_cell_angle_gamma   119.83933068
_symmetry_Int_Tables_number   1
_chemical_formula_structural   U3AlGa2Ir3
_chemical_formula_sum   'U3 Al1 Ga2 Ir3'
_cell_volume   170.18014213
_cell_formula_units_Z   1
loop_
 _symmetry_equiv_pos_site_id
 _symmetry_equiv_pos_as_xyz
  1  'x, y, z'
loop_
 _atom_site_type_symbol
 _atom_site_label
 _atom_site_symmetry_multiplicity
 _atom_site_fract_x
 _atom_site_fract_y
 _atom_site_fract_z
 _atom_site_occupancy
  U  U0  1  0.423273  0.422431  0.500000  1
  U  U1  1  0.576727  0.999157  0.500000  1
  U  U2  1  0.000000  0.581076  0.500000  1
  Al  Al3  1  0.000000  0.235589  0.000000  1
  Ga  Ga4  1  0.759159  0.760942  0.000000  1
  Ga  Ga5  1  0.240841  0.001783  0.000000  1
  Ir  Ir6  1  0.671734  0.331897  0.000000  1
  Ir  Ir7  1  0.328266  0.660164  0.000000  1
  Ir  Ir8  1  0.000000  0.006960  0.500000  1
