# generated using pymatgen
data_Y2Fe(Co2B)3
_symmetry_space_group_name_H-M   'P 1'
_cell_length_a   5.08571902
_cell_length_b   5.08506944
_cell_length_c   12.64714300
_cell_angle_alpha   89.99997123
_cell_angle_beta   90.00013740
_cell_angle_gamma   119.99332617
_symmetry_Int_Tables_number   1
_chemical_formula_structural   Y2Fe(Co2B)3
_chemical_formula_sum   'Y4 Fe2 Co12 B6'
_cell_volume   283.27060723
_cell_formula_units_Z   2
loop_
 _symmetry_equiv_pos_site_id
 _symmetry_equiv_pos_as_xyz
  1  'x, y, z'
loop_
 _atom_site_type_symbol
 _atom_site_label
 _atom_site_symmetry_multiplicity
 _atom_site_fract_x
 _atom_site_fract_y
 _atom_site_fract_z
 _atom_site_occupancy
  Y  Y0  1  0.999989  0.999999  0.000054  1
  Y  Y1  1  0.999992  0.999999  0.499924  1
  Y  Y2  1  0.999986  0.000000  0.260546  1
  Y  Y3  1  0.999999  0.000001  0.739425  1
  Fe  Fe4  1  0.333334  0.666690  0.000049  1
  Fe  Fe5  1  0.666642  0.333309  0.000044  1
  Co  Co6  1  0.499990  0.000007  0.155932  1
  Co  Co7  1  0.499991  0.499997  0.155960  1
  Co  Co8  1  0.999980  0.499997  0.155954  1
  Co  Co9  1  0.500001  0.000007  0.844074  1
  Co  Co10  1  0.500001  0.499997  0.844119  1
  Co  Co11  1  0.999991  0.499996  0.844177  1
  Co  Co12  1  0.499989  0.000000  0.385260  1
  Co  Co13  1  0.499990  0.500000  0.385253  1
  Co  Co14  1  0.999989  0.500000  0.385251  1
  Co  Co15  1  0.499995  0.000000  0.614682  1
  Co  Co16  1  0.499995  0.500000  0.614688  1
  Co  Co17  1  0.999995  0.500000  0.614686  1
  B  B18  1  0.333300  0.666652  0.499954  1
  B  B19  1  0.666683  0.333348  0.499954  1
  B  B20  1  0.333322  0.666645  0.268962  1
  B  B21  1  0.666651  0.333355  0.268962  1
  B  B22  1  0.666556  0.333235  0.731045  1
  B  B23  1  0.333438  0.666765  0.731045  1
