# generated using pymatgen
data_Tb3Ce2Dy3(AlRu)8
_symmetry_space_group_name_H-M   'P 1'
_cell_length_a   4.11644700
_cell_length_b   7.00220600
_cell_length_c   15.99165500
_cell_angle_alpha   89.99795607
_cell_angle_beta   90.00000000
_cell_angle_gamma   90.00000000
_symmetry_Int_Tables_number   1
_chemical_formula_structural   Tb3Ce2Dy3(AlRu)8
_chemical_formula_sum   'Tb3 Ce2 Dy3 Al8 Ru8'
_cell_volume   460.94681994
_cell_formula_units_Z   1
loop_
 _symmetry_equiv_pos_site_id
 _symmetry_equiv_pos_as_xyz
  1  'x, y, z'
loop_
 _atom_site_type_symbol
 _atom_site_label
 _atom_site_symmetry_multiplicity
 _atom_site_fract_x
 _atom_site_fract_y
 _atom_site_fract_z
 _atom_site_occupancy
  Tb  Tb0  1  0.250000  0.161407  0.560642  1
  Tb  Tb1  1  0.750000  0.338685  0.063036  1
  Tb  Tb2  1  0.250000  0.661549  0.939324  1
  Ce  Ce3  1  0.250000  0.039636  0.782095  1
  Ce  Ce4  1  0.250000  0.539642  0.717913  1
  Dy  Dy5  1  0.750000  0.964450  0.218931  1
  Dy  Dy6  1  0.750000  0.838726  0.436918  1
  Dy  Dy7  1  0.750000  0.464564  0.281130  1
  Al  Al8  1  0.750000  0.498138  0.562714  1
  Al  Al9  1  0.750000  0.368584  0.852387  1
  Al  Al10  1  0.750000  0.998030  0.937254  1
  Al  Al11  1  0.750000  0.868593  0.647574  1
  Al  Al12  1  0.250000  0.498869  0.434067  1
  Al  Al13  1  0.250000  0.998642  0.065928  1
  Al  Al14  1  0.250000  0.633463  0.150895  1
  Al  Al15  1  0.250000  0.133272  0.349171  1
  Ru  Ru16  1  0.750000  0.753017  0.808541  1
  Ru  Ru17  1  0.250000  0.226341  0.930954  1
  Ru  Ru18  1  0.750000  0.263047  0.434958  1
  Ru  Ru19  1  0.250000  0.754361  0.312722  1
  Ru  Ru20  1  0.750000  0.763266  0.065030  1
  Ru  Ru21  1  0.750000  0.253018  0.691473  1
  Ru  Ru22  1  0.250000  0.254281  0.187402  1
  Ru  Ru23  1  0.250000  0.726419  0.568938  1
