# generated using pymatgen
data_Tb3YTmIr3
_symmetry_space_group_name_H-M   'P 1'
_cell_length_a   10.91000200
_cell_length_b   10.90932100
_cell_length_c   6.36483300
_cell_angle_alpha   90.00000000
_cell_angle_beta   90.00000000
_cell_angle_gamma   90.00000000
_symmetry_Int_Tables_number   1
_chemical_formula_structural   Tb3YTmIr3
_chemical_formula_sum   'Tb12 Y4 Tm4 Ir12'
_cell_volume   757.54696770
_cell_formula_units_Z   4
loop_
 _symmetry_equiv_pos_site_id
 _symmetry_equiv_pos_as_xyz
  1  'x, y, z'
loop_
 _atom_site_type_symbol
 _atom_site_label
 _atom_site_symmetry_multiplicity
 _atom_site_fract_x
 _atom_site_fract_y
 _atom_site_fract_z
 _atom_site_occupancy
  Tb  Tb0  1  0.290380  0.087713  0.377377  1
  Tb  Tb1  1  0.290380  0.912287  0.877377  1
  Tb  Tb2  1  0.709620  0.087713  0.877377  1
  Tb  Tb3  1  0.709620  0.912287  0.377377  1
  Tb  Tb4  1  0.587705  0.790345  0.877538  1
  Tb  Tb5  1  0.587705  0.209655  0.377538  1
  Tb  Tb6  1  0.412295  0.790345  0.377538  1
  Tb  Tb7  1  0.412295  0.209655  0.877538  1
  Tb  Tb8  1  0.209495  0.412376  0.622499  1
  Tb  Tb9  1  0.209495  0.587624  0.122499  1
  Tb  Tb10  1  0.790505  0.412376  0.122499  1
  Tb  Tb11  1  0.790505  0.587624  0.622499  1
  Y  Y12  1  0.912420  0.709690  0.122519  1
  Y  Y13  1  0.912420  0.290310  0.622519  1
  Y  Y14  1  0.087580  0.709690  0.622519  1
  Y  Y15  1  0.087580  0.290310  0.122519  1
  Tm  Tm16  1  0.000000  0.000000  0.500083  1
  Tm  Tm17  1  0.000000  0.000000  0.000083  1
  Tm  Tm18  1  0.500000  0.500000  0.000182  1
  Tm  Tm19  1  0.500000  0.500000  0.500182  1
  Ir  Ir20  1  0.848219  0.151595  0.249822  1
  Ir  Ir21  1  0.848219  0.848405  0.749822  1
  Ir  Ir22  1  0.151781  0.151595  0.749822  1
  Ir  Ir23  1  0.151781  0.848405  0.249822  1
  Ir  Ir24  1  0.651598  0.348231  0.750059  1
  Ir  Ir25  1  0.651598  0.651769  0.250059  1
  Ir  Ir26  1  0.348402  0.348231  0.250059  1
  Ir  Ir27  1  0.348402  0.651769  0.750059  1
  Ir  Ir28  1  0.500000  0.000000  0.122383  1
  Ir  Ir29  1  0.500000  0.000000  0.622383  1
  Ir  Ir30  1  0.000000  0.500000  0.877727  1
  Ir  Ir31  1  0.000000  0.500000  0.377727  1
