# generated using pymatgen
data_Cs5Al3S7
_symmetry_space_group_name_H-M   'P 1'
_cell_length_a   10.88806001
_cell_length_b   10.88805922
_cell_length_c   9.37021891
_cell_angle_alpha   77.02702163
_cell_angle_beta   77.02702437
_cell_angle_gamma   73.06886585
_symmetry_Int_Tables_number   1
_chemical_formula_structural   Cs5Al3S7
_chemical_formula_sum   'Cs10 Al6 S14'
_cell_volume   1020.36980641
_cell_formula_units_Z   2
loop_
 _symmetry_equiv_pos_site_id
 _symmetry_equiv_pos_as_xyz
  1  'x, y, z'
loop_
 _atom_site_type_symbol
 _atom_site_label
 _atom_site_symmetry_multiplicity
 _atom_site_fract_x
 _atom_site_fract_y
 _atom_site_fract_z
 _atom_site_occupancy
  Cs  Cs0  1  0.028735  0.433770  0.719396  1
  Cs  Cs1  1  0.433770  0.028735  0.719396  1
  Cs  Cs2  1  0.971265  0.566230  0.280604  1
  Cs  Cs3  1  0.566230  0.971265  0.280604  1
  Cs  Cs4  1  0.292256  0.707744  0.000000  1
  Cs  Cs5  1  0.707744  0.292256  0.000000  1
  Cs  Cs6  1  0.843508  0.156492  0.500000  1
  Cs  Cs7  1  0.156492  0.843508  0.500000  1
  Cs  Cs8  1  0.425886  0.425886  0.693619  1
  Cs  Cs9  1  0.574114  0.574114  0.306381  1
  Al  Al10  1  0.212060  0.212060  0.181947  1
  Al  Al11  1  0.787940  0.787940  0.818053  1
  Al  Al12  1  0.071264  0.071264  0.056988  1
  Al  Al13  1  0.928736  0.928736  0.943012  1
  Al  Al14  1  0.344444  0.344444  0.331879  1
  Al  Al15  1  0.655556  0.655556  0.668121  1
  S  S16  1  0.009811  0.275718  0.113739  1
  S  S17  1  0.275718  0.009811  0.113739  1
  S  S18  1  0.990189  0.724282  0.886261  1
  S  S19  1  0.724282  0.990189  0.886261  1
  S  S20  1  0.206372  0.206372  0.425240  1
  S  S21  1  0.793628  0.793628  0.574760  1
  S  S22  1  0.060909  0.060909  0.820243  1
  S  S23  1  0.939091  0.939091  0.179757  1
  S  S24  1  0.345645  0.345645  0.080513  1
  S  S25  1  0.654355  0.654355  0.919487  1
  S  S26  1  0.256177  0.542822  0.391941  1
  S  S27  1  0.542822  0.256177  0.391941  1
  S  S28  1  0.743823  0.457178  0.608059  1
  S  S29  1  0.457178  0.743823  0.608059  1
