# generated using pymatgen
data_Tm4Al4CoPd3
_symmetry_space_group_name_H-M   'P 1'
_cell_length_a   4.33752000
_cell_length_b   6.74836418
_cell_length_c   7.75729957
_cell_angle_alpha   90.21601980
_cell_angle_beta   90.00000000
_cell_angle_gamma   90.00000000
_symmetry_Int_Tables_number   1
_chemical_formula_structural   Tm4Al4CoPd3
_chemical_formula_sum   'Tm4 Al4 Co1 Pd3'
_cell_volume   227.06357864
_cell_formula_units_Z   1
loop_
 _symmetry_equiv_pos_site_id
 _symmetry_equiv_pos_as_xyz
  1  'x, y, z'
loop_
 _atom_site_type_symbol
 _atom_site_label
 _atom_site_symmetry_multiplicity
 _atom_site_fract_x
 _atom_site_fract_y
 _atom_site_fract_z
 _atom_site_occupancy
  Tm  Tm0  1  0.250000  0.041110  0.328782  1
  Tm  Tm1  1  0.250000  0.531834  0.178223  1
  Tm  Tm2  1  0.750000  0.981773  0.677996  1
  Tm  Tm3  1  0.750000  0.460988  0.814477  1
  Al  Al4  1  0.250000  0.147703  0.931239  1
  Al  Al5  1  0.250000  0.629092  0.561540  1
  Al  Al6  1  0.750000  0.857054  0.059003  1
  Al  Al7  1  0.750000  0.352309  0.447850  1
  Co  Co8  1  0.250000  0.267305  0.621936  1
  Pd  Pd9  1  0.250000  0.768422  0.877846  1
  Pd  Pd10  1  0.750000  0.730746  0.378295  1
  Pd  Pd11  1  0.750000  0.231665  0.122814  1
