# generated using pymatgen
data_Ac6HoMgAu10
_symmetry_space_group_name_H-M   'P 1'
_cell_length_a   8.46952945
_cell_length_b   8.46952878
_cell_length_c   8.46952900
_cell_angle_alpha   65.81997113
_cell_angle_beta   65.81997318
_cell_angle_gamma   65.81996017
_symmetry_Int_Tables_number   1
_chemical_formula_structural   Ac6HoMgAu10
_chemical_formula_sum   'Ac6 Ho1 Mg1 Au10'
_cell_volume   483.79549009
_cell_formula_units_Z   1
loop_
 _symmetry_equiv_pos_site_id
 _symmetry_equiv_pos_as_xyz
  1  'x, y, z'
loop_
 _atom_site_type_symbol
 _atom_site_label
 _atom_site_symmetry_multiplicity
 _atom_site_fract_x
 _atom_site_fract_y
 _atom_site_fract_z
 _atom_site_occupancy
  Ac  Ac0  1  0.894552  0.185632  0.621889  1
  Ac  Ac1  1  0.621889  0.894552  0.185632  1
  Ac  Ac2  1  0.185632  0.621889  0.894552  1
  Ac  Ac3  1  0.113541  0.807745  0.374340  1
  Ac  Ac4  1  0.374340  0.113541  0.807745  1
  Ac  Ac5  1  0.807745  0.374340  0.113541  1
  Ho  Ho6  1  0.654688  0.654688  0.654688  1
  Mg  Mg7  1  0.344705  0.344705  0.344705  1
  Au  Au8  1  0.999901  0.999901  0.999901  1
  Au  Au9  1  0.498250  0.498250  0.498250  1
  Au  Au10  1  0.801327  0.801327  0.801327  1
  Au  Au11  1  0.203458  0.203458  0.203458  1
  Au  Au12  1  0.940644  0.549896  0.323549  1
  Au  Au13  1  0.323549  0.940644  0.549896  1
  Au  Au14  1  0.549896  0.323549  0.940644  1
  Au  Au15  1  0.053862  0.453086  0.678935  1
  Au  Au16  1  0.678935  0.053862  0.453086  1
  Au  Au17  1  0.453086  0.678935  0.053862  1
