# generated using pymatgen
data_Tb8MgCdPdRu
_symmetry_space_group_name_H-M   'P 1'
_cell_length_a   9.72215374
_cell_length_b   9.72215458
_cell_length_c   9.82573200
_cell_angle_alpha   59.64693965
_cell_angle_beta   59.64693675
_cell_angle_gamma   59.42316916
_symmetry_Int_Tables_number   1
_chemical_formula_structural   Tb8MgCdPdRu
_chemical_formula_sum   'Tb16 Mg2 Cd2 Pd2 Ru2'
_cell_volume   650.32093467
_cell_formula_units_Z   2
loop_
 _symmetry_equiv_pos_site_id
 _symmetry_equiv_pos_as_xyz
  1  'x, y, z'
loop_
 _atom_site_type_symbol
 _atom_site_label
 _atom_site_symmetry_multiplicity
 _atom_site_fract_x
 _atom_site_fract_y
 _atom_site_fract_z
 _atom_site_occupancy
  Tb  Tb0  1  0.347956  0.347956  0.356192  1
  Tb  Tb1  1  0.347956  0.347956  0.947897  1
  Tb  Tb2  1  0.343259  0.958882  0.348930  1
  Tb  Tb3  1  0.958882  0.343259  0.348930  1
  Tb  Tb4  1  0.817703  0.187076  0.188963  1
  Tb  Tb5  1  0.187076  0.817703  0.806259  1
  Tb  Tb6  1  0.187076  0.817703  0.188963  1
  Tb  Tb7  1  0.817703  0.187076  0.806259  1
  Tb  Tb8  1  0.188095  0.188095  0.811905  1
  Tb  Tb9  1  0.811237  0.811237  0.188763  1
  Tb  Tb10  1  0.936826  0.560365  0.567961  1
  Tb  Tb11  1  0.560365  0.936826  0.934848  1
  Tb  Tb12  1  0.560365  0.936826  0.567961  1
  Tb  Tb13  1  0.936826  0.560365  0.934848  1
  Tb  Tb14  1  0.564913  0.564913  0.935087  1
  Tb  Tb15  1  0.937082  0.937082  0.562918  1
  Mg  Mg16  1  0.576118  0.576118  0.579988  1
  Mg  Mg17  1  0.576118  0.576118  0.267775  1
  Cd  Cd18  1  0.581954  0.254353  0.581845  1
  Cd  Cd19  1  0.254353  0.581954  0.581845  1
  Pd  Pd20  1  0.146706  0.571407  0.140943  1
  Pd  Pd21  1  0.571407  0.146706  0.140943  1
  Ru  Ru22  1  0.145013  0.145013  0.136871  1
  Ru  Ru23  1  0.145013  0.145013  0.573102  1
