# generated using pymatgen
data_Th4AlRe6Tc
_symmetry_space_group_name_H-M   'P 1'
_cell_length_a   5.45076700
_cell_length_b   5.45076888
_cell_length_c   9.34483000
_cell_angle_alpha   90.00000000
_cell_angle_beta   90.00000000
_cell_angle_gamma   120.00000678
_symmetry_Int_Tables_number   1
_chemical_formula_structural   Th4AlRe6Tc
_chemical_formula_sum   'Th4 Al1 Re6 Tc1'
_cell_volume   240.44590944
_cell_formula_units_Z   1
loop_
 _symmetry_equiv_pos_site_id
 _symmetry_equiv_pos_as_xyz
  1  'x, y, z'
loop_
 _atom_site_type_symbol
 _atom_site_label
 _atom_site_symmetry_multiplicity
 _atom_site_fract_x
 _atom_site_fract_y
 _atom_site_fract_z
 _atom_site_occupancy
  Th  Th0  1  0.333333  0.666667  0.430537  1
  Th  Th1  1  0.666667  0.333333  0.569463  1
  Th  Th2  1  0.666667  0.333333  0.937074  1
  Th  Th3  1  0.333333  0.666667  0.062926  1
  Al  Al4  1  0.000000  0.000000  0.500000  1
  Re  Re5  1  0.830525  0.169475  0.253410  1
  Re  Re6  1  0.830525  0.661051  0.253410  1
  Re  Re7  1  0.338949  0.169475  0.253410  1
  Re  Re8  1  0.169475  0.830525  0.746590  1
  Re  Re9  1  0.169475  0.338949  0.746590  1
  Re  Re10  1  0.661051  0.830525  0.746590  1
  Tc  Tc11  1  0.000000  0.000000  0.000000  1
