# generated using pymatgen
data_Pu3(MnC3)2
_symmetry_space_group_name_H-M   'P 1'
_cell_length_a   8.03963500
_cell_length_b   8.03963462
_cell_length_c   5.01115700
_cell_angle_alpha   90.00000000
_cell_angle_beta   90.00000000
_cell_angle_gamma   120.00000457
_symmetry_Int_Tables_number   1
_chemical_formula_structural   Pu3(MnC3)2
_chemical_formula_sum   'Pu6 Mn4 C12'
_cell_volume   280.50542513
_cell_formula_units_Z   2
loop_
 _symmetry_equiv_pos_site_id
 _symmetry_equiv_pos_as_xyz
  1  'x, y, z'
loop_
 _atom_site_type_symbol
 _atom_site_label
 _atom_site_symmetry_multiplicity
 _atom_site_fract_x
 _atom_site_fract_y
 _atom_site_fract_z
 _atom_site_occupancy
  Pu  Pu0  1  0.617919  0.688646  0.750000  1
  Pu  Pu1  1  0.929273  0.617919  0.250000  1
  Pu  Pu2  1  0.688646  0.070727  0.250000  1
  Pu  Pu3  1  0.311354  0.929273  0.750000  1
  Pu  Pu4  1  0.070727  0.382081  0.750000  1
  Pu  Pu5  1  0.382081  0.311354  0.250000  1
  Mn  Mn6  1  0.000000  0.000000  0.500000  1
  Mn  Mn7  1  0.000000  0.000000  0.000000  1
  Mn  Mn8  1  0.666667  0.333333  0.750000  1
  Mn  Mn9  1  0.333333  0.666667  0.250000  1
  C  C10  1  0.961962  0.777465  0.750000  1
  C  C11  1  0.184498  0.961962  0.250000  1
  C  C12  1  0.777465  0.815502  0.250000  1
  C  C13  1  0.222535  0.184498  0.750000  1
  C  C14  1  0.815502  0.038038  0.750000  1
  C  C15  1  0.038038  0.222535  0.250000  1
  C  C16  1  0.865952  0.579375  0.750000  1
  C  C17  1  0.286578  0.865952  0.250000  1
  C  C18  1  0.579375  0.713422  0.250000  1
  C  C19  1  0.420625  0.286578  0.750000  1
  C  C20  1  0.134048  0.420625  0.250000  1
  C  C21  1  0.713422  0.134048  0.750000  1
