# generated using pymatgen
data_Er4Hf3AlPt4
_symmetry_space_group_name_H-M   'P 1'
_cell_length_a   4.55870500
_cell_length_b   7.01197958
_cell_length_c   8.14270459
_cell_angle_alpha   87.26231469
_cell_angle_beta   90.00000000
_cell_angle_gamma   90.00000000
_symmetry_Int_Tables_number   1
_chemical_formula_structural   Er4Hf3AlPt4
_chemical_formula_sum   'Er4 Hf3 Al1 Pt4'
_cell_volume   259.98893027
_cell_formula_units_Z   1
loop_
 _symmetry_equiv_pos_site_id
 _symmetry_equiv_pos_as_xyz
  1  'x, y, z'
loop_
 _atom_site_type_symbol
 _atom_site_label
 _atom_site_symmetry_multiplicity
 _atom_site_fract_x
 _atom_site_fract_y
 _atom_site_fract_z
 _atom_site_occupancy
  Er  Er0  1  0.250000  0.471712  0.185760  1
  Er  Er1  1  0.750000  0.519274  0.814620  1
  Er  Er2  1  0.750000  0.037416  0.672137  1
  Er  Er3  1  0.250000  0.986369  0.337168  1
  Hf  Hf4  1  0.250000  0.857285  0.924578  1
  Hf  Hf5  1  0.750000  0.139296  0.070348  1
  Hf  Hf6  1  0.750000  0.639557  0.435262  1
  Al  Al7  1  0.250000  0.358143  0.571105  1
  Pt  Pt8  1  0.250000  0.729189  0.611068  1
  Pt  Pt9  1  0.750000  0.265325  0.383562  1
  Pt  Pt10  1  0.750000  0.760724  0.102780  1
  Pt  Pt11  1  0.250000  0.235712  0.891613  1
