# generated using pymatgen
data_TbErTm(Co3P2)3
_symmetry_space_group_name_H-M   'P 1'
_cell_length_a   3.68936500
_cell_length_b   10.50494100
_cell_length_c   12.15814500
_cell_angle_alpha   90.00000000
_cell_angle_beta   90.00000000
_cell_angle_gamma   90.00000000
_symmetry_Int_Tables_number   1
_chemical_formula_structural   TbErTm(Co3P2)3
_chemical_formula_sum   'Tb2 Er2 Tm2 Co18 P12'
_cell_volume   471.20789627
_cell_formula_units_Z   2
loop_
 _symmetry_equiv_pos_site_id
 _symmetry_equiv_pos_as_xyz
  1  'x, y, z'
loop_
 _atom_site_type_symbol
 _atom_site_label
 _atom_site_symmetry_multiplicity
 _atom_site_fract_x
 _atom_site_fract_y
 _atom_site_fract_z
 _atom_site_occupancy
  Tb  Tb0  1  0.000000  0.500000  0.522789  1
  Tb  Tb1  1  0.500000  0.000000  0.477234  1
  Er  Er2  1  0.500000  0.817633  0.205597  1
  Er  Er3  1  0.500000  0.182367  0.205597  1
  Tm  Tm4  1  0.000000  0.682362  0.794375  1
  Tm  Tm5  1  0.000000  0.317638  0.794375  1
  Co  Co6  1  0.500000  0.500000  0.158815  1
  Co  Co7  1  0.000000  0.000000  0.841176  1
  Co  Co8  1  0.500000  0.500000  0.704528  1
  Co  Co9  1  0.000000  0.000000  0.295538  1
  Co  Co10  1  0.000000  0.500000  0.986049  1
  Co  Co11  1  0.500000  0.000000  0.013923  1
  Co  Co12  1  0.500000  0.333154  0.994526  1
  Co  Co13  1  0.500000  0.666846  0.994526  1
  Co  Co14  1  0.000000  0.166854  0.005415  1
  Co  Co15  1  0.000000  0.833146  0.005415  1
  Co  Co16  1  0.500000  0.297103  0.430211  1
  Co  Co17  1  0.500000  0.702897  0.430211  1
  Co  Co18  1  0.000000  0.202898  0.569826  1
  Co  Co19  1  0.000000  0.797102  0.569826  1
  Co  Co20  1  0.500000  0.878694  0.710362  1
  Co  Co21  1  0.500000  0.121306  0.710362  1
  Co  Co22  1  0.000000  0.621245  0.289660  1
  Co  Co23  1  0.000000  0.378755  0.289660  1
  P  P24  1  0.500000  0.500000  0.882383  1
  P  P25  1  0.000000  0.000000  0.117538  1
  P  P26  1  0.500000  0.500000  0.343614  1
  P  P27  1  0.000000  0.000000  0.656384  1
  P  P28  1  0.500000  0.310440  0.617132  1
  P  P29  1  0.500000  0.689560  0.617132  1
  P  P30  1  0.000000  0.189568  0.382940  1
  P  P31  1  0.000000  0.810432  0.382940  1
  P  P32  1  0.500000  0.846856  0.892728  1
  P  P33  1  0.500000  0.153144  0.892728  1
  P  P34  1  0.000000  0.653090  0.107242  1
  P  P35  1  0.000000  0.346910  0.107242  1
