# generated using pymatgen
data_Tm6Al24ZnOs7
_symmetry_space_group_name_H-M   'P 1'
_cell_length_a   8.82048043
_cell_length_b   8.82048138
_cell_length_c   9.50141187
_cell_angle_alpha   89.89929490
_cell_angle_beta   90.10070380
_cell_angle_gamma   119.99740110
_symmetry_Int_Tables_number   1
_chemical_formula_structural   Tm6Al24ZnOs7
_chemical_formula_sum   'Tm6 Al24 Zn1 Os7'
_cell_volume   640.19721739
_cell_formula_units_Z   1
loop_
 _symmetry_equiv_pos_site_id
 _symmetry_equiv_pos_as_xyz
  1  'x, y, z'
loop_
 _atom_site_type_symbol
 _atom_site_label
 _atom_site_symmetry_multiplicity
 _atom_site_fract_x
 _atom_site_fract_y
 _atom_site_fract_z
 _atom_site_occupancy
  Tm  Tm0  1  0.191800  0.388790  0.249141  1
  Tm  Tm1  1  0.808200  0.611210  0.750859  1
  Tm  Tm2  1  0.611210  0.808200  0.249141  1
  Tm  Tm3  1  0.388790  0.191800  0.750859  1
  Tm  Tm4  1  0.195868  0.804132  0.253289  1
  Tm  Tm5  1  0.804132  0.195868  0.746711  1
  Al  Al6  1  0.330167  0.669833  0.022996  1
  Al  Al7  1  0.669833  0.330167  0.977004  1
  Al  Al8  1  0.666091  0.333909  0.518662  1
  Al  Al9  1  0.333909  0.666091  0.481338  1
  Al  Al10  1  0.162461  0.325591  0.574577  1
  Al  Al11  1  0.837539  0.674409  0.425423  1
  Al  Al12  1  0.674409  0.837539  0.574577  1
  Al  Al13  1  0.849058  0.677370  0.081694  1
  Al  Al14  1  0.325591  0.162461  0.425423  1
  Al  Al15  1  0.150942  0.322630  0.918306  1
  Al  Al16  1  0.163086  0.836914  0.575224  1
  Al  Al17  1  0.322630  0.150942  0.081694  1
  Al  Al18  1  0.836914  0.163086  0.424776  1
  Al  Al19  1  0.677370  0.849058  0.918306  1
  Al  Al20  1  0.836775  0.163225  0.077525  1
  Al  Al21  1  0.163225  0.836775  0.922475  1
  Al  Al22  1  0.561621  0.121632  0.249469  1
  Al  Al23  1  0.438379  0.878368  0.750531  1
  Al  Al24  1  0.878368  0.438379  0.249469  1
  Al  Al25  1  0.121632  0.561621  0.750531  1
  Al  Al26  1  0.563246  0.436754  0.253905  1
  Al  Al27  1  0.436754  0.563246  0.746095  1
  Al  Al28  1  0.999055  0.000945  0.250443  1
  Al  Al29  1  0.000945  0.999055  0.749557  1
  Zn  Zn30  1  0.500000  0.500000  0.000000  1
  Os  Os31  1  0.500000  0.000000  0.000000  1
  Os  Os32  1  0.000000  0.500000  0.000000  1
  Os  Os33  1  0.500000  0.000000  0.500000  1
  Os  Os34  1  0.000000  0.500000  0.500000  1
  Os  Os35  1  0.500000  0.500000  0.500000  1
  Os  Os36  1  0.000000  0.000000  0.000000  1
  Os  Os37  1  0.000000  0.000000  0.500000  1
