# generated using pymatgen
data_Hf4CoSi3Ge
_symmetry_space_group_name_H-M   'P 1'
_cell_length_a   5.23907299
_cell_length_b   5.23907304
_cell_length_c   8.59684526
_cell_angle_alpha   72.81455807
_cell_angle_beta   72.81455849
_cell_angle_gamma   41.55785855
_symmetry_Int_Tables_number   1
_chemical_formula_structural   Hf4CoSi3Ge
_chemical_formula_sum   'Hf4 Co1 Si3 Ge1'
_cell_volume   148.51169464
_cell_formula_units_Z   1
loop_
 _symmetry_equiv_pos_site_id
 _symmetry_equiv_pos_as_xyz
  1  'x, y, z'
loop_
 _atom_site_type_symbol
 _atom_site_label
 _atom_site_symmetry_multiplicity
 _atom_site_fract_x
 _atom_site_fract_y
 _atom_site_fract_z
 _atom_site_occupancy
  Hf  Hf0  1  0.106702  0.106702  0.619834  1
  Hf  Hf1  1  0.891869  0.891869  0.374727  1
  Hf  Hf2  1  0.753157  0.753157  0.850584  1
  Hf  Hf3  1  0.246367  0.246367  0.153686  1
  Co  Co4  1  0.000990  0.000990  0.000601  1
  Si  Si5  1  0.615904  0.615904  0.381971  1
  Si  Si6  1  0.467119  0.467119  0.862247  1
  Si  Si7  1  0.534537  0.534537  0.141292  1
  Ge  Ge8  1  0.383355  0.383355  0.615058  1
