# generated using pymatgen
data_Ho3Tm5Te12
_symmetry_space_group_name_H-M   'P 1'
_cell_length_a   14.38487382
_cell_length_b   13.71812499
_cell_length_c   7.52630700
_cell_angle_alpha   79.42177030
_cell_angle_beta   69.62635331
_cell_angle_gamma   30.95437282
_symmetry_Int_Tables_number   1
_chemical_formula_structural   Ho3Tm5Te12
_chemical_formula_sum   'Ho3 Tm5 Te12'
_cell_volume   695.46923846
_cell_formula_units_Z   1
loop_
 _symmetry_equiv_pos_site_id
 _symmetry_equiv_pos_as_xyz
  1  'x, y, z'
loop_
 _atom_site_type_symbol
 _atom_site_label
 _atom_site_symmetry_multiplicity
 _atom_site_fract_x
 _atom_site_fract_y
 _atom_site_fract_z
 _atom_site_occupancy
  Ho  Ho0  1  0.000492  0.000492  0.499508  1
  Ho  Ho1  1  0.499518  0.499518  0.000482  1
  Ho  Ho2  1  0.249493  0.249493  0.750507  1
  Tm  Tm3  1  0.750405  0.750405  0.249595  1
  Tm  Tm4  1  0.667387  0.667387  0.832613  1
  Tm  Tm5  1  0.832624  0.832624  0.667376  1
  Tm  Tm6  1  0.582641  0.582641  0.417359  1
  Tm  Tm7  1  0.417334  0.417334  0.582666  1
  Te  Te8  1  0.668299  0.165377  0.829959  1
  Te  Te9  1  0.336397  0.829939  0.165377  1
  Te  Te10  1  0.829939  0.336397  0.668288  1
  Te  Te11  1  0.165377  0.668299  0.336364  1
  Te  Te12  1  0.582205  0.083623  0.419476  1
  Te  Te13  1  0.913105  0.421149  0.085209  1
  Te  Te14  1  0.421149  0.913105  0.580536  1
  Te  Te15  1  0.083623  0.582205  0.914696  1
  Te  Te16  1  0.750222  0.249771  0.249594  1
  Te  Te17  1  0.249771  0.750222  0.750411  1
  Te  Te18  1  0.500469  0.999547  0.001158  1
  Te  Te19  1  0.999547  0.500469  0.498825  1
