# generated using pymatgen
data_ZrPaInNi2
_symmetry_space_group_name_H-M   'P 1'
_cell_length_a   7.41947400
_cell_length_b   7.24984000
_cell_length_c   3.44246900
_cell_angle_alpha   90.00000000
_cell_angle_beta   90.00000000
_cell_angle_gamma   90.00000000
_symmetry_Int_Tables_number   1
_chemical_formula_structural   ZrPaInNi2
_chemical_formula_sum   'Zr2 Pa2 In2 Ni4'
_cell_volume   185.17040539
_cell_formula_units_Z   2
loop_
 _symmetry_equiv_pos_site_id
 _symmetry_equiv_pos_as_xyz
  1  'x, y, z'
loop_
 _atom_site_type_symbol
 _atom_site_label
 _atom_site_symmetry_multiplicity
 _atom_site_fract_x
 _atom_site_fract_y
 _atom_site_fract_z
 _atom_site_occupancy
  Zr  Zr0  1  0.323111  0.174399  0.500000  1
  Zr  Zr1  1  0.823111  0.325601  0.500000  1
  Pa  Pa2  1  0.171966  0.666806  0.500000  1
  Pa  Pa3  1  0.671966  0.833194  0.500000  1
  In  In4  1  0.005728  0.017586  0.000000  1
  In  In5  1  0.505728  0.482414  0.000000  1
  Ni  Ni6  1  0.122788  0.385718  0.000000  1
  Ni  Ni7  1  0.376407  0.862758  0.000000  1
  Ni  Ni8  1  0.622788  0.114282  0.000000  1
  Ni  Ni9  1  0.876407  0.637242  0.000000  1
