# generated using pymatgen
data_Y4Al18Co5Pt
_symmetry_space_group_name_H-M   'P 1'
_cell_length_a   7.41789447
_cell_length_b   7.41789420
_cell_length_c   9.34030293
_cell_angle_alpha   89.86372294
_cell_angle_beta   89.86372377
_cell_angle_gamma   119.21078710
_symmetry_Int_Tables_number   1
_chemical_formula_structural   Y4Al18Co5Pt
_chemical_formula_sum   'Y4 Al18 Co5 Pt1'
_cell_volume   448.58755309
_cell_formula_units_Z   1
loop_
 _symmetry_equiv_pos_site_id
 _symmetry_equiv_pos_as_xyz
  1  'x, y, z'
loop_
 _atom_site_type_symbol
 _atom_site_label
 _atom_site_symmetry_multiplicity
 _atom_site_fract_x
 _atom_site_fract_y
 _atom_site_fract_z
 _atom_site_occupancy
  Y  Y0  1  0.994443  0.674398  0.251433  1
  Y  Y1  1  0.005557  0.325602  0.748567  1
  Y  Y2  1  0.674398  0.994443  0.251433  1
  Y  Y3  1  0.325602  0.005557  0.748567  1
  Al  Al4  1  0.131450  0.131450  0.258645  1
  Al  Al5  1  0.868550  0.868550  0.741355  1
  Al  Al6  1  0.332430  0.332430  0.542010  1
  Al  Al7  1  0.660174  0.660174  0.046372  1
  Al  Al8  1  0.339826  0.339826  0.953628  1
  Al  Al9  1  0.667570  0.667570  0.457990  1
  Al  Al10  1  0.339610  0.555246  0.251311  1
  Al  Al11  1  0.660390  0.444754  0.748689  1
  Al  Al12  1  0.555246  0.339610  0.251311  1
  Al  Al13  1  0.444754  0.660390  0.748689  1
  Al  Al14  1  0.999540  0.343928  0.074105  1
  Al  Al15  1  0.002732  0.664159  0.570452  1
  Al  Al16  1  0.335841  0.997268  0.429548  1
  Al  Al17  1  0.656072  0.000460  0.925895  1
  Al  Al18  1  0.000460  0.656072  0.925895  1
  Al  Al19  1  0.997268  0.335841  0.429548  1
  Al  Al20  1  0.664159  0.002732  0.570452  1
  Al  Al21  1  0.343928  0.999540  0.074105  1
  Co  Co22  1  0.000000  0.000000  0.500000  1
  Co  Co23  1  0.670781  0.329219  0.000000  1
  Co  Co24  1  0.329034  0.670966  0.500000  1
  Co  Co25  1  0.329219  0.670781  0.000000  1
  Co  Co26  1  0.670966  0.329034  0.500000  1
  Pt  Pt27  1  0.000000  0.000000  0.000000  1
