# generated using pymatgen
data_Tb20Cd6NiRh
_symmetry_space_group_name_H-M   'P 1'
_cell_length_a   9.62508400
_cell_length_b   9.62508551
_cell_length_c   9.91762700
_cell_angle_alpha   90.00000000
_cell_angle_beta   90.00000000
_cell_angle_gamma   119.99999481
_symmetry_Int_Tables_number   1
_chemical_formula_structural   Tb20Cd6NiRh
_chemical_formula_sum   'Tb20 Cd6 Ni1 Rh1'
_cell_volume   795.69668688
_cell_formula_units_Z   1
loop_
 _symmetry_equiv_pos_site_id
 _symmetry_equiv_pos_as_xyz
  1  'x, y, z'
loop_
 _atom_site_type_symbol
 _atom_site_label
 _atom_site_symmetry_multiplicity
 _atom_site_fract_x
 _atom_site_fract_y
 _atom_site_fract_z
 _atom_site_occupancy
  Tb  Tb0  1  0.000000  0.000000  0.499670  1
  Tb  Tb1  1  0.000000  0.000000  0.000330  1
  Tb  Tb2  1  0.543137  0.456863  0.250000  1
  Tb  Tb3  1  0.543137  0.086275  0.250000  1
  Tb  Tb4  1  0.913725  0.456863  0.250000  1
  Tb  Tb5  1  0.456927  0.543073  0.750000  1
  Tb  Tb6  1  0.456927  0.913854  0.750000  1
  Tb  Tb7  1  0.086146  0.543073  0.750000  1
  Tb  Tb8  1  0.208908  0.791092  0.440695  1
  Tb  Tb9  1  0.208908  0.417817  0.440695  1
  Tb  Tb10  1  0.582183  0.791092  0.440695  1
  Tb  Tb11  1  0.788952  0.211048  0.562815  1
  Tb  Tb12  1  0.788952  0.577903  0.562815  1
  Tb  Tb13  1  0.422097  0.211048  0.562815  1
  Tb  Tb14  1  0.788952  0.211048  0.937185  1
  Tb  Tb15  1  0.788952  0.577903  0.937185  1
  Tb  Tb16  1  0.422097  0.211048  0.937185  1
  Tb  Tb17  1  0.208908  0.791092  0.059305  1
  Tb  Tb18  1  0.208908  0.417817  0.059305  1
  Tb  Tb19  1  0.582183  0.791092  0.059305  1
  Cd  Cd20  1  0.885113  0.114887  0.250000  1
  Cd  Cd21  1  0.885113  0.770226  0.250000  1
  Cd  Cd22  1  0.229774  0.114887  0.250000  1
  Cd  Cd23  1  0.114737  0.885263  0.750000  1
  Cd  Cd24  1  0.114737  0.229474  0.750000  1
  Cd  Cd25  1  0.770526  0.885263  0.750000  1
  Ni  Ni26  1  0.666667  0.333333  0.750000  1
  Rh  Rh27  1  0.333333  0.666667  0.250000  1
