# generated using pymatgen
data_Ba8PtRh
_symmetry_space_group_name_H-M   'P 1'
_cell_length_a   8.84845250
_cell_length_b   8.84845332
_cell_length_c   10.79250748
_cell_angle_alpha   126.40137205
_cell_angle_beta   126.40137425
_cell_angle_gamma   63.10683292
_symmetry_Int_Tables_number   1
_chemical_formula_structural   Ba8PtRh
_chemical_formula_sum   'Ba8 Pt1 Rh1'
_cell_volume   540.83557346
_cell_formula_units_Z   1
loop_
 _symmetry_equiv_pos_site_id
 _symmetry_equiv_pos_as_xyz
  1  'x, y, z'
loop_
 _atom_site_type_symbol
 _atom_site_label
 _atom_site_symmetry_multiplicity
 _atom_site_fract_x
 _atom_site_fract_y
 _atom_site_fract_z
 _atom_site_occupancy
  Ba  Ba0  1  0.197680  0.191302  0.165765  1
  Ba  Ba1  1  0.692021  0.698446  0.166336  1
  Ba  Ba2  1  0.783138  0.283995  0.316413  1
  Ba  Ba3  1  0.283283  0.782524  0.312087  1
  Ba  Ba4  1  0.716005  0.216862  0.683587  1
  Ba  Ba5  1  0.217476  0.716717  0.687913  1
  Ba  Ba6  1  0.301553  0.307978  0.833665  1
  Ba  Ba7  1  0.808699  0.802321  0.834235  1
  Pt  Pt8  1  0.749517  0.250483  0.000000  1
  Rh  Rh9  1  0.250628  0.749372  0.000000  1
