# generated using pymatgen
data_Sr4SmPa5O18
_symmetry_space_group_name_H-M   'P 1'
_cell_length_a   6.98373090
_cell_length_b   7.84817008
_cell_length_c   8.82080260
_cell_angle_alpha   101.28993658
_cell_angle_beta   98.13977027
_cell_angle_gamma   107.06529918
_symmetry_Int_Tables_number   1
_chemical_formula_structural   Sr4SmPa5O18
_chemical_formula_sum   'Sr4 Sm1 Pa5 O18'
_cell_volume   442.90054704
_cell_formula_units_Z   1
loop_
 _symmetry_equiv_pos_site_id
 _symmetry_equiv_pos_as_xyz
  1  'x, y, z'
loop_
 _atom_site_type_symbol
 _atom_site_label
 _atom_site_symmetry_multiplicity
 _atom_site_fract_x
 _atom_site_fract_y
 _atom_site_fract_z
 _atom_site_occupancy
  Sr  Sr0  1  0.801934  0.106565  0.588231  1
  Sr  Sr1  1  0.595822  0.694658  0.195311  1
  Sr  Sr2  1  0.404178  0.305342  0.804689  1
  Sr  Sr3  1  0.198066  0.893435  0.411769  1
  Sm  Sm4  1  0.000000  0.500000  0.000000  1
  Pa  Pa5  1  0.000000  0.000000  0.000000  1
  Pa  Pa6  1  0.792406  0.578731  0.587083  1
  Pa  Pa7  1  0.629325  0.198319  0.195370  1
  Pa  Pa8  1  0.370675  0.801681  0.804630  1
  Pa  Pa9  1  0.207594  0.421269  0.412917  1
  O  O10  1  0.823100  0.787828  0.472205  1
  O  O11  1  0.990006  0.232722  0.180498  1
  O  O12  1  0.681878  0.402841  0.068241  1
  O  O13  1  0.455951  0.999359  0.683926  1
  O  O14  1  0.858051  0.347708  0.427477  1
  O  O15  1  0.500674  0.395259  0.345835  1
  O  O16  1  0.231802  0.597505  0.261360  1
  O  O17  1  0.976672  0.804812  0.136445  1
  O  O18  1  0.662716  0.937916  0.994297  1
  O  O19  1  0.337284  0.062084  0.005703  1
  O  O20  1  0.023328  0.195188  0.863555  1
  O  O21  1  0.768198  0.402495  0.738640  1
  O  O22  1  0.499326  0.604741  0.654165  1
  O  O23  1  0.141949  0.652292  0.572523  1
  O  O24  1  0.544049  0.000641  0.316074  1
  O  O25  1  0.318122  0.597159  0.931759  1
  O  O26  1  0.009994  0.767278  0.819502  1
  O  O27  1  0.176900  0.212172  0.527795  1
