# generated using pymatgen
data_CaLa5(Bi2Rh)8
_symmetry_space_group_name_H-M   'P 1'
_cell_length_a   4.29396100
_cell_length_b   11.01232221
_cell_length_c   16.87387794
_cell_angle_alpha   90.71025129
_cell_angle_beta   90.00000000
_cell_angle_gamma   90.00000000
_symmetry_Int_Tables_number   1
_chemical_formula_structural   CaLa5(Bi2Rh)8
_chemical_formula_sum   'Ca1 La5 Bi16 Rh8'
_cell_volume   797.84502187
_cell_formula_units_Z   1
loop_
 _symmetry_equiv_pos_site_id
 _symmetry_equiv_pos_as_xyz
  1  'x, y, z'
loop_
 _atom_site_type_symbol
 _atom_site_label
 _atom_site_symmetry_multiplicity
 _atom_site_fract_x
 _atom_site_fract_y
 _atom_site_fract_z
 _atom_site_occupancy
  Ca  Ca0  1  0.500000  0.500000  0.000000  1
  La  La1  1  0.500000  0.000000  0.500000  1
  La  La2  1  0.500000  0.868905  0.191521  1
  La  La3  1  0.500000  0.131095  0.808479  1
  La  La4  1  0.500000  0.370666  0.305914  1
  La  La5  1  0.500000  0.629334  0.694086  1
  Bi  Bi6  1  0.000000  0.118516  0.214519  1
  Bi  Bi7  1  0.000000  0.881484  0.785481  1
  Bi  Bi8  1  0.000000  0.617351  0.281878  1
  Bi  Bi9  1  0.000000  0.382649  0.718122  1
  Bi  Bi10  1  0.000000  0.402758  0.142071  1
  Bi  Bi11  1  0.000000  0.597242  0.857929  1
  Bi  Bi12  1  0.000000  0.905892  0.351947  1
  Bi  Bi13  1  0.000000  0.094108  0.648053  1
  Bi  Bi14  1  0.500000  0.126501  0.039701  1
  Bi  Bi15  1  0.500000  0.873499  0.960299  1
  Bi  Bi16  1  0.500000  0.626205  0.460690  1
  Bi  Bi17  1  0.500000  0.373795  0.539310  1
  Bi  Bi18  1  0.000000  0.694068  0.081378  1
  Bi  Bi19  1  0.000000  0.305932  0.918622  1
  Bi  Bi20  1  0.000000  0.200149  0.415500  1
  Bi  Bi21  1  0.000000  0.799851  0.584500  1
  Rh  Rh22  1  0.000000  0.950961  0.081126  1
  Rh  Rh23  1  0.000000  0.049039  0.918874  1
  Rh  Rh24  1  0.000000  0.456270  0.416673  1
  Rh  Rh25  1  0.000000  0.543730  0.583327  1
  Rh  Rh26  1  0.500000  0.580525  0.171372  1
  Rh  Rh27  1  0.500000  0.419475  0.828628  1
  Rh  Rh28  1  0.500000  0.084907  0.324343  1
  Rh  Rh29  1  0.500000  0.915093  0.675657  1
