# generated using pymatgen
data_La2Sm3(SiC)2
_symmetry_space_group_name_H-M   'P 1'
_cell_length_a   8.04310500
_cell_length_b   12.48478000
_cell_length_c   4.22961700
_cell_angle_alpha   90.00000000
_cell_angle_beta   90.00000000
_cell_angle_gamma   90.00000000
_symmetry_Int_Tables_number   1
_chemical_formula_structural   La2Sm3(SiC)2
_chemical_formula_sum   'La4 Sm6 Si4 C4'
_cell_volume   424.72289747
_cell_formula_units_Z   2
loop_
 _symmetry_equiv_pos_site_id
 _symmetry_equiv_pos_as_xyz
  1  'x, y, z'
loop_
 _atom_site_type_symbol
 _atom_site_label
 _atom_site_symmetry_multiplicity
 _atom_site_fract_x
 _atom_site_fract_y
 _atom_site_fract_z
 _atom_site_occupancy
  La  La0  1  0.830449  0.062813  0.499998  1
  La  La1  1  0.330449  0.437187  0.499998  1
  La  La2  1  0.669552  0.562813  0.499998  1
  La  La3  1  0.169552  0.937187  0.499998  1
  Sm  Sm4  1  0.500000  0.000000  0.000000  1
  Sm  Sm5  1  0.174964  0.213625  0.000000  1
  Sm  Sm6  1  0.674965  0.286375  0.000000  1
  Sm  Sm7  1  0.000000  0.500000  0.000000  1
  Sm  Sm8  1  0.325036  0.713625  0.000000  1
  Sm  Sm9  1  0.825036  0.786375  0.000000  1
  Si  Si10  1  0.453046  0.171954  0.499998  1
  Si  Si11  1  0.953046  0.328046  0.499998  1
  Si  Si12  1  0.046953  0.671954  0.499998  1
  Si  Si13  1  0.546955  0.828046  0.499998  1
  C  C14  1  0.042381  0.047848  0.000000  1
  C  C15  1  0.542380  0.452152  0.000000  1
  C  C16  1  0.457619  0.547848  0.000000  1
  C  C17  1  0.957620  0.952152  0.000000  1
