# generated using pymatgen
data_Tb3HoAl18(IrPd)3
_symmetry_space_group_name_H-M   'P 1'
_cell_length_a   7.60275674
_cell_length_b   7.60452823
_cell_length_c   9.46015200
_cell_angle_alpha   89.97522063
_cell_angle_beta   89.97507837
_cell_angle_gamma   119.65432323
_symmetry_Int_Tables_number   1
_chemical_formula_structural   Tb3HoAl18(IrPd)3
_chemical_formula_sum   'Tb3 Ho1 Al18 Ir3 Pd3'
_cell_volume   475.30699441
_cell_formula_units_Z   1
loop_
 _symmetry_equiv_pos_site_id
 _symmetry_equiv_pos_as_xyz
  1  'x, y, z'
loop_
 _atom_site_type_symbol
 _atom_site_label
 _atom_site_symmetry_multiplicity
 _atom_site_fract_x
 _atom_site_fract_y
 _atom_site_fract_z
 _atom_site_occupancy
  Tb  Tb0  1  0.995780  0.670275  0.250431  1
  Tb  Tb1  1  0.004666  0.329711  0.749611  1
  Tb  Tb2  1  0.670183  0.995299  0.250385  1
  Ho  Ho3  1  0.329491  0.004302  0.749482  1
  Al  Al4  1  0.127387  0.128144  0.250391  1
  Al  Al5  1  0.872185  0.872766  0.749611  1
  Al  Al6  1  0.000842  0.331633  0.076312  1
  Al  Al7  1  0.999631  0.669081  0.922574  1
  Al  Al8  1  0.997007  0.665311  0.575395  1
  Al  Al9  1  0.335063  0.003367  0.425242  1
  Al  Al10  1  0.996507  0.330833  0.425013  1
  Al  Al11  1  0.668742  0.003475  0.575286  1
  Al  Al12  1  0.667959  0.999182  0.923402  1
  Al  Al13  1  0.331350  0.000794  0.076786  1
  Al  Al14  1  0.333152  0.329599  0.552967  1
  Al  Al15  1  0.670124  0.666887  0.447428  1
  Al  Al16  1  0.668948  0.668884  0.056472  1
  Al  Al17  1  0.331200  0.330755  0.943113  1
  Al  Al18  1  0.340124  0.546671  0.250663  1
  Al  Al19  1  0.658784  0.451871  0.747613  1
  Al  Al20  1  0.547607  0.340769  0.252425  1
  Al  Al21  1  0.453216  0.660164  0.749341  1
  Ir  Ir22  1  0.671783  0.328043  0.500120  1
  Ir  Ir23  1  0.000162  0.000049  0.999851  1
  Ir  Ir24  1  0.000549  0.999665  0.500156  1
  Pd  Pd25  1  0.672307  0.327611  0.999933  1
  Pd  Pd26  1  0.327616  0.672437  0.999949  1
  Pd  Pd27  1  0.327636  0.672419  0.500048  1
