# generated using pymatgen
data_Ba2PaSnS6
_symmetry_space_group_name_H-M   'P 1'
_cell_length_a   7.15279742
_cell_length_b   7.48524400
_cell_length_c   12.61402268
_cell_angle_alpha   90.00000000
_cell_angle_beta   124.87109486
_cell_angle_gamma   90.00000000
_symmetry_Int_Tables_number   1
_chemical_formula_structural   Ba2PaSnS6
_chemical_formula_sum   'Ba4 Pa2 Sn2 S12'
_cell_volume   554.09284168
_cell_formula_units_Z   2
loop_
 _symmetry_equiv_pos_site_id
 _symmetry_equiv_pos_as_xyz
  1  'x, y, z'
loop_
 _atom_site_type_symbol
 _atom_site_label
 _atom_site_symmetry_multiplicity
 _atom_site_fract_x
 _atom_site_fract_y
 _atom_site_fract_z
 _atom_site_occupancy
  Ba  Ba0  1  0.232582  0.068402  0.251239  1
  Ba  Ba1  1  0.767418  0.568402  0.248761  1
  Ba  Ba2  1  0.232581  0.431599  0.751238  1
  Ba  Ba3  1  0.767419  0.931599  0.748762  1
  Pa  Pa4  1  0.000000  0.500000  0.000000  1
  Pa  Pa5  1  0.000000  0.000000  0.500000  1
  Sn  Sn6  1  0.500000  0.000000  0.000000  1
  Sn  Sn7  1  0.500000  0.500000  0.500000  1
  S  S8  1  0.849773  0.798218  0.041915  1
  S  S9  1  0.742681  0.303928  0.042233  1
  S  S10  1  0.328946  0.484855  0.247268  1
  S  S11  1  0.671055  0.984855  0.252732  1
  S  S12  1  0.257319  0.803928  0.457767  1
  S  S13  1  0.150227  0.298218  0.458085  1
  S  S14  1  0.849773  0.701782  0.541916  1
  S  S15  1  0.742680  0.196072  0.542233  1
  S  S16  1  0.328946  0.015145  0.747269  1
  S  S17  1  0.671054  0.515145  0.752731  1
  S  S18  1  0.257320  0.696073  0.957767  1
  S  S19  1  0.150228  0.201782  0.958085  1
