# generated using pymatgen
data_Dy4Y6B2I15
_symmetry_space_group_name_H-M   'P 1'
_cell_length_a   9.61825579
_cell_length_b   10.36540290
_cell_length_c   11.31338502
_cell_angle_alpha   91.77071200
_cell_angle_beta   114.40116912
_cell_angle_gamma   110.43290411
_symmetry_Int_Tables_number   1
_chemical_formula_structural   Dy4Y6B2I15
_chemical_formula_sum   'Dy4 Y6 B2 I15'
_cell_volume   942.04832867
_cell_formula_units_Z   1
loop_
 _symmetry_equiv_pos_site_id
 _symmetry_equiv_pos_as_xyz
  1  'x, y, z'
loop_
 _atom_site_type_symbol
 _atom_site_label
 _atom_site_symmetry_multiplicity
 _atom_site_fract_x
 _atom_site_fract_y
 _atom_site_fract_z
 _atom_site_occupancy
  Dy  Dy0  1  0.580372  0.043914  0.308809  1
  Dy  Dy1  1  0.419628  0.956086  0.691191  1
  Dy  Dy2  1  0.707257  0.069863  0.045540  1
  Dy  Dy3  1  0.292743  0.930137  0.954460  1
  Y  Y4  1  0.784243  0.393312  0.267741  1
  Y  Y5  1  0.215757  0.606688  0.732259  1
  Y  Y6  1  0.663105  0.752175  0.825457  1
  Y  Y7  1  0.336895  0.247825  0.174543  1
  Y  Y8  1  0.523143  0.712954  0.085727  1
  Y  Y9  1  0.476857  0.287046  0.914273  1
  B  B10  1  0.468520  0.823559  0.880035  1
  B  B11  1  0.531480  0.176441  0.119965  1
  I  I12  1  0.000000  0.000000  0.000000  1
  I  I13  1  0.638353  0.882552  0.582962  1
  I  I14  1  0.361647  0.117448  0.417038  1
  I  I15  1  0.884619  0.299143  0.531044  1
  I  I16  1  0.115381  0.700857  0.468956  1
  I  I17  1  0.284777  0.760374  0.177517  1
  I  I18  1  0.715223  0.239626  0.822483  1
  I  I19  1  0.054850  0.340089  0.225575  1
  I  I20  1  0.160234  0.055845  0.702006  1
  I  I21  1  0.839766  0.944155  0.297994  1
  I  I22  1  0.228270  0.409881  0.942026  1
  I  I23  1  0.771730  0.590119  0.057974  1
  I  I24  1  0.409795  0.459494  0.660015  1
  I  I25  1  0.590205  0.540506  0.339985  1
  I  I26  1  0.945150  0.659911  0.774425  1
