# generated using pymatgen
data_Pr8Dy5Y7Si16
_symmetry_space_group_name_H-M   'P 1'
_cell_length_a   7.55325700
_cell_length_b   7.82874100
_cell_length_c   14.88488400
_cell_angle_alpha   90.00162457
_cell_angle_beta   90.00029041
_cell_angle_gamma   89.99811528
_symmetry_Int_Tables_number   1
_chemical_formula_structural   Pr8Dy5Y7Si16
_chemical_formula_sum   'Pr8 Dy5 Y7 Si16'
_cell_volume   880.18029493
_cell_formula_units_Z   1
loop_
 _symmetry_equiv_pos_site_id
 _symmetry_equiv_pos_as_xyz
  1  'x, y, z'
loop_
 _atom_site_type_symbol
 _atom_site_label
 _atom_site_symmetry_multiplicity
 _atom_site_fract_x
 _atom_site_fract_y
 _atom_site_fract_z
 _atom_site_occupancy
  Pr  Pr0  1  0.974609  0.820076  0.098052  1
  Pr  Pr1  1  0.474644  0.679929  0.401945  1
  Pr  Pr2  1  0.525371  0.320066  0.901937  1
  Pr  Pr3  1  0.025395  0.179937  0.598043  1
  Pr  Pr4  1  0.025389  0.180007  0.901922  1
  Pr  Pr5  1  0.525361  0.319991  0.598058  1
  Pr  Pr6  1  0.474614  0.680005  0.098075  1
  Pr  Pr7  1  0.974640  0.820038  0.401926  1
  Dy  Dy8  1  0.318575  0.178550  0.376971  1
  Dy  Dy9  1  0.318560  0.178560  0.123028  1
  Dy  Dy10  1  0.818536  0.321419  0.376983  1
  Dy  Dy11  1  0.181443  0.678568  0.876957  1
  Dy  Dy12  1  0.681444  0.821428  0.623047  1
  Y  Y13  1  0.648988  0.989402  0.250035  1
  Y  Y14  1  0.149114  0.510595  0.250055  1
  Y  Y15  1  0.850933  0.489327  0.750006  1
  Y  Y16  1  0.350925  0.010674  0.749983  1
  Y  Y17  1  0.681441  0.821526  0.877027  1
  Y  Y18  1  0.181458  0.678481  0.622957  1
  Y  Y19  1  0.818560  0.321525  0.122971  1
  Si  Si20  1  0.767212  0.620148  0.250043  1
  Si  Si21  1  0.267242  0.879931  0.250015  1
  Si  Si22  1  0.732784  0.120166  0.749945  1
  Si  Si23  1  0.232792  0.379844  0.750050  1
  Si  Si24  1  0.024077  0.110933  0.250089  1
  Si  Si25  1  0.523913  0.388991  0.250034  1
  Si  Si26  1  0.476019  0.610900  0.749961  1
  Si  Si27  1  0.976003  0.889088  0.750049  1
  Si  Si28  1  0.857288  0.530615  0.960027  1
  Si  Si29  1  0.357249  0.969438  0.539900  1
  Si  Si30  1  0.642709  0.030613  0.039970  1
  Si  Si31  1  0.142797  0.469187  0.459990  1
  Si  Si32  1  0.142904  0.469289  0.039891  1
  Si  Si33  1  0.642801  0.030752  0.460056  1
  Si  Si34  1  0.357109  0.969282  0.960106  1
  Si  Si35  1  0.857099  0.530722  0.539895  1
