# generated using pymatgen
data_TbY11In2FeTc2
_symmetry_space_group_name_H-M   'P 1'
_cell_length_a   8.47811270
_cell_length_b   8.47323754
_cell_length_c   8.47323759
_cell_angle_alpha   108.71303293
_cell_angle_beta   108.85643337
_cell_angle_gamma   110.82917726
_symmetry_Int_Tables_number   1
_chemical_formula_structural   TbY11In2FeTc2
_chemical_formula_sum   'Tb1 Y11 In2 Fe1 Tc2'
_cell_volume   468.50796678
_cell_formula_units_Z   1
loop_
 _symmetry_equiv_pos_site_id
 _symmetry_equiv_pos_as_xyz
  1  'x, y, z'
loop_
 _atom_site_type_symbol
 _atom_site_label
 _atom_site_symmetry_multiplicity
 _atom_site_fract_x
 _atom_site_fract_y
 _atom_site_fract_z
 _atom_site_occupancy
  Tb  Tb0  1  0.571706  0.807560  0.764146  1
  Y  Y1  1  0.303940  0.304182  0.610937  1
  Y  Y2  1  0.693074  0.692735  0.388952  1
  Y  Y3  1  0.693074  0.304123  0.000340  1
  Y  Y4  1  0.303940  0.693004  0.999759  1
  Y  Y5  1  0.189941  0.431100  0.240889  1
  Y  Y6  1  0.807741  0.568022  0.761203  1
  Y  Y7  1  0.189941  0.949050  0.758841  1
  Y  Y8  1  0.949188  0.190263  0.758927  1
  Y  Y9  1  0.807741  0.046539  0.239721  1
  Y  Y10  1  0.044679  0.807233  0.237445  1
  Y  Y11  1  0.430300  0.189560  0.240738  1
  In  In12  1  0.997509  0.498096  0.499413  1
  In  In13  1  0.497797  0.997991  0.499806  1
  Fe  Fe14  1  0.627956  0.628731  0.999225  1
  Tc  Tc15  1  0.391834  0.391588  0.000246  1
  Tc  Tc16  1  0.999637  0.000224  0.999413  1
