# generated using pymatgen
data_Tm3ThCo3
_symmetry_space_group_name_H-M   'P 1'
_cell_length_a   5.81461956
_cell_length_b   5.81461954
_cell_length_c   14.17860000
_cell_angle_alpha   90.00000000
_cell_angle_beta   90.00000000
_cell_angle_gamma   142.25688981
_symmetry_Int_Tables_number   1
_chemical_formula_structural   Tm3ThCo3
_chemical_formula_sum   'Tm6 Th2 Co6'
_cell_volume   293.43646717
_cell_formula_units_Z   2
loop_
 _symmetry_equiv_pos_site_id
 _symmetry_equiv_pos_as_xyz
  1  'x, y, z'
loop_
 _atom_site_type_symbol
 _atom_site_label
 _atom_site_symmetry_multiplicity
 _atom_site_fract_x
 _atom_site_fract_y
 _atom_site_fract_z
 _atom_site_occupancy
  Tm  Tm0  1  0.781298  0.218702  0.380371  1
  Tm  Tm1  1  0.218702  0.781298  0.619629  1
  Tm  Tm2  1  0.781298  0.218702  0.119629  1
  Tm  Tm3  1  0.218702  0.781298  0.880371  1
  Tm  Tm4  1  0.505317  0.494683  0.250000  1
  Tm  Tm5  1  0.494683  0.505317  0.750000  1
  Th  Th6  1  0.500000  0.500000  0.500000  1
  Th  Th7  1  0.500000  0.500000  0.000000  1
  Co  Co8  1  0.084385  0.915615  0.388030  1
  Co  Co9  1  0.915615  0.084385  0.611970  1
  Co  Co10  1  0.084385  0.915615  0.111970  1
  Co  Co11  1  0.915615  0.084385  0.888030  1
  Co  Co12  1  0.210473  0.789527  0.250000  1
  Co  Co13  1  0.789527  0.210473  0.750000  1
