# generated using pymatgen
data_Sr2Cu(PtO3)6
_symmetry_space_group_name_H-M   'P 1'
_cell_length_a   6.80089046
_cell_length_b   7.10992495
_cell_length_c   7.53009900
_cell_angle_alpha   92.12574028
_cell_angle_beta   96.54156993
_cell_angle_gamma   114.39911384
_symmetry_Int_Tables_number   1
_chemical_formula_structural   Sr2Cu(PtO3)6
_chemical_formula_sum   'Sr2 Cu1 Pt6 O18'
_cell_volume   328.00357402
_cell_formula_units_Z   1
loop_
 _symmetry_equiv_pos_site_id
 _symmetry_equiv_pos_as_xyz
  1  'x, y, z'
loop_
 _atom_site_type_symbol
 _atom_site_label
 _atom_site_symmetry_multiplicity
 _atom_site_fract_x
 _atom_site_fract_y
 _atom_site_fract_z
 _atom_site_occupancy
  Sr  Sr0  1  0.685394  0.314400  0.381436  1
  Sr  Sr1  1  0.321589  0.693179  0.615979  1
  Cu  Cu2  1  0.602248  0.721298  0.117159  1
  Pt  Pt3  1  0.195040  0.874095  0.184331  1
  Pt  Pt4  1  0.180833  0.383456  0.196748  1
  Pt  Pt5  1  0.003423  0.999834  0.499305  1
  Pt  Pt6  1  0.820033  0.620467  0.804027  1
  Pt  Pt7  1  0.806098  0.121147  0.818449  1
  Pt  Pt8  1  0.396872  0.286897  0.885308  1
  O  O9  1  0.684469  0.492552  0.023311  1
  O  O10  1  0.881691  0.222841  0.074502  1
  O  O11  1  0.310873  0.180301  0.126960  1
  O  O12  1  0.496803  0.919784  0.174156  1
  O  O13  1  0.916553  0.888624  0.238947  1
  O  O14  1  0.090353  0.599862  0.281624  1
  O  O15  1  0.480382  0.563533  0.313996  1
  O  O16  1  0.079294  0.285013  0.430390  1
  O  O17  1  0.286922  0.002536  0.439920  1
  O  O18  1  0.720941  0.998315  0.560705  1
  O  O19  1  0.925964  0.715248  0.570758  1
  O  O20  1  0.514877  0.444873  0.677189  1
  O  O21  1  0.904955  0.397938  0.721029  1
  O  O22  1  0.090541  0.102739  0.764855  1
  O  O23  1  0.497109  0.071879  0.821348  1
  O  O24  1  0.693659  0.821933  0.879634  1
  O  O25  1  0.116496  0.776362  0.928047  1
  O  O26  1  0.296588  0.500893  0.969885  1
