# generated using pymatgen
data_TmMgCo4Sn5
_symmetry_space_group_name_H-M   'P 1'
_cell_length_a   6.63526283
_cell_length_b   6.78018657
_cell_length_c   6.65235872
_cell_angle_alpha   121.23271443
_cell_angle_beta   120.51854321
_cell_angle_gamma   88.97657894
_symmetry_Int_Tables_number   1
_chemical_formula_structural   TmMgCo4Sn5
_chemical_formula_sum   'Tm1 Mg1 Co4 Sn5'
_cell_volume   207.85326334
_cell_formula_units_Z   1
loop_
 _symmetry_equiv_pos_site_id
 _symmetry_equiv_pos_as_xyz
  1  'x, y, z'
loop_
 _atom_site_type_symbol
 _atom_site_label
 _atom_site_symmetry_multiplicity
 _atom_site_fract_x
 _atom_site_fract_y
 _atom_site_fract_z
 _atom_site_occupancy
  Tm  Tm0  1  0.001947  0.997004  0.000000  1
  Mg  Mg1  1  0.472359  0.108685  0.000000  1
  Co  Co2  1  0.743101  0.410614  0.000000  1
  Co  Co3  1  0.395660  0.730750  0.000000  1
  Co  Co4  1  0.603935  0.609397  0.352802  1
  Co  Co5  1  0.251134  0.256595  0.647197  1
  Sn  Sn6  1  0.120835  0.453202  0.000000  1
  Sn  Sn7  1  0.882137  0.887592  0.348120  1
  Sn  Sn8  1  0.499368  0.005275  0.503863  1
  Sn  Sn9  1  0.995506  0.501411  0.496135  1
  Sn  Sn10  1  0.534017  0.539472  0.651879  1
