# generated using pymatgen
data_Gd3Er(TcC2)2
_symmetry_space_group_name_H-M   'P 1'
_cell_length_a   5.13215100
_cell_length_b   6.56715100
_cell_length_c   9.93620100
_cell_angle_alpha   90.00000000
_cell_angle_beta   90.00000000
_cell_angle_gamma   90.00000000
_symmetry_Int_Tables_number   1
_chemical_formula_structural   Gd3Er(TcC2)2
_chemical_formula_sum   'Gd6 Er2 Tc4 C8'
_cell_volume   334.88584907
_cell_formula_units_Z   2
loop_
 _symmetry_equiv_pos_site_id
 _symmetry_equiv_pos_as_xyz
  1  'x, y, z'
loop_
 _atom_site_type_symbol
 _atom_site_label
 _atom_site_symmetry_multiplicity
 _atom_site_fract_x
 _atom_site_fract_y
 _atom_site_fract_z
 _atom_site_occupancy
  Gd  Gd0  1  0.750000  0.532699  0.783451  1
  Gd  Gd1  1  0.250000  0.967301  0.283451  1
  Gd  Gd2  1  0.750000  0.679610  0.444318  1
  Gd  Gd3  1  0.250000  0.820390  0.944318  1
  Gd  Gd4  1  0.750000  0.182129  0.055796  1
  Gd  Gd5  1  0.250000  0.317871  0.555796  1
  Er  Er6  1  0.250000  0.466904  0.217359  1
  Er  Er7  1  0.750000  0.033096  0.717359  1
  Tc  Tc8  1  0.250000  0.282423  0.864848  1
  Tc  Tc9  1  0.250000  0.782203  0.634614  1
  Tc  Tc10  1  0.750000  0.217577  0.364848  1
  Tc  Tc11  1  0.750000  0.717797  0.134614  1
  C  C12  1  0.250000  0.678898  0.453060  1
  C  C13  1  0.250000  0.548268  0.756890  1
  C  C14  1  0.750000  0.452100  0.242274  1
  C  C15  1  0.750000  0.821102  0.953060  1
  C  C16  1  0.250000  0.047900  0.742274  1
  C  C17  1  0.250000  0.183970  0.047390  1
  C  C18  1  0.750000  0.316030  0.547390  1
  C  C19  1  0.750000  0.951732  0.256890  1
