# generated using pymatgen
data_Ta5SiNi4P3
_symmetry_space_group_name_H-M   'P 1'
_cell_length_a   7.27616251
_cell_length_b   7.27616234
_cell_length_c   7.29048652
_cell_angle_alpha   93.36961241
_cell_angle_beta   93.41309959
_cell_angle_gamma   151.81846004
_symmetry_Int_Tables_number   1
_chemical_formula_structural   Ta5SiNi4P3
_chemical_formula_sum   'Ta5 Si1 Ni4 P3'
_cell_volume   176.82119947
_cell_formula_units_Z   1
loop_
 _symmetry_equiv_pos_site_id
 _symmetry_equiv_pos_as_xyz
  1  'x, y, z'
loop_
 _atom_site_type_symbol
 _atom_site_label
 _atom_site_symmetry_multiplicity
 _atom_site_fract_x
 _atom_site_fract_y
 _atom_site_fract_z
 _atom_site_occupancy
  Ta  Ta0  1  0.868891  0.194031  0.062922  1
  Ta  Ta1  1  0.128604  0.804017  0.932621  1
  Ta  Ta2  1  0.194626  0.131775  0.326402  1
  Ta  Ta3  1  0.803641  0.869492  0.673132  1
  Ta  Ta4  1  0.498960  0.500216  0.999176  1
  Si  Si5  1  0.760016  0.444157  0.204173  1
  Ni  Ni6  1  0.610838  0.086221  0.697059  1
  Ni  Ni7  1  0.393533  0.912439  0.305971  1
  Ni  Ni8  1  0.086136  0.389737  0.475872  1
  Ni  Ni9  1  0.914596  0.613167  0.527765  1
  P  P10  1  0.240580  0.555202  0.795781  1
  P  P11  1  0.444079  0.241765  0.685844  1
  P  P12  1  0.555501  0.757782  0.313282  1
