# generated using pymatgen
data_Er20Ir7Ru4Pt
_symmetry_space_group_name_H-M   'P 1'
_cell_length_a   10.73459418
_cell_length_b   10.73459418
_cell_length_c   6.38884194
_cell_angle_alpha   90.06311634
_cell_angle_beta   90.06311634
_cell_angle_gamma   89.89444982
_symmetry_Int_Tables_number   1
_chemical_formula_structural   Er20Ir7Ru4Pt
_chemical_formula_sum   'Er20 Ir7 Ru4 Pt1'
_cell_volume   736.19377653
_cell_formula_units_Z   1
loop_
 _symmetry_equiv_pos_site_id
 _symmetry_equiv_pos_as_xyz
  1  'x, y, z'
loop_
 _atom_site_type_symbol
 _atom_site_label
 _atom_site_symmetry_multiplicity
 _atom_site_fract_x
 _atom_site_fract_y
 _atom_site_fract_z
 _atom_site_occupancy
  Er  Er0  1  0.292869  0.086071  0.376952  1
  Er  Er1  1  0.293938  0.913594  0.876973  1
  Er  Er2  1  0.704457  0.084963  0.872746  1
  Er  Er3  1  0.705041  0.910765  0.379093  1
  Er  Er4  1  0.586249  0.793228  0.877329  1
  Er  Er5  1  0.583034  0.206645  0.377156  1
  Er  Er6  1  0.413224  0.793151  0.377473  1
  Er  Er7  1  0.413319  0.206694  0.877737  1
  Er  Er8  1  0.206772  0.413751  0.622671  1
  Er  Er9  1  0.206849  0.586776  0.122527  1
  Er  Er10  1  0.793355  0.416966  0.122844  1
  Er  Er11  1  0.793306  0.586681  0.622263  1
  Er  Er12  1  0.913929  0.707131  0.123048  1
  Er  Er13  1  0.915037  0.295543  0.627254  1
  Er  Er14  1  0.086406  0.706062  0.623027  1
  Er  Er15  1  0.089235  0.294959  0.120907  1
  Er  Er16  1  0.001097  0.998195  0.501292  1
  Er  Er17  1  0.001805  0.998903  0.998708  1
  Er  Er18  1  0.499897  0.499897  0.999770  1
  Er  Er19  1  0.500103  0.500103  0.500230  1
  Ir  Ir20  1  0.847922  0.848471  0.750347  1
  Ir  Ir21  1  0.151529  0.152078  0.749653  1
  Ir  Ir22  1  0.152200  0.847800  0.250000  1
  Ir  Ir23  1  0.653327  0.346673  0.750000  1
  Ir  Ir24  1  0.652438  0.652316  0.249976  1
  Ir  Ir25  1  0.347684  0.347562  0.250024  1
  Ir  Ir26  1  0.347560  0.652440  0.750000  1
  Ru  Ru27  1  0.500201  0.000010  0.123321  1
  Ru  Ru28  1  0.500222  0.999971  0.622829  1
  Ru  Ru29  1  0.000029  0.499778  0.877171  1
  Ru  Ru30  1  0.999990  0.499799  0.376679  1
  Pt  Pt31  1  0.846975  0.153025  0.250000  1
