# generated using pymatgen
data_Dy7Ho3(SnSb)3
_symmetry_space_group_name_H-M   'P 1'
_cell_length_a   6.39985400
_cell_length_b   8.98356969
_cell_length_c   8.98351600
_cell_angle_alpha   120.00037713
_cell_angle_beta   89.99975067
_cell_angle_gamma   90.00049008
_symmetry_Int_Tables_number   1
_chemical_formula_structural   Dy7Ho3(SnSb)3
_chemical_formula_sum   'Dy7 Ho3 Sn3 Sb3'
_cell_volume   447.29529967
_cell_formula_units_Z   1
loop_
 _symmetry_equiv_pos_site_id
 _symmetry_equiv_pos_as_xyz
  1  'x, y, z'
loop_
 _atom_site_type_symbol
 _atom_site_label
 _atom_site_symmetry_multiplicity
 _atom_site_fract_x
 _atom_site_fract_y
 _atom_site_fract_z
 _atom_site_occupancy
  Dy  Dy0  1  0.999367  0.333335  0.666677  1
  Dy  Dy1  1  0.749984  0.241690  0.000010  1
  Dy  Dy2  1  0.749988  0.758317  0.758296  1
  Dy  Dy3  1  0.749987  0.000000  0.241693  1
  Dy  Dy4  1  0.250020  0.757833  0.000000  1
  Dy  Dy5  1  0.250021  0.242175  0.242183  1
  Dy  Dy6  1  0.250024  0.999993  0.757818  1
  Ho  Ho7  1  0.500634  0.333334  0.666680  1
  Ho  Ho8  1  0.500719  0.666655  0.333321  1
  Ho  Ho9  1  0.999270  0.666657  0.333322  1
  Sn  Sn10  1  0.749930  0.607329  0.000104  1
  Sn  Sn11  1  0.749931  0.392813  0.392712  1
  Sn  Sn12  1  0.749929  0.999891  0.607182  1
  Sb  Sb13  1  0.250057  0.391466  0.000085  1
  Sb  Sb14  1  0.250072  0.608603  0.608525  1
  Sb  Sb15  1  0.250071  0.999910  0.391392  1
