# generated using pymatgen
data_TbNdSn5Ir3
_symmetry_space_group_name_H-M   'P 1'
_cell_length_a   13.55596491
_cell_length_b   13.55596501
_cell_length_c   7.25654800
_cell_angle_alpha   90.00000000
_cell_angle_beta   90.00000000
_cell_angle_gamma   160.89939842
_symmetry_Int_Tables_number   1
_chemical_formula_structural   TbNdSn5Ir3
_chemical_formula_sum   'Tb2 Nd2 Sn10 Ir6'
_cell_volume   436.35621644
_cell_formula_units_Z   2
loop_
 _symmetry_equiv_pos_site_id
 _symmetry_equiv_pos_as_xyz
  1  'x, y, z'
loop_
 _atom_site_type_symbol
 _atom_site_label
 _atom_site_symmetry_multiplicity
 _atom_site_fract_x
 _atom_site_fract_y
 _atom_site_fract_z
 _atom_site_occupancy
  Tb  Tb0  1  0.476785  0.523215  0.738003  1
  Tb  Tb1  1  0.523215  0.476785  0.238003  1
  Nd  Nd2  1  0.172036  0.827964  0.756772  1
  Nd  Nd3  1  0.827964  0.172036  0.256772  1
  Sn  Sn4  1  0.879654  0.120346  0.731483  1
  Sn  Sn5  1  0.120346  0.879654  0.231483  1
  Sn  Sn6  1  0.704441  0.295559  0.048498  1
  Sn  Sn7  1  0.295559  0.704441  0.548498  1
  Sn  Sn8  1  0.596522  0.403478  0.608689  1
  Sn  Sn9  1  0.403478  0.596522  0.108689  1
  Sn  Sn10  1  0.952858  0.047142  0.399562  1
  Sn  Sn11  1  0.047142  0.952858  0.899562  1
  Sn  Sn12  1  0.290972  0.709028  0.978343  1
  Sn  Sn13  1  0.709028  0.290972  0.478343  1
  Ir  Ir14  1  0.050104  0.949896  0.516748  1
  Ir  Ir15  1  0.949896  0.050104  0.016748  1
  Ir  Ir16  1  0.777102  0.222898  0.765419  1
  Ir  Ir17  1  0.222898  0.777102  0.265419  1
  Ir  Ir18  1  0.395654  0.604346  0.484480  1
  Ir  Ir19  1  0.604346  0.395654  0.984480  1
