# generated using pymatgen
data_Hf3ZnGa3FeNi
_symmetry_space_group_name_H-M   'P 1'
_cell_length_a   7.02023700
_cell_length_b   7.02023675
_cell_length_c   3.36827500
_cell_angle_alpha   90.00000000
_cell_angle_beta   90.00000000
_cell_angle_gamma   120.00000591
_symmetry_Int_Tables_number   1
_chemical_formula_structural   Hf3ZnGa3FeNi
_chemical_formula_sum   'Hf3 Zn1 Ga3 Fe1 Ni1'
_cell_volume   143.76119690
_cell_formula_units_Z   1
loop_
 _symmetry_equiv_pos_site_id
 _symmetry_equiv_pos_as_xyz
  1  'x, y, z'
loop_
 _atom_site_type_symbol
 _atom_site_label
 _atom_site_symmetry_multiplicity
 _atom_site_fract_x
 _atom_site_fract_y
 _atom_site_fract_z
 _atom_site_occupancy
  Hf  Hf0  1  0.407724  0.382000  0.500000  1
  Hf  Hf1  1  0.618000  0.025725  0.500000  1
  Hf  Hf2  1  0.974275  0.592276  0.500000  1
  Zn  Zn3  1  0.333333  0.666667  0.000000  1
  Ga  Ga4  1  0.736228  0.741267  0.000000  1
  Ga  Ga5  1  0.258733  0.994961  0.000000  1
  Ga  Ga6  1  0.005039  0.263772  0.000000  1
  Fe  Fe7  1  0.666667  0.333333  0.000000  1
  Ni  Ni8  1  0.000000  0.000000  0.500000  1
