# generated using pymatgen
data_NpU(PO5)2
_symmetry_space_group_name_H-M   'P 1'
_cell_length_a   5.56122695
_cell_length_b   8.92387133
_cell_length_c   9.33831600
_cell_angle_alpha   101.87707752
_cell_angle_beta   103.34781625
_cell_angle_gamma   98.26009040
_symmetry_Int_Tables_number   1
_chemical_formula_structural   NpU(PO5)2
_chemical_formula_sum   'Np2 U2 P4 O20'
_cell_volume   432.27977494
_cell_formula_units_Z   2
loop_
 _symmetry_equiv_pos_site_id
 _symmetry_equiv_pos_as_xyz
  1  'x, y, z'
loop_
 _atom_site_type_symbol
 _atom_site_label
 _atom_site_symmetry_multiplicity
 _atom_site_fract_x
 _atom_site_fract_y
 _atom_site_fract_z
 _atom_site_occupancy
  Np  Np0  1  0.351353  0.296300  0.048374  1
  Np  Np1  1  0.648647  0.703700  0.951626  1
  U  U2  1  0.336751  0.802386  0.552500  1
  U  U3  1  0.663249  0.197614  0.447500  1
  P  P4  1  0.091776  0.516228  0.765134  1
  P  P5  1  0.908224  0.483772  0.234866  1
  P  P6  1  0.280883  0.921297  0.178199  1
  P  P7  1  0.719117  0.078703  0.821801  1
  O  O8  1  0.003203  0.141268  0.894399  1
  O  O9  1  0.996797  0.858732  0.105601  1
  O  O10  1  0.975395  0.375985  0.630091  1
  O  O11  1  0.024605  0.624015  0.369909  1
  O  O12  1  0.722991  0.356555  0.271100  1
  O  O13  1  0.277009  0.643445  0.728900  1
  O  O14  1  0.429743  0.816643  0.093926  1
  O  O15  1  0.570257  0.183357  0.906074  1
  O  O16  1  0.432835  0.304193  0.496738  1
  O  O17  1  0.567165  0.695807  0.503262  1
  O  O18  1  0.882812  0.587414  0.822846  1
  O  O19  1  0.117188  0.412586  0.177154  1
  O  O20  1  0.276901  0.474442  0.898978  1
  O  O21  1  0.723099  0.525558  0.101022  1
  O  O22  1  0.884376  0.090218  0.386186  1
  O  O23  1  0.115624  0.909782  0.613814  1
  O  O24  1  0.357873  0.930743  0.351051  1
  O  O25  1  0.642127  0.069257  0.648949  1
  O  O26  1  0.362687  0.095072  0.173693  1
  O  O27  1  0.637313  0.904928  0.826307  1
