# generated using pymatgen
data_Tb8Si12Ir3Ru
_symmetry_space_group_name_H-M   'P 1'
_cell_length_a   8.19711100
_cell_length_b   8.19711007
_cell_length_c   7.99663300
_cell_angle_alpha   90.00000000
_cell_angle_beta   90.00000000
_cell_angle_gamma   120.00000779
_symmetry_Int_Tables_number   1
_chemical_formula_structural   Tb8Si12Ir3Ru
_chemical_formula_sum   'Tb8 Si12 Ir3 Ru1'
_cell_volume   465.32817065
_cell_formula_units_Z   1
loop_
 _symmetry_equiv_pos_site_id
 _symmetry_equiv_pos_as_xyz
  1  'x, y, z'
loop_
 _atom_site_type_symbol
 _atom_site_label
 _atom_site_symmetry_multiplicity
 _atom_site_fract_x
 _atom_site_fract_y
 _atom_site_fract_z
 _atom_site_occupancy
  Tb  Tb0  1  0.508220  0.016438  0.251907  1
  Tb  Tb1  1  0.491466  0.982933  0.748412  1
  Tb  Tb2  1  0.983562  0.491780  0.251907  1
  Tb  Tb3  1  0.017067  0.508534  0.748412  1
  Tb  Tb4  1  0.508220  0.491780  0.251907  1
  Tb  Tb5  1  0.491466  0.508534  0.748412  1
  Tb  Tb6  1  0.000000  0.000000  0.250171  1
  Tb  Tb7  1  0.000000  0.000000  0.749205  1
  Si  Si8  1  0.166878  0.333757  0.001385  1
  Si  Si9  1  0.833463  0.666927  0.998355  1
  Si  Si10  1  0.666243  0.833122  0.001385  1
  Si  Si11  1  0.834165  0.668331  0.502568  1
  Si  Si12  1  0.333073  0.166537  0.998355  1
  Si  Si13  1  0.168173  0.336347  0.498546  1
  Si  Si14  1  0.166878  0.833122  0.001385  1
  Si  Si15  1  0.331669  0.165835  0.502568  1
  Si  Si16  1  0.833463  0.166537  0.998355  1
  Si  Si17  1  0.663653  0.831827  0.498546  1
  Si  Si18  1  0.834165  0.165835  0.502568  1
  Si  Si19  1  0.168173  0.831827  0.498546  1
  Ir  Ir20  1  0.333333  0.666667  0.029012  1
  Ir  Ir21  1  0.666667  0.333333  0.976398  1
  Ir  Ir22  1  0.666667  0.333333  0.526294  1
  Ru  Ru23  1  0.333333  0.666667  0.465399  1
