# generated using pymatgen
data_SmTm3(Ni7P4)2
_symmetry_space_group_name_H-M   'P 1'
_cell_length_a   3.68819600
_cell_length_b   9.15086959
_cell_length_c   10.22699790
_cell_angle_alpha   90.00907455
_cell_angle_beta   90.00000000
_cell_angle_gamma   90.00000000
_symmetry_Int_Tables_number   1
_chemical_formula_structural   SmTm3(Ni7P4)2
_chemical_formula_sum   'Sm1 Tm3 Ni14 P8'
_cell_volume   345.16322671
_cell_formula_units_Z   1
loop_
 _symmetry_equiv_pos_site_id
 _symmetry_equiv_pos_as_xyz
  1  'x, y, z'
loop_
 _atom_site_type_symbol
 _atom_site_label
 _atom_site_symmetry_multiplicity
 _atom_site_fract_x
 _atom_site_fract_y
 _atom_site_fract_z
 _atom_site_occupancy
  Sm  Sm0  1  0.500000  0.937902  0.236521  1
  Tm  Tm1  1  0.000000  0.442264  0.519721  1
  Tm  Tm2  1  0.500000  0.558376  0.018532  1
  Tm  Tm3  1  0.000000  0.064328  0.735653  1
  Ni  Ni4  1  0.000000  0.771795  0.405565  1
  Ni  Ni5  1  0.500000  0.224787  0.903050  1
  Ni  Ni6  1  0.000000  0.754370  0.641579  1
  Ni  Ni7  1  0.500000  0.250169  0.140461  1
  Ni  Ni8  1  0.000000  0.812153  0.000566  1
  Ni  Ni9  1  0.500000  0.186796  0.504749  1
  Ni  Ni10  1  0.000000  0.444316  0.214044  1
  Ni  Ni11  1  0.500000  0.554830  0.714520  1
  Ni  Ni12  1  0.000000  0.401792  0.820791  1
  Ni  Ni13  1  0.500000  0.594880  0.321934  1
  Ni  Ni14  1  0.000000  0.197159  0.315880  1
  Ni  Ni15  1  0.500000  0.805755  0.809632  1
  Ni  Ni16  1  0.000000  0.083877  0.038657  1
  Ni  Ni17  1  0.500000  0.917901  0.549775  1
  P  P18  1  0.000000  0.689045  0.198835  1
  P  P19  1  0.500000  0.308560  0.698945  1
  P  P20  1  0.000000  0.019920  0.456912  1
  P  P21  1  0.500000  0.980010  0.949497  1
  P  P22  1  0.000000  0.321558  0.024946  1
  P  P23  1  0.500000  0.679567  0.525290  1
  P  P24  1  0.000000  0.652262  0.830932  1
  P  P25  1  0.500000  0.345631  0.332611  1
