# generated using pymatgen
data_Hf7Sc6Ga9Ir7
_symmetry_space_group_name_H-M   'P 1'
_cell_length_a   9.12027670
_cell_length_b   9.12027683
_cell_length_c   9.12027747
_cell_angle_alpha   59.33428473
_cell_angle_beta   59.33428702
_cell_angle_gamma   59.33428558
_symmetry_Int_Tables_number   1
_chemical_formula_structural   Hf7Sc6Ga9Ir7
_chemical_formula_sum   'Hf7 Sc6 Ga9 Ir7'
_cell_volume   528.29543494
_cell_formula_units_Z   1
loop_
 _symmetry_equiv_pos_site_id
 _symmetry_equiv_pos_as_xyz
  1  'x, y, z'
loop_
 _atom_site_type_symbol
 _atom_site_label
 _atom_site_symmetry_multiplicity
 _atom_site_fract_x
 _atom_site_fract_y
 _atom_site_fract_z
 _atom_site_occupancy
  Hf  Hf0  1  0.878271  0.878271  0.372480  1
  Hf  Hf1  1  0.878271  0.372480  0.878271  1
  Hf  Hf2  1  0.372480  0.878271  0.878271  1
  Hf  Hf3  1  0.872969  0.872969  0.872969  1
  Hf  Hf4  1  0.125063  0.125063  0.624063  1
  Hf  Hf5  1  0.125063  0.624063  0.125063  1
  Hf  Hf6  1  0.624063  0.125063  0.125063  1
  Sc  Sc7  1  0.687827  0.687827  0.314928  1
  Sc  Sc8  1  0.304780  0.705360  0.304780  1
  Sc  Sc9  1  0.705360  0.304780  0.304780  1
  Sc  Sc10  1  0.304780  0.304780  0.705360  1
  Sc  Sc11  1  0.687827  0.314928  0.687827  1
  Sc  Sc12  1  0.314928  0.687827  0.687827  1
  Ga  Ga13  1  0.117320  0.117320  0.117320  1
  Ga  Ga14  1  0.652393  0.652393  0.042260  1
  Ga  Ga15  1  0.652393  0.042260  0.652393  1
  Ga  Ga16  1  0.042260  0.652393  0.652393  1
  Ga  Ga17  1  0.652404  0.652404  0.652404  1
  Ga  Ga18  1  0.339469  0.339469  0.976227  1
  Ga  Ga19  1  0.339469  0.976227  0.339469  1
  Ga  Ga20  1  0.976227  0.339469  0.339469  1
  Ga  Ga21  1  0.345526  0.345526  0.345526  1
  Ir  Ir22  1  0.994900  0.994900  0.994900  1
  Ir  Ir23  1  0.000794  0.000794  0.500134  1
  Ir  Ir24  1  0.501097  0.002042  0.501097  1
  Ir  Ir25  1  0.002042  0.501097  0.501097  1
  Ir  Ir26  1  0.501097  0.501097  0.002042  1
  Ir  Ir27  1  0.000794  0.500134  0.000794  1
  Ir  Ir28  1  0.500134  0.000794  0.000794  1
