# generated using pymatgen
data_Pr5GaTe4
_symmetry_space_group_name_H-M   'P 1'
_cell_length_a   7.83075745
_cell_length_b   7.83075680
_cell_length_c   11.06501197
_cell_angle_alpha   61.75451979
_cell_angle_beta   61.75452171
_cell_angle_gamma   33.34368498
_symmetry_Int_Tables_number   1
_chemical_formula_structural   Pr5GaTe4
_chemical_formula_sum   'Pr5 Ga1 Te4'
_cell_volume   324.26437605
_cell_formula_units_Z   1
loop_
 _symmetry_equiv_pos_site_id
 _symmetry_equiv_pos_as_xyz
  1  'x, y, z'
loop_
 _atom_site_type_symbol
 _atom_site_label
 _atom_site_symmetry_multiplicity
 _atom_site_fract_x
 _atom_site_fract_y
 _atom_site_fract_z
 _atom_site_occupancy
  Pr  Pr0  1  0.000000  0.000000  0.500000  1
  Pr  Pr1  1  0.589302  0.589302  0.092796  1
  Pr  Pr2  1  0.189206  0.189206  0.721061  1
  Pr  Pr3  1  0.810794  0.810794  0.278939  1
  Pr  Pr4  1  0.410698  0.410698  0.907204  1
  Ga  Ga5  1  0.000000  0.000000  0.000000  1
  Te  Te6  1  0.606764  0.606764  0.591938  1
  Te  Te7  1  0.196147  0.196147  0.196145  1
  Te  Te8  1  0.803853  0.803853  0.803855  1
  Te  Te9  1  0.393236  0.393236  0.408062  1
