# generated using pymatgen
data_RbNdY9(C2Br9)2
_symmetry_space_group_name_H-M   'P 1'
_cell_length_a   10.74082630
_cell_length_b   10.82150060
_cell_length_c   10.97055201
_cell_angle_alpha   113.49965864
_cell_angle_beta   87.42350665
_cell_angle_gamma   118.76837041
_symmetry_Int_Tables_number   1
_chemical_formula_structural   RbNdY9(C2Br9)2
_chemical_formula_sum   'Rb1 Nd1 Y9 C4 Br18'
_cell_volume   1007.76670446
_cell_formula_units_Z   1
loop_
 _symmetry_equiv_pos_site_id
 _symmetry_equiv_pos_as_xyz
  1  'x, y, z'
loop_
 _atom_site_type_symbol
 _atom_site_label
 _atom_site_symmetry_multiplicity
 _atom_site_fract_x
 _atom_site_fract_y
 _atom_site_fract_z
 _atom_site_occupancy
  Rb  Rb0  1  0.500332  0.001937  0.499858  1
  Nd  Nd1  1  0.654653  0.714040  0.698059  1
  Y  Y2  1  0.281849  0.364187  0.013374  1
  Y  Y3  1  0.092158  0.405617  0.300038  1
  Y  Y4  1  0.960983  0.037069  0.332601  1
  Y  Y5  1  0.906333  0.593206  0.698704  1
  Y  Y6  1  0.112109  0.941633  0.001243  1
  Y  Y7  1  0.040651  0.963790  0.668270  1
  Y  Y8  1  0.337662  0.281908  0.296568  1
  Y  Y9  1  0.719558  0.636455  0.988067  1
  Y  Y10  1  0.888279  0.058453  0.998850  1
  C  C11  1  0.156783  0.227010  0.123794  1
  C  C12  1  0.845021  0.773634  0.877211  1
  C  C13  1  0.922909  0.851883  0.797545  1
  C  C14  1  0.078767  0.148497  0.203585  1
  Br  Br15  1  0.448648  0.527431  0.838983  1
  Br  Br16  1  0.382505  0.038300  0.159218  1
  Br  Br17  1  0.782521  0.863731  0.499774  1
  Br  Br18  1  0.838829  0.311986  0.154881  1
  Br  Br19  1  0.549001  0.469454  0.166081  1
  Br  Br20  1  0.222113  0.140673  0.498100  1
  Br  Br21  1  0.315298  0.099967  0.828667  1
  Br  Br22  1  0.685598  0.900374  0.171636  1
  Br  Br23  1  0.974307  0.760085  0.172638  1
  Br  Br24  1  0.933204  0.302285  0.500319  1
  Br  Br25  1  0.026625  0.240007  0.828034  1
  Br  Br26  1  0.067616  0.698061  0.499833  1
  Br  Br27  1  0.261992  0.624700  0.190502  1
  Br  Br28  1  0.737853  0.375568  0.809841  1
  Br  Br29  1  0.638529  0.422552  0.493430  1
  Br  Br30  1  0.160798  0.688709  0.845464  1
  Br  Br31  1  0.618805  0.972114  0.846625  1
  Br  Br32  1  0.357710  0.564684  0.498207  1
