# generated using pymatgen
data_Ce2Er3Bi2Os
_symmetry_space_group_name_H-M   'P 1'
_cell_length_a   7.87044800
_cell_length_b   8.97640400
_cell_length_c   12.43206100
_cell_angle_alpha   90.00000000
_cell_angle_beta   90.00000000
_cell_angle_gamma   90.00000000
_symmetry_Int_Tables_number   1
_chemical_formula_structural   Ce2Er3Bi2Os
_chemical_formula_sum   'Ce8 Er12 Bi8 Os4'
_cell_volume   878.30423509
_cell_formula_units_Z   4
loop_
 _symmetry_equiv_pos_site_id
 _symmetry_equiv_pos_as_xyz
  1  'x, y, z'
loop_
 _atom_site_type_symbol
 _atom_site_label
 _atom_site_symmetry_multiplicity
 _atom_site_fract_x
 _atom_site_fract_y
 _atom_site_fract_z
 _atom_site_occupancy
  Ce  Ce0  1  0.829645  0.462212  0.939929  1
  Ce  Ce1  1  0.170355  0.537788  0.060071  1
  Ce  Ce2  1  0.329645  0.537788  0.560071  1
  Ce  Ce3  1  0.170355  0.962212  0.060071  1
  Ce  Ce4  1  0.670355  0.462212  0.439929  1
  Ce  Ce5  1  0.829645  0.037788  0.939929  1
  Ce  Ce6  1  0.670355  0.037788  0.439929  1
  Ce  Ce7  1  0.329645  0.962212  0.560071  1
  Er  Er8  1  0.665657  0.750000  0.709621  1
  Er  Er9  1  0.334343  0.250000  0.290379  1
  Er  Er10  1  0.165657  0.250000  0.790379  1
  Er  Er11  1  0.834343  0.750000  0.209621  1
  Er  Er12  1  0.129557  0.750000  0.795181  1
  Er  Er13  1  0.870443  0.250000  0.204819  1
  Er  Er14  1  0.629557  0.250000  0.704819  1
  Er  Er15  1  0.370443  0.750000  0.295181  1
  Er  Er16  1  0.540255  0.750000  0.000148  1
  Er  Er17  1  0.459745  0.250000  0.999852  1
  Er  Er18  1  0.040255  0.250000  0.499852  1
  Er  Er19  1  0.959745  0.750000  0.500148  1
  Bi  Bi20  1  0.930555  0.011268  0.672897  1
  Bi  Bi21  1  0.069445  0.988732  0.327103  1
  Bi  Bi22  1  0.430555  0.988732  0.827103  1
  Bi  Bi23  1  0.069445  0.511268  0.327103  1
  Bi  Bi24  1  0.569445  0.011268  0.172897  1
  Bi  Bi25  1  0.930555  0.488732  0.672897  1
  Bi  Bi26  1  0.569445  0.488732  0.172897  1
  Bi  Bi27  1  0.430555  0.511268  0.827103  1
  Os  Os28  1  0.911096  0.750000  0.980061  1
  Os  Os29  1  0.088904  0.250000  0.019939  1
  Os  Os30  1  0.411096  0.250000  0.519939  1
  Os  Os31  1  0.588904  0.750000  0.480061  1
