# generated using pymatgen
data_Tc4Pb4O13
_symmetry_space_group_name_H-M   'P 1'
_cell_length_a   7.41896472
_cell_length_b   7.42374579
_cell_length_c   7.42186900
_cell_angle_alpha   60.00835807
_cell_angle_beta   59.98704506
_cell_angle_gamma   59.96058416
_symmetry_Int_Tables_number   1
_chemical_formula_structural   Tc4Pb4O13
_chemical_formula_sum   'Tc4 Pb4 O13'
_cell_volume   288.94822978
_cell_formula_units_Z   1
loop_
 _symmetry_equiv_pos_site_id
 _symmetry_equiv_pos_as_xyz
  1  'x, y, z'
loop_
 _atom_site_type_symbol
 _atom_site_label
 _atom_site_symmetry_multiplicity
 _atom_site_fract_x
 _atom_site_fract_y
 _atom_site_fract_z
 _atom_site_occupancy
  Tc  Tc0  1  0.124097  0.625386  0.625259  1
  Tc  Tc1  1  0.625365  0.124293  0.625171  1
  Tc  Tc2  1  0.625242  0.625389  0.124165  1
  Tc  Tc3  1  0.625242  0.625389  0.625203  1
  Pb  Pb4  1  0.619233  0.126842  0.126963  1
  Pb  Pb5  1  0.126679  0.619052  0.127135  1
  Pb  Pb6  1  0.127108  0.126794  0.619158  1
  Pb  Pb7  1  0.127108  0.126794  0.126941  1
  O  O8  1  0.302818  0.302581  0.697300  1
  O  O9  1  0.697435  0.697348  0.302608  1
  O  O10  1  0.302719  0.697151  0.302753  1
  O  O11  1  0.697345  0.302665  0.697301  1
  O  O12  1  0.697345  0.302665  0.302689  1
  O  O13  1  0.302719  0.697151  0.697377  1
  O  O14  1  0.944693  0.944760  0.555274  1
  O  O15  1  0.555156  0.555462  0.944691  1
  O  O16  1  0.944545  0.555591  0.944581  1
  O  O17  1  0.555320  0.944762  0.555340  1
  O  O18  1  0.555320  0.944762  0.944577  1
  O  O19  1  0.944545  0.555591  0.555283  1
  O  O20  1  0.999965  0.999576  0.000230  1
