# generated using pymatgen
data_CsScBeTe3
_symmetry_space_group_name_H-M   'P 1'
_cell_length_a   8.84624380
_cell_length_b   8.84624314
_cell_length_c   11.17466900
_cell_angle_alpha   90.00000000
_cell_angle_beta   90.00000000
_cell_angle_gamma   152.29197927
_symmetry_Int_Tables_number   1
_chemical_formula_structural   CsScBeTe3
_chemical_formula_sum   'Cs2 Sc2 Be2 Te6'
_cell_volume   406.60585480
_cell_formula_units_Z   2
loop_
 _symmetry_equiv_pos_site_id
 _symmetry_equiv_pos_as_xyz
  1  'x, y, z'
loop_
 _atom_site_type_symbol
 _atom_site_label
 _atom_site_symmetry_multiplicity
 _atom_site_fract_x
 _atom_site_fract_y
 _atom_site_fract_z
 _atom_site_occupancy
  Cs  Cs0  1  0.758195  0.241805  0.250000  1
  Cs  Cs1  1  0.241805  0.758195  0.750000  1
  Sc  Sc2  1  0.500000  0.500000  0.000000  1
  Sc  Sc3  1  0.500000  0.500000  0.500000  1
  Be  Be4  1  0.034952  0.965048  0.250000  1
  Be  Be5  1  0.965048  0.034952  0.750000  1
  Te  Te6  1  0.111718  0.888281  0.063688  1
  Te  Te7  1  0.447789  0.552211  0.250000  1
  Te  Te8  1  0.111718  0.888281  0.436312  1
  Te  Te9  1  0.888281  0.111718  0.563688  1
  Te  Te10  1  0.552211  0.447789  0.750000  1
  Te  Te11  1  0.888281  0.111718  0.936311  1
