# generated using pymatgen
data_Tb11Y2Er3(In3Co)2
_symmetry_space_group_name_H-M   'P 1'
_cell_length_a   10.41133200
_cell_length_b   10.40895953
_cell_length_c   7.03640848
_cell_angle_alpha   90.01332332
_cell_angle_beta   90.00000000
_cell_angle_gamma   120.00754637
_symmetry_Int_Tables_number   1
_chemical_formula_structural   Tb11Y2Er3(In3Co)2
_chemical_formula_sum   'Tb11 Y2 Er3 In6 Co2'
_cell_volume   660.33184972
_cell_formula_units_Z   1
loop_
 _symmetry_equiv_pos_site_id
 _symmetry_equiv_pos_as_xyz
  1  'x, y, z'
loop_
 _atom_site_type_symbol
 _atom_site_label
 _atom_site_symmetry_multiplicity
 _atom_site_fract_x
 _atom_site_fract_y
 _atom_site_fract_z
 _atom_site_occupancy
  Tb  Tb0  1  0.463753  0.534965  0.483735  1
  Tb  Tb1  1  0.071214  0.534965  0.483735  1
  Tb  Tb2  1  0.464581  0.929161  0.483005  1
  Tb  Tb3  1  0.534561  0.464218  0.982523  1
  Tb  Tb4  1  0.929658  0.464218  0.982523  1
  Tb  Tb5  1  0.535587  0.071174  0.982892  1
  Tb  Tb6  1  0.821886  0.178172  0.276434  1
  Tb  Tb7  1  0.356286  0.178172  0.276434  1
  Tb  Tb8  1  0.821747  0.643493  0.276202  1
  Tb  Tb9  1  0.178242  0.822054  0.776326  1
  Tb  Tb10  1  0.643812  0.822054  0.776326  1
  Y  Y11  1  0.000303  0.000606  0.495450  1
  Y  Y12  1  0.999994  0.999989  0.994060  1
  Er  Er13  1  0.178465  0.356929  0.776493  1
  Er  Er14  1  0.332880  0.665760  0.089040  1
  Er  Er15  1  0.666673  0.333345  0.590026  1
  In  In16  1  0.163561  0.836574  0.234313  1
  In  In17  1  0.673015  0.836574  0.234313  1
  In  In18  1  0.163453  0.326905  0.231601  1
  In  In19  1  0.838710  0.164541  0.734429  1
  In  In20  1  0.325831  0.164541  0.734429  1
  In  In21  1  0.836637  0.673274  0.734546  1
  Co  Co22  1  0.332498  0.664998  0.707896  1
  Co  Co23  1  0.666658  0.333314  0.207821  1
