# generated using pymatgen
data_Ba2Be6TlAs6
_symmetry_space_group_name_H-M   'P 1'
_cell_length_a   5.32124007
_cell_length_b   7.33190363
_cell_length_c   8.45610700
_cell_angle_alpha   110.27562418
_cell_angle_beta   108.33901452
_cell_angle_gamma   89.99999937
_symmetry_Int_Tables_number   1
_chemical_formula_structural   Ba2Be6TlAs6
_chemical_formula_sum   'Ba2 Be6 Tl1 As6'
_cell_volume   291.54250807
_cell_formula_units_Z   1
loop_
 _symmetry_equiv_pos_site_id
 _symmetry_equiv_pos_as_xyz
  1  'x, y, z'
loop_
 _atom_site_type_symbol
 _atom_site_label
 _atom_site_symmetry_multiplicity
 _atom_site_fract_x
 _atom_site_fract_y
 _atom_site_fract_z
 _atom_site_occupancy
  Ba  Ba0  1  0.655855  0.001047  0.311708  1
  Ba  Ba1  1  0.344145  0.998953  0.688292  1
  Be  Be2  1  0.416204  0.499767  0.335658  1
  Be  Be3  1  0.080543  0.500233  0.664342  1
  Be  Be4  1  0.753064  0.500000  0.000000  1
  Be  Be5  1  0.583796  0.500233  0.664342  1
  Be  Be6  1  0.246936  0.500000  0.000000  1
  Be  Be7  1  0.919457  0.499767  0.335658  1
  Tl  Tl8  1  0.000000  0.000000  0.000000  1
  As  As9  1  0.217044  0.299400  0.434088  1
  As  As10  1  0.883135  0.301717  0.766270  1
  As  As11  1  0.551229  0.306879  0.102459  1
  As  As12  1  0.782956  0.700600  0.565912  1
  As  As13  1  0.448771  0.693121  0.897541  1
  As  As14  1  0.116865  0.698283  0.233730  1
