# generated using pymatgen
data_SrU2F12
_symmetry_space_group_name_H-M   'P 1'
_cell_length_a   5.78695972
_cell_length_b   6.38504567
_cell_length_c   9.68774500
_cell_angle_alpha   105.12548379
_cell_angle_beta   90.99440424
_cell_angle_gamma   115.73455557
_symmetry_Int_Tables_number   1
_chemical_formula_structural   SrU2F12
_chemical_formula_sum   'Sr1 U2 F12'
_cell_volume   307.75341071
_cell_formula_units_Z   1
loop_
 _symmetry_equiv_pos_site_id
 _symmetry_equiv_pos_as_xyz
  1  'x, y, z'
loop_
 _atom_site_type_symbol
 _atom_site_label
 _atom_site_symmetry_multiplicity
 _atom_site_fract_x
 _atom_site_fract_y
 _atom_site_fract_z
 _atom_site_occupancy
  Sr  Sr0  1  0.500000  0.500000  0.500000  1
  U  U1  1  0.262411  0.013994  0.768300  1
  U  U2  1  0.737589  0.986006  0.231700  1
  F  F3  1  0.765607  0.772343  0.364651  1
  F  F4  1  0.234393  0.227657  0.635349  1
  F  F5  1  0.346180  0.772900  0.208659  1
  F  F6  1  0.307186  0.790773  0.872459  1
  F  F7  1  0.692814  0.209227  0.127541  1
  F  F8  1  0.853555  0.778411  0.700492  1
  F  F9  1  0.146445  0.221589  0.299508  1
  F  F10  1  0.304771  0.777200  0.576542  1
  F  F11  1  0.695229  0.222800  0.423458  1
  F  F12  1  0.208977  0.227117  0.948464  1
  F  F13  1  0.791023  0.772883  0.051536  1
  F  F14  1  0.653820  0.227100  0.791341  1
