# generated using pymatgen
data_Tb3SmSBr6
_symmetry_space_group_name_H-M   'P 1'
_cell_length_a   4.01499000
_cell_length_b   13.13033840
_cell_length_c   13.84221100
_cell_angle_alpha   89.28639039
_cell_angle_beta   90.00000000
_cell_angle_gamma   90.00000000
_symmetry_Int_Tables_number   1
_chemical_formula_structural   Tb3SmSBr6
_chemical_formula_sum   'Tb6 Sm2 S2 Br12'
_cell_volume   729.67953578
_cell_formula_units_Z   2
loop_
 _symmetry_equiv_pos_site_id
 _symmetry_equiv_pos_as_xyz
  1  'x, y, z'
loop_
 _atom_site_type_symbol
 _atom_site_label
 _atom_site_symmetry_multiplicity
 _atom_site_fract_x
 _atom_site_fract_y
 _atom_site_fract_z
 _atom_site_occupancy
  Tb  Tb0  1  0.500000  0.116946  0.343855  1
  Tb  Tb1  1  0.500000  0.883054  0.656145  1
  Tb  Tb2  1  0.500000  0.615222  0.154626  1
  Tb  Tb3  1  0.500000  0.384778  0.845374  1
  Tb  Tb4  1  0.000000  0.612224  0.924506  1
  Tb  Tb5  1  0.000000  0.387776  0.075494  1
  Sm  Sm6  1  0.000000  0.114741  0.576884  1
  Sm  Sm7  1  0.000000  0.885259  0.423116  1
  S  S8  1  0.500000  0.000000  0.500000  1
  S  S9  1  0.500000  0.500000  0.000000  1
  Br  Br10  1  0.500000  0.248565  0.162685  1
  Br  Br11  1  0.500000  0.751435  0.837315  1
  Br  Br12  1  0.500000  0.742411  0.334194  1
  Br  Br13  1  0.500000  0.257589  0.665806  1
  Br  Br14  1  0.000000  0.258611  0.409232  1
  Br  Br15  1  0.000000  0.741389  0.590768  1
  Br  Br16  1  0.000000  0.756236  0.084493  1
  Br  Br17  1  0.000000  0.243764  0.915507  1
  Br  Br18  1  0.000000  0.004695  0.238609  1
  Br  Br19  1  0.000000  0.995305  0.761391  1
  Br  Br20  1  0.000000  0.498465  0.257876  1
  Br  Br21  1  0.000000  0.501535  0.742124  1
