# generated using pymatgen
data_Hf8Ti2Nb10Si15Ge
_symmetry_space_group_name_H-M   'P 1'
_cell_length_a   6.66287249
_cell_length_b   6.82548719
_cell_length_c   13.11760900
_cell_angle_alpha   90.00000000
_cell_angle_beta   90.00000000
_cell_angle_gamma   90.03529055
_symmetry_Int_Tables_number   1
_chemical_formula_structural   Hf8Ti2Nb10Si15Ge
_chemical_formula_sum   'Hf8 Ti2 Nb10 Si15 Ge1'
_cell_volume   596.55399271
_cell_formula_units_Z   1
loop_
 _symmetry_equiv_pos_site_id
 _symmetry_equiv_pos_as_xyz
  1  'x, y, z'
loop_
 _atom_site_type_symbol
 _atom_site_label
 _atom_site_symmetry_multiplicity
 _atom_site_fract_x
 _atom_site_fract_y
 _atom_site_fract_z
 _atom_site_occupancy
  Hf  Hf0  1  0.496398  0.673688  0.593858  1
  Hf  Hf1  1  0.996510  0.826545  0.906404  1
  Hf  Hf2  1  0.500669  0.326735  0.092964  1
  Hf  Hf3  1  0.005579  0.170800  0.408507  1
  Hf  Hf4  1  0.500669  0.326735  0.407036  1
  Hf  Hf5  1  0.005579  0.170800  0.091493  1
  Hf  Hf6  1  0.496398  0.673688  0.906142  1
  Hf  Hf7  1  0.996510  0.826545  0.593596  1
  Ti  Ti8  1  0.165375  0.506869  0.250000  1
  Ti  Ti9  1  0.661569  0.991237  0.250000  1
  Nb  Nb10  1  0.663153  0.171097  0.623415  1
  Nb  Nb11  1  0.163169  0.329402  0.876626  1
  Nb  Nb12  1  0.336134  0.827979  0.123985  1
  Nb  Nb13  1  0.836673  0.674857  0.376367  1
  Nb  Nb14  1  0.336134  0.827979  0.376015  1
  Nb  Nb15  1  0.836673  0.674857  0.123633  1
  Nb  Nb16  1  0.663153  0.171097  0.876585  1
  Nb  Nb17  1  0.163169  0.329402  0.623374  1
  Nb  Nb18  1  0.836519  0.497236  0.750000  1
  Nb  Nb19  1  0.336912  0.003055  0.750000  1
  Si  Si20  1  0.671086  0.964383  0.461409  1
  Si  Si21  1  0.171041  0.536547  0.038689  1
  Si  Si22  1  0.328716  0.035347  0.962000  1
  Si  Si23  1  0.828504  0.464725  0.537336  1
  Si  Si24  1  0.328716  0.035347  0.538000  1
  Si  Si25  1  0.828504  0.464725  0.962664  1
  Si  Si26  1  0.671086  0.964383  0.038591  1
  Si  Si27  1  0.171041  0.536547  0.461311  1
  Si  Si28  1  0.460864  0.387337  0.750000  1
  Si  Si29  1  0.961186  0.113092  0.750000  1
  Si  Si30  1  0.537755  0.615251  0.250000  1
  Si  Si31  1  0.038713  0.886927  0.250000  1
  Si  Si32  1  0.703189  0.860575  0.750000  1
  Si  Si33  1  0.202760  0.639868  0.750000  1
  Si  Si34  1  0.298292  0.140510  0.250000  1
  Ge  Ge35  1  0.801599  0.353832  0.250000  1
