# generated using pymatgen
data_Tb4LuTl3Cl
_symmetry_space_group_name_H-M   'P 1'
_cell_length_a   9.21379100
_cell_length_b   9.21379292
_cell_length_c   6.60588300
_cell_angle_alpha   90.00000000
_cell_angle_beta   90.00000000
_cell_angle_gamma   119.99999670
_symmetry_Int_Tables_number   1
_chemical_formula_structural   Tb4LuTl3Cl
_chemical_formula_sum   'Tb8 Lu2 Tl6 Cl2'
_cell_volume   485.66670085
_cell_formula_units_Z   2
loop_
 _symmetry_equiv_pos_site_id
 _symmetry_equiv_pos_as_xyz
  1  'x, y, z'
loop_
 _atom_site_type_symbol
 _atom_site_label
 _atom_site_symmetry_multiplicity
 _atom_site_fract_x
 _atom_site_fract_y
 _atom_site_fract_z
 _atom_site_occupancy
  Tb  Tb0  1  0.260075  0.000000  0.247689  1
  Tb  Tb1  1  0.739925  0.000000  0.752311  1
  Tb  Tb2  1  0.000000  0.260075  0.247689  1
  Tb  Tb3  1  0.000000  0.739925  0.752311  1
  Tb  Tb4  1  0.739925  0.739925  0.247689  1
  Tb  Tb5  1  0.260075  0.260075  0.752311  1
  Tb  Tb6  1  0.666667  0.333333  0.500000  1
  Tb  Tb7  1  0.333333  0.666667  0.500000  1
  Lu  Lu8  1  0.333333  0.666667  0.000000  1
  Lu  Lu9  1  0.666667  0.333333  0.000000  1
  Tl  Tl10  1  0.604498  0.000000  0.247579  1
  Tl  Tl11  1  0.395502  0.000000  0.752421  1
  Tl  Tl12  1  0.000000  0.604498  0.247579  1
  Tl  Tl13  1  0.000000  0.395502  0.752421  1
  Tl  Tl14  1  0.395502  0.395502  0.247579  1
  Tl  Tl15  1  0.604498  0.604498  0.752421  1
  Cl  Cl16  1  0.000000  0.000000  0.000000  1
  Cl  Cl17  1  0.000000  0.000000  0.500000  1
