# generated using pymatgen
data_Tb5ThRuPt
_symmetry_space_group_name_H-M   'P 1'
_cell_length_a   6.43612000
_cell_length_b   7.20947600
_cell_length_c   9.61100600
_cell_angle_alpha   90.00000000
_cell_angle_beta   90.00000000
_cell_angle_gamma   90.00000000
_symmetry_Int_Tables_number   1
_chemical_formula_structural   Tb5ThRuPt
_chemical_formula_sum   'Tb10 Th2 Ru2 Pt2'
_cell_volume   445.96079565
_cell_formula_units_Z   2
loop_
 _symmetry_equiv_pos_site_id
 _symmetry_equiv_pos_as_xyz
  1  'x, y, z'
loop_
 _atom_site_type_symbol
 _atom_site_label
 _atom_site_symmetry_multiplicity
 _atom_site_fract_x
 _atom_site_fract_y
 _atom_site_fract_z
 _atom_site_occupancy
  Tb  Tb0  1  0.331780  0.678630  0.066818  1
  Tb  Tb1  1  0.168220  0.178630  0.433182  1
  Tb  Tb2  1  0.669774  0.320981  0.563065  1
  Tb  Tb3  1  0.830226  0.820981  0.936935  1
  Tb  Tb4  1  0.669774  0.320981  0.936935  1
  Tb  Tb5  1  0.830226  0.820981  0.563065  1
  Tb  Tb6  1  0.331780  0.678630  0.433182  1
  Tb  Tb7  1  0.168220  0.178630  0.066818  1
  Tb  Tb8  1  0.138829  0.467299  0.750000  1
  Tb  Tb9  1  0.361171  0.967299  0.750000  1
  Th  Th10  1  0.850156  0.546701  0.250000  1
  Th  Th11  1  0.649844  0.046701  0.250000  1
  Ru  Ru12  1  0.032466  0.870042  0.250000  1
  Ru  Ru13  1  0.467534  0.370042  0.250000  1
  Pt  Pt14  1  0.946387  0.116736  0.750000  1
  Pt  Pt15  1  0.553613  0.616736  0.750000  1
