# generated using pymatgen
data_NaTa9S16
_symmetry_space_group_name_H-M   'P 1'
_cell_length_a   6.67440401
_cell_length_b   6.67691819
_cell_length_c   13.67236643
_cell_angle_alpha   89.99597846
_cell_angle_beta   90.00766504
_cell_angle_gamma   119.97661481
_symmetry_Int_Tables_number   1
_chemical_formula_structural   NaTa9S16
_chemical_formula_sum   'Na1 Ta9 S16'
_cell_volume   527.79485800
_cell_formula_units_Z   1
loop_
 _symmetry_equiv_pos_site_id
 _symmetry_equiv_pos_as_xyz
  1  'x, y, z'
loop_
 _atom_site_type_symbol
 _atom_site_label
 _atom_site_symmetry_multiplicity
 _atom_site_fract_x
 _atom_site_fract_y
 _atom_site_fract_z
 _atom_site_occupancy
  Na  Na0  1  0.000000  0.000000  0.500000  1
  Ta  Ta1  1  0.504370  0.495598  0.770779  1
  Ta  Ta2  1  0.009024  0.504355  0.229026  1
  Ta  Ta3  1  0.495549  0.990744  0.229088  1
  Ta  Ta4  1  0.504451  0.009256  0.770912  1
  Ta  Ta5  1  0.990976  0.495645  0.770974  1
  Ta  Ta6  1  0.495630  0.504402  0.229221  1
  Ta  Ta7  1  0.999906  0.000121  0.769029  1
  Ta  Ta8  1  0.000094  0.999879  0.230971  1
  Ta  Ta9  1  0.000000  0.000000  0.000000  1
  S  S10  1  0.831939  0.168190  0.343243  1
  S  S11  1  0.831976  0.663626  0.343315  1
  S  S12  1  0.336560  0.168182  0.343292  1
  S  S13  1  0.666603  0.833304  0.886469  1
  S  S14  1  0.168024  0.336374  0.656685  1
  S  S15  1  0.166633  0.833815  0.886600  1
  S  S16  1  0.166845  0.333241  0.886649  1
  S  S17  1  0.833367  0.166185  0.113400  1
  S  S18  1  0.333397  0.166696  0.113531  1
  S  S19  1  0.663440  0.831818  0.656708  1
  S  S20  1  0.333296  0.666318  0.113260  1
  S  S21  1  0.666681  0.333295  0.654229  1
  S  S22  1  0.666704  0.333682  0.886740  1
  S  S23  1  0.333319  0.666705  0.345771  1
  S  S24  1  0.833155  0.666759  0.113351  1
  S  S25  1  0.168061  0.831810  0.656757  1
