# generated using pymatgen
data_YbCoGeO5
_symmetry_space_group_name_H-M   'P 1'
_cell_length_a   5.72228400
_cell_length_b   7.27647200
_cell_length_c   8.23454500
_cell_angle_alpha   90.00000000
_cell_angle_beta   90.00000000
_cell_angle_gamma   90.00000000
_symmetry_Int_Tables_number   1
_chemical_formula_structural   YbCoGeO5
_chemical_formula_sum   'Yb4 Co4 Ge4 O20'
_cell_volume   342.87030834
_cell_formula_units_Z   4
loop_
 _symmetry_equiv_pos_site_id
 _symmetry_equiv_pos_as_xyz
  1  'x, y, z'
loop_
 _atom_site_type_symbol
 _atom_site_label
 _atom_site_symmetry_multiplicity
 _atom_site_fract_x
 _atom_site_fract_y
 _atom_site_fract_z
 _atom_site_occupancy
  Yb  Yb0  1  0.500000  0.364707  0.168338  1
  Yb  Yb1  1  0.500000  0.635293  0.831662  1
  Yb  Yb2  1  0.500000  0.864707  0.331662  1
  Yb  Yb3  1  0.500000  0.135293  0.668338  1
  Co  Co4  1  0.250958  0.500000  0.500000  1
  Co  Co5  1  0.749042  0.000000  0.000000  1
  Co  Co6  1  0.749042  0.500000  0.500000  1
  Co  Co7  1  0.250958  0.000000  0.000000  1
  Ge  Ge8  1  0.000000  0.609481  0.148229  1
  Ge  Ge9  1  0.000000  0.390519  0.851771  1
  Ge  Ge10  1  0.000000  0.109481  0.351771  1
  Ge  Ge11  1  0.000000  0.890519  0.648229  1
  O  O12  1  0.000000  0.847626  0.076414  1
  O  O13  1  0.000000  0.152374  0.923586  1
  O  O14  1  0.000000  0.347626  0.423586  1
  O  O15  1  0.000000  0.652374  0.576414  1
  O  O16  1  0.500000  0.346097  0.446228  1
  O  O17  1  0.500000  0.653903  0.553772  1
  O  O18  1  0.500000  0.846097  0.053772  1
  O  O19  1  0.500000  0.153903  0.946228  1
  O  O20  1  0.213020  0.500000  0.000000  1
  O  O21  1  0.786980  0.000000  0.500000  1
  O  O22  1  0.786980  0.500000  0.000000  1
  O  O23  1  0.213020  0.000000  0.500000  1
  O  O24  1  0.251418  0.106835  0.208104  1
  O  O25  1  0.251418  0.893165  0.791896  1
  O  O26  1  0.748582  0.606835  0.291896  1
  O  O27  1  0.748582  0.393165  0.708104  1
  O  O28  1  0.748582  0.893165  0.791896  1
  O  O29  1  0.748582  0.106835  0.208104  1
  O  O30  1  0.251418  0.393165  0.708104  1
  O  O31  1  0.251418  0.606835  0.291896  1
