# generated using pymatgen
data_Zr6PdRh7
_symmetry_space_group_name_H-M   'P 1'
_cell_length_a   7.35668877
_cell_length_b   7.35668908
_cell_length_c   7.35668897
_cell_angle_alpha   113.76788465
_cell_angle_beta   113.76788260
_cell_angle_gamma   113.76787944
_symmetry_Int_Tables_number   1
_chemical_formula_structural   Zr6PdRh7
_chemical_formula_sum   'Zr6 Pd1 Rh7'
_cell_volume   246.00464780
_cell_formula_units_Z   1
loop_
 _symmetry_equiv_pos_site_id
 _symmetry_equiv_pos_as_xyz
  1  'x, y, z'
loop_
 _atom_site_type_symbol
 _atom_site_label
 _atom_site_symmetry_multiplicity
 _atom_site_fract_x
 _atom_site_fract_y
 _atom_site_fract_z
 _atom_site_occupancy
  Zr  Zr0  1  0.393397  0.254528  0.993456  1
  Zr  Zr1  1  0.993456  0.393397  0.254528  1
  Zr  Zr2  1  0.254528  0.993456  0.393397  1
  Zr  Zr3  1  0.606603  0.745472  0.006544  1
  Zr  Zr4  1  0.006544  0.606603  0.745472  1
  Zr  Zr5  1  0.745472  0.006544  0.606603  1
  Pd  Pd6  1  0.500000  0.500000  0.500000  1
  Rh  Rh7  1  0.000000  0.000000  0.000000  1
  Rh  Rh8  1  0.914940  0.753110  0.453888  1
  Rh  Rh9  1  0.453888  0.914940  0.753110  1
  Rh  Rh10  1  0.753110  0.453888  0.914940  1
  Rh  Rh11  1  0.085060  0.246890  0.546112  1
  Rh  Rh12  1  0.546112  0.085060  0.246890  1
  Rh  Rh13  1  0.246890  0.546112  0.085060  1
