# generated using pymatgen
data_BaSc2(H6Ir)2
_symmetry_space_group_name_H-M   'P 1'
_cell_length_a   4.81464700
_cell_length_b   4.81464845
_cell_length_c   8.48694700
_cell_angle_alpha   90.00000000
_cell_angle_beta   90.00000000
_cell_angle_gamma   119.99999690
_symmetry_Int_Tables_number   1
_chemical_formula_structural   BaSc2(H6Ir)2
_chemical_formula_sum   'Ba1 Sc2 H12 Ir2'
_cell_volume   170.37707905
_cell_formula_units_Z   1
loop_
 _symmetry_equiv_pos_site_id
 _symmetry_equiv_pos_as_xyz
  1  'x, y, z'
loop_
 _atom_site_type_symbol
 _atom_site_label
 _atom_site_symmetry_multiplicity
 _atom_site_fract_x
 _atom_site_fract_y
 _atom_site_fract_z
 _atom_site_occupancy
  Ba  Ba0  1  0.000000  0.000000  0.000000  1
  Sc  Sc1  1  0.666667  0.333333  0.369663  1
  Sc  Sc2  1  0.333333  0.666667  0.630337  1
  H  H3  1  0.162548  0.837452  0.393273  1
  H  H4  1  0.674905  0.837452  0.393273  1
  H  H5  1  0.162548  0.325095  0.393273  1
  H  H6  1  0.837452  0.162548  0.606727  1
  H  H7  1  0.325095  0.162548  0.606727  1
  H  H8  1  0.837452  0.674905  0.606727  1
  H  H9  1  0.497424  0.994847  0.830860  1
  H  H10  1  0.497424  0.502576  0.830860  1
  H  H11  1  0.005153  0.502576  0.830860  1
  H  H12  1  0.502576  0.005153  0.169140  1
  H  H13  1  0.502576  0.497424  0.169140  1
  H  H14  1  0.994847  0.497424  0.169140  1
  Ir  Ir15  1  0.666667  0.333333  0.714634  1
  Ir  Ir16  1  0.333333  0.666667  0.285366  1
