# generated using pymatgen
data_Ta(S4Cl)4
_symmetry_space_group_name_H-M   'P 1'
_cell_length_a   11.87186134
_cell_length_b   12.66132535
_cell_length_c   12.99675685
_cell_angle_alpha   102.36409104
_cell_angle_beta   62.82408342
_cell_angle_gamma   117.95798084
_symmetry_Int_Tables_number   1
_chemical_formula_structural   Ta(S4Cl)4
_chemical_formula_sum   'Ta2 S32 Cl8'
_cell_volume   1535.09760433
_cell_formula_units_Z   2
loop_
 _symmetry_equiv_pos_site_id
 _symmetry_equiv_pos_as_xyz
  1  'x, y, z'
loop_
 _atom_site_type_symbol
 _atom_site_label
 _atom_site_symmetry_multiplicity
 _atom_site_fract_x
 _atom_site_fract_y
 _atom_site_fract_z
 _atom_site_occupancy
  Ta  Ta0  1  0.999429  0.000000  0.000000  1
  Ta  Ta1  1  0.249428  0.500000  0.500001  1
  S  S2  1  0.472799  0.215956  0.004106  1
  S  S3  1  0.387347  0.326284  0.006819  1
  S  S4  1  0.660838  0.317819  0.018343  1
  S  S5  1  0.331643  0.654358  0.144431  1
  S  S6  1  0.916337  0.640474  0.160710  1
  S  S7  1  0.544999  0.009748  0.191593  1
  S  S8  1  0.167914  0.488863  0.203550  1
  S  S9  1  0.874268  0.478618  0.213504  1
  S  S10  1  0.337773  0.978618  0.286496  1
  S  S11  1  0.621464  0.988863  0.296450  1
  S  S12  1  0.986594  0.509749  0.308407  1
  S  S13  1  0.327046  0.140473  0.339290  1
  S  S14  1  0.726076  0.154359  0.355569  1
  S  S15  1  0.929182  0.817820  0.481657  1
  S  S16  1  0.644165  0.826283  0.493182  1
  S  S17  1  0.726906  0.715956  0.495894  1
  S  S18  1  0.506844  0.284044  0.504106  1
  S  S19  1  0.311063  0.173716  0.506818  1
  S  S20  1  0.593019  0.182180  0.518343  1
  S  S21  1  0.927286  0.845642  0.644431  1
  S  S22  1  0.525863  0.859526  0.660709  1
  S  S23  1  0.785252  0.490252  0.691593  1
  S  S24  1  0.929052  0.011137  0.703549  1
  S  S25  1  0.645649  0.021381  0.713505  1
  S  S26  1  0.609155  0.521382  0.786496  1
  S  S27  1  0.882601  0.511137  0.796450  1
  S  S28  1  0.726844  0.990252  0.808407  1
  S  S29  1  0.436573  0.359527  0.839290  1
  S  S30  1  0.821717  0.345641  0.855569  1
  S  S31  1  0.361362  0.682180  0.981657  1
  S  S32  1  0.067882  0.673716  0.993182  1
  S  S33  1  0.260948  0.784044  0.995894  1
  Cl  Cl34  1  0.818955  0.818872  0.002662  1
  Cl  Cl35  1  0.005845  0.000095  0.172645  1
  Cl  Cl36  1  0.428489  0.500095  0.327356  1
  Cl  Cl37  1  0.071617  0.318872  0.497339  1
  Cl  Cl38  1  0.250083  0.681128  0.502662  1
  Cl  Cl39  1  0.255750  0.499905  0.672644  1
  Cl  Cl40  1  0.178395  0.999905  0.827356  1
  Cl  Cl41  1  0.002746  0.181128  0.997338  1
