# generated using pymatgen
data_Lu6Ga7Co16
_symmetry_space_group_name_H-M   'P 1'
_cell_length_a   8.40183283
_cell_length_b   8.39347472
_cell_length_c   8.39978614
_cell_angle_alpha   120.04137641
_cell_angle_beta   90.00092898
_cell_angle_gamma   119.90051810
_symmetry_Int_Tables_number   1
_chemical_formula_structural   Lu6Ga7Co16
_chemical_formula_sum   'Lu6 Ga7 Co16'
_cell_volume   419.22374000
_cell_formula_units_Z   1
loop_
 _symmetry_equiv_pos_site_id
 _symmetry_equiv_pos_as_xyz
  1  'x, y, z'
loop_
 _atom_site_type_symbol
 _atom_site_label
 _atom_site_symmetry_multiplicity
 _atom_site_fract_x
 _atom_site_fract_y
 _atom_site_fract_z
 _atom_site_occupancy
  Lu  Lu0  1  0.281572  0.999943  0.281572  1
  Lu  Lu1  1  0.281514  0.563283  0.281711  1
  Lu  Lu2  1  0.718468  0.000163  0.281704  1
  Lu  Lu3  1  0.718494  0.000089  0.718489  1
  Lu  Lu4  1  0.281534  0.999981  0.718455  1
  Lu  Lu5  1  0.718516  0.436966  0.718530  1
  Ga  Ga6  1  0.999869  0.000099  0.000099  1
  Ga  Ga7  1  0.499816  0.999674  0.999776  1
  Ga  Ga8  1  0.000020  0.499947  0.999799  1
  Ga  Ga9  1  0.500290  0.499995  0.000274  1
  Ga  Ga10  1  0.000127  0.999883  0.499948  1
  Ga  Ga11  1  0.000141  0.500070  0.500133  1
  Ga  Ga12  1  0.500103  0.499924  0.499978  1
  Co  Co13  1  0.677665  0.355017  0.032552  1
  Co  Co14  1  0.375839  0.250620  0.125252  1
  Co  Co15  1  0.874722  0.250394  0.125160  1
  Co  Co16  1  0.874708  0.749514  0.125239  1
  Co  Co17  1  0.677516  0.354990  0.322343  1
  Co  Co18  1  0.677756  0.645184  0.322693  1
  Co  Co19  1  0.967226  0.644710  0.322285  1
  Co  Co20  1  0.125101  0.250298  0.375428  1
  Co  Co21  1  0.874703  0.749472  0.624207  1
  Co  Co22  1  0.032704  0.355200  0.677462  1
  Co  Co23  1  0.322458  0.354954  0.677525  1
  Co  Co24  1  0.322172  0.644798  0.677307  1
  Co  Co25  1  0.125176  0.250485  0.874855  1
  Co  Co26  1  0.125068  0.749733  0.874819  1
  Co  Co27  1  0.624330  0.749662  0.874808  1
  Co  Co28  1  0.322395  0.644946  0.967596  1
