# generated using pymatgen
data_Cs7K(PaSe5)2
_symmetry_space_group_name_H-M   'P 1'
_cell_length_a   8.60809109
_cell_length_b   12.79284789
_cell_length_c   8.45578100
_cell_angle_alpha   101.35293859
_cell_angle_beta   102.29382142
_cell_angle_gamma   110.40113337
_symmetry_Int_Tables_number   1
_chemical_formula_structural   Cs7K(PaSe5)2
_chemical_formula_sum   'Cs7 K1 Pa2 Se10'
_cell_volume   814.53189460
_cell_formula_units_Z   1
loop_
 _symmetry_equiv_pos_site_id
 _symmetry_equiv_pos_as_xyz
  1  'x, y, z'
loop_
 _atom_site_type_symbol
 _atom_site_label
 _atom_site_symmetry_multiplicity
 _atom_site_fract_x
 _atom_site_fract_y
 _atom_site_fract_z
 _atom_site_occupancy
  Cs  Cs0  1  0.999969  0.499838  0.999947  1
  Cs  Cs1  1  0.430487  0.908602  0.211190  1
  Cs  Cs2  1  0.596556  0.596608  0.293158  1
  Cs  Cs3  1  0.796251  0.294063  0.419998  1
  Cs  Cs4  1  0.203327  0.705809  0.579715  1
  Cs  Cs5  1  0.403219  0.402939  0.706834  1
  Cs  Cs6  1  0.569693  0.091733  0.788979  1
  K  K7  1  0.000183  0.000149  0.499969  1
  Pa  Pa8  1  0.180281  0.185902  0.094810  1
  Pa  Pa9  1  0.819845  0.814209  0.905272  1
  Se  Se10  1  0.503084  0.302143  0.065376  1
  Se  Se11  1  0.852128  0.033960  0.112715  1
  Se  Se12  1  0.978728  0.771472  0.190599  1
  Se  Se13  1  0.173267  0.383408  0.292240  1
  Se  Se14  1  0.344849  0.151155  0.385732  1
  Se  Se15  1  0.655169  0.848900  0.614273  1
  Se  Se16  1  0.826736  0.616624  0.707820  1
  Se  Se17  1  0.021337  0.228541  0.809473  1
  Se  Se18  1  0.147927  0.966083  0.887308  1
  Se  Se19  1  0.496968  0.697863  0.934590  1
