# generated using pymatgen
data_Lu2(CO3)3
_symmetry_space_group_name_H-M   'P 1'
_cell_length_a   7.97966819
_cell_length_b   8.24676484
_cell_length_c   8.28092716
_cell_angle_alpha   119.87502470
_cell_angle_beta   90.04038571
_cell_angle_gamma   89.97633860
_symmetry_Int_Tables_number   1
_chemical_formula_structural   Lu2(CO3)3
_chemical_formula_sum   'Lu4 C6 O18'
_cell_volume   472.52356981
_cell_formula_units_Z   2
loop_
 _symmetry_equiv_pos_site_id
 _symmetry_equiv_pos_as_xyz
  1  'x, y, z'
loop_
 _atom_site_type_symbol
 _atom_site_label
 _atom_site_symmetry_multiplicity
 _atom_site_fract_x
 _atom_site_fract_y
 _atom_site_fract_z
 _atom_site_occupancy
  Lu  Lu0  1  0.964930  0.665481  0.332395  1
  Lu  Lu1  1  0.535177  0.667527  0.333631  1
  Lu  Lu2  1  0.464823  0.332473  0.666369  1
  Lu  Lu3  1  0.035070  0.334519  0.667605  1
  C  C4  1  0.249376  0.964469  0.373395  1
  C  C5  1  0.250151  0.409925  0.036460  1
  C  C6  1  0.749683  0.371201  0.408893  1
  C  C7  1  0.250317  0.628799  0.591107  1
  C  C8  1  0.749849  0.590075  0.963540  1
  C  C9  1  0.750624  0.035531  0.626605  1
  O  O10  1  0.108713  0.878260  0.321621  1
  O  O11  1  0.390743  0.879549  0.321867  1
  O  O12  1  0.749733  0.662886  0.145296  1
  O  O13  1  0.390932  0.445285  0.122365  1
  O  O14  1  0.109110  0.442493  0.121511  1
  O  O15  1  0.749402  0.480284  0.335396  1
  O  O16  1  0.751058  0.853135  0.516988  1
  O  O17  1  0.109165  0.679664  0.556283  1
  O  O18  1  0.391110  0.680965  0.557174  1
  O  O19  1  0.608890  0.319035  0.442826  1
  O  O20  1  0.890835  0.320336  0.443717  1
  O  O21  1  0.248942  0.146865  0.483012  1
  O  O22  1  0.250598  0.519716  0.664604  1
  O  O23  1  0.890890  0.557507  0.878489  1
  O  O24  1  0.609068  0.554715  0.877635  1
  O  O25  1  0.250267  0.337114  0.854704  1
  O  O26  1  0.609257  0.120451  0.678133  1
  O  O27  1  0.891287  0.121740  0.678379  1
