# generated using pymatgen
data_Y4Ga18Co2IrPd3
_symmetry_space_group_name_H-M   'P 1'
_cell_length_a   7.56422777
_cell_length_b   7.56422807
_cell_length_c   9.50265200
_cell_angle_alpha   89.96756101
_cell_angle_beta   89.96756505
_cell_angle_gamma   119.70317471
_symmetry_Int_Tables_number   1
_chemical_formula_structural   Y4Ga18Co2IrPd3
_chemical_formula_sum   'Y4 Ga18 Co2 Ir1 Pd3'
_cell_volume   472.27571796
_cell_formula_units_Z   1
loop_
 _symmetry_equiv_pos_site_id
 _symmetry_equiv_pos_as_xyz
  1  'x, y, z'
loop_
 _atom_site_type_symbol
 _atom_site_label
 _atom_site_symmetry_multiplicity
 _atom_site_fract_x
 _atom_site_fract_y
 _atom_site_fract_z
 _atom_site_occupancy
  Y  Y0  1  0.989130  0.667923  0.250225  1
  Y  Y1  1  0.995036  0.321065  0.749987  1
  Y  Y2  1  0.678935  0.004964  0.250013  1
  Y  Y3  1  0.332077  0.010870  0.749775  1
  Ga  Ga4  1  0.135932  0.132926  0.250343  1
  Ga  Ga5  1  0.867074  0.864068  0.749657  1
  Ga  Ga6  1  0.014001  0.346263  0.077716  1
  Ga  Ga7  1  0.015400  0.665314  0.921902  1
  Ga  Ga8  1  0.012965  0.663060  0.576199  1
  Ga  Ga9  1  0.336940  0.987035  0.423801  1
  Ga  Ga10  1  0.010449  0.346220  0.424048  1
  Ga  Ga11  1  0.653780  0.989551  0.575952  1
  Ga  Ga12  1  0.653737  0.985999  0.922284  1
  Ga  Ga13  1  0.334686  0.984600  0.078098  1
  Ga  Ga14  1  0.335365  0.343009  0.563810  1
  Ga  Ga15  1  0.656991  0.664635  0.436190  1
  Ga  Ga16  1  0.655591  0.665011  0.067170  1
  Ga  Ga17  1  0.334989  0.344409  0.932830  1
  Ga  Ga18  1  0.336910  0.563019  0.250981  1
  Ga  Ga19  1  0.665759  0.461791  0.747940  1
  Ga  Ga20  1  0.538209  0.334241  0.252060  1
  Ga  Ga21  1  0.436981  0.663090  0.749019  1
  Co  Co22  1  0.331722  0.668278  0.000000  1
  Co  Co23  1  0.330705  0.669295  0.500000  1
  Ir  Ir24  1  0.672591  0.327409  0.500000  1
  Pd  Pd25  1  0.672176  0.327824  0.000000  1
  Pd  Pd26  1  0.001379  0.998621  0.000000  1
  Pd  Pd27  1  0.000490  0.999510  0.500000  1
