# generated using pymatgen
data_Zr2Tl(AsO4)3
_symmetry_space_group_name_H-M   'P 1'
_cell_length_a   10.66659900
_cell_length_b   10.66659900
_cell_length_c   10.66659900
_cell_angle_alpha   90.00000000
_cell_angle_beta   90.00000000
_cell_angle_gamma   90.00000000
_symmetry_Int_Tables_number   1
_chemical_formula_structural   Zr2Tl(AsO4)3
_chemical_formula_sum   'Zr8 Tl4 As12 O48'
_cell_volume   1213.60653289
_cell_formula_units_Z   4
loop_
 _symmetry_equiv_pos_site_id
 _symmetry_equiv_pos_as_xyz
  1  'x, y, z'
loop_
 _atom_site_type_symbol
 _atom_site_label
 _atom_site_symmetry_multiplicity
 _atom_site_fract_x
 _atom_site_fract_y
 _atom_site_fract_z
 _atom_site_occupancy
  Zr  Zr0  1  0.914375  0.414375  0.085625  1
  Zr  Zr1  1  0.414375  0.085625  0.914375  1
  Zr  Zr2  1  0.085625  0.914375  0.414375  1
  Zr  Zr3  1  0.585625  0.585625  0.585625  1
  Zr  Zr4  1  0.638285  0.138285  0.361715  1
  Zr  Zr5  1  0.138285  0.361715  0.638285  1
  Zr  Zr6  1  0.361715  0.638285  0.138285  1
  Zr  Zr7  1  0.861715  0.861715  0.861715  1
  Tl  Tl8  1  0.419442  0.919442  0.580558  1
  Tl  Tl9  1  0.919442  0.580558  0.419442  1
  Tl  Tl10  1  0.580558  0.419442  0.919442  1
  Tl  Tl11  1  0.080558  0.080558  0.080558  1
  As  As12  1  0.227394  0.371928  0.952757  1
  As  As13  1  0.047243  0.727394  0.128072  1
  As  As14  1  0.871928  0.547243  0.772606  1
  As  As15  1  0.727394  0.128072  0.047243  1
  As  As16  1  0.547243  0.772606  0.871928  1
  As  As17  1  0.371928  0.952757  0.227394  1
  As  As18  1  0.772606  0.871928  0.547243  1
  As  As19  1  0.952757  0.227394  0.371928  1
  As  As20  1  0.128072  0.047243  0.727394  1
  As  As21  1  0.272606  0.628072  0.452757  1
  As  As22  1  0.452757  0.272606  0.628072  1
  As  As23  1  0.628072  0.452757  0.272606  1
  O  O24  1  0.298700  0.230787  0.980245  1
  O  O25  1  0.019755  0.798700  0.269213  1
  O  O26  1  0.730787  0.519755  0.701300  1
  O  O27  1  0.798700  0.269213  0.019755  1
  O  O28  1  0.519755  0.701300  0.730787  1
  O  O29  1  0.230787  0.980245  0.298700  1
  O  O30  1  0.701300  0.730787  0.519755  1
  O  O31  1  0.980245  0.298700  0.230787  1
  O  O32  1  0.269213  0.019755  0.798700  1
  O  O33  1  0.201300  0.769213  0.480245  1
  O  O34  1  0.480245  0.201300  0.769213  1
  O  O35  1  0.769213  0.480245  0.201300  1
  O  O36  1  0.074046  0.351179  0.993743  1
  O  O37  1  0.006257  0.574046  0.148821  1
  O  O38  1  0.851179  0.506257  0.925954  1
  O  O39  1  0.574046  0.148821  0.006257  1
  O  O40  1  0.506257  0.925954  0.851179  1
  O  O41  1  0.351179  0.993743  0.074046  1
  O  O42  1  0.925954  0.851179  0.506257  1
  O  O43  1  0.993743  0.074046  0.351179  1
  O  O44  1  0.148821  0.006257  0.574046  1
  O  O45  1  0.425954  0.648821  0.493743  1
  O  O46  1  0.493743  0.425954  0.648821  1
  O  O47  1  0.648821  0.493743  0.425954  1
  O  O48  1  0.300940  0.479684  0.044117  1
  O  O49  1  0.955883  0.800940  0.020316  1
  O  O50  1  0.979684  0.455883  0.699060  1
  O  O51  1  0.800940  0.020316  0.955883  1
  O  O52  1  0.455883  0.699060  0.979684  1
  O  O53  1  0.479684  0.044117  0.300940  1
  O  O54  1  0.699060  0.979684  0.455883  1
  O  O55  1  0.044117  0.300940  0.479684  1
  O  O56  1  0.020316  0.955883  0.800940  1
  O  O57  1  0.199060  0.520316  0.544117  1
  O  O58  1  0.544117  0.199060  0.520316  1
  O  O59  1  0.520316  0.544117  0.199060  1
  O  O60  1  0.239696  0.416894  0.800201  1
  O  O61  1  0.199799  0.739696  0.083106  1
  O  O62  1  0.916894  0.699799  0.760304  1
  O  O63  1  0.739696  0.083106  0.199799  1
  O  O64  1  0.699799  0.760304  0.916894  1
  O  O65  1  0.416894  0.800201  0.239696  1
  O  O66  1  0.760304  0.916894  0.699799  1
  O  O67  1  0.800201  0.239696  0.416894  1
  O  O68  1  0.083106  0.199799  0.739696  1
  O  O69  1  0.260304  0.583106  0.300201  1
  O  O70  1  0.300201  0.260304  0.583106  1
  O  O71  1  0.583106  0.300201  0.260304  1
