# generated using pymatgen
data_Tm4Sc6Sn7Pb
_symmetry_space_group_name_H-M   'P 1'
_cell_length_a   7.66845004
_cell_length_b   7.94091067
_cell_length_c   14.80735907
_cell_angle_alpha   89.92600760
_cell_angle_beta   89.94067267
_cell_angle_gamma   89.99437998
_symmetry_Int_Tables_number   1
_chemical_formula_structural   Tm4Sc6Sn7Pb
_chemical_formula_sum   'Tm8 Sc12 Sn14 Pb2'
_cell_volume   901.68514216
_cell_formula_units_Z   2
loop_
 _symmetry_equiv_pos_site_id
 _symmetry_equiv_pos_as_xyz
  1  'x, y, z'
loop_
 _atom_site_type_symbol
 _atom_site_label
 _atom_site_symmetry_multiplicity
 _atom_site_fract_x
 _atom_site_fract_y
 _atom_site_fract_z
 _atom_site_occupancy
  Tm  Tm0  1  0.993452  0.178369  0.093705  1
  Tm  Tm1  1  0.006548  0.821631  0.906295  1
  Tm  Tm2  1  0.506743  0.678547  0.906287  1
  Tm  Tm3  1  0.006947  0.825194  0.594753  1
  Tm  Tm4  1  0.493257  0.321453  0.093713  1
  Tm  Tm5  1  0.993053  0.174806  0.405247  1
  Tm  Tm6  1  0.492384  0.317875  0.404581  1
  Tm  Tm7  1  0.507616  0.682125  0.595419  1
  Sc  Sc8  1  0.165697  0.496351  0.751774  1
  Sc  Sc9  1  0.834303  0.503649  0.248226  1
  Sc  Sc10  1  0.333925  0.996451  0.249920  1
  Sc  Sc11  1  0.666075  0.003549  0.750080  1
  Sc  Sc12  1  0.339336  0.156783  0.628423  1
  Sc  Sc13  1  0.660664  0.843217  0.371577  1
  Sc  Sc14  1  0.164154  0.661928  0.371386  1
  Sc  Sc15  1  0.662749  0.839675  0.127417  1
  Sc  Sc16  1  0.835846  0.338072  0.628614  1
  Sc  Sc17  1  0.337251  0.160325  0.872583  1
  Sc  Sc18  1  0.837471  0.339523  0.872505  1
  Sc  Sc19  1  0.162529  0.660477  0.127495  1
  Sn  Sn20  1  0.028262  0.122741  0.750362  1
  Sn  Sn21  1  0.971738  0.877259  0.249638  1
  Sn  Sn22  1  0.472765  0.622428  0.250165  1
  Sn  Sn23  1  0.527235  0.377572  0.749835  1
  Sn  Sn24  1  0.308455  0.847118  0.750374  1
  Sn  Sn25  1  0.691545  0.152882  0.249626  1
  Sn  Sn26  1  0.191170  0.347113  0.249862  1
  Sn  Sn27  1  0.808830  0.652887  0.750138  1
  Sn  Sn28  1  0.315912  0.957724  0.457690  1
  Sn  Sn29  1  0.816458  0.541956  0.042025  1
  Sn  Sn30  1  0.684088  0.042276  0.542310  1
  Sn  Sn31  1  0.183542  0.458044  0.957975  1
  Sn  Sn32  1  0.683400  0.041934  0.957636  1
  Sn  Sn33  1  0.316600  0.958066  0.042364  1
  Pb  Pb34  1  0.187455  0.457251  0.543011  1
  Pb  Pb35  1  0.812545  0.542749  0.456989  1
