# generated using pymatgen
data_Li3Dy4AlRuPt3
_symmetry_space_group_name_H-M   'P 1'
_cell_length_a   4.00143300
_cell_length_b   7.06927237
_cell_length_c   8.35301012
_cell_angle_alpha   90.62909575
_cell_angle_beta   90.00000000
_cell_angle_gamma   90.00000000
_symmetry_Int_Tables_number   1
_chemical_formula_structural   Li3Dy4AlRuPt3
_chemical_formula_sum   'Li3 Dy4 Al1 Ru1 Pt3'
_cell_volume   236.26919039
_cell_formula_units_Z   1
loop_
 _symmetry_equiv_pos_site_id
 _symmetry_equiv_pos_as_xyz
  1  'x, y, z'
loop_
 _atom_site_type_symbol
 _atom_site_label
 _atom_site_symmetry_multiplicity
 _atom_site_fract_x
 _atom_site_fract_y
 _atom_site_fract_z
 _atom_site_occupancy
  Li  Li0  1  0.250000  0.867293  0.942428  1
  Li  Li1  1  0.750000  0.125037  0.061513  1
  Li  Li2  1  0.250000  0.368353  0.559743  1
  Dy  Dy3  1  0.250000  0.457092  0.180834  1
  Dy  Dy4  1  0.750000  0.544012  0.811356  1
  Dy  Dy5  1  0.750000  0.038248  0.679214  1
  Dy  Dy6  1  0.250000  0.956866  0.324968  1
  Al  Al7  1  0.750000  0.634347  0.443419  1
  Ru  Ru8  1  0.250000  0.749518  0.607841  1
  Pt  Pt9  1  0.750000  0.263653  0.379926  1
  Pt  Pt10  1  0.750000  0.744088  0.132245  1
  Pt  Pt11  1  0.250000  0.251494  0.876514  1
