# generated using pymatgen
data_Y2HoEr(Co5As3)4
_symmetry_space_group_name_H-M   'P 1'
_cell_length_a   3.78704000
_cell_length_b   12.18010910
_cell_length_c   10.67259604
_cell_angle_alpha   89.98804300
_cell_angle_beta   90.00000000
_cell_angle_gamma   90.00000000
_symmetry_Int_Tables_number   1
_chemical_formula_structural   Y2HoEr(Co5As3)4
_chemical_formula_sum   'Y2 Ho1 Er1 Co20 As12'
_cell_volume   492.29013447
_cell_formula_units_Z   1
loop_
 _symmetry_equiv_pos_site_id
 _symmetry_equiv_pos_as_xyz
  1  'x, y, z'
loop_
 _atom_site_type_symbol
 _atom_site_label
 _atom_site_symmetry_multiplicity
 _atom_site_fract_x
 _atom_site_fract_y
 _atom_site_fract_z
 _atom_site_occupancy
  Y  Y0  1  0.250000  0.298508  0.918363  1
  Y  Y1  1  0.250000  0.798472  0.581736  1
  Ho  Ho2  1  0.750000  0.201466  0.418188  1
  Er  Er3  1  0.750000  0.701066  0.081342  1
  Co  Co4  1  0.750000  0.697016  0.383257  1
  Co  Co5  1  0.250000  0.302859  0.615617  1
  Co  Co6  1  0.250000  0.802545  0.884624  1
  Co  Co7  1  0.750000  0.196871  0.116519  1
  Co  Co8  1  0.750000  0.991134  0.212183  1
  Co  Co9  1  0.250000  0.008872  0.788033  1
  Co  Co10  1  0.250000  0.509167  0.712252  1
  Co  Co11  1  0.750000  0.491271  0.287880  1
  Co  Co12  1  0.750000  0.677644  0.784112  1
  Co  Co13  1  0.250000  0.322498  0.216223  1
  Co  Co14  1  0.250000  0.822399  0.283655  1
  Co  Co15  1  0.750000  0.177586  0.716088  1
  Co  Co16  1  0.750000  0.931524  0.969907  1
  Co  Co17  1  0.250000  0.067249  0.030948  1
  Co  Co18  1  0.250000  0.567697  0.468735  1
  Co  Co19  1  0.750000  0.431931  0.530178  1
  Co  Co20  1  0.750000  0.988423  0.592635  1
  Co  Co21  1  0.250000  0.012411  0.406881  1
  Co  Co22  1  0.250000  0.512819  0.093084  1
  Co  Co23  1  0.750000  0.488586  0.907545  1
  As  As24  1  0.750000  0.613845  0.584237  1
  As  As25  1  0.250000  0.385518  0.415396  1
  As  As26  1  0.250000  0.885094  0.084707  1
  As  As27  1  0.750000  0.113620  0.915792  1
  As  As28  1  0.750000  0.890799  0.399014  1
  As  As29  1  0.250000  0.109578  0.600334  1
  As  As30  1  0.250000  0.609684  0.899996  1
  As  As31  1  0.750000  0.390752  0.100877  1
  As  As32  1  0.750000  0.870341  0.769321  1
  As  As33  1  0.250000  0.129942  0.231212  1
  As  As34  1  0.250000  0.630294  0.268382  1
  As  As35  1  0.750000  0.370518  0.730749  1
