# generated using pymatgen
data_Y2Ho6Re3TcC8
_symmetry_space_group_name_H-M   'P 1'
_cell_length_a   5.09529900
_cell_length_b   6.57279171
_cell_length_c   9.85530607
_cell_angle_alpha   90.01992762
_cell_angle_beta   90.00000000
_cell_angle_gamma   90.00000000
_symmetry_Int_Tables_number   1
_chemical_formula_structural   Y2Ho6Re3TcC8
_chemical_formula_sum   'Y2 Ho6 Re3 Tc1 C8'
_cell_volume   330.05752122
_cell_formula_units_Z   1
loop_
 _symmetry_equiv_pos_site_id
 _symmetry_equiv_pos_as_xyz
  1  'x, y, z'
loop_
 _atom_site_type_symbol
 _atom_site_label
 _atom_site_symmetry_multiplicity
 _atom_site_fract_x
 _atom_site_fract_y
 _atom_site_fract_z
 _atom_site_occupancy
  Y  Y0  1  0.250000  0.465838  0.216043  1
  Y  Y1  1  0.750000  0.033591  0.716084  1
  Ho  Ho2  1  0.750000  0.532932  0.784316  1
  Ho  Ho3  1  0.250000  0.966206  0.283953  1
  Ho  Ho4  1  0.750000  0.678827  0.443216  1
  Ho  Ho5  1  0.250000  0.822560  0.943131  1
  Ho  Ho6  1  0.750000  0.177701  0.057407  1
  Ho  Ho7  1  0.250000  0.321301  0.557667  1
  Re  Re8  1  0.250000  0.780132  0.633754  1
  Re  Re9  1  0.750000  0.220540  0.366498  1
  Re  Re10  1  0.750000  0.720293  0.133938  1
  Tc  Tc11  1  0.250000  0.279882  0.866312  1
  C  C12  1  0.250000  0.677117  0.450020  1
  C  C13  1  0.250000  0.548149  0.758140  1
  C  C14  1  0.750000  0.453378  0.241125  1
  C  C15  1  0.750000  0.822253  0.950398  1
  C  C16  1  0.250000  0.046478  0.740460  1
  C  C17  1  0.250000  0.174629  0.048417  1
  C  C18  1  0.750000  0.325048  0.549699  1
  C  C19  1  0.750000  0.953146  0.259424  1
