# generated using pymatgen
data_Ca3Ni6B2Ir
_symmetry_space_group_name_H-M   'P 1'
_cell_length_a   7.83841174
_cell_length_b   7.83841110
_cell_length_c   7.83841093
_cell_angle_alpha   38.11719314
_cell_angle_beta   38.11719900
_cell_angle_gamma   38.11719527
_symmetry_Int_Tables_number   1
_chemical_formula_structural   Ca3Ni6B2Ir
_chemical_formula_sum   'Ca3 Ni6 B2 Ir1'
_cell_volume   164.75387484
_cell_formula_units_Z   1
loop_
 _symmetry_equiv_pos_site_id
 _symmetry_equiv_pos_as_xyz
  1  'x, y, z'
loop_
 _atom_site_type_symbol
 _atom_site_label
 _atom_site_symmetry_multiplicity
 _atom_site_fract_x
 _atom_site_fract_y
 _atom_site_fract_z
 _atom_site_occupancy
  Ca  Ca0  1  0.645749  0.645749  0.645749  1
  Ca  Ca1  1  0.354251  0.354251  0.354251  1
  Ca  Ca2  1  0.500000  0.500000  0.500000  1
  Ni  Ni3  1  0.572900  0.058955  0.058955  1
  Ni  Ni4  1  0.058955  0.058955  0.572900  1
  Ni  Ni5  1  0.058955  0.572900  0.058955  1
  Ni  Ni6  1  0.941045  0.427100  0.941045  1
  Ni  Ni7  1  0.941045  0.941045  0.427100  1
  Ni  Ni8  1  0.427100  0.941045  0.941045  1
  B  B9  1  0.830530  0.830530  0.830530  1
  B  B10  1  0.169470  0.169470  0.169470  1
  Ir  Ir11  1  0.000000  0.000000  0.000000  1
