# generated using pymatgen
data_Ho8Ti8Nb3Si16Pd
_symmetry_space_group_name_H-M   'P 1'
_cell_length_a   7.04827492
_cell_length_b   7.04827438
_cell_length_c   12.88081527
_cell_angle_alpha   90.21499690
_cell_angle_beta   89.78500177
_cell_angle_gamma   89.60282819
_symmetry_Int_Tables_number   1
_chemical_formula_structural   Ho8Ti8Nb3Si16Pd
_chemical_formula_sum   'Ho8 Ti8 Nb3 Si16 Pd1'
_cell_volume   639.87095538
_cell_formula_units_Z   1
loop_
 _symmetry_equiv_pos_site_id
 _symmetry_equiv_pos_as_xyz
  1  'x, y, z'
loop_
 _atom_site_type_symbol
 _atom_site_label
 _atom_site_symmetry_multiplicity
 _atom_site_fract_x
 _atom_site_fract_y
 _atom_site_fract_z
 _atom_site_occupancy
  Ho  Ho0  1  0.341105  0.000673  0.467290  1
  Ho  Ho1  1  0.497863  0.841576  0.717782  1
  Ho  Ho2  1  0.501399  0.157737  0.215071  1
  Ho  Ho3  1  0.841576  0.497863  0.282218  1
  Ho  Ho4  1  0.157737  0.501399  0.784929  1
  Ho  Ho5  1  0.657703  0.000838  0.968311  1
  Ho  Ho6  1  0.000673  0.341105  0.532710  1
  Ho  Ho7  1  0.000838  0.657703  0.031689  1
  Ti  Ti8  1  0.147270  0.005657  0.875343  1
  Ti  Ti9  1  0.492190  0.654519  0.124315  1
  Ti  Ti10  1  0.508742  0.350228  0.627039  1
  Ti  Ti11  1  0.654519  0.492190  0.875685  1
  Ti  Ti12  1  0.350228  0.508742  0.372961  1
  Ti  Ti13  1  0.849136  0.990384  0.374018  1
  Ti  Ti14  1  0.005657  0.147270  0.124657  1
  Ti  Ti15  1  0.990384  0.849136  0.625982  1
  Nb  Nb16  1  0.175058  0.825677  0.248278  1
  Nb  Nb17  1  0.825677  0.175058  0.751722  1
  Nb  Nb18  1  0.673261  0.673261  0.500000  1
  Si  Si19  1  0.203085  0.132204  0.683967  1
  Si  Si20  1  0.373337  0.710762  0.931461  1
  Si  Si21  1  0.629942  0.295068  0.433358  1
  Si  Si22  1  0.710762  0.373337  0.068539  1
  Si  Si23  1  0.295068  0.629942  0.566642  1
  Si  Si24  1  0.796812  0.867204  0.182719  1
  Si  Si25  1  0.132204  0.203085  0.316033  1
  Si  Si26  1  0.867204  0.796812  0.817281  1
  Si  Si27  1  0.288398  0.946894  0.061971  1
  Si  Si28  1  0.547820  0.792706  0.313677  1
  Si  Si29  1  0.448965  0.209245  0.814490  1
  Si  Si30  1  0.792706  0.547820  0.686323  1
  Si  Si31  1  0.209245  0.448965  0.185510  1
  Si  Si32  1  0.707417  0.047990  0.563893  1
  Si  Si33  1  0.946894  0.288398  0.938029  1
  Si  Si34  1  0.047990  0.707417  0.436107  1
  Pd  Pd35  1  0.331139  0.331139  0.000000  1
