# generated using pymatgen
data_La2NdTh(Zn5Ga)2
_symmetry_space_group_name_H-M   'P 1'
_cell_length_a   8.46599636
_cell_length_b   8.46599816
_cell_length_c   8.96330400
_cell_angle_alpha   90.00000000
_cell_angle_beta   90.00000000
_cell_angle_gamma   149.03322685
_symmetry_Int_Tables_number   1
_chemical_formula_structural   La2NdTh(Zn5Ga)2
_chemical_formula_sum   'La2 Nd1 Th1 Zn10 Ga2'
_cell_volume   330.55541541
_cell_formula_units_Z   1
loop_
 _symmetry_equiv_pos_site_id
 _symmetry_equiv_pos_as_xyz
  1  'x, y, z'
loop_
 _atom_site_type_symbol
 _atom_site_label
 _atom_site_symmetry_multiplicity
 _atom_site_fract_x
 _atom_site_fract_y
 _atom_site_fract_z
 _atom_site_occupancy
  La  La0  1  0.001196  0.998804  0.501507  1
  La  La1  1  0.001196  0.998804  0.998493  1
  Nd  Nd2  1  0.794293  0.205707  0.750000  1
  Th  Th3  1  0.204734  0.795266  0.250000  1
  Zn  Zn4  1  0.813361  0.186639  0.392173  1
  Zn  Zn5  1  0.186173  0.813827  0.607989  1
  Zn  Zn6  1  0.813361  0.186639  0.107827  1
  Zn  Zn7  1  0.186173  0.813827  0.892011  1
  Zn  Zn8  1  0.652866  0.347134  0.479994  1
  Zn  Zn9  1  0.347228  0.652772  0.521009  1
  Zn  Zn10  1  0.652866  0.347134  0.020006  1
  Zn  Zn11  1  0.347228  0.652772  0.978991  1
  Zn  Zn12  1  0.403585  0.596415  0.250000  1
  Zn  Zn13  1  0.596307  0.403693  0.750000  1
  Ga  Ga14  1  0.559856  0.440144  0.250000  1
  Ga  Ga15  1  0.439578  0.560422  0.750000  1
