# generated using pymatgen
data_Nd3Th(Si4Tc3)2
_symmetry_space_group_name_H-M   'P 1'
_cell_length_a   8.18610312
_cell_length_b   5.71645984
_cell_length_c   7.01628045
_cell_angle_alpha   76.84714570
_cell_angle_beta   90.02189686
_cell_angle_gamma   89.89506727
_symmetry_Int_Tables_number   1
_chemical_formula_structural   Nd3Th(Si4Tc3)2
_chemical_formula_sum   'Nd3 Th1 Si8 Tc6'
_cell_volume   319.71664762
_cell_formula_units_Z   1
loop_
 _symmetry_equiv_pos_site_id
 _symmetry_equiv_pos_as_xyz
  1  'x, y, z'
loop_
 _atom_site_type_symbol
 _atom_site_label
 _atom_site_symmetry_multiplicity
 _atom_site_fract_x
 _atom_site_fract_y
 _atom_site_fract_z
 _atom_site_occupancy
  Nd  Nd0  1  0.431967  0.935287  0.748994  1
  Nd  Nd1  1  0.070286  0.437330  0.746762  1
  Nd  Nd2  1  0.569038  0.063830  0.252255  1
  Th  Th3  1  0.934088  0.566760  0.249895  1
  Si  Si4  1  0.586262  0.610269  0.113832  1
  Si  Si5  1  0.090227  0.891301  0.885294  1
  Si  Si6  1  0.411428  0.387521  0.889684  1
  Si  Si7  1  0.911119  0.114589  0.109775  1
  Si  Si8  1  0.750360  0.716379  0.591230  1
  Si  Si9  1  0.253206  0.786667  0.409072  1
  Si  Si10  1  0.249836  0.277827  0.411034  1
  Si  Si11  1  0.747880  0.216550  0.592160  1
  Tc  Tc12  1  0.289431  0.608483  0.122029  1
  Tc  Tc13  1  0.794452  0.885115  0.883753  1
  Tc  Tc14  1  0.706325  0.389210  0.880722  1
  Tc  Tc15  1  0.206225  0.111999  0.118188  1
  Tc  Tc16  1  0.500346  0.499931  0.497718  1
  Tc  Tc17  1  0.997524  0.000951  0.497604  1
