# generated using pymatgen
data_SrNd6FeBr12
_symmetry_space_group_name_H-M   'P 1'
_cell_length_a   9.62749785
_cell_length_b   9.65591062
_cell_length_c   9.32009792
_cell_angle_alpha   105.91430012
_cell_angle_beta   105.86183938
_cell_angle_gamma   106.78923657
_symmetry_Int_Tables_number   1
_chemical_formula_structural   SrNd6FeBr12
_chemical_formula_sum   'Sr1 Nd6 Fe1 Br12'
_cell_volume   736.90360074
_cell_formula_units_Z   1
loop_
 _symmetry_equiv_pos_site_id
 _symmetry_equiv_pos_as_xyz
  1  'x, y, z'
loop_
 _atom_site_type_symbol
 _atom_site_label
 _atom_site_symmetry_multiplicity
 _atom_site_fract_x
 _atom_site_fract_y
 _atom_site_fract_z
 _atom_site_occupancy
  Sr  Sr0  1  0.500000  0.499991  0.499992  1
  Nd  Nd1  1  0.106091  0.312957  0.015768  1
  Nd  Nd2  1  0.313201  0.020159  0.105988  1
  Nd  Nd3  1  0.019365  0.093997  0.284684  1
  Nd  Nd4  1  0.980611  0.905952  0.715289  1
  Nd  Nd5  1  0.686777  0.979799  0.893996  1
  Nd  Nd6  1  0.893884  0.687003  0.984210  1
  Fe  Fe7  1  0.000124  0.000255  0.000134  1
  Br  Br8  1  0.215920  0.682413  0.073071  1
  Br  Br9  1  0.449813  0.363094  0.142620  1
  Br  Br10  1  0.685377  0.073095  0.220192  1
  Br  Br11  1  0.931388  0.786515  0.324208  1
  Br  Br12  1  0.148982  0.443952  0.363529  1
  Br  Br13  1  0.364595  0.150920  0.452164  1
  Br  Br14  1  0.635396  0.849057  0.547824  1
  Br  Br15  1  0.851015  0.556033  0.636452  1
  Br  Br16  1  0.068604  0.213464  0.675792  1
  Br  Br17  1  0.314632  0.926920  0.779828  1
  Br  Br18  1  0.550165  0.636870  0.857356  1
  Br  Br19  1  0.784060  0.317555  0.926904  1
