# generated using pymatgen
data_PrPuF7
_symmetry_space_group_name_H-M   'P 1'
_cell_length_a   6.10748300
_cell_length_b   6.42559643
_cell_length_c   8.73759792
_cell_angle_alpha   77.28909356
_cell_angle_beta   90.00000000
_cell_angle_gamma   90.00000000
_symmetry_Int_Tables_number   1
_chemical_formula_structural   PrPuF7
_chemical_formula_sum   'Pr2 Pu2 F14'
_cell_volume   334.49665705
_cell_formula_units_Z   2
loop_
 _symmetry_equiv_pos_site_id
 _symmetry_equiv_pos_as_xyz
  1  'x, y, z'
loop_
 _atom_site_type_symbol
 _atom_site_label
 _atom_site_symmetry_multiplicity
 _atom_site_fract_x
 _atom_site_fract_y
 _atom_site_fract_z
 _atom_site_occupancy
  Pr  Pr0  1  0.200162  0.655017  0.314248  1
  Pr  Pr1  1  0.700162  0.344983  0.685752  1
  Pu  Pu2  1  0.207883  0.810460  0.774643  1
  Pu  Pu3  1  0.707883  0.189540  0.225357  1
  F  F4  1  0.402789  0.465311  0.521193  1
  F  F5  1  0.902789  0.534689  0.478807  1
  F  F6  1  0.929949  0.926516  0.232255  1
  F  F7  1  0.429949  0.073484  0.767745  1
  F  F8  1  0.445828  0.956518  0.241377  1
  F  F9  1  0.945828  0.043482  0.758623  1
  F  F10  1  0.487754  0.456502  0.212730  1
  F  F11  1  0.987754  0.543498  0.787270  1
  F  F12  1  0.198458  0.757676  0.025790  1
  F  F13  1  0.698458  0.242324  0.974210  1
  F  F14  1  0.206479  0.863552  0.522653  1
  F  F15  1  0.706479  0.136448  0.477347  1
  F  F16  1  0.997056  0.390148  0.214245  1
  F  F17  1  0.497056  0.609852  0.785755  1
