# generated using pymatgen
data_Ac2La(SnPt)3
_symmetry_space_group_name_H-M   'P 1'
_cell_length_a   7.86645897
_cell_length_b   7.82521973
_cell_length_c   4.30290800
_cell_angle_alpha   90.00000000
_cell_angle_beta   90.00000000
_cell_angle_gamma   119.82673969
_symmetry_Int_Tables_number   1
_chemical_formula_structural   Ac2La(SnPt)3
_chemical_formula_sum   'Ac2 La1 Sn3 Pt3'
_cell_volume   229.78628261
_cell_formula_units_Z   1
loop_
 _symmetry_equiv_pos_site_id
 _symmetry_equiv_pos_as_xyz
  1  'x, y, z'
loop_
 _atom_site_type_symbol
 _atom_site_label
 _atom_site_symmetry_multiplicity
 _atom_site_fract_x
 _atom_site_fract_y
 _atom_site_fract_z
 _atom_site_occupancy
  Ac  Ac0  1  0.415176  0.415759  0.000000  1
  Ac  Ac1  1  0.584824  0.000583  0.000000  1
  La  La2  1  0.000000  0.586195  0.000000  1
  Sn  Sn3  1  0.000000  0.248716  0.500000  1
  Sn  Sn4  1  0.759718  0.754056  0.500000  1
  Sn  Sn5  1  0.240282  0.994337  0.500000  1
  Pt  Pt6  1  0.326530  0.664720  0.500000  1
  Pt  Pt7  1  0.000000  0.997447  0.000000  1
  Pt  Pt8  1  0.673470  0.338188  0.500000  1
