# generated using pymatgen
data_GaFeBr6
_symmetry_space_group_name_H-M   'P 1'
_cell_length_a   6.28025100
_cell_length_b   9.55161785
_cell_length_c   11.86427414
_cell_angle_alpha   71.69491357
_cell_angle_beta   90.00000000
_cell_angle_gamma   90.00000000
_symmetry_Int_Tables_number   1
_chemical_formula_structural   GaFeBr6
_chemical_formula_sum   'Ga2 Fe2 Br12'
_cell_volume   675.68338893
_cell_formula_units_Z   2
loop_
 _symmetry_equiv_pos_site_id
 _symmetry_equiv_pos_as_xyz
  1  'x, y, z'
loop_
 _atom_site_type_symbol
 _atom_site_label
 _atom_site_symmetry_multiplicity
 _atom_site_fract_x
 _atom_site_fract_y
 _atom_site_fract_z
 _atom_site_occupancy
  Ga  Ga0  1  0.996349  0.812386  0.045641  1
  Ga  Ga1  1  0.496349  0.187614  0.454359  1
  Fe  Fe2  1  0.003664  0.182234  0.955936  1
  Fe  Fe3  1  0.503664  0.817766  0.544064  1
  Br  Br4  1  0.790961  0.321935  0.806227  1
  Br  Br5  1  0.290961  0.678065  0.693773  1
  Br  Br6  1  0.215271  0.682523  0.196603  1
  Br  Br7  1  0.715271  0.317477  0.303397  1
  Br  Br8  1  0.222893  0.312687  0.039985  1
  Br  Br9  1  0.722893  0.687313  0.460015  1
  Br  Br10  1  0.771344  0.692381  0.954906  1
  Br  Br11  1  0.271344  0.307619  0.545094  1
  Br  Br12  1  0.792476  0.998626  0.109246  1
  Br  Br13  1  0.292476  0.001374  0.390754  1
  Br  Br14  1  0.207042  0.998417  0.891495  1
  Br  Br15  1  0.707042  0.001583  0.608505  1
