# generated using pymatgen
data_Re3Tc2MoPd2
_symmetry_space_group_name_H-M   'P 1'
_cell_length_a   5.59755910
_cell_length_b   5.59755867
_cell_length_c   4.42622200
_cell_angle_alpha   90.00000000
_cell_angle_beta   90.00000000
_cell_angle_gamma   119.84255416
_symmetry_Int_Tables_number   1
_chemical_formula_structural   Re3Tc2MoPd2
_chemical_formula_sum   'Re3 Tc2 Mo1 Pd2'
_cell_volume   120.29511795
_cell_formula_units_Z   1
loop_
 _symmetry_equiv_pos_site_id
 _symmetry_equiv_pos_as_xyz
  1  'x, y, z'
loop_
 _atom_site_type_symbol
 _atom_site_label
 _atom_site_symmetry_multiplicity
 _atom_site_fract_x
 _atom_site_fract_y
 _atom_site_fract_z
 _atom_site_occupancy
  Re  Re0  1  0.315213  0.158422  0.750000  1
  Re  Re1  1  0.841578  0.684787  0.750000  1
  Re  Re2  1  0.157703  0.842297  0.250000  1
  Tc  Tc3  1  0.685481  0.841270  0.250000  1
  Tc  Tc4  1  0.158730  0.314519  0.250000  1
  Mo  Mo5  1  0.841293  0.158707  0.750000  1
  Pd  Pd6  1  0.666157  0.333843  0.250000  1
  Pd  Pd7  1  0.333846  0.666154  0.750000  1
