# generated using pymatgen
data_ScUBRh6
_symmetry_space_group_name_H-M   'P 1'
_cell_length_a   5.74769262
_cell_length_b   5.74769218
_cell_length_c   5.74769200
_cell_angle_alpha   60.00000102
_cell_angle_beta   60.00000356
_cell_angle_gamma   59.99999984
_symmetry_Int_Tables_number   1
_chemical_formula_structural   ScUBRh6
_chemical_formula_sum   'Sc1 U1 B1 Rh6'
_cell_volume   134.26584206
_cell_formula_units_Z   1
loop_
 _symmetry_equiv_pos_site_id
 _symmetry_equiv_pos_as_xyz
  1  'x, y, z'
loop_
 _atom_site_type_symbol
 _atom_site_label
 _atom_site_symmetry_multiplicity
 _atom_site_fract_x
 _atom_site_fract_y
 _atom_site_fract_z
 _atom_site_occupancy
  Sc  Sc0  1  0.750000  0.750000  0.750000  1
  U  U1  1  0.250000  0.250000  0.250000  1
  B  B2  1  0.500000  0.500000  0.500000  1
  Rh  Rh3  1  0.756803  0.756803  0.243197  1
  Rh  Rh4  1  0.756803  0.243197  0.243197  1
  Rh  Rh5  1  0.243197  0.756803  0.243197  1
  Rh  Rh6  1  0.243197  0.243197  0.756803  1
  Rh  Rh7  1  0.756803  0.243197  0.756803  1
  Rh  Rh8  1  0.243197  0.756803  0.756803  1
