# generated using pymatgen
data_LaHf3(NiAs)4
_symmetry_space_group_name_H-M   'P 1'
_cell_length_a   4.00022500
_cell_length_b   4.00022398
_cell_length_c   14.76652500
_cell_angle_alpha   90.00000000
_cell_angle_beta   90.00000000
_cell_angle_gamma   120.00001674
_symmetry_Int_Tables_number   1
_chemical_formula_structural   LaHf3(NiAs)4
_chemical_formula_sum   'La1 Hf3 Ni4 As4'
_cell_volume   204.63390491
_cell_formula_units_Z   1
loop_
 _symmetry_equiv_pos_site_id
 _symmetry_equiv_pos_as_xyz
  1  'x, y, z'
loop_
 _atom_site_type_symbol
 _atom_site_label
 _atom_site_symmetry_multiplicity
 _atom_site_fract_x
 _atom_site_fract_y
 _atom_site_fract_z
 _atom_site_occupancy
  La  La0  1  0.000000  0.000000  0.500000  1
  Hf  Hf1  1  0.000000  0.000000  0.238709  1
  Hf  Hf2  1  0.000000  0.000000  0.761291  1
  Hf  Hf3  1  0.000000  0.000000  0.000000  1
  Ni  Ni4  1  0.333333  0.666667  0.138779  1
  Ni  Ni5  1  0.666667  0.333333  0.861221  1
  Ni  Ni6  1  0.666667  0.333333  0.677215  1
  Ni  Ni7  1  0.333333  0.666667  0.322785  1
  As  As8  1  0.333333  0.666667  0.636967  1
  As  As9  1  0.666667  0.333333  0.363033  1
  As  As10  1  0.666667  0.333333  0.108182  1
  As  As11  1  0.333333  0.666667  0.891818  1
