# generated using pymatgen
data_YErMnIr3
_symmetry_space_group_name_H-M   'P 1'
_cell_length_a   5.18643826
_cell_length_b   5.18643880
_cell_length_c   5.18644069
_cell_angle_alpha   63.75308023
_cell_angle_beta   63.75308029
_cell_angle_gamma   63.75308688
_symmetry_Int_Tables_number   1
_chemical_formula_structural   YErMnIr3
_chemical_formula_sum   'Y1 Er1 Mn1 Ir3'
_cell_volume   106.81955809
_cell_formula_units_Z   1
loop_
 _symmetry_equiv_pos_site_id
 _symmetry_equiv_pos_as_xyz
  1  'x, y, z'
loop_
 _atom_site_type_symbol
 _atom_site_label
 _atom_site_symmetry_multiplicity
 _atom_site_fract_x
 _atom_site_fract_y
 _atom_site_fract_z
 _atom_site_occupancy
  Y  Y0  1  0.251116  0.251116  0.251116  1
  Er  Er1  1  0.998293  0.998293  0.998293  1
  Mn  Mn2  1  0.625041  0.625041  0.625041  1
  Ir  Ir3  1  0.625456  0.625456  0.124636  1
  Ir  Ir4  1  0.625456  0.124636  0.625456  1
  Ir  Ir5  1  0.124636  0.625456  0.625456  1
