# generated using pymatgen
data_Pr6Cd23Sn
_symmetry_space_group_name_H-M   'P 1'
_cell_length_a   10.15390640
_cell_length_b   10.15390662
_cell_length_c   10.15390700
_cell_angle_alpha   60.00000201
_cell_angle_beta   60.00000129
_cell_angle_gamma   59.99999782
_symmetry_Int_Tables_number   1
_chemical_formula_structural   Pr6Cd23Sn
_chemical_formula_sum   'Pr6 Cd23 Sn1'
_cell_volume   740.26038334
_cell_formula_units_Z   1
loop_
 _symmetry_equiv_pos_site_id
 _symmetry_equiv_pos_as_xyz
  1  'x, y, z'
loop_
 _atom_site_type_symbol
 _atom_site_label
 _atom_site_symmetry_multiplicity
 _atom_site_fract_x
 _atom_site_fract_y
 _atom_site_fract_z
 _atom_site_occupancy
  Pr  Pr0  1  0.775932  0.775932  0.224068  1
  Pr  Pr1  1  0.224068  0.775932  0.224068  1
  Pr  Pr2  1  0.775932  0.224068  0.224068  1
  Pr  Pr3  1  0.224068  0.224068  0.775932  1
  Pr  Pr4  1  0.775932  0.224068  0.775932  1
  Pr  Pr5  1  0.224068  0.775932  0.775932  1
  Cd  Cd6  1  0.842035  0.842035  0.473897  1
  Cd  Cd7  1  0.842035  0.473897  0.842035  1
  Cd  Cd8  1  0.473897  0.842035  0.842035  1
  Cd  Cd9  1  0.842035  0.842035  0.842035  1
  Cd  Cd10  1  0.157965  0.157965  0.526103  1
  Cd  Cd11  1  0.157965  0.526103  0.157965  1
  Cd  Cd12  1  0.526103  0.157965  0.157965  1
  Cd  Cd13  1  0.157965  0.157965  0.157965  1
  Cd  Cd14  1  0.626510  0.626510  0.120472  1
  Cd  Cd15  1  0.626510  0.120472  0.626510  1
  Cd  Cd16  1  0.120472  0.626510  0.626510  1
  Cd  Cd17  1  0.626510  0.626510  0.626510  1
  Cd  Cd18  1  0.373490  0.373490  0.879528  1
  Cd  Cd19  1  0.373490  0.879528  0.373490  1
  Cd  Cd20  1  0.879528  0.373490  0.373490  1
  Cd  Cd21  1  0.373490  0.373490  0.373490  1
  Cd  Cd22  1  0.000000  0.000000  0.500000  1
  Cd  Cd23  1  0.500000  0.000000  0.500000  1
  Cd  Cd24  1  0.000000  0.500000  0.500000  1
  Cd  Cd25  1  0.500000  0.500000  0.000000  1
  Cd  Cd26  1  0.000000  0.500000  0.000000  1
  Cd  Cd27  1  0.500000  0.000000  0.000000  1
  Cd  Cd28  1  0.500000  0.500000  0.500000  1
  Sn  Sn29  1  0.000000  0.000000  0.000000  1
