# generated using pymatgen
data_YbThGaIr3
_symmetry_space_group_name_H-M   'P 1'
_cell_length_a   5.19518413
_cell_length_b   5.63020751
_cell_length_c   5.63020700
_cell_angle_alpha   59.99999712
_cell_angle_beta   57.18910797
_cell_angle_gamma   57.18911203
_symmetry_Int_Tables_number   1
_chemical_formula_structural   YbThGaIr3
_chemical_formula_sum   'Yb1 Th1 Ga1 Ir3'
_cell_volume   111.25321713
_cell_formula_units_Z   1
loop_
 _symmetry_equiv_pos_site_id
 _symmetry_equiv_pos_as_xyz
  1  'x, y, z'
loop_
 _atom_site_type_symbol
 _atom_site_label
 _atom_site_symmetry_multiplicity
 _atom_site_fract_x
 _atom_site_fract_y
 _atom_site_fract_z
 _atom_site_occupancy
  Yb  Yb0  1  0.740862  0.753046  0.753046  1
  Th  Th1  1  0.505560  0.498147  0.498147  1
  Ga  Ga2  1  0.625276  0.124908  0.124908  1
  Ir  Ir3  1  0.126101  0.123510  0.123510  1
  Ir  Ir4  1  0.126101  0.123510  0.626880  1
  Ir  Ir5  1  0.126101  0.626880  0.123510  1
