# generated using pymatgen
data_Eu10Si5Ge
_symmetry_space_group_name_H-M   'P 1'
_cell_length_a   9.23430374
_cell_length_b   9.23430385
_cell_length_c   9.23430393
_cell_angle_alpha   130.08094342
_cell_angle_beta   130.08093864
_cell_angle_gamma   73.27739802
_symmetry_Int_Tables_number   1
_chemical_formula_structural   Eu10Si5Ge
_chemical_formula_sum   'Eu10 Si5 Ge1'
_cell_volume   450.03976360
_cell_formula_units_Z   1
loop_
 _symmetry_equiv_pos_site_id
 _symmetry_equiv_pos_as_xyz
  1  'x, y, z'
loop_
 _atom_site_type_symbol
 _atom_site_label
 _atom_site_symmetry_multiplicity
 _atom_site_fract_x
 _atom_site_fract_y
 _atom_site_fract_z
 _atom_site_occupancy
  Eu  Eu0  1  0.530886  0.032154  0.852790  1
  Eu  Eu1  1  0.179364  0.678096  0.147210  1
  Eu  Eu2  1  0.032154  0.179364  0.501268  1
  Eu  Eu3  1  0.678096  0.530886  0.498732  1
  Eu  Eu4  1  0.467846  0.969114  0.147210  1
  Eu  Eu5  1  0.821904  0.320636  0.852790  1
  Eu  Eu6  1  0.969114  0.821904  0.501268  1
  Eu  Eu7  1  0.320636  0.467846  0.498732  1
  Eu  Eu8  1  0.499724  0.499724  0.000000  1
  Eu  Eu9  1  0.000276  0.000276  0.000000  1
  Si  Si10  1  0.889126  0.389126  0.278253  1
  Si  Si11  1  0.110874  0.610874  0.721747  1
  Si  Si12  1  0.389126  0.110874  0.500000  1
  Si  Si13  1  0.610874  0.889126  0.500000  1
  Si  Si14  1  0.250000  0.250000  0.000000  1
  Ge  Ge15  1  0.750000  0.750000  0.000000  1
