# generated using pymatgen
data_Pr3Y(WF7)4
_symmetry_space_group_name_H-M   'P 1'
_cell_length_a   5.78753419
_cell_length_b   9.28252559
_cell_length_c   12.44708900
_cell_angle_alpha   62.00445155
_cell_angle_beta   90.01477059
_cell_angle_gamma   90.01754377
_symmetry_Int_Tables_number   1
_chemical_formula_structural   Pr3Y(WF7)4
_chemical_formula_sum   'Pr3 Y1 W4 F28'
_cell_volume   590.44624088
_cell_formula_units_Z   1
loop_
 _symmetry_equiv_pos_site_id
 _symmetry_equiv_pos_as_xyz
  1  'x, y, z'
loop_
 _atom_site_type_symbol
 _atom_site_label
 _atom_site_symmetry_multiplicity
 _atom_site_fract_x
 _atom_site_fract_y
 _atom_site_fract_z
 _atom_site_occupancy
  Pr  Pr0  1  0.254817  0.184487  0.734222  1
  Pr  Pr1  1  0.244557  0.187924  0.233849  1
  Pr  Pr2  1  0.745355  0.810241  0.266213  1
  Y  Y3  1  0.754744  0.810925  0.766260  1
  W  W4  1  0.754525  0.279161  0.954287  1
  W  W5  1  0.255689  0.726937  0.548429  1
  W  W6  1  0.246026  0.726395  0.038524  1
  W  W7  1  0.747317  0.269892  0.458740  1
  F  F8  1  0.465591  0.707768  0.917452  1
  F  F9  1  0.957883  0.292311  0.580440  1
  F  F10  1  0.542802  0.295949  0.078345  1
  F  F11  1  0.040303  0.708308  0.424826  1
  F  F12  1  0.458271  0.281909  0.545053  1
  F  F13  1  0.957630  0.718975  0.948681  1
  F  F14  1  0.538148  0.716285  0.458146  1
  F  F15  1  0.042790  0.286101  0.042396  1
  F  F16  1  0.765679  0.523273  0.856813  1
  F  F17  1  0.265922  0.484080  0.643449  1
  F  F18  1  0.233803  0.483649  0.136062  1
  F  F19  1  0.733465  0.513238  0.361042  1
  F  F20  1  0.764495  0.036092  0.051017  1
  F  F21  1  0.265876  0.969181  0.450233  1
  F  F22  1  0.234879  0.969630  0.946153  1
  F  F23  1  0.737723  0.027036  0.555727  1
  F  F24  1  0.979609  0.735347  0.643136  1
  F  F25  1  0.475913  0.268989  0.862134  1
  F  F26  1  0.030144  0.267115  0.366172  1
  F  F27  1  0.523248  0.732292  0.133411  1
  F  F28  1  0.037878  0.743837  0.164191  1
  F  F29  1  0.542917  0.253189  0.332043  1
  F  F30  1  0.958592  0.259059  0.828589  1
  F  F31  1  0.469569  0.747883  0.672753  1
  F  F32  1  0.411546  0.964549  0.231514  1
  F  F33  1  0.910501  0.033539  0.269171  1
  F  F34  1  0.583643  0.020167  0.767590  1
  F  F35  1  0.068151  0.964287  0.732941  1
