# generated using pymatgen
data_Nd3ThCdRu
_symmetry_space_group_name_H-M   'P 1'
_cell_length_a   9.94090006
_cell_length_b   9.94089993
_cell_length_c   9.94090000
_cell_angle_alpha   59.99999976
_cell_angle_beta   60.00000018
_cell_angle_gamma   60.00000354
_symmetry_Int_Tables_number   1
_chemical_formula_structural   Nd3ThCdRu
_chemical_formula_sum   'Nd12 Th4 Cd4 Ru4'
_cell_volume   694.64374267
_cell_formula_units_Z   4
loop_
 _symmetry_equiv_pos_site_id
 _symmetry_equiv_pos_as_xyz
  1  'x, y, z'
loop_
 _atom_site_type_symbol
 _atom_site_label
 _atom_site_symmetry_multiplicity
 _atom_site_fract_x
 _atom_site_fract_y
 _atom_site_fract_z
 _atom_site_occupancy
  Nd  Nd0  1  0.058458  0.441542  0.441542  1
  Nd  Nd1  1  0.441542  0.058458  0.058458  1
  Nd  Nd2  1  0.441542  0.058458  0.441542  1
  Nd  Nd3  1  0.058458  0.441542  0.058458  1
  Nd  Nd4  1  0.441542  0.441542  0.058458  1
  Nd  Nd5  1  0.058458  0.058458  0.441542  1
  Nd  Nd6  1  0.189058  0.810942  0.810942  1
  Nd  Nd7  1  0.810942  0.189058  0.189058  1
  Nd  Nd8  1  0.810942  0.189058  0.810942  1
  Nd  Nd9  1  0.189058  0.810942  0.189058  1
  Nd  Nd10  1  0.810942  0.810942  0.189058  1
  Nd  Nd11  1  0.189058  0.189058  0.810942  1
  Th  Th12  1  0.595019  0.595019  0.595019  1
  Th  Th13  1  0.595019  0.595019  0.214944  1
  Th  Th14  1  0.595019  0.214944  0.595019  1
  Th  Th15  1  0.214944  0.595019  0.595019  1
  Cd  Cd16  1  0.829524  0.829524  0.829524  1
  Cd  Cd17  1  0.829524  0.829524  0.511426  1
  Cd  Cd18  1  0.829524  0.511426  0.829524  1
  Cd  Cd19  1  0.511426  0.829524  0.829524  1
  Ru  Ru20  1  0.395285  0.395285  0.395285  1
  Ru  Ru21  1  0.395285  0.395285  0.814146  1
  Ru  Ru22  1  0.395285  0.814146  0.395285  1
  Ru  Ru23  1  0.814146  0.395285  0.395285  1
