# generated using pymatgen
data_SrV2(OF4)2
_symmetry_space_group_name_H-M   'P 1'
_cell_length_a   5.19211839
_cell_length_b   5.49047460
_cell_length_c   7.64194136
_cell_angle_alpha   73.26891846
_cell_angle_beta   73.00335871
_cell_angle_gamma   90.07930605
_symmetry_Int_Tables_number   1
_chemical_formula_structural   SrV2(OF4)2
_chemical_formula_sum   'Sr1 V2 O2 F8'
_cell_volume   198.64337688
_cell_formula_units_Z   1
loop_
 _symmetry_equiv_pos_site_id
 _symmetry_equiv_pos_as_xyz
  1  'x, y, z'
loop_
 _atom_site_type_symbol
 _atom_site_label
 _atom_site_symmetry_multiplicity
 _atom_site_fract_x
 _atom_site_fract_y
 _atom_site_fract_z
 _atom_site_occupancy
  Sr  Sr0  1  0.000000  0.000000  0.000000  1
  V  V1  1  0.652164  0.647983  0.746575  1
  V  V2  1  0.347836  0.352017  0.253425  1
  O  O3  1  0.644365  0.704241  0.531983  1
  O  O4  1  0.355635  0.295759  0.468017  1
  F  F5  1  0.457017  0.901144  0.825326  1
  F  F6  1  0.542983  0.098856  0.174674  1
  F  F7  1  0.955574  0.838167  0.728387  1
  F  F8  1  0.044426  0.161833  0.271613  1
  F  F9  1  0.843230  0.364214  0.779421  1
  F  F10  1  0.156770  0.635786  0.220579  1
  F  F11  1  0.341194  0.424467  0.900035  1
  F  F12  1  0.658806  0.575533  0.099965  1
