# generated using pymatgen
data_Tm6Sc6Ni4SnRu
_symmetry_space_group_name_H-M   'P 1'
_cell_length_a   7.98785769
_cell_length_b   7.98812868
_cell_length_c   7.98807799
_cell_angle_alpha   106.51872901
_cell_angle_beta   110.70697008
_cell_angle_gamma   111.22678752
_symmetry_Int_Tables_number   1
_chemical_formula_structural   Tm6Sc6Ni4SnRu
_chemical_formula_sum   'Tm6 Sc6 Ni4 Sn1 Ru1'
_cell_volume   391.59191357
_cell_formula_units_Z   1
loop_
 _symmetry_equiv_pos_site_id
 _symmetry_equiv_pos_as_xyz
  1  'x, y, z'
loop_
 _atom_site_type_symbol
 _atom_site_label
 _atom_site_symmetry_multiplicity
 _atom_site_fract_x
 _atom_site_fract_y
 _atom_site_fract_z
 _atom_site_occupancy
  Tm  Tm0  1  0.196483  0.878012  0.681522  1
  Tm  Tm1  1  0.196528  0.515022  0.318541  1
  Tm  Tm2  1  0.602265  0.785374  0.816884  1
  Tm  Tm3  1  0.968521  0.785383  0.183142  1
  Tm  Tm4  1  0.027148  0.214487  0.812651  1
  Tm  Tm5  1  0.401850  0.214477  0.187351  1
  Sc  Sc6  1  0.690651  0.283137  0.972105  1
  Sc  Sc7  1  0.311040  0.718489  0.027885  1
  Sc  Sc8  1  0.690559  0.718521  0.407405  1
  Sc  Sc9  1  0.311114  0.283148  0.592575  1
  Sc  Sc10  1  0.805831  0.126877  0.321070  1
  Sc  Sc11  1  0.805785  0.484727  0.678928  1
  Ni  Ni12  1  0.852869  0.497436  0.355592  1
  Ni  Ni13  1  0.141692  0.497315  0.644315  1
  Ni  Ni14  1  0.996553  0.123295  0.126301  1
  Ni  Ni15  1  0.996916  0.870173  0.873782  1
  Sn  Sn16  1  0.505623  0.005598  0.499981  1
  Ru  Ru17  1  0.498570  0.498528  0.999969  1
