# generated using pymatgen
data_Cs4AlGa3H16
_symmetry_space_group_name_H-M   'P 1'
_cell_length_a   6.02530800
_cell_length_b   8.00156579
_cell_length_c   10.07807999
_cell_angle_alpha   90.05077154
_cell_angle_beta   90.00000000
_cell_angle_gamma   90.00000000
_symmetry_Int_Tables_number   1
_chemical_formula_structural   Cs4AlGa3H16
_chemical_formula_sum   'Cs4 Al1 Ga3 H16'
_cell_volume   485.88317713
_cell_formula_units_Z   1
loop_
 _symmetry_equiv_pos_site_id
 _symmetry_equiv_pos_as_xyz
  1  'x, y, z'
loop_
 _atom_site_type_symbol
 _atom_site_label
 _atom_site_symmetry_multiplicity
 _atom_site_fract_x
 _atom_site_fract_y
 _atom_site_fract_z
 _atom_site_occupancy
  Cs  Cs0  1  0.250000  0.335951  0.684548  1
  Cs  Cs1  1  0.250000  0.164439  0.184767  1
  Cs  Cs2  1  0.750000  0.664315  0.315698  1
  Cs  Cs3  1  0.750000  0.835873  0.815301  1
  Al  Al4  1  0.250000  0.695857  0.059969  1
  Ga  Ga5  1  0.250000  0.803488  0.560118  1
  Ga  Ga6  1  0.750000  0.303512  0.939769  1
  Ga  Ga7  1  0.750000  0.196440  0.439906  1
  H  H8  1  0.250000  0.617920  0.910504  1
  H  H9  1  0.250000  0.880497  0.413792  1
  H  H10  1  0.750000  0.380791  0.086092  1
  H  H11  1  0.750000  0.119466  0.586139  1
  H  H12  1  0.250000  0.552971  0.175636  1
  H  H13  1  0.250000  0.944098  0.673173  1
  H  H14  1  0.750000  0.444084  0.826902  1
  H  H15  1  0.750000  0.055933  0.326872  1
  H  H16  1  0.965285  0.187102  0.920439  1
  H  H17  1  0.534753  0.312944  0.420431  1
  H  H18  1  0.469265  0.815062  0.079969  1
  H  H19  1  0.034697  0.687074  0.579568  1
  H  H20  1  0.030735  0.815062  0.079969  1
  H  H21  1  0.465303  0.687074  0.579568  1
  H  H22  1  0.534715  0.187102  0.920439  1
  H  H23  1  0.965247  0.312944  0.420431  1
