# generated using pymatgen
data_Tm12TcNi4Bi
_symmetry_space_group_name_H-M   'P 1'
_cell_length_a   8.22748635
_cell_length_b   8.22748619
_cell_length_c   8.22748580
_cell_angle_alpha   110.12157981
_cell_angle_beta   111.90104430
_cell_angle_gamma   106.43825820
_symmetry_Int_Tables_number   1
_chemical_formula_structural   Tm12TcNi4Bi
_chemical_formula_sum   'Tm12 Tc1 Ni4 Bi1'
_cell_volume   427.72157020
_cell_formula_units_Z   1
loop_
 _symmetry_equiv_pos_site_id
 _symmetry_equiv_pos_as_xyz
  1  'x, y, z'
loop_
 _atom_site_type_symbol
 _atom_site_label
 _atom_site_symmetry_multiplicity
 _atom_site_fract_x
 _atom_site_fract_y
 _atom_site_fract_z
 _atom_site_occupancy
  Tm  Tm0  1  0.281813  0.180256  0.462068  1
  Tm  Tm1  1  0.718187  0.819744  0.537932  1
  Tm  Tm2  1  0.281813  0.819744  0.101557  1
  Tm  Tm3  1  0.718187  0.180256  0.898443  1
  Tm  Tm4  1  0.624637  0.316492  0.308147  1
  Tm  Tm5  1  0.375363  0.683508  0.691853  1
  Tm  Tm6  1  0.008345  0.316492  0.691853  1
  Tm  Tm7  1  0.991655  0.683508  0.308147  1
  Tm  Tm8  1  0.217352  0.411073  0.193722  1
  Tm  Tm9  1  0.782648  0.588927  0.806278  1
  Tm  Tm10  1  0.217352  0.023631  0.806278  1
  Tm  Tm11  1  0.782648  0.976369  0.193722  1
  Tc  Tc12  1  0.000000  0.000000  0.000000  1
  Ni  Ni13  1  0.000000  0.361477  0.361477  1
  Ni  Ni14  1  0.000000  0.638523  0.638523  1
  Ni  Ni15  1  0.380696  0.880696  0.500000  1
  Ni  Ni16  1  0.619304  0.119304  0.500000  1
  Bi  Bi17  1  0.500000  0.500000  0.000000  1
