# generated using pymatgen
data_K2HgSe20
_symmetry_space_group_name_H-M   'P 1'
_cell_length_a   19.06183013
_cell_length_b   19.06183084
_cell_length_c   11.06282492
_cell_angle_alpha   85.15806966
_cell_angle_beta   85.15806908
_cell_angle_gamma   12.42524127
_symmetry_Int_Tables_number   1
_chemical_formula_structural   K2HgSe20
_chemical_formula_sum   'K2 Hg1 Se20'
_cell_volume   861.78106809
_cell_formula_units_Z   1
loop_
 _symmetry_equiv_pos_site_id
 _symmetry_equiv_pos_as_xyz
  1  'x, y, z'
loop_
 _atom_site_type_symbol
 _atom_site_label
 _atom_site_symmetry_multiplicity
 _atom_site_fract_x
 _atom_site_fract_y
 _atom_site_fract_z
 _atom_site_occupancy
  K  K0  1  0.382876  0.382876  0.009369  1
  K  K1  1  0.617124  0.617124  0.990631  1
  Hg  Hg2  1  0.000000  0.000000  0.500000  1
  Se  Se3  1  0.421720  0.421720  0.357074  1
  Se  Se4  1  0.704794  0.704794  0.116399  1
  Se  Se5  1  0.295206  0.295206  0.883601  1
  Se  Se6  1  0.939818  0.939818  0.797324  1
  Se  Se7  1  0.060182  0.060182  0.202676  1
  Se  Se8  1  0.814323  0.814323  0.392857  1
  Se  Se9  1  0.185677  0.185677  0.607143  1
  Se  Se10  1  0.578280  0.578280  0.642926  1
  Se  Se11  1  0.174852  0.174852  0.165742  1
  Se  Se12  1  0.697867  0.697867  0.879631  1
  Se  Se13  1  0.302133  0.302133  0.120369  1
  Se  Se14  1  0.825148  0.825148  0.834258  1
  Se  Se15  1  0.369498  0.369498  0.476101  1
  Se  Se16  1  0.715914  0.715914  0.658316  1
  Se  Se17  1  0.284086  0.284086  0.341684  1
  Se  Se18  1  0.630502  0.630502  0.523899  1
  Se  Se19  1  0.465506  0.465506  0.849656  1
  Se  Se20  1  0.534494  0.534494  0.150344  1
  Se  Se21  1  0.925950  0.925950  0.243918  1
  Se  Se22  1  0.074050  0.074050  0.756082  1
