# generated using pymatgen
data_Y2Tm2Ir3RhO14
_symmetry_space_group_name_H-M   'P 1'
_cell_length_a   7.21448315
_cell_length_b   7.20329620
_cell_length_c   7.21448316
_cell_angle_alpha   60.07771533
_cell_angle_beta   60.14804084
_cell_angle_gamma   60.07771089
_symmetry_Int_Tables_number   1
_chemical_formula_structural   Y2Tm2Ir3RhO14
_chemical_formula_sum   'Y2 Tm2 Ir3 Rh1 O14'
_cell_volume   265.71773715
_cell_formula_units_Z   1
loop_
 _symmetry_equiv_pos_site_id
 _symmetry_equiv_pos_as_xyz
  1  'x, y, z'
loop_
 _atom_site_type_symbol
 _atom_site_label
 _atom_site_symmetry_multiplicity
 _atom_site_fract_x
 _atom_site_fract_y
 _atom_site_fract_z
 _atom_site_occupancy
  Y  Y0  1  0.625000  0.125000  0.125000  1
  Y  Y1  1  0.125000  0.125000  0.625000  1
  Tm  Tm2  1  0.125000  0.625000  0.125000  1
  Tm  Tm3  1  0.125000  0.125000  0.125000  1
  Ir  Ir4  1  0.125000  0.625000  0.625000  1
  Ir  Ir5  1  0.625000  0.125000  0.625000  1
  Ir  Ir6  1  0.625000  0.625000  0.125000  1
  Rh  Rh7  1  0.625000  0.625000  0.625000  1
  O  O8  1  0.718392  0.711777  0.282277  1
  O  O9  1  0.288314  0.288854  0.718609  1
  O  O10  1  0.714331  0.283194  0.714331  1
  O  O11  1  0.287825  0.715963  0.287825  1
  O  O12  1  0.282277  0.711777  0.718392  1
  O  O13  1  0.718609  0.288854  0.288314  1
  O  O14  1  0.531608  0.538223  0.967723  1
  O  O15  1  0.961686  0.961146  0.531391  1
  O  O16  1  0.535669  0.966806  0.535669  1
  O  O17  1  0.962175  0.534037  0.962175  1
  O  O18  1  0.967723  0.538223  0.531608  1
  O  O19  1  0.531391  0.961146  0.961686  1
  O  O20  1  0.246698  0.252286  0.246698  1
  O  O21  1  0.003302  0.997714  0.003302  1
