# generated using pymatgen
data_Yb12Al8SiGe11O48
_symmetry_space_group_name_H-M   'P 1'
_cell_length_a   10.49919970
_cell_length_b   10.49913644
_cell_length_c   10.49920191
_cell_angle_alpha   109.41583928
_cell_angle_beta   109.58208448
_cell_angle_gamma   109.41608803
_symmetry_Int_Tables_number   1
_chemical_formula_structural   Yb12Al8SiGe11O48
_chemical_formula_sum   'Yb12 Al8 Si1 Ge11 O48'
_cell_volume   890.92548975
_cell_formula_units_Z   1
loop_
 _symmetry_equiv_pos_site_id
 _symmetry_equiv_pos_as_xyz
  1  'x, y, z'
loop_
 _atom_site_type_symbol
 _atom_site_label
 _atom_site_symmetry_multiplicity
 _atom_site_fract_x
 _atom_site_fract_y
 _atom_site_fract_z
 _atom_site_occupancy
  Yb  Yb0  1  0.372953  0.749999  0.122953  1
  Yb  Yb1  1  0.249799  0.375309  0.124896  1
  Yb  Yb2  1  0.373685  0.124505  0.249045  1
  Yb  Yb3  1  0.875098  0.624898  0.250407  1
  Yb  Yb4  1  0.749585  0.124690  0.374489  1
  Yb  Yb5  1  0.124535  0.250000  0.374535  1
  Yb  Yb6  1  0.877044  0.750001  0.627044  1
  Yb  Yb7  1  0.250822  0.875358  0.626314  1
  Yb  Yb8  1  0.124540  0.375495  0.749180  1
  Yb  Yb9  1  0.625510  0.875103  0.750201  1
  Yb  Yb10  1  0.750955  0.624642  0.875462  1
  Yb  Yb11  1  0.625464  0.250000  0.875464  1
  Al  Al12  1  0.001906  0.998665  0.999835  1
  Al  Al13  1  0.496756  0.997926  0.998090  1
  Al  Al14  1  0.000163  0.502073  0.998829  1
  Al  Al15  1  0.499763  0.499895  0.000141  1
  Al  Al16  1  0.999858  0.999625  0.499758  1
  Al  Al17  1  0.500133  0.500375  0.500233  1
  Al  Al18  1  0.001170  0.501335  0.503241  1
  Al  Al19  1  0.500245  0.000104  0.499868  1
  Si  Si20  1  0.125002  0.750000  0.875002  1
  Ge  Ge21  1  0.874995  0.250000  0.124995  1
  Ge  Ge22  1  0.749183  0.874619  0.123689  1
  Ge  Ge23  1  0.625440  0.374506  0.250820  1
  Ge  Ge24  1  0.124903  0.874729  0.249673  1
  Ge  Ge25  1  0.249069  0.625380  0.374562  1
  Ge  Ge26  1  0.625015  0.750000  0.375015  1
  Ge  Ge27  1  0.750335  0.375236  0.625057  1
  Ge  Ge28  1  0.374998  0.250000  0.624999  1
  Ge  Ge29  1  0.876314  0.125494  0.750933  1
  Ge  Ge30  1  0.374942  0.625270  0.750173  1
  Ge  Ge31  1  0.249821  0.124763  0.875099  1
  O  O32  1  0.198819  0.117722  0.019238  1
  O  O33  1  0.308428  0.892312  0.004321  1
  O  O34  1  0.697254  0.679608  0.081353  1
  O  O35  1  0.884860  0.402440  0.081931  1
  O  O36  1  0.616495  0.418159  0.098852  1
  O  O37  1  0.980769  0.679592  0.098490  1
  O  O38  1  0.017581  0.197072  0.115140  1
  O  O39  1  0.596051  0.917032  0.114577  1
  O  O40  1  0.197546  0.582967  0.179019  1
  O  O41  1  0.481499  0.598114  0.179506  1
  O  O42  1  0.115758  0.018167  0.198174  1
  O  O43  1  0.579037  0.177736  0.196577  1
  O  O44  1  0.320369  0.918281  0.301253  1
  O  O45  1  0.482351  0.384099  0.302750  1
  O  O46  1  0.918067  0.302927  0.320509  1
  O  O47  1  0.901163  0.017656  0.319326  1
  O  O48  1  0.581391  0.901885  0.383383  1
  O  O49  1  0.301671  0.482345  0.383508  1
  O  O50  1  0.820984  0.518529  0.403955  1
  O  O51  1  0.082248  0.884225  0.402076  1
  O  O52  1  0.820495  0.801996  0.418607  1
  O  O53  1  0.098700  0.617536  0.420957  1
  O  O54  1  0.383990  0.302057  0.481658  1
  O  O55  1  0.597937  0.180194  0.482158  1
  O  O56  1  0.401745  0.820392  0.517646  1
  O  O57  1  0.616612  0.698005  0.518499  1
  O  O58  1  0.901516  0.382278  0.581097  1
  O  O59  1  0.179601  0.197944  0.581934  1
  O  O60  1  0.918651  0.115902  0.598252  1
  O  O61  1  0.180007  0.481833  0.597591  1
  O  O62  1  0.418062  0.097667  0.616009  1
  O  O63  1  0.698749  0.519125  0.617029  1
  O  O64  1  0.097904  0.980875  0.679623  1
  O  O65  1  0.083878  0.695891  0.691567  1
  O  O66  1  0.680693  0.081840  0.698335  1
  O  O67  1  0.517850  0.615775  0.698024  1
  O  O68  1  0.418897  0.820407  0.801176  1
  O  O69  1  0.885427  0.981473  0.802456  1
  O  O70  1  0.518341  0.402333  0.820395  1
  O  O71  1  0.801825  0.417585  0.819988  1
  O  O72  1  0.402403  0.082414  0.884240  1
  O  O73  1  0.995677  0.804109  0.887988  1
  O  O74  1  0.382971  0.581718  0.902087  1
  O  O75  1  0.018841  0.322264  0.901300  1
  O  O76  1  0.301965  0.319807  0.917744  1
  O  O77  1  0.112008  0.607688  0.916116  1
  O  O78  1  0.679492  0.097560  0.982420  1
  O  O79  1  0.803421  0.882464  0.981165  1
