# generated using pymatgen
data_AgF17
_symmetry_space_group_name_H-M   'P 1'
_cell_length_a   8.67321766
_cell_length_b   8.21305810
_cell_length_c   10.11685471
_cell_angle_alpha   83.43302974
_cell_angle_beta   89.22887117
_cell_angle_gamma   66.01477500
_symmetry_Int_Tables_number   1
_chemical_formula_structural   AgF17
_chemical_formula_sum   'Ag2 F34'
_cell_volume   653.67825399
_cell_formula_units_Z   2
loop_
 _symmetry_equiv_pos_site_id
 _symmetry_equiv_pos_as_xyz
  1  'x, y, z'
loop_
 _atom_site_type_symbol
 _atom_site_label
 _atom_site_symmetry_multiplicity
 _atom_site_fract_x
 _atom_site_fract_y
 _atom_site_fract_z
 _atom_site_occupancy
  Ag  Ag0  1  0.863443  0.251994  0.753791  1
  Ag  Ag1  1  0.136557  0.748006  0.246209  1
  F  F2  1  0.605125  0.207958  0.496303  1
  F  F3  1  0.394875  0.792042  0.503697  1
  F  F4  1  0.830773  0.674976  0.723819  1
  F  F5  1  0.169227  0.325024  0.276181  1
  F  F6  1  0.095824  0.767301  0.875547  1
  F  F7  1  0.904176  0.232699  0.124453  1
  F  F8  1  0.564835  0.148707  0.378393  1
  F  F9  1  0.435165  0.851293  0.621607  1
  F  F10  1  0.633085  0.331067  0.685242  1
  F  F11  1  0.366915  0.668933  0.314758  1
  F  F12  1  0.938917  0.052949  0.648182  1
  F  F13  1  0.061083  0.947051  0.351818  1
  F  F14  1  0.907491  0.394035  0.603889  1
  F  F15  1  0.092509  0.605965  0.396111  1
  F  F16  1  0.847444  0.810121  0.629180  1
  F  F17  1  0.152556  0.189879  0.370820  1
  F  F18  1  0.792988  0.454647  0.856159  1
  F  F19  1  0.207012  0.545353  0.143841  1
  F  F20  1  0.206554  0.695124  0.772674  1
  F  F21  1  0.793446  0.304876  0.227326  1
  F  F22  1  0.909135  0.825190  0.175549  1
  F  F23  1  0.090865  0.174810  0.824451  1
  F  F24  1  0.818513  0.107000  0.900106  1
  F  F25  1  0.181487  0.893000  0.099894  1
  F  F26  1  0.482250  0.592802  0.990984  1
  F  F27  1  0.517750  0.407198  0.009016  1
  F  F28  1  0.465221  0.084766  0.862653  1
  F  F29  1  0.534779  0.915234  0.137347  1
  F  F30  1  0.285912  0.246577  0.602675  1
  F  F31  1  0.714088  0.753423  0.397325  1
  F  F32  1  0.261527  0.396779  0.670056  1
  F  F33  1  0.738473  0.603221  0.329944  1
  F  F34  1  0.555090  0.901281  0.844455  1
  F  F35  1  0.444910  0.098719  0.155545  1
