# generated using pymatgen
data_YbDy7Re(B8Os)3
_symmetry_space_group_name_H-M   'P 1'
_cell_length_a   3.66306700
_cell_length_b   9.16808731
_cell_length_c   11.55382495
_cell_angle_alpha   89.97758194
_cell_angle_beta   90.00000000
_cell_angle_gamma   90.00000000
_symmetry_Int_Tables_number   1
_chemical_formula_structural   YbDy7Re(B8Os)3
_chemical_formula_sum   'Yb1 Dy7 Re1 B24 Os3'
_cell_volume   388.01574868
_cell_formula_units_Z   1
loop_
 _symmetry_equiv_pos_site_id
 _symmetry_equiv_pos_as_xyz
  1  'x, y, z'
loop_
 _atom_site_type_symbol
 _atom_site_label
 _atom_site_symmetry_multiplicity
 _atom_site_fract_x
 _atom_site_fract_y
 _atom_site_fract_z
 _atom_site_occupancy
  Yb  Yb0  1  0.000000  0.323600  0.414061  1
  Dy  Dy1  1  0.000000  0.677802  0.587425  1
  Dy  Dy2  1  0.000000  0.823299  0.084463  1
  Dy  Dy3  1  0.000000  0.176442  0.913279  1
  Dy  Dy4  1  0.000000  0.942947  0.369895  1
  Dy  Dy5  1  0.000000  0.058084  0.628750  1
  Dy  Dy6  1  0.000000  0.441759  0.130678  1
  Dy  Dy7  1  0.000000  0.556691  0.871628  1
  Re  Re8  1  0.000000  0.862540  0.821119  1
  B  B9  1  0.500000  0.553491  0.432946  1
  B  B10  1  0.500000  0.446238  0.567191  1
  B  B11  1  0.500000  0.053159  0.066871  1
  B  B12  1  0.500000  0.946963  0.932873  1
  B  B13  1  0.500000  0.748042  0.418478  1
  B  B14  1  0.500000  0.252740  0.581368  1
  B  B15  1  0.500000  0.247131  0.081481  1
  B  B16  1  0.500000  0.751552  0.919006  1
  B  B17  1  0.500000  0.790569  0.265547  1
  B  B18  1  0.500000  0.210093  0.733991  1
  B  B19  1  0.500000  0.289656  0.234477  1
  B  B20  1  0.500000  0.708907  0.765709  1
  B  B21  1  0.500000  0.630958  0.186618  1
  B  B22  1  0.500000  0.368838  0.814237  1
  B  B23  1  0.500000  0.131131  0.313731  1
  B  B24  1  0.500000  0.869147  0.685264  1
  B  B25  1  0.500000  0.983489  0.211600  1
  B  B26  1  0.500000  0.017845  0.787385  1
  B  B27  1  0.500000  0.483328  0.288947  1
  B  B28  1  0.500000  0.516573  0.712370  1
  B  B29  1  0.500000  0.603634  0.029778  1
  B  B30  1  0.500000  0.395002  0.971583  1
  B  B31  1  0.500000  0.101915  0.471126  1
  B  B32  1  0.500000  0.897768  0.527885  1
  Os  Os33  1  0.000000  0.638912  0.320878  1
  Os  Os34  1  0.000000  0.362774  0.679086  1
  Os  Os35  1  0.000000  0.136981  0.178273  1
