# generated using pymatgen
data_UCl14
_symmetry_space_group_name_H-M   'P 1'
_cell_length_a   15.44881314
_cell_length_b   15.90850388
_cell_length_c   9.87900216
_cell_angle_alpha   69.12353584
_cell_angle_beta   74.18638450
_cell_angle_gamma   36.71455151
_symmetry_Int_Tables_number   1
_chemical_formula_structural   UCl14
_chemical_formula_sum   'U2 Cl28'
_cell_volume   1355.82590624
_cell_formula_units_Z   2
loop_
 _symmetry_equiv_pos_site_id
 _symmetry_equiv_pos_as_xyz
  1  'x, y, z'
loop_
 _atom_site_type_symbol
 _atom_site_label
 _atom_site_symmetry_multiplicity
 _atom_site_fract_x
 _atom_site_fract_y
 _atom_site_fract_z
 _atom_site_occupancy
  U  U0  1  0.127515  0.127515  0.372485  1
  U  U1  1  0.877715  0.877715  0.122285  1
  Cl  Cl2  1  0.617168  0.851799  0.570570  1
  Cl  Cl3  1  0.676915  0.287771  0.637697  1
  Cl  Cl4  1  0.851799  0.617168  0.960462  1
  Cl  Cl5  1  0.287771  0.676915  0.397617  1
  Cl  Cl6  1  0.064843  0.065991  0.257269  1
  Cl  Cl7  1  0.184217  0.195122  0.486861  1
  Cl  Cl8  1  0.195122  0.184217  0.133800  1
  Cl  Cl9  1  0.919172  0.836381  0.374957  1
  Cl  Cl10  1  0.151890  0.452459  0.812676  1
  Cl  Cl11  1  0.638645  0.992118  0.184094  1
  Cl  Cl12  1  0.304981  0.355882  0.940867  1
  Cl  Cl13  1  0.738184  0.651235  0.578926  1
  Cl  Cl14  1  0.850359  0.309325  0.895622  1
  Cl  Cl15  1  0.436932  0.666268  0.098599  1
  Cl  Cl16  1  0.355882  0.304981  0.398269  1
  Cl  Cl17  1  0.379556  0.874677  0.413381  1
  Cl  Cl18  1  0.666268  0.436932  0.798202  1
  Cl  Cl19  1  0.992118  0.638645  0.185144  1
  Cl  Cl20  1  0.671544  0.217181  0.511899  1
  Cl  Cl21  1  0.452459  0.151890  0.582973  1
  Cl  Cl22  1  0.115952  0.764109  0.053592  1
  Cl  Cl23  1  0.651235  0.738184  0.031657  1
  Cl  Cl24  1  0.764109  0.115952  0.066347  1
  Cl  Cl25  1  0.065991  0.064843  0.611898  1
  Cl  Cl26  1  0.309325  0.850359  0.944696  1
  Cl  Cl27  1  0.874677  0.379556  0.332386  1
  Cl  Cl28  1  0.217181  0.671544  0.599376  1
  Cl  Cl29  1  0.836381  0.919172  0.869489  1
