# generated using pymatgen
data_Ho10In2SnBi3
_symmetry_space_group_name_H-M   'P 1'
_cell_length_a   9.02798223
_cell_length_b   9.02798166
_cell_length_c   6.51907300
_cell_angle_alpha   90.00000000
_cell_angle_beta   90.00000000
_cell_angle_gamma   119.94011981
_symmetry_Int_Tables_number   1
_chemical_formula_structural   Ho10In2SnBi3
_chemical_formula_sum   'Ho10 In2 Sn1 Bi3'
_cell_volume   460.42571793
_cell_formula_units_Z   1
loop_
 _symmetry_equiv_pos_site_id
 _symmetry_equiv_pos_as_xyz
  1  'x, y, z'
loop_
 _atom_site_type_symbol
 _atom_site_label
 _atom_site_symmetry_multiplicity
 _atom_site_fract_x
 _atom_site_fract_y
 _atom_site_fract_z
 _atom_site_occupancy
  Ho  Ho0  1  0.666969  0.332819  0.005525  1
  Ho  Ho1  1  0.332819  0.666969  0.005525  1
  Ho  Ho2  1  0.332819  0.666969  0.494475  1
  Ho  Ho3  1  0.666969  0.332819  0.494475  1
  Ho  Ho4  1  0.762832  0.762832  0.750000  1
  Ho  Ho5  1  0.236601  0.999398  0.750000  1
  Ho  Ho6  1  0.999398  0.236601  0.750000  1
  Ho  Ho7  1  0.237900  0.237900  0.250000  1
  Ho  Ho8  1  0.762725  0.001310  0.250000  1
  Ho  Ho9  1  0.001310  0.762725  0.250000  1
  In  In10  1  0.393578  0.999879  0.250000  1
  In  In11  1  0.999879  0.393578  0.250000  1
  Sn  Sn12  1  0.607019  0.607019  0.250000  1
  Bi  Bi13  1  0.395546  0.395546  0.750000  1
  Bi  Bi14  1  0.603931  0.999706  0.750000  1
  Bi  Bi15  1  0.999706  0.603931  0.750000  1
