# generated using pymatgen
data_Tb3Sn2BiRh3
_symmetry_space_group_name_H-M   'P 1'
_cell_length_a   7.68868800
_cell_length_b   7.61529482
_cell_length_c   3.90396800
_cell_angle_alpha   90.00000000
_cell_angle_beta   90.00000000
_cell_angle_gamma   120.31931600
_symmetry_Int_Tables_number   1
_chemical_formula_structural   Tb3Sn2BiRh3
_chemical_formula_sum   'Tb3 Sn2 Bi1 Rh3'
_cell_volume   197.31923579
_cell_formula_units_Z   1
loop_
 _symmetry_equiv_pos_site_id
 _symmetry_equiv_pos_as_xyz
  1  'x, y, z'
loop_
 _atom_site_type_symbol
 _atom_site_label
 _atom_site_symmetry_multiplicity
 _atom_site_fract_x
 _atom_site_fract_y
 _atom_site_fract_z
 _atom_site_occupancy
  Tb  Tb0  1  0.399329  0.000000  0.500000  1
  Tb  Tb1  1  0.007556  0.412753  0.500000  1
  Tb  Tb2  1  0.594803  0.587247  0.500000  1
  Sn  Sn3  1  0.002013  0.738576  0.000000  1
  Sn  Sn4  1  0.263437  0.261424  0.000000  1
  Bi  Bi5  1  0.737672  0.000000  0.000000  1
  Rh  Rh6  1  0.323649  0.660515  0.000000  1
  Rh  Rh7  1  0.663136  0.339485  0.000000  1
  Rh  Rh8  1  0.008405  0.000000  0.500000  1
