# generated using pymatgen
data_Tb6Dy4Si5Sn
_symmetry_space_group_name_H-M   'P 1'
_cell_length_a   8.55410300
_cell_length_b   8.58110838
_cell_length_c   6.42276600
_cell_angle_alpha   90.00000000
_cell_angle_beta   90.00000000
_cell_angle_gamma   119.89595400
_symmetry_Int_Tables_number   1
_chemical_formula_structural   Tb6Dy4Si5Sn
_chemical_formula_sum   'Tb6 Dy4 Si5 Sn1'
_cell_volume   408.71913422
_cell_formula_units_Z   1
loop_
 _symmetry_equiv_pos_site_id
 _symmetry_equiv_pos_as_xyz
  1  'x, y, z'
loop_
 _atom_site_type_symbol
 _atom_site_label
 _atom_site_symmetry_multiplicity
 _atom_site_fract_x
 _atom_site_fract_y
 _atom_site_fract_z
 _atom_site_occupancy
  Tb  Tb0  1  0.989398  0.748592  0.750000  1
  Tb  Tb1  1  0.998935  0.243002  0.250000  1
  Tb  Tb2  1  0.755934  0.756998  0.250000  1
  Tb  Tb3  1  0.764684  0.000000  0.750000  1
  Tb  Tb4  1  0.240806  0.251408  0.750000  1
  Tb  Tb5  1  0.241586  0.000000  0.250000  1
  Dy  Dy6  1  0.673376  0.341793  0.003179  1
  Dy  Dy7  1  0.331582  0.658207  0.496821  1
  Dy  Dy8  1  0.331582  0.658207  0.003179  1
  Dy  Dy9  1  0.673376  0.341793  0.496821  1
  Si  Si10  1  0.393642  0.392381  0.250000  1
  Si  Si11  1  0.001262  0.607619  0.250000  1
  Si  Si12  1  0.998735  0.394353  0.750000  1
  Si  Si13  1  0.604382  0.605647  0.750000  1
  Si  Si14  1  0.605698  0.000000  0.250000  1
  Sn  Sn15  1  0.395018  0.000000  0.750000  1
