# generated using pymatgen
data_LaThS3
_symmetry_space_group_name_H-M   'P 1'
_cell_length_a   4.07057300
_cell_length_b   10.76308000
_cell_length_c   10.99593000
_cell_angle_alpha   90.00000000
_cell_angle_beta   90.00000000
_cell_angle_gamma   90.00000000
_symmetry_Int_Tables_number   1
_chemical_formula_structural   LaThS3
_chemical_formula_sum   'La4 Th4 S12'
_cell_volume   481.75261685
_cell_formula_units_Z   4
loop_
 _symmetry_equiv_pos_site_id
 _symmetry_equiv_pos_as_xyz
  1  'x, y, z'
loop_
 _atom_site_type_symbol
 _atom_site_label
 _atom_site_symmetry_multiplicity
 _atom_site_fract_x
 _atom_site_fract_y
 _atom_site_fract_z
 _atom_site_occupancy
  La  La0  1  0.250000  0.006179  0.308085  1
  La  La1  1  0.750000  0.993821  0.691915  1
  La  La2  1  0.750000  0.506179  0.191915  1
  La  La3  1  0.250000  0.493820  0.808085  1
  Th  Th4  1  0.250000  0.685504  0.486628  1
  Th  Th5  1  0.750000  0.314496  0.513372  1
  Th  Th6  1  0.750000  0.185504  0.013372  1
  Th  Th7  1  0.250000  0.814496  0.986628  1
  S  S8  1  0.250000  0.056219  0.880961  1
  S  S9  1  0.750000  0.943781  0.119039  1
  S  S10  1  0.750000  0.556219  0.619039  1
  S  S11  1  0.250000  0.443781  0.380961  1
  S  S12  1  0.250000  0.131347  0.549541  1
  S  S13  1  0.750000  0.868653  0.450459  1
  S  S14  1  0.750000  0.631347  0.950459  1
  S  S15  1  0.250000  0.368653  0.049541  1
  S  S16  1  0.250000  0.706839  0.226204  1
  S  S17  1  0.750000  0.293161  0.773796  1
  S  S18  1  0.750000  0.206839  0.273796  1
  S  S19  1  0.250000  0.793161  0.726204  1
