# generated using pymatgen
data_Yb3UMn3FeB16
_symmetry_space_group_name_H-M   'P 1'
_cell_length_a   3.37039600
_cell_length_b   5.90524800
_cell_length_c   11.43296600
_cell_angle_alpha   89.99923243
_cell_angle_beta   90.00000000
_cell_angle_gamma   90.00000000
_symmetry_Int_Tables_number   1
_chemical_formula_structural   Yb3UMn3FeB16
_chemical_formula_sum   'Yb3 U1 Mn3 Fe1 B16'
_cell_volume   227.55059941
_cell_formula_units_Z   1
loop_
 _symmetry_equiv_pos_site_id
 _symmetry_equiv_pos_as_xyz
  1  'x, y, z'
loop_
 _atom_site_type_symbol
 _atom_site_label
 _atom_site_symmetry_multiplicity
 _atom_site_fract_x
 _atom_site_fract_y
 _atom_site_fract_z
 _atom_site_occupancy
  Yb  Yb0  1  0.500000  0.626533  0.847541  1
  Yb  Yb1  1  0.500000  0.126467  0.650175  1
  Yb  Yb2  1  0.500000  0.875792  0.351272  1
  U  U3  1  0.500000  0.374091  0.151793  1
  Mn  Mn4  1  0.500000  0.629815  0.583277  1
  Mn  Mn5  1  0.500000  0.128805  0.918855  1
  Mn  Mn6  1  0.500000  0.874152  0.087244  1
  Fe  Fe7  1  0.500000  0.372574  0.412213  1
  B  B8  1  0.000000  0.111314  0.047915  1
  B  B9  1  0.000000  0.886264  0.954217  1
  B  B10  1  0.000000  0.385352  0.544301  1
  B  B11  1  0.000000  0.611313  0.452487  1
  B  B12  1  0.000000  0.138981  0.466688  1
  B  B13  1  0.000000  0.862030  0.530948  1
  B  B14  1  0.000000  0.361182  0.967986  1
  B  B15  1  0.000000  0.637581  0.034108  1
  B  B16  1  0.000000  0.025027  0.191168  1
  B  B17  1  0.000000  0.976003  0.809532  1
  B  B18  1  0.000000  0.474325  0.689599  1
  B  B19  1  0.000000  0.522729  0.309545  1
  B  B20  1  0.000000  0.220638  0.316830  1
  B  B21  1  0.000000  0.781222  0.683004  1
  B  B22  1  0.000000  0.279009  0.815767  1
  B  B23  1  0.000000  0.718800  0.183536  1
