# generated using pymatgen
data_ErTh7(Ta3Si4)4
_symmetry_space_group_name_H-M   'P 1'
_cell_length_a   7.00808618
_cell_length_b   7.19860631
_cell_length_c   13.54665300
_cell_angle_alpha   90.07651266
_cell_angle_beta   89.87688253
_cell_angle_gamma   90.05149375
_symmetry_Int_Tables_number   1
_chemical_formula_structural   ErTh7(Ta3Si4)4
_chemical_formula_sum   'Er1 Th7 Ta12 Si16'
_cell_volume   683.40523087
_cell_formula_units_Z   1
loop_
 _symmetry_equiv_pos_site_id
 _symmetry_equiv_pos_as_xyz
  1  'x, y, z'
loop_
 _atom_site_type_symbol
 _atom_site_label
 _atom_site_symmetry_multiplicity
 _atom_site_fract_x
 _atom_site_fract_y
 _atom_site_fract_z
 _atom_site_occupancy
  Er  Er0  1  0.998786  0.829075  0.596862  1
  Th  Th1  1  0.500869  0.668920  0.595069  1
  Th  Th2  1  0.000103  0.830454  0.904085  1
  Th  Th3  1  0.500960  0.330449  0.095529  1
  Th  Th4  1  0.999158  0.170364  0.405868  1
  Th  Th5  1  0.498816  0.330466  0.406316  1
  Th  Th6  1  0.000971  0.169579  0.095435  1
  Th  Th7  1  0.499920  0.670115  0.902820  1
  Ta  Ta8  1  0.661775  0.172620  0.623882  1
  Ta  Ta9  1  0.161852  0.327107  0.874238  1
  Ta  Ta10  1  0.337556  0.827888  0.124784  1
  Ta  Ta11  1  0.835785  0.673152  0.376154  1
  Ta  Ta12  1  0.336304  0.828179  0.375749  1
  Ta  Ta13  1  0.837244  0.672125  0.124867  1
  Ta  Ta14  1  0.665962  0.170215  0.874496  1
  Ta  Ta15  1  0.164028  0.327866  0.624160  1
  Ta  Ta16  1  0.836899  0.489228  0.750421  1
  Ta  Ta17  1  0.337666  0.007468  0.748733  1
  Ta  Ta18  1  0.162590  0.509890  0.250507  1
  Ta  Ta19  1  0.662883  0.991215  0.250845  1
  Si  Si20  1  0.661552  0.957128  0.457569  1
  Si  Si21  1  0.161270  0.543331  0.043641  1
  Si  Si22  1  0.340191  0.044135  0.955078  1
  Si  Si23  1  0.843293  0.462618  0.545717  1
  Si  Si24  1  0.332366  0.038141  0.545328  1
  Si  Si25  1  0.838701  0.456395  0.955634  1
  Si  Si26  1  0.661064  0.956319  0.043831  1
  Si  Si27  1  0.158228  0.546698  0.458336  1
  Si  Si28  1  0.459014  0.368733  0.749737  1
  Si  Si29  1  0.960784  0.127053  0.747181  1
  Si  Si30  1  0.540931  0.630323  0.250783  1
  Si  Si31  1  0.040882  0.870123  0.250642  1
  Si  Si32  1  0.703914  0.882762  0.746729  1
  Si  Si33  1  0.196332  0.619132  0.747223  1
  Si  Si34  1  0.300656  0.116200  0.250685  1
  Si  Si35  1  0.800696  0.384536  0.251067  1
