# generated using pymatgen
data_Ce3Th2Si3C
_symmetry_space_group_name_H-M   'P 1'
_cell_length_a   8.78210868
_cell_length_b   8.75728401
_cell_length_c   6.21772100
_cell_angle_alpha   90.00000000
_cell_angle_beta   90.00000000
_cell_angle_gamma   119.90652742
_symmetry_Int_Tables_number   1
_chemical_formula_structural   Ce3Th2Si3C
_chemical_formula_sum   'Ce6 Th4 Si6 C2'
_cell_volume   414.51322639
_cell_formula_units_Z   2
loop_
 _symmetry_equiv_pos_site_id
 _symmetry_equiv_pos_as_xyz
  1  'x, y, z'
loop_
 _atom_site_type_symbol
 _atom_site_label
 _atom_site_symmetry_multiplicity
 _atom_site_fract_x
 _atom_site_fract_y
 _atom_site_fract_z
 _atom_site_occupancy
  Ce  Ce0  1  0.665621  0.332966  0.973370  1
  Ce  Ce1  1  0.334379  0.667346  0.973370  1
  Ce  Ce2  1  0.334379  0.667346  0.526630  1
  Ce  Ce3  1  0.665621  0.332966  0.526630  1
  Ce  Ce4  1  0.770151  0.770142  0.750000  1
  Ce  Ce5  1  0.229849  0.999991  0.750000  1
  Th  Th6  1  0.000000  0.233467  0.750000  1
  Th  Th7  1  0.236607  0.235580  0.250000  1
  Th  Th8  1  0.763393  0.998973  0.250000  1
  Th  Th9  1  0.000000  0.764364  0.250000  1
  Si  Si10  1  0.394924  0.393357  0.750000  1
  Si  Si11  1  0.605076  0.998433  0.750000  1
  Si  Si12  1  0.000000  0.609298  0.750000  1
  Si  Si13  1  0.599869  0.599018  0.250000  1
  Si  Si14  1  0.400131  0.999149  0.250000  1
  Si  Si15  1  0.000000  0.399081  0.250000  1
  C  C16  1  0.000000  0.999261  0.000609  1
  C  C17  1  0.000000  0.999261  0.499391  1
