# generated using pymatgen
data_Er9Tm(GeB4)4
_symmetry_space_group_name_H-M   'P 1'
_cell_length_a   7.20128500
_cell_length_b   7.20128500
_cell_length_c   8.03918000
_cell_angle_alpha   90.00000000
_cell_angle_beta   90.00000000
_cell_angle_gamma   90.00000000
_symmetry_Int_Tables_number   1
_chemical_formula_structural   Er9Tm(GeB4)4
_chemical_formula_sum   'Er9 Tm1 Ge4 B16'
_cell_volume   416.89986146
_cell_formula_units_Z   1
loop_
 _symmetry_equiv_pos_site_id
 _symmetry_equiv_pos_as_xyz
  1  'x, y, z'
loop_
 _atom_site_type_symbol
 _atom_site_label
 _atom_site_symmetry_multiplicity
 _atom_site_fract_x
 _atom_site_fract_y
 _atom_site_fract_z
 _atom_site_occupancy
  Er  Er0  1  0.680280  0.180360  0.220872  1
  Er  Er1  1  0.319720  0.819640  0.779128  1
  Er  Er2  1  0.319720  0.819640  0.220872  1
  Er  Er3  1  0.819640  0.680280  0.220872  1
  Er  Er4  1  0.819640  0.680280  0.779128  1
  Er  Er5  1  0.680280  0.180360  0.779128  1
  Er  Er6  1  0.180360  0.319720  0.779128  1
  Er  Er7  1  0.180360  0.319720  0.220872  1
  Er  Er8  1  0.000000  0.000000  0.500000  1
  Tm  Tm9  1  0.500000  0.500000  0.500000  1
  Ge  Ge10  1  0.121320  0.620913  0.500000  1
  Ge  Ge11  1  0.878680  0.379087  0.500000  1
  Ge  Ge12  1  0.379087  0.121320  0.500000  1
  Ge  Ge13  1  0.620913  0.878680  0.500000  1
  B  B14  1  0.172309  0.039327  0.000000  1
  B  B15  1  0.827691  0.960673  0.000000  1
  B  B16  1  0.960673  0.172309  0.000000  1
  B  B17  1  0.327689  0.539307  0.000000  1
  B  B18  1  0.039327  0.827691  0.000000  1
  B  B19  1  0.672311  0.460693  0.000000  1
  B  B20  1  0.539307  0.672311  0.000000  1
  B  B21  1  0.460693  0.327689  0.000000  1
  B  B22  1  0.089938  0.589970  0.000000  1
  B  B23  1  0.910062  0.410030  0.000000  1
  B  B24  1  0.410030  0.089938  0.000000  1
  B  B25  1  0.589970  0.910062  0.000000  1
  B  B26  1  0.000000  0.000000  0.164511  1
  B  B27  1  0.000000  0.000000  0.835489  1
  B  B28  1  0.500000  0.500000  0.835297  1
  B  B29  1  0.500000  0.500000  0.164703  1
