# generated using pymatgen
data_Li3Ce4Si8Rh
_symmetry_space_group_name_H-M   'P 1'
_cell_length_a   3.89998500
_cell_length_b   7.46353334
_cell_length_c   10.32739157
_cell_angle_alpha   89.96360617
_cell_angle_beta   90.00000000
_cell_angle_gamma   90.00000000
_symmetry_Int_Tables_number   1
_chemical_formula_structural   Li3Ce4Si8Rh
_chemical_formula_sum   'Li3 Ce4 Si8 Rh1'
_cell_volume   300.60622533
_cell_formula_units_Z   1
loop_
 _symmetry_equiv_pos_site_id
 _symmetry_equiv_pos_as_xyz
  1  'x, y, z'
loop_
 _atom_site_type_symbol
 _atom_site_label
 _atom_site_symmetry_multiplicity
 _atom_site_fract_x
 _atom_site_fract_y
 _atom_site_fract_z
 _atom_site_occupancy
  Li  Li0  1  0.250000  0.492668  0.110681  1
  Li  Li1  1  0.750000  0.007455  0.602492  1
  Li  Li2  1  0.750000  0.503144  0.891342  1
  Ce  Ce3  1  0.250000  0.139637  0.866178  1
  Ce  Ce4  1  0.250000  0.642598  0.626979  1
  Ce  Ce5  1  0.750000  0.859665  0.135575  1
  Ce  Ce6  1  0.750000  0.367275  0.366990  1
  Si  Si7  1  0.250000  0.222011  0.563805  1
  Si  Si8  1  0.250000  0.729313  0.925760  1
  Si  Si9  1  0.750000  0.787360  0.428200  1
  Si  Si10  1  0.750000  0.264027  0.078140  1
  Si  Si11  1  0.250000  0.668367  0.322159  1
  Si  Si12  1  0.250000  0.156778  0.193311  1
  Si  Si13  1  0.750000  0.333681  0.676862  1
  Si  Si14  1  0.750000  0.836768  0.815962  1
  Rh  Rh15  1  0.250000  0.989252  0.395564  1
