# generated using pymatgen
data_Mg4Ni2Ge(AsIr)5
_symmetry_space_group_name_H-M   'P 1'
_cell_length_a   7.01752221
_cell_length_b   6.99171096
_cell_length_c   6.99170920
_cell_angle_alpha   109.09420489
_cell_angle_beta   109.86333870
_cell_angle_gamma   109.30670781
_symmetry_Int_Tables_number   1
_chemical_formula_structural   Mg4Ni2Ge(AsIr)5
_chemical_formula_sum   'Mg4 Ni2 Ge1 As5 Ir5'
_cell_volume   264.55213796
_cell_formula_units_Z   1
loop_
 _symmetry_equiv_pos_site_id
 _symmetry_equiv_pos_as_xyz
  1  'x, y, z'
loop_
 _atom_site_type_symbol
 _atom_site_label
 _atom_site_symmetry_multiplicity
 _atom_site_fract_x
 _atom_site_fract_y
 _atom_site_fract_z
 _atom_site_occupancy
  Mg  Mg0  1  0.998853  0.992047  0.498455  1
  Mg  Mg1  1  0.500596  0.001832  0.997518  1
  Mg  Mg2  1  0.998853  0.500398  0.006807  1
  Mg  Mg3  1  0.500596  0.503079  0.498764  1
  Ni  Ni4  1  0.243497  0.494075  0.749421  1
  Ni  Ni5  1  0.756967  0.250296  0.506671  1
  Ge  Ge6  1  0.686722  0.690647  0.996075  1
  As  As7  1  0.314054  0.318799  0.995255  1
  As  As8  1  0.999173  0.676793  0.688892  1
  As  As9  1  0.999173  0.310281  0.322380  1
  As  As10  1  0.688633  0.003983  0.684651  1
  As  As11  1  0.313823  0.002833  0.310991  1
  Ir  Ir12  1  0.999208  0.001791  0.997417  1
  Ir  Ir13  1  0.501173  0.256525  0.743115  1
  Ir  Ir14  1  0.501173  0.758058  0.244648  1
  Ir  Ir15  1  0.742987  0.491298  0.251689  1
  Ir  Ir16  1  0.254519  0.747267  0.507252  1
