# generated using pymatgen
data_Y4ReB16MoRh2
_symmetry_space_group_name_H-M   'P 1'
_cell_length_a   3.59551800
_cell_length_b   5.99255106
_cell_length_c   11.61140717
_cell_angle_alpha   90.31150503
_cell_angle_beta   90.00000000
_cell_angle_gamma   90.00000000
_symmetry_Int_Tables_number   1
_chemical_formula_structural   Y4ReB16MoRh2
_chemical_formula_sum   'Y4 Re1 B16 Mo1 Rh2'
_cell_volume   250.17945740
_cell_formula_units_Z   1
loop_
 _symmetry_equiv_pos_site_id
 _symmetry_equiv_pos_as_xyz
  1  'x, y, z'
loop_
 _atom_site_type_symbol
 _atom_site_label
 _atom_site_symmetry_multiplicity
 _atom_site_fract_x
 _atom_site_fract_y
 _atom_site_fract_z
 _atom_site_occupancy
  Y  Y0  1  0.000000  0.128833  0.151780  1
  Y  Y1  1  0.000000  0.872398  0.848593  1
  Y  Y2  1  0.000000  0.628393  0.352794  1
  Y  Y3  1  0.000000  0.371272  0.647524  1
  Re  Re4  1  0.000000  0.370243  0.913077  1
  B  B5  1  0.500000  0.474522  0.193597  1
  B  B6  1  0.500000  0.523516  0.806771  1
  B  B7  1  0.500000  0.976471  0.308296  1
  B  B8  1  0.500000  0.024923  0.691978  1
  B  B9  1  0.500000  0.288806  0.314961  1
  B  B10  1  0.500000  0.709838  0.685302  1
  B  B11  1  0.500000  0.790059  0.187140  1
  B  B12  1  0.500000  0.212005  0.813807  1
  B  B13  1  0.500000  0.363994  0.468561  1
  B  B14  1  0.500000  0.635889  0.531530  1
  B  B15  1  0.500000  0.866699  0.030741  1
  B  B16  1  0.500000  0.135508  0.967294  1
  B  B17  1  0.500000  0.384739  0.045831  1
  B  B18  1  0.500000  0.612501  0.951907  1
  B  B19  1  0.500000  0.886594  0.453191  1
  B  B20  1  0.500000  0.113358  0.547057  1
  Mo  Mo21  1  0.000000  0.630668  0.086180  1
  Rh  Rh22  1  0.000000  0.140199  0.406941  1
  Rh  Rh23  1  0.000000  0.858570  0.595146  1
