# generated using pymatgen
data_Nd3Er5CdHgIr2
_symmetry_space_group_name_H-M   'P 1'
_cell_length_a   9.68050912
_cell_length_b   9.68050929
_cell_length_c   9.68449300
_cell_angle_alpha   59.98638271
_cell_angle_beta   59.98638214
_cell_angle_gamma   60.04030198
_symmetry_Int_Tables_number   1
_chemical_formula_structural   Nd3Er5CdHgIr2
_chemical_formula_sum   'Nd6 Er10 Cd2 Hg2 Ir4'
_cell_volume   641.80179010
_cell_formula_units_Z   2
loop_
 _symmetry_equiv_pos_site_id
 _symmetry_equiv_pos_as_xyz
  1  'x, y, z'
loop_
 _atom_site_type_symbol
 _atom_site_label
 _atom_site_symmetry_multiplicity
 _atom_site_fract_x
 _atom_site_fract_y
 _atom_site_fract_z
 _atom_site_occupancy
  Nd  Nd0  1  0.940461  0.558414  0.558847  1
  Nd  Nd1  1  0.558414  0.940461  0.942278  1
  Nd  Nd2  1  0.558414  0.940461  0.558847  1
  Nd  Nd3  1  0.940461  0.558414  0.942278  1
  Nd  Nd4  1  0.558698  0.558698  0.941302  1
  Nd  Nd5  1  0.941422  0.941422  0.558578  1
  Er  Er6  1  0.347730  0.347730  0.346602  1
  Er  Er7  1  0.347730  0.347730  0.957938  1
  Er  Er8  1  0.348517  0.956532  0.347475  1
  Er  Er9  1  0.956532  0.348517  0.347475  1
  Er  Er10  1  0.812002  0.186591  0.188502  1
  Er  Er11  1  0.186591  0.812002  0.812905  1
  Er  Er12  1  0.186591  0.812002  0.188502  1
  Er  Er13  1  0.812002  0.186591  0.812905  1
  Er  Er14  1  0.187228  0.187228  0.812772  1
  Er  Er15  1  0.812211  0.812211  0.187789  1
  Cd  Cd16  1  0.579362  0.261384  0.579627  1
  Cd  Cd17  1  0.261384  0.579362  0.579627  1
  Hg  Hg18  1  0.581503  0.581503  0.582536  1
  Hg  Hg19  1  0.581503  0.581503  0.254459  1
  Ir  Ir20  1  0.141570  0.141570  0.140815  1
  Ir  Ir21  1  0.141570  0.141570  0.576044  1
  Ir  Ir22  1  0.141672  0.576431  0.140948  1
  Ir  Ir23  1  0.576431  0.141672  0.140948  1
