# generated using pymatgen
data_PaZn2(Ni10B3)2
_symmetry_space_group_name_H-M   'P 1'
_cell_length_a   7.49569313
_cell_length_b   7.49569294
_cell_length_c   7.49569400
_cell_angle_alpha   60.00000413
_cell_angle_beta   60.00000500
_cell_angle_gamma   60.00000501
_symmetry_Int_Tables_number   1
_chemical_formula_structural   PaZn2(Ni10B3)2
_chemical_formula_sum   'Pa1 Zn2 Ni20 B6'
_cell_volume   297.79711311
_cell_formula_units_Z   1
loop_
 _symmetry_equiv_pos_site_id
 _symmetry_equiv_pos_as_xyz
  1  'x, y, z'
loop_
 _atom_site_type_symbol
 _atom_site_label
 _atom_site_symmetry_multiplicity
 _atom_site_fract_x
 _atom_site_fract_y
 _atom_site_fract_z
 _atom_site_occupancy
  Pa  Pa0  1  0.250000  0.250000  0.250000  1
  Zn  Zn1  1  0.750000  0.750000  0.750000  1
  Zn  Zn2  1  0.000000  0.000000  0.000000  1
  Ni  Ni3  1  0.999510  0.999510  0.660970  1
  Ni  Ni4  1  0.388449  0.834653  0.388449  1
  Ni  Ni5  1  0.660970  0.340009  0.999510  1
  Ni  Ni6  1  0.999510  0.340009  0.660970  1
  Ni  Ni7  1  0.660970  0.999510  0.999510  1
  Ni  Ni8  1  0.999510  0.999510  0.340009  1
  Ni  Ni9  1  0.660970  0.999510  0.340009  1
  Ni  Ni10  1  0.999510  0.340009  0.999510  1
  Ni  Ni11  1  0.999510  0.660970  0.340009  1
  Ni  Ni12  1  0.340009  0.999510  0.999510  1
  Ni  Ni13  1  0.999510  0.660970  0.999510  1
  Ni  Ni14  1  0.340009  0.999510  0.660970  1
  Ni  Ni15  1  0.388449  0.388449  0.388449  1
  Ni  Ni16  1  0.340009  0.660970  0.999510  1
  Ni  Ni17  1  0.618355  0.144936  0.618355  1
  Ni  Ni18  1  0.388449  0.388449  0.834653  1
  Ni  Ni19  1  0.834653  0.388449  0.388449  1
  Ni  Ni20  1  0.618355  0.618355  0.618355  1
  Ni  Ni21  1  0.144936  0.618355  0.618355  1
  Ni  Ni22  1  0.618355  0.618355  0.144936  1
  B  B23  1  0.728956  0.728956  0.271044  1
  B  B24  1  0.728956  0.271044  0.728956  1
  B  B25  1  0.271044  0.728956  0.271044  1
  B  B26  1  0.728956  0.271044  0.271044  1
  B  B27  1  0.271044  0.728956  0.728956  1
  B  B28  1  0.271044  0.271044  0.728956  1
