# generated using pymatgen
data_TbGaSiRh2
_symmetry_space_group_name_H-M   'P 1'
_cell_length_a   5.84923541
_cell_length_b   5.84923555
_cell_length_c   5.84923621
_cell_angle_alpha   138.47446662
_cell_angle_beta   138.47447126
_cell_angle_gamma   60.17709783
_symmetry_Int_Tables_number   1
_chemical_formula_structural   TbGaSiRh2
_chemical_formula_sum   'Tb1 Ga1 Si1 Rh2'
_cell_volume   87.04237757
_cell_formula_units_Z   1
loop_
 _symmetry_equiv_pos_site_id
 _symmetry_equiv_pos_as_xyz
  1  'x, y, z'
loop_
 _atom_site_type_symbol
 _atom_site_label
 _atom_site_symmetry_multiplicity
 _atom_site_fract_x
 _atom_site_fract_y
 _atom_site_fract_z
 _atom_site_occupancy
  Tb  Tb0  1  0.997357  0.997357  0.000000  1
  Ga  Ga1  1  0.618608  0.618608  0.000000  1
  Si  Si2  1  0.369348  0.369348  0.000000  1
  Rh  Rh3  1  0.757343  0.257343  0.500000  1
  Rh  Rh4  1  0.257343  0.757343  0.500000  1
