# generated using pymatgen
data_Y2Sc2ReTcB12
_symmetry_space_group_name_H-M   'P 1'
_cell_length_a   3.58614400
_cell_length_b   9.01238744
_cell_length_c   11.39373854
_cell_angle_alpha   90.03237733
_cell_angle_beta   90.00000000
_cell_angle_gamma   90.00000000
_symmetry_Int_Tables_number   1
_chemical_formula_structural   Y2Sc2ReTcB12
_chemical_formula_sum   'Y4 Sc4 Re2 Tc2 B24'
_cell_volume   368.24237069
_cell_formula_units_Z   2
loop_
 _symmetry_equiv_pos_site_id
 _symmetry_equiv_pos_as_xyz
  1  'x, y, z'
loop_
 _atom_site_type_symbol
 _atom_site_label
 _atom_site_symmetry_multiplicity
 _atom_site_fract_x
 _atom_site_fract_y
 _atom_site_fract_z
 _atom_site_occupancy
  Y  Y0  1  0.000000  0.322011  0.414485  1
  Y  Y1  1  0.000000  0.677989  0.585515  1
  Y  Y2  1  0.000000  0.821283  0.085921  1
  Y  Y3  1  0.000000  0.178717  0.914079  1
  Sc  Sc4  1  0.000000  0.943595  0.369925  1
  Sc  Sc5  1  0.000000  0.056405  0.630075  1
  Sc  Sc6  1  0.000000  0.444392  0.130504  1
  Sc  Sc7  1  0.000000  0.555608  0.869496  1
  Re  Re8  1  0.000000  0.140627  0.181859  1
  Re  Re9  1  0.000000  0.859373  0.818141  1
  Tc  Tc10  1  0.000000  0.640764  0.318394  1
  Tc  Tc11  1  0.000000  0.359236  0.681606  1
  B  B12  1  0.500000  0.554475  0.432440  1
  B  B13  1  0.500000  0.445525  0.567560  1
  B  B14  1  0.500000  0.054341  0.067475  1
  B  B15  1  0.500000  0.945659  0.932525  1
  B  B16  1  0.500000  0.754270  0.418300  1
  B  B17  1  0.500000  0.245730  0.581700  1
  B  B18  1  0.500000  0.254828  0.081468  1
  B  B19  1  0.500000  0.745172  0.918532  1
  B  B20  1  0.500000  0.794939  0.265163  1
  B  B21  1  0.500000  0.205061  0.734837  1
  B  B22  1  0.500000  0.295434  0.235037  1
  B  B23  1  0.500000  0.704566  0.764963  1
  B  B24  1  0.500000  0.628843  0.183328  1
  B  B25  1  0.500000  0.371157  0.816672  1
  B  B26  1  0.500000  0.128812  0.317014  1
  B  B27  1  0.500000  0.871188  0.682986  1
  B  B28  1  0.500000  0.980976  0.213893  1
  B  B29  1  0.500000  0.019024  0.786107  1
  B  B30  1  0.500000  0.481614  0.286286  1
  B  B31  1  0.500000  0.518386  0.713714  1
  B  B32  1  0.500000  0.595369  0.026199  1
  B  B33  1  0.500000  0.404631  0.973801  1
  B  B34  1  0.500000  0.095237  0.473807  1
  B  B35  1  0.500000  0.904763  0.526193  1
