# generated using pymatgen
data_Nb6Re6Si5P
_symmetry_space_group_name_H-M   'P 1'
_cell_length_a   7.53158278
_cell_length_b   7.60368509
_cell_length_c   7.53158265
_cell_angle_alpha   127.54045868
_cell_angle_beta   124.26683020
_cell_angle_gamma   79.83330503
_symmetry_Int_Tables_number   1
_chemical_formula_structural   Nb6Re6Si5P
_chemical_formula_sum   'Nb6 Re6 Si5 P1'
_cell_volume   273.35523990
_cell_formula_units_Z   1
loop_
 _symmetry_equiv_pos_site_id
 _symmetry_equiv_pos_as_xyz
  1  'x, y, z'
loop_
 _atom_site_type_symbol
 _atom_site_label
 _atom_site_symmetry_multiplicity
 _atom_site_fract_x
 _atom_site_fract_y
 _atom_site_fract_z
 _atom_site_occupancy
  Nb  Nb0  1  0.545176  0.088994  0.043818  1
  Nb  Nb1  1  0.442171  0.477758  0.535587  1
  Nb  Nb2  1  0.966246  0.508339  0.042093  1
  Nb  Nb3  1  0.041265  0.078493  0.537228  1
  Nb  Nb4  1  0.757388  0.908293  0.650905  1
  Nb  Nb5  1  0.249666  0.913779  0.164112  1
  Re  Re6  1  0.529521  0.246150  0.777552  1
  Re  Re7  1  0.968597  0.246150  0.216629  1
  Re  Re8  1  0.155935  0.745569  0.653315  1
  Re  Re9  1  0.839276  0.494082  0.587059  1
  Re  Re10  1  0.592254  0.745569  0.089634  1
  Re  Re11  1  0.407024  0.494082  0.154806  1
  Si  Si12  1  0.227376  0.465186  0.737810  1
  Si  Si13  1  0.339847  0.829056  0.501995  1
  Si  Si14  1  0.669582  0.164151  0.499043  1
  Si  Si15  1  0.827061  0.829056  0.989209  1
  Si  Si16  1  0.165108  0.164151  0.994570  1
  P  P17  1  0.776507  0.543341  0.266835  1
