# generated using pymatgen
data_Dy4Er12CdNi4Ag3
_symmetry_space_group_name_H-M   'P 1'
_cell_length_a   9.39264490
_cell_length_b   9.40664896
_cell_length_c   9.40665000
_cell_angle_alpha   59.99999633
_cell_angle_beta   59.95066350
_cell_angle_gamma   59.95066736
_symmetry_Int_Tables_number   1
_chemical_formula_structural   Dy4Er12CdNi4Ag3
_chemical_formula_sum   'Dy4 Er12 Cd1 Ni4 Ag3'
_cell_volume   587.24396640
_cell_formula_units_Z   1
loop_
 _symmetry_equiv_pos_site_id
 _symmetry_equiv_pos_as_xyz
  1  'x, y, z'
loop_
 _atom_site_type_symbol
 _atom_site_label
 _atom_site_symmetry_multiplicity
 _atom_site_fract_x
 _atom_site_fract_y
 _atom_site_fract_z
 _atom_site_occupancy
  Dy  Dy0  1  0.350209  0.349809  0.349809  1
  Dy  Dy1  1  0.350209  0.349809  0.950173  1
  Dy  Dy2  1  0.350209  0.950173  0.349809  1
  Dy  Dy3  1  0.947453  0.350849  0.350849  1
  Er  Er4  1  0.811686  0.188438  0.188438  1
  Er  Er5  1  0.188426  0.811551  0.811551  1
  Er  Er6  1  0.188426  0.811551  0.188471  1
  Er  Er7  1  0.811686  0.188438  0.811438  1
  Er  Er8  1  0.188426  0.188471  0.811551  1
  Er  Er9  1  0.811686  0.811438  0.188438  1
  Er  Er10  1  0.932880  0.564753  0.564753  1
  Er  Er11  1  0.563690  0.935850  0.935850  1
  Er  Er12  1  0.563690  0.935850  0.564609  1
  Er  Er13  1  0.932880  0.564753  0.937613  1
  Er  Er14  1  0.563690  0.564609  0.935850  1
  Er  Er15  1  0.932880  0.937613  0.564753  1
  Cd  Cd16  1  0.261519  0.579493  0.579493  1
  Ni  Ni17  1  0.142282  0.142582  0.142582  1
  Ni  Ni18  1  0.142282  0.142582  0.572555  1
  Ni  Ni19  1  0.142282  0.572555  0.142582  1
  Ni  Ni20  1  0.572643  0.142452  0.142452  1
  Ag  Ag21  1  0.583620  0.582740  0.582740  1
  Ag  Ag22  1  0.583620  0.582740  0.250898  1
  Ag  Ag23  1  0.583620  0.250898  0.582740  1
