# generated using pymatgen
data_Y4Lu6Si5Sn
_symmetry_space_group_name_H-M   'P 1'
_cell_length_a   8.40065496
_cell_length_b   8.44611173
_cell_length_c   6.26421200
_cell_angle_alpha   90.00000000
_cell_angle_beta   90.00000000
_cell_angle_gamma   119.99820623
_symmetry_Int_Tables_number   1
_chemical_formula_structural   Y4Lu6Si5Sn
_chemical_formula_sum   'Y4 Lu6 Si5 Sn1'
_cell_volume   384.92391814
_cell_formula_units_Z   1
loop_
 _symmetry_equiv_pos_site_id
 _symmetry_equiv_pos_as_xyz
  1  'x, y, z'
loop_
 _atom_site_type_symbol
 _atom_site_label
 _atom_site_symmetry_multiplicity
 _atom_site_fract_x
 _atom_site_fract_y
 _atom_site_fract_z
 _atom_site_occupancy
  Y  Y0  1  0.756508  0.757768  0.250000  1
  Y  Y1  1  0.766403  0.000563  0.750000  1
  Y  Y2  1  0.240297  0.250588  0.750000  1
  Y  Y3  1  0.240160  0.999647  0.250000  1
  Lu  Lu4  1  0.989455  0.746238  0.750000  1
  Lu  Lu5  1  0.998527  0.245405  0.250000  1
  Lu  Lu6  1  0.330548  0.657023  0.497153  1
  Lu  Lu7  1  0.674247  0.342732  0.002686  1
  Lu  Lu8  1  0.674247  0.342732  0.497314  1
  Lu  Lu9  1  0.330548  0.657023  0.002847  1
  Si  Si10  1  0.393098  0.393477  0.250000  1
  Si  Si11  1  0.001267  0.603862  0.250000  1
  Si  Si12  1  0.998440  0.398108  0.750000  1
  Si  Si13  1  0.604927  0.604963  0.750000  1
  Si  Si14  1  0.606027  0.001751  0.250000  1
  Sn  Sn15  1  0.395300  0.998120  0.750000  1
