# generated using pymatgen
data_MnH6F8
_symmetry_space_group_name_H-M   'P 1'
_cell_length_a   3.94358553
_cell_length_b   7.68481619
_cell_length_c   7.58994188
_cell_angle_alpha   77.74481386
_cell_angle_beta   72.36710754
_cell_angle_gamma   71.75686468
_symmetry_Int_Tables_number   1
_chemical_formula_structural   MnH6F8
_chemical_formula_sum   'Mn1 H6 F8'
_cell_volume   206.43353268
_cell_formula_units_Z   1
loop_
 _symmetry_equiv_pos_site_id
 _symmetry_equiv_pos_as_xyz
  1  'x, y, z'
loop_
 _atom_site_type_symbol
 _atom_site_label
 _atom_site_symmetry_multiplicity
 _atom_site_fract_x
 _atom_site_fract_y
 _atom_site_fract_z
 _atom_site_occupancy
  Mn  Mn0  1  0.951350  0.493759  0.819465  1
  H  H1  1  0.662090  0.999145  0.311349  1
  H  H2  1  0.536968  0.860784  0.847235  1
  H  H3  1  0.153908  0.124616  0.895198  1
  H  H4  1  0.669885  0.742336  0.272295  1
  H  H5  1  0.263678  0.648419  0.450105  1
  H  H6  1  0.427927  0.072557  0.575005  1
  F  F7  1  0.022961  0.668497  0.549088  1
  F  F8  1  0.587774  0.625103  0.310583  1
  F  F9  1  0.681357  0.749845  0.923069  1
  F  F10  1  0.494839  0.455493  0.784241  1
  F  F11  1  0.482747  0.127262  0.438996  1
  F  F12  1  0.338591  0.006358  0.762077  1
  F  F13  1  0.786232  0.904524  0.222109  1
  F  F14  1  0.026293  0.222026  0.982114  1
