# generated using pymatgen
data_Ac5PrTl10
_symmetry_space_group_name_H-M   'P 1'
_cell_length_a   7.00249722
_cell_length_b   7.00249802
_cell_length_c   11.02338800
_cell_angle_alpha   90.00000000
_cell_angle_beta   90.00000000
_cell_angle_gamma   102.72294202
_symmetry_Int_Tables_number   1
_chemical_formula_structural   Ac5PrTl10
_chemical_formula_sum   'Ac5 Pr1 Tl10'
_cell_volume   527.25955682
_cell_formula_units_Z   1
loop_
 _symmetry_equiv_pos_site_id
 _symmetry_equiv_pos_as_xyz
  1  'x, y, z'
loop_
 _atom_site_type_symbol
 _atom_site_label
 _atom_site_symmetry_multiplicity
 _atom_site_fract_x
 _atom_site_fract_y
 _atom_site_fract_z
 _atom_site_occupancy
  Ac  Ac0  1  0.634667  0.634667  0.250000  1
  Ac  Ac1  1  0.204294  0.793530  0.501141  1
  Ac  Ac2  1  0.204294  0.793530  0.998859  1
  Ac  Ac3  1  0.793530  0.204294  0.501141  1
  Ac  Ac4  1  0.793530  0.204294  0.998859  1
  Pr  Pr5  1  0.357725  0.357725  0.750000  1
  Tl  Tl6  1  0.017344  0.017344  0.250000  1
  Tl  Tl7  1  0.988960  0.988960  0.750000  1
  Tl  Tl8  1  0.306660  0.306660  0.041992  1
  Tl  Tl9  1  0.689162  0.689162  0.939829  1
  Tl  Tl10  1  0.306660  0.306660  0.458008  1
  Tl  Tl11  1  0.689162  0.689162  0.560171  1
  Tl  Tl12  1  0.493826  0.078894  0.250000  1
  Tl  Tl13  1  0.939886  0.501410  0.750000  1
  Tl  Tl14  1  0.501410  0.939886  0.750000  1
  Tl  Tl15  1  0.078894  0.493826  0.250000  1
