# generated using pymatgen
data_Tb12Si11Pd
_symmetry_space_group_name_H-M   'P 1'
_cell_length_a   3.88726400
_cell_length_b   5.75002363
_cell_length_c   23.96744258
_cell_angle_alpha   82.67862464
_cell_angle_beta   90.00000000
_cell_angle_gamma   90.00000000
_symmetry_Int_Tables_number   1
_chemical_formula_structural   Tb12Si11Pd
_chemical_formula_sum   'Tb12 Si11 Pd1'
_cell_volume   531.34920077
_cell_formula_units_Z   1
loop_
 _symmetry_equiv_pos_site_id
 _symmetry_equiv_pos_as_xyz
  1  'x, y, z'
loop_
 _atom_site_type_symbol
 _atom_site_label
 _atom_site_symmetry_multiplicity
 _atom_site_fract_x
 _atom_site_fract_y
 _atom_site_fract_z
 _atom_site_occupancy
  Tb  Tb0  1  0.750000  0.358018  0.062183  1
  Tb  Tb1  1  0.250000  0.661474  0.940345  1
  Tb  Tb2  1  0.750000  0.524360  0.223726  1
  Tb  Tb3  1  0.250000  0.469689  0.773688  1
  Tb  Tb4  1  0.750000  0.167166  0.392885  1
  Tb  Tb5  1  0.250000  0.827921  0.606499  1
  Tb  Tb6  1  0.750000  0.352018  0.559313  1
  Tb  Tb7  1  0.250000  0.643308  0.439330  1
  Tb  Tb8  1  0.750000  0.995313  0.726880  1
  Tb  Tb9  1  0.250000  0.994444  0.273920  1
  Tb  Tb10  1  0.750000  0.169035  0.893594  1
  Tb  Tb11  1  0.250000  0.838487  0.107031  1
  Si  Si12  1  0.750000  0.877320  0.012374  1
  Si  Si13  1  0.250000  0.147586  0.988335  1
  Si  Si14  1  0.750000  0.035901  0.180897  1
  Si  Si15  1  0.250000  0.954948  0.821503  1
  Si  Si16  1  0.750000  0.701797  0.345395  1
  Si  Si17  1  0.250000  0.290976  0.654090  1
  Si  Si18  1  0.750000  0.864180  0.511812  1
  Si  Si19  1  0.250000  0.132635  0.486993  1
  Si  Si20  1  0.750000  0.533801  0.678963  1
  Si  Si21  1  0.250000  0.460833  0.319815  1
  Si  Si22  1  0.750000  0.684052  0.846053  1
  Pd  Pd23  1  0.250000  0.314737  0.154375  1
