# generated using pymatgen
data_CeHoTc3Os
_symmetry_space_group_name_H-M   'P 1'
_cell_length_a   5.25566200
_cell_length_b   5.25566180
_cell_length_c   9.29737200
_cell_angle_alpha   90.00000000
_cell_angle_beta   90.00000000
_cell_angle_gamma   120.00001383
_symmetry_Int_Tables_number   1
_chemical_formula_structural   CeHoTc3Os
_chemical_formula_sum   'Ce2 Ho2 Tc6 Os2'
_cell_volume   222.40554834
_cell_formula_units_Z   2
loop_
 _symmetry_equiv_pos_site_id
 _symmetry_equiv_pos_as_xyz
  1  'x, y, z'
loop_
 _atom_site_type_symbol
 _atom_site_label
 _atom_site_symmetry_multiplicity
 _atom_site_fract_x
 _atom_site_fract_y
 _atom_site_fract_z
 _atom_site_occupancy
  Ce  Ce0  1  0.333333  0.666667  0.441417  1
  Ce  Ce1  1  0.666667  0.333333  0.558583  1
  Ho  Ho2  1  0.666667  0.333333  0.935757  1
  Ho  Ho3  1  0.333333  0.666667  0.064243  1
  Tc  Tc4  1  0.829515  0.170485  0.245341  1
  Tc  Tc5  1  0.829515  0.659032  0.245341  1
  Tc  Tc6  1  0.340968  0.170485  0.245341  1
  Tc  Tc7  1  0.170485  0.829515  0.754659  1
  Tc  Tc8  1  0.170485  0.340968  0.754659  1
  Tc  Tc9  1  0.659032  0.829515  0.754659  1
  Os  Os10  1  0.000000  0.000000  0.500000  1
  Os  Os11  1  0.000000  0.000000  0.000000  1
