# generated using pymatgen
data_Ta4Al6ZnFe
_symmetry_space_group_name_H-M   'P 1'
_cell_length_a   5.11952000
_cell_length_b   5.11952104
_cell_length_c   8.04746900
_cell_angle_alpha   90.00000000
_cell_angle_beta   90.00000000
_cell_angle_gamma   120.00000620
_symmetry_Int_Tables_number   1
_chemical_formula_structural   Ta4Al6ZnFe
_chemical_formula_sum   'Ta4 Al6 Zn1 Fe1'
_cell_volume   182.66211975
_cell_formula_units_Z   1
loop_
 _symmetry_equiv_pos_site_id
 _symmetry_equiv_pos_as_xyz
  1  'x, y, z'
loop_
 _atom_site_type_symbol
 _atom_site_label
 _atom_site_symmetry_multiplicity
 _atom_site_fract_x
 _atom_site_fract_y
 _atom_site_fract_z
 _atom_site_occupancy
  Ta  Ta0  1  0.666666  0.333334  0.064979  1
  Ta  Ta1  1  0.666666  0.333334  0.428532  1
  Ta  Ta2  1  0.333333  0.666666  0.571469  1
  Ta  Ta3  1  0.333333  0.666666  0.935022  1
  Al  Al4  1  0.169219  0.338438  0.259851  1
  Al  Al5  1  0.169219  0.830780  0.259851  1
  Al  Al6  1  0.661561  0.830780  0.259851  1
  Al  Al7  1  0.338437  0.169218  0.740149  1
  Al  Al8  1  0.830781  0.169218  0.740149  1
  Al  Al9  1  0.830780  0.661562  0.740149  1
  Zn  Zn10  1  0.000000  0.000000  0.000000  1
  Fe  Fe11  1  0.000000  0.000000  0.500000  1
