# generated using pymatgen
data_Nd3Tm4Th(CdIr)2
_symmetry_space_group_name_H-M   'P 1'
_cell_length_a   9.72296791
_cell_length_b   9.72296749
_cell_length_c   9.73297500
_cell_angle_alpha   59.96594293
_cell_angle_beta   59.96594439
_cell_angle_gamma   60.25188030
_symmetry_Int_Tables_number   1
_chemical_formula_structural   Nd3Tm4Th(CdIr)2
_chemical_formula_sum   'Nd6 Tm8 Th2 Cd4 Ir4'
_cell_volume   651.51375885
_cell_formula_units_Z   2
loop_
 _symmetry_equiv_pos_site_id
 _symmetry_equiv_pos_as_xyz
  1  'x, y, z'
loop_
 _atom_site_type_symbol
 _atom_site_label
 _atom_site_symmetry_multiplicity
 _atom_site_fract_x
 _atom_site_fract_y
 _atom_site_fract_z
 _atom_site_occupancy
  Nd  Nd0  1  0.940668  0.560598  0.560170  1
  Nd  Nd1  1  0.560598  0.940668  0.938564  1
  Nd  Nd2  1  0.560598  0.940668  0.560170  1
  Nd  Nd3  1  0.940668  0.560598  0.938564  1
  Nd  Nd4  1  0.561567  0.561567  0.938433  1
  Nd  Nd5  1  0.944186  0.944186  0.555814  1
  Tm  Tm6  1  0.349919  0.953040  0.348520  1
  Tm  Tm7  1  0.953040  0.349919  0.348520  1
  Tm  Tm8  1  0.814889  0.185914  0.185914  1
  Tm  Tm9  1  0.185914  0.814889  0.813282  1
  Tm  Tm10  1  0.185914  0.814889  0.185914  1
  Tm  Tm11  1  0.814889  0.185914  0.813282  1
  Tm  Tm12  1  0.183341  0.183341  0.816659  1
  Tm  Tm13  1  0.813444  0.813444  0.186556  1
  Th  Th14  1  0.345711  0.345711  0.350709  1
  Th  Th15  1  0.345711  0.345711  0.957869  1
  Cd  Cd16  1  0.580260  0.580260  0.576767  1
  Cd  Cd17  1  0.580260  0.580260  0.262714  1
  Cd  Cd18  1  0.581880  0.259276  0.579421  1
  Cd  Cd19  1  0.259276  0.581880  0.579421  1
  Ir  Ir20  1  0.140432  0.140432  0.144919  1
  Ir  Ir21  1  0.140432  0.140432  0.574216  1
  Ir  Ir22  1  0.142168  0.574230  0.141801  1
  Ir  Ir23  1  0.574230  0.142168  0.141801  1
