# generated using pymatgen
data_TiNb5Co16Si6P
_symmetry_space_group_name_H-M   'P 1'
_cell_length_a   7.90546558
_cell_length_b   7.88578864
_cell_length_c   7.88973411
_cell_angle_alpha   60.21410115
_cell_angle_beta   59.90098087
_cell_angle_gamma   59.95047383
_symmetry_Int_Tables_number   1
_chemical_formula_structural   TiNb5Co16Si6P
_chemical_formula_sum   'Ti1 Nb5 Co16 Si6 P1'
_cell_volume   347.95856648
_cell_formula_units_Z   1
loop_
 _symmetry_equiv_pos_site_id
 _symmetry_equiv_pos_as_xyz
  1  'x, y, z'
loop_
 _atom_site_type_symbol
 _atom_site_label
 _atom_site_symmetry_multiplicity
 _atom_site_fract_x
 _atom_site_fract_y
 _atom_site_fract_z
 _atom_site_occupancy
  Ti  Ti0  1  0.204264  0.793991  0.206009  1
  Nb  Nb1  1  0.202362  0.797600  0.798636  1
  Nb  Nb2  1  0.798891  0.795575  0.204425  1
  Nb  Nb3  1  0.798598  0.201364  0.202400  1
  Nb  Nb4  1  0.202402  0.203338  0.796662  1
  Nb  Nb5  1  0.797721  0.204117  0.795883  1
  Co  Co6  1  0.617917  0.619187  0.144267  1
  Co  Co7  1  0.166343  0.502183  0.165847  1
  Co  Co8  1  0.856897  0.380365  0.380364  1
  Co  Co9  1  0.497612  0.836870  0.837750  1
  Co  Co10  1  0.500017  0.163905  0.163486  1
  Co  Co11  1  0.834375  0.834153  0.497817  1
  Co  Co12  1  0.166735  0.166418  0.499847  1
  Co  Co13  1  0.142545  0.620057  0.619203  1
  Co  Co14  1  0.172232  0.162250  0.163130  1
  Co  Co15  1  0.381497  0.381659  0.855243  1
  Co  Co16  1  0.617627  0.619636  0.619635  1
  Co  Co17  1  0.381371  0.855733  0.380813  1
  Co  Co18  1  0.381805  0.380797  0.379943  1
  Co  Co19  1  0.827408  0.836514  0.836095  1
  Co  Co20  1  0.618398  0.144757  0.618341  1
  Co  Co21  1  0.833003  0.500153  0.833582  1
  Si  Si22  1  0.499958  0.999955  0.500118  1
  Si  Si23  1  0.498697  0.501401  0.001526  1
  Si  Si24  1  0.499402  0.500457  0.499543  1
  Si  Si25  1  0.001623  0.998474  0.498599  1
  Si  Si26  1  0.000031  0.499882  0.000045  1
  Si  Si27  1  0.001564  0.501172  0.498828  1
  P  P28  1  0.498706  0.998035  0.001965  1
