# generated using pymatgen
data_Dy3CuPt2Au3
_symmetry_space_group_name_H-M   'P 1'
_cell_length_a   7.56385900
_cell_length_b   7.56385835
_cell_length_c   3.67468400
_cell_angle_alpha   90.00000000
_cell_angle_beta   90.00000000
_cell_angle_gamma   120.00000724
_symmetry_Int_Tables_number   1
_chemical_formula_structural   Dy3CuPt2Au3
_chemical_formula_sum   'Dy3 Cu1 Pt2 Au3'
_cell_volume   182.06958811
_cell_formula_units_Z   1
loop_
 _symmetry_equiv_pos_site_id
 _symmetry_equiv_pos_as_xyz
  1  'x, y, z'
loop_
 _atom_site_type_symbol
 _atom_site_label
 _atom_site_symmetry_multiplicity
 _atom_site_fract_x
 _atom_site_fract_y
 _atom_site_fract_z
 _atom_site_occupancy
  Dy  Dy0  1  0.402074  0.000000  0.500000  1
  Dy  Dy1  1  0.000000  0.402074  0.500000  1
  Dy  Dy2  1  0.597926  0.597926  0.500000  1
  Cu  Cu3  1  0.000000  0.000000  0.500000  1
  Pt  Pt4  1  0.333333  0.666667  0.000000  1
  Pt  Pt5  1  0.666667  0.333333  0.000000  1
  Au  Au6  1  0.746946  0.000000  0.000000  1
  Au  Au7  1  0.000000  0.746946  0.000000  1
  Au  Au8  1  0.253054  0.253054  0.000000  1
