# generated using pymatgen
data_YbFe(Sb4Ru)3
_symmetry_space_group_name_H-M   'P 1'
_cell_length_a   8.10362304
_cell_length_b   8.10362251
_cell_length_c   8.10362280
_cell_angle_alpha   109.40876672
_cell_angle_beta   109.40877105
_cell_angle_gamma   109.40876488
_symmetry_Int_Tables_number   1
_chemical_formula_structural   YbFe(Sb4Ru)3
_chemical_formula_sum   'Yb1 Fe1 Sb12 Ru3'
_cell_volume   410.59713521
_cell_formula_units_Z   1
loop_
 _symmetry_equiv_pos_site_id
 _symmetry_equiv_pos_as_xyz
  1  'x, y, z'
loop_
 _atom_site_type_symbol
 _atom_site_label
 _atom_site_symmetry_multiplicity
 _atom_site_fract_x
 _atom_site_fract_y
 _atom_site_fract_z
 _atom_site_occupancy
  Yb  Yb0  1  0.000000  0.000000  0.000000  1
  Fe  Fe1  1  0.500000  0.500000  0.500000  1
  Sb  Sb2  1  0.837899  0.660371  0.504423  1
  Sb  Sb3  1  0.162101  0.339629  0.495577  1
  Sb  Sb4  1  0.157531  0.661449  0.818595  1
  Sb  Sb5  1  0.842469  0.338551  0.181405  1
  Sb  Sb6  1  0.660371  0.504423  0.837899  1
  Sb  Sb7  1  0.339629  0.495577  0.162101  1
  Sb  Sb8  1  0.661449  0.818595  0.157531  1
  Sb  Sb9  1  0.338551  0.181405  0.842469  1
  Sb  Sb10  1  0.504423  0.837899  0.660371  1
  Sb  Sb11  1  0.495577  0.162101  0.339629  1
  Sb  Sb12  1  0.181405  0.842469  0.338551  1
  Sb  Sb13  1  0.818595  0.157531  0.661449  1
  Ru  Ru14  1  0.500000  0.000000  0.000000  1
  Ru  Ru15  1  0.000000  0.500000  0.000000  1
  Ru  Ru16  1  0.000000  0.000000  0.500000  1
