# generated using pymatgen
data_Er4Tm6In8CoPt3
_symmetry_space_group_name_H-M   'P 1'
_cell_length_a   3.59983300
_cell_length_b   8.04548459
_cell_length_c   18.03621057
_cell_angle_alpha   89.92312487
_cell_angle_beta   90.00000000
_cell_angle_gamma   90.00000000
_symmetry_Int_Tables_number   1
_chemical_formula_structural   Er4Tm6In8CoPt3
_chemical_formula_sum   'Er4 Tm6 In8 Co1 Pt3'
_cell_volume   522.37149195
_cell_formula_units_Z   1
loop_
 _symmetry_equiv_pos_site_id
 _symmetry_equiv_pos_as_xyz
  1  'x, y, z'
loop_
 _atom_site_type_symbol
 _atom_site_label
 _atom_site_symmetry_multiplicity
 _atom_site_fract_x
 _atom_site_fract_y
 _atom_site_fract_z
 _atom_site_occupancy
  Er  Er0  1  0.000000  0.256610  0.720813  1
  Er  Er1  1  0.000000  0.755917  0.279821  1
  Er  Er2  1  0.000000  0.999796  0.000989  1
  Er  Er3  1  0.000000  0.500596  0.498808  1
  Tm  Tm4  1  0.000000  0.112550  0.408519  1
  Tm  Tm5  1  0.000000  0.883500  0.584418  1
  Tm  Tm6  1  0.000000  0.383203  0.914936  1
  Tm  Tm7  1  0.000000  0.617437  0.087449  1
  Tm  Tm8  1  0.000000  0.234182  0.223852  1
  Tm  Tm9  1  0.000000  0.757398  0.778914  1
  In  In10  1  0.500000  0.421419  0.351317  1
  In  In11  1  0.500000  0.576321  0.647606  1
  In  In12  1  0.500000  0.075618  0.852169  1
  In  In13  1  0.500000  0.929047  0.151933  1
  In  In14  1  0.500000  0.292310  0.067870  1
  In  In15  1  0.500000  0.708005  0.934089  1
  In  In16  1  0.500000  0.207545  0.564694  1
  In  In17  1  0.500000  0.795973  0.430020  1
  Co  Co18  1  0.500000  0.020184  0.305024  1
  Pt  Pt19  1  0.500000  0.974470  0.695549  1
  Pt  Pt20  1  0.500000  0.476328  0.804252  1
  Pt  Pt21  1  0.500000  0.521592  0.196955  1
