# generated using pymatgen
data_TbTmCuSiI2
_symmetry_space_group_name_H-M   'P 1'
_cell_length_a   4.07626800
_cell_length_b   4.07626781
_cell_length_c   11.81723100
_cell_angle_alpha   90.00000000
_cell_angle_beta   90.00000000
_cell_angle_gamma   119.99998530
_symmetry_Int_Tables_number   1
_chemical_formula_structural   TbTmCuSiI2
_chemical_formula_sum   'Tb1 Tm1 Cu1 Si1 I2'
_cell_volume   170.04812990
_cell_formula_units_Z   1
loop_
 _symmetry_equiv_pos_site_id
 _symmetry_equiv_pos_as_xyz
  1  'x, y, z'
loop_
 _atom_site_type_symbol
 _atom_site_label
 _atom_site_symmetry_multiplicity
 _atom_site_fract_x
 _atom_site_fract_y
 _atom_site_fract_z
 _atom_site_occupancy
  Tb  Tb0  1  0.000000  0.000000  0.838757  1
  Tm  Tm1  1  0.000000  0.000000  0.159447  1
  Cu  Cu2  1  0.333333  0.666667  0.014185  1
  Si  Si3  1  0.666667  0.333333  0.992820  1
  I  I4  1  0.333333  0.666667  0.663522  1
  I  I5  1  0.666667  0.333333  0.331267  1
