# generated using pymatgen
data_Nd16Cd4IrPd2Pt
_symmetry_space_group_name_H-M   'P 1'
_cell_length_a   10.04149356
_cell_length_b   10.00858085
_cell_length_c   10.00858070
_cell_angle_alpha   59.93541597
_cell_angle_beta   60.10292677
_cell_angle_gamma   60.10293059
_symmetry_Int_Tables_number   1
_chemical_formula_structural   Nd16Cd4IrPd2Pt
_chemical_formula_sum   'Nd16 Cd4 Ir1 Pd2 Pt1'
_cell_volume   712.01500199
_cell_formula_units_Z   1
loop_
 _symmetry_equiv_pos_site_id
 _symmetry_equiv_pos_as_xyz
  1  'x, y, z'
loop_
 _atom_site_type_symbol
 _atom_site_label
 _atom_site_symmetry_multiplicity
 _atom_site_fract_x
 _atom_site_fract_y
 _atom_site_fract_z
 _atom_site_occupancy
  Nd  Nd0  1  0.351949  0.347506  0.347506  1
  Nd  Nd1  1  0.354303  0.349023  0.947768  1
  Nd  Nd2  1  0.354303  0.947768  0.349023  1
  Nd  Nd3  1  0.937873  0.354158  0.354158  1
  Nd  Nd4  1  0.807581  0.189795  0.189795  1
  Nd  Nd5  1  0.192029  0.808273  0.808273  1
  Nd  Nd6  1  0.193994  0.811063  0.189943  1
  Nd  Nd7  1  0.805743  0.188692  0.814317  1
  Nd  Nd8  1  0.193994  0.189943  0.811063  1
  Nd  Nd9  1  0.805743  0.814317  0.188692  1
  Nd  Nd10  1  0.941197  0.563472  0.563472  1
  Nd  Nd11  1  0.564477  0.936864  0.936864  1
  Nd  Nd12  1  0.566535  0.938227  0.560564  1
  Nd  Nd13  1  0.937999  0.560357  0.936222  1
  Nd  Nd14  1  0.566535  0.560564  0.938227  1
  Nd  Nd15  1  0.937999  0.936222  0.560357  1
  Cd  Cd16  1  0.579715  0.580979  0.580979  1
  Cd  Cd17  1  0.579477  0.581334  0.257449  1
  Cd  Cd18  1  0.579477  0.257449  0.581334  1
  Cd  Cd19  1  0.258666  0.580096  0.580096  1
  Ir  Ir20  1  0.570781  0.142761  0.142761  1
  Pd  Pd21  1  0.139854  0.144435  0.570104  1
  Pd  Pd22  1  0.139854  0.570104  0.144435  1
  Pt  Pt23  1  0.139918  0.146596  0.146596  1
