# generated using pymatgen
data_Er6Zn20Ag3Se
_symmetry_space_group_name_H-M   'P 1'
_cell_length_a   9.08631895
_cell_length_b   9.08635232
_cell_length_c   9.09417400
_cell_angle_alpha   59.97146389
_cell_angle_beta   59.97122939
_cell_angle_gamma   59.95828012
_symmetry_Int_Tables_number   1
_chemical_formula_structural   Er6Zn20Ag3Se
_chemical_formula_sum   'Er6 Zn20 Ag3 Se1'
_cell_volume   530.51856212
_cell_formula_units_Z   1
loop_
 _symmetry_equiv_pos_site_id
 _symmetry_equiv_pos_as_xyz
  1  'x, y, z'
loop_
 _atom_site_type_symbol
 _atom_site_label
 _atom_site_symmetry_multiplicity
 _atom_site_fract_x
 _atom_site_fract_y
 _atom_site_fract_z
 _atom_site_occupancy
  Er  Er0  1  0.715961  0.284549  0.283957  1
  Er  Er1  1  0.715965  0.284541  0.715538  1
  Er  Er2  1  0.714592  0.714601  0.285402  1
  Er  Er3  1  0.284546  0.715968  0.715534  1
  Er  Er4  1  0.284544  0.715969  0.283950  1
  Er  Er5  1  0.283312  0.283317  0.716684  1
  Zn  Zn6  1  0.125711  0.125711  0.622804  1
  Zn  Zn7  1  0.125714  0.125712  0.125772  1
  Zn  Zn8  1  0.376023  0.873206  0.875386  1
  Zn  Zn9  1  0.873203  0.376022  0.875388  1
  Zn  Zn10  1  0.874679  0.874680  0.374237  1
  Zn  Zn11  1  0.874677  0.874679  0.876407  1
  Zn  Zn12  1  0.497992  0.998728  0.999026  1
  Zn  Zn13  1  0.497994  0.998726  0.504253  1
  Zn  Zn14  1  0.501564  0.501565  0.998436  1
  Zn  Zn15  1  0.998726  0.497991  0.504255  1
  Zn  Zn16  1  0.998726  0.497992  0.999027  1
  Zn  Zn17  1  0.999498  0.999497  0.500503  1
  Zn  Zn18  1  0.006392  0.330246  0.331681  1
  Zn  Zn19  1  0.330252  0.006391  0.331679  1
  Zn  Zn20  1  0.330747  0.330744  0.005498  1
  Zn  Zn21  1  0.330749  0.330743  0.333012  1
  Zn  Zn22  1  0.992328  0.668909  0.669383  1
  Zn  Zn23  1  0.668914  0.992328  0.669378  1
  Zn  Zn24  1  0.669080  0.669079  0.993248  1
  Zn  Zn25  1  0.669078  0.669077  0.668596  1
  Ag  Ag26  1  0.628778  0.123505  0.123857  1
  Ag  Ag27  1  0.123506  0.628776  0.123858  1
  Ag  Ag28  1  0.007333  0.007332  0.992664  1
  Se  Se29  1  0.499413  0.499414  0.500585  1
