# generated using pymatgen
data_Hf6Zn21Rh2C
_symmetry_space_group_name_H-M   'P 1'
_cell_length_a   8.72530155
_cell_length_b   8.70787934
_cell_length_c   8.72530100
_cell_angle_alpha   60.06602954
_cell_angle_beta   59.47424667
_cell_angle_gamma   60.06602499
_symmetry_Int_Tables_number   1
_chemical_formula_structural   Hf6Zn21Rh2C
_chemical_formula_sum   'Hf6 Zn21 Rh2 C1'
_cell_volume   467.33918558
_cell_formula_units_Z   1
loop_
 _symmetry_equiv_pos_site_id
 _symmetry_equiv_pos_as_xyz
  1  'x, y, z'
loop_
 _atom_site_type_symbol
 _atom_site_label
 _atom_site_symmetry_multiplicity
 _atom_site_fract_x
 _atom_site_fract_y
 _atom_site_fract_z
 _atom_site_occupancy
  Hf  Hf0  1  0.683414  0.310169  0.316586  1
  Hf  Hf1  1  0.316586  0.689831  0.683414  1
  Hf  Hf2  1  0.311554  0.688446  0.311554  1
  Hf  Hf3  1  0.688446  0.311554  0.688446  1
  Hf  Hf4  1  0.316586  0.310169  0.683414  1
  Hf  Hf5  1  0.683414  0.689831  0.316586  1
  Zn  Zn6  1  0.119503  0.118291  0.119503  1
  Zn  Zn7  1  0.880497  0.881709  0.880497  1
  Zn  Zn8  1  0.125090  0.117237  0.640439  1
  Zn  Zn9  1  0.119503  0.642705  0.119503  1
  Zn  Zn10  1  0.874910  0.882763  0.359561  1
  Zn  Zn11  1  0.880497  0.357295  0.880497  1
  Zn  Zn12  1  0.640439  0.117237  0.125090  1
  Zn  Zn13  1  0.359561  0.882763  0.874910  1
  Zn  Zn14  1  0.500000  0.000000  0.000000  1
  Zn  Zn15  1  0.000000  0.500000  0.500000  1
  Zn  Zn16  1  0.000000  0.500000  0.000000  1
  Zn  Zn17  1  0.000000  0.000000  0.500000  1
  Zn  Zn18  1  0.500000  0.500000  0.000000  1
  Zn  Zn19  1  0.331940  0.332611  0.331940  1
  Zn  Zn20  1  0.668060  0.667389  0.668060  1
  Zn  Zn21  1  0.331372  0.333292  0.002046  1
  Zn  Zn22  1  0.331940  0.003509  0.331940  1
  Zn  Zn23  1  0.668628  0.666708  0.997954  1
  Zn  Zn24  1  0.668060  0.996491  0.668060  1
  Zn  Zn25  1  0.002046  0.333292  0.331372  1
  Zn  Zn26  1  0.997954  0.666708  0.668628  1
  Rh  Rh27  1  0.500000  0.000000  0.500000  1
  Rh  Rh28  1  0.000000  0.000000  0.000000  1
  C  C29  1  0.500000  0.500000  0.500000  1
