# generated using pymatgen
data_Sm3TiFeC6
_symmetry_space_group_name_H-M   'P 1'
_cell_length_a   8.31858800
_cell_length_b   8.31858741
_cell_length_c   5.13678900
_cell_angle_alpha   90.00000000
_cell_angle_beta   90.00000000
_cell_angle_gamma   119.99998646
_symmetry_Int_Tables_number   1
_chemical_formula_structural   Sm3TiFeC6
_chemical_formula_sum   'Sm6 Ti2 Fe2 C12'
_cell_volume   307.83756659
_cell_formula_units_Z   2
loop_
 _symmetry_equiv_pos_site_id
 _symmetry_equiv_pos_as_xyz
  1  'x, y, z'
loop_
 _atom_site_type_symbol
 _atom_site_label
 _atom_site_symmetry_multiplicity
 _atom_site_fract_x
 _atom_site_fract_y
 _atom_site_fract_z
 _atom_site_occupancy
  Sm  Sm0  1  0.617198  0.677278  0.750000  1
  Sm  Sm1  1  0.939921  0.617198  0.250000  1
  Sm  Sm2  1  0.677278  0.060079  0.250000  1
  Sm  Sm3  1  0.322722  0.939921  0.750000  1
  Sm  Sm4  1  0.060079  0.382802  0.750000  1
  Sm  Sm5  1  0.382802  0.322722  0.250000  1
  Ti  Ti6  1  0.000000  0.000000  0.500000  1
  Ti  Ti7  1  0.000000  0.000000  0.000000  1
  Fe  Fe8  1  0.666667  0.333333  0.750000  1
  Fe  Fe9  1  0.333333  0.666667  0.250000  1
  C  C10  1  0.956155  0.758469  0.750000  1
  C  C11  1  0.197686  0.956155  0.250000  1
  C  C12  1  0.758469  0.802314  0.250000  1
  C  C13  1  0.241531  0.197686  0.750000  1
  C  C14  1  0.802314  0.043845  0.750000  1
  C  C15  1  0.043845  0.241531  0.250000  1
  C  C16  1  0.861342  0.569314  0.750000  1
  C  C17  1  0.292027  0.861342  0.250000  1
  C  C18  1  0.569314  0.707973  0.250000  1
  C  C19  1  0.430686  0.292027  0.750000  1
  C  C20  1  0.138658  0.430686  0.250000  1
  C  C21  1  0.707973  0.138658  0.750000  1
