# generated using pymatgen
data_Li12Sm5Y7(WO6)8
_symmetry_space_group_name_H-M   'P 1'
_cell_length_a   10.75805780
_cell_length_b   10.76691720
_cell_length_c   10.75884385
_cell_angle_alpha   109.49049306
_cell_angle_beta   109.40556446
_cell_angle_gamma   109.48545461
_symmetry_Int_Tables_number   1
_chemical_formula_structural   Li12Sm5Y7(WO6)8
_chemical_formula_sum   'Li12 Sm5 Y7 W8 O48'
_cell_volume   959.71201191
_cell_formula_units_Z   1
loop_
 _symmetry_equiv_pos_site_id
 _symmetry_equiv_pos_as_xyz
  1  'x, y, z'
loop_
 _atom_site_type_symbol
 _atom_site_label
 _atom_site_symmetry_multiplicity
 _atom_site_fract_x
 _atom_site_fract_y
 _atom_site_fract_z
 _atom_site_occupancy
  Li  Li0  1  0.750070  0.375758  0.126212  1
  Li  Li1  1  0.876156  0.750447  0.126193  1
  Li  Li2  1  0.125408  0.375438  0.249994  1
  Li  Li3  1  0.624923  0.874965  0.250525  1
  Li  Li4  1  0.249542  0.123824  0.373826  1
  Li  Li5  1  0.624932  0.249963  0.374444  1
  Li  Li6  1  0.374274  0.749974  0.623811  1
  Li  Li7  1  0.749563  0.874190  0.623672  1
  Li  Li8  1  0.374563  0.124567  0.749975  1
  Li  Li9  1  0.875565  0.625040  0.749960  1
  Li  Li10  1  0.125520  0.250483  0.875550  1
  Li  Li11  1  0.249529  0.625351  0.875863  1
  Sm  Sm12  1  0.248545  0.374284  0.624253  1
  Sm  Sm13  1  0.625400  0.374766  0.749562  1
  Sm  Sm14  1  0.125054  0.875077  0.750135  1
  Sm  Sm15  1  0.750878  0.125377  0.875508  1
  Sm  Sm16  1  0.625455  0.750758  0.875913  1
  Y  Y17  1  0.375480  0.250834  0.125943  1
  Y  Y18  1  0.250507  0.875202  0.125885  1
  Y  Y19  1  0.874820  0.125255  0.250680  1
  Y  Y20  1  0.375062  0.624907  0.249957  1
  Y  Y21  1  0.124877  0.749503  0.374006  1
  Y  Y22  1  0.749006  0.624424  0.373996  1
  Y  Y23  1  0.874853  0.249488  0.623991  1
  W  W24  1  0.001954  0.000876  0.002462  1
  W  W25  1  0.001850  0.501330  0.000641  1
  W  W26  1  0.499932  0.500066  0.001758  1
  W  W27  1  0.500581  0.001715  0.002535  1
  W  W28  1  0.499488  0.998539  0.498130  1
  W  W29  1  0.997948  0.499137  0.498366  1
  W  W30  1  0.998379  0.998405  0.497943  1
  W  W31  1  0.499859  0.499925  0.498163  1
  O  O32  1  0.326891  0.408323  0.028345  1
  O  O33  1  0.201628  0.620147  0.028390  1
  O  O34  1  0.700378  0.174384  0.084610  1
  O  O35  1  0.884072  0.910173  0.084470  1
  O  O36  1  0.619848  0.921315  0.094327  1
  O  O37  1  0.974409  0.173067  0.094067  1
  O  O38  1  0.591940  0.419053  0.120207  1
  O  O39  1  0.027906  0.700689  0.119500  1
  O  O40  1  0.201907  0.081597  0.173703  1
  O  O41  1  0.471829  0.092195  0.173966  1
  O  O42  1  0.119670  0.527324  0.200160  1
  O  O43  1  0.581253  0.673225  0.201370  1
  O  O44  1  0.326883  0.418792  0.298701  1
  O  O45  1  0.471793  0.879719  0.298289  1
  O  O46  1  0.907471  0.527352  0.326568  1
  O  O47  1  0.918180  0.798576  0.326397  1
  O  O48  1  0.581127  0.407977  0.379725  1
  O  O49  1  0.299990  0.972603  0.380225  1
  O  O50  1  0.826603  0.027039  0.407263  1
  O  O51  1  0.078528  0.380302  0.405990  1
  O  O52  1  0.826436  0.298927  0.418454  1
  O  O53  1  0.089663  0.115795  0.415840  1
  O  O54  1  0.591662  0.672955  0.471678  1
  O  O55  1  0.380782  0.799281  0.472027  1
  O  O56  1  0.619122  0.198040  0.525136  1
  O  O57  1  0.408243  0.326305  0.523584  1
  O  O58  1  0.172052  0.697650  0.578795  1
  O  O59  1  0.906215  0.880169  0.578771  1
  O  O60  1  0.915550  0.615901  0.589427  1
  O  O61  1  0.173180  0.974487  0.589720  1
  O  O62  1  0.699142  0.025150  0.615286  1
  O  O63  1  0.417894  0.591485  0.615275  1
  O  O64  1  0.078543  0.197297  0.672045  1
  O  O65  1  0.089934  0.474811  0.673137  1
  O  O66  1  0.523886  0.115246  0.696788  1
  O  O67  1  0.673374  0.581684  0.697086  1
  O  O68  1  0.418010  0.326551  0.802780  1
  O  O69  1  0.884607  0.474782  0.801020  1
  O  O70  1  0.803604  0.918746  0.827235  1
  O  O71  1  0.523815  0.908713  0.827249  1
  O  O72  1  0.974781  0.301929  0.881115  1
  O  O73  1  0.408293  0.581881  0.884683  1
  O  O74  1  0.384321  0.084217  0.910752  1
  O  O75  1  0.026396  0.826421  0.910679  1
  O  O76  1  0.119696  0.093724  0.921297  1
  O  O77  1  0.301763  0.827727  0.921418  1
  O  O78  1  0.803140  0.384641  0.976305  1
  O  O79  1  0.673620  0.591765  0.976293  1
