# generated using pymatgen
data_TiOs2Cl13
_symmetry_space_group_name_H-M   'P 1'
_cell_length_a   10.99270200
_cell_length_b   9.95973802
_cell_length_c   10.60820985
_cell_angle_alpha   85.04094700
_cell_angle_beta   90.00000000
_cell_angle_gamma   90.00000000
_symmetry_Int_Tables_number   1
_chemical_formula_structural   TiOs2Cl13
_chemical_formula_sum   'Ti2 Os4 Cl26'
_cell_volume   1157.08627114
_cell_formula_units_Z   2
loop_
 _symmetry_equiv_pos_site_id
 _symmetry_equiv_pos_as_xyz
  1  'x, y, z'
loop_
 _atom_site_type_symbol
 _atom_site_label
 _atom_site_symmetry_multiplicity
 _atom_site_fract_x
 _atom_site_fract_y
 _atom_site_fract_z
 _atom_site_occupancy
  Ti  Ti0  1  0.250000  0.261017  0.498312  1
  Ti  Ti1  1  0.750000  0.738983  0.501688  1
  Os  Os2  1  0.250000  0.824290  0.085609  1
  Os  Os3  1  0.750000  0.175710  0.914391  1
  Os  Os4  1  0.250000  0.685659  0.880400  1
  Os  Os5  1  0.750000  0.314341  0.119600  1
  Cl  Cl6  1  0.587681  0.821549  0.585509  1
  Cl  Cl7  1  0.087681  0.178451  0.414491  1
  Cl  Cl8  1  0.750000  0.419614  0.904978  1
  Cl  Cl9  1  0.250000  0.580386  0.095022  1
  Cl  Cl10  1  0.915402  0.169401  0.065443  1
  Cl  Cl11  1  0.415402  0.830599  0.934557  1
  Cl  Cl12  1  0.084598  0.830599  0.934557  1
  Cl  Cl13  1  0.584598  0.169401  0.065443  1
  Cl  Cl14  1  0.750000  0.204972  0.315468  1
  Cl  Cl15  1  0.250000  0.795028  0.684532  1
  Cl  Cl16  1  0.896945  0.461388  0.170428  1
  Cl  Cl17  1  0.396945  0.538612  0.829572  1
  Cl  Cl18  1  0.103055  0.538612  0.829572  1
  Cl  Cl19  1  0.603055  0.461388  0.170428  1
  Cl  Cl20  1  0.750000  0.947104  0.935042  1
  Cl  Cl21  1  0.250000  0.052896  0.064958  1
  Cl  Cl22  1  0.896749  0.185085  0.762708  1
  Cl  Cl23  1  0.396749  0.814915  0.237292  1
  Cl  Cl24  1  0.103251  0.814915  0.237292  1
  Cl  Cl25  1  0.603251  0.185085  0.762708  1
  Cl  Cl26  1  0.750000  0.795566  0.298378  1
  Cl  Cl27  1  0.250000  0.204434  0.701622  1
  Cl  Cl28  1  0.750000  0.519256  0.537612  1
  Cl  Cl29  1  0.250000  0.480744  0.462388  1
  Cl  Cl30  1  0.912319  0.821549  0.585509  1
  Cl  Cl31  1  0.412319  0.178451  0.414491  1
