# generated using pymatgen
data_CaYb3(W2C3)2
_symmetry_space_group_name_H-M   'P 1'
_cell_length_a   6.58660200
_cell_length_b   5.92367600
_cell_length_c   11.90816067
_cell_angle_alpha   66.65468367
_cell_angle_beta   90.00000000
_cell_angle_gamma   90.00000000
_symmetry_Int_Tables_number   1
_chemical_formula_structural   CaYb3(W2C3)2
_chemical_formula_sum   'Ca2 Yb6 W8 C12'
_cell_volume   426.58258251
_cell_formula_units_Z   2
loop_
 _symmetry_equiv_pos_site_id
 _symmetry_equiv_pos_as_xyz
  1  'x, y, z'
loop_
 _atom_site_type_symbol
 _atom_site_label
 _atom_site_symmetry_multiplicity
 _atom_site_fract_x
 _atom_site_fract_y
 _atom_site_fract_z
 _atom_site_occupancy
  Ca  Ca0  1  0.004839  0.268534  0.365424  1
  Ca  Ca1  1  0.504839  0.731466  0.134576  1
  Yb  Yb2  1  0.794527  0.663492  0.902816  1
  Yb  Yb3  1  0.294527  0.336508  0.597184  1
  Yb  Yb4  1  0.204339  0.329336  0.094184  1
  Yb  Yb5  1  0.704339  0.670664  0.405816  1
  Yb  Yb6  1  0.993028  0.733509  0.634991  1
  Yb  Yb7  1  0.493028  0.266491  0.865009  1
  W  W8  1  0.987480  0.830908  0.120599  1
  W  W9  1  0.487480  0.169092  0.379401  1
  W  W10  1  0.011518  0.173540  0.875460  1
  W  W11  1  0.511518  0.826460  0.624540  1
  W  W12  1  0.765113  0.187298  0.659850  1
  W  W13  1  0.234809  0.811694  0.340423  1
  W  W14  1  0.734809  0.188306  0.159577  1
  W  W15  1  0.265113  0.812702  0.840150  1
  C  C16  1  0.644401  0.511873  0.652299  1
  C  C17  1  0.144401  0.488127  0.847701  1
  C  C18  1  0.357496  0.485360  0.352711  1
  C  C19  1  0.857496  0.514640  0.147289  1
  C  C20  1  0.209690  0.897317  0.989492  1
  C  C21  1  0.709690  0.102683  0.510508  1
  C  C22  1  0.793368  0.116386  0.007400  1
  C  C23  1  0.293368  0.883614  0.492600  1
  C  C24  1  0.469866  0.029434  0.241748  1
  C  C25  1  0.029525  0.026677  0.740686  1
  C  C26  1  0.969866  0.970566  0.258252  1
  C  C27  1  0.529525  0.973323  0.759314  1
