# generated using pymatgen
data_Tb10Dy9TmSn16
_symmetry_space_group_name_H-M   'P 1'
_cell_length_a   8.04108004
_cell_length_b   8.19008581
_cell_length_c   15.47785408
_cell_angle_alpha   90.00716152
_cell_angle_beta   89.99120570
_cell_angle_gamma   89.95601623
_symmetry_Int_Tables_number   1
_chemical_formula_structural   Tb10Dy9TmSn16
_chemical_formula_sum   'Tb10 Dy9 Tm1 Sn16'
_cell_volume   1019.32681329
_cell_formula_units_Z   1
loop_
 _symmetry_equiv_pos_site_id
 _symmetry_equiv_pos_as_xyz
  1  'x, y, z'
loop_
 _atom_site_type_symbol
 _atom_site_label
 _atom_site_symmetry_multiplicity
 _atom_site_fract_x
 _atom_site_fract_y
 _atom_site_fract_z
 _atom_site_occupancy
  Tb  Tb0  1  0.367241  0.836116  0.622100  1
  Tb  Tb1  1  0.867891  0.663419  0.877956  1
  Tb  Tb2  1  0.519883  0.320548  0.902035  1
  Tb  Tb3  1  0.020272  0.180012  0.597982  1
  Tb  Tb4  1  0.480028  0.679752  0.402385  1
  Tb  Tb5  1  0.979907  0.820178  0.097801  1
  Tb  Tb6  1  0.480014  0.679752  0.097553  1
  Tb  Tb7  1  0.979901  0.820197  0.402243  1
  Tb  Tb8  1  0.519920  0.320611  0.597991  1
  Tb  Tb9  1  0.020320  0.179964  0.902009  1
  Dy  Dy10  1  0.367146  0.836168  0.877880  1
  Dy  Dy11  1  0.867787  0.663394  0.622078  1
  Dy  Dy12  1  0.632563  0.163741  0.378231  1
  Dy  Dy13  1  0.132563  0.336286  0.121422  1
  Dy  Dy14  1  0.632564  0.163761  0.121808  1
  Dy  Dy15  1  0.132580  0.336235  0.378529  1
  Dy  Dy16  1  0.698581  0.997905  0.749994  1
  Dy  Dy17  1  0.801080  0.497462  0.250000  1
  Dy  Dy18  1  0.301054  0.002484  0.249980  1
  Tm  Tm19  1  0.199220  0.502608  0.750024  1
  Sn  Sn20  1  0.292818  0.035539  0.041681  1
  Sn  Sn21  1  0.792600  0.464069  0.458329  1
  Sn  Sn22  1  0.707543  0.964308  0.542063  1
  Sn  Sn23  1  0.207569  0.535405  0.957311  1
  Sn  Sn24  1  0.707048  0.964519  0.957950  1
  Sn  Sn25  1  0.207143  0.535214  0.542663  1
  Sn  Sn26  1  0.292687  0.035716  0.458157  1
  Sn  Sn27  1  0.792572  0.463908  0.041839  1
  Sn  Sn28  1  0.564305  0.618312  0.749975  1
  Sn  Sn29  1  0.065506  0.880643  0.749981  1
  Sn  Sn30  1  0.434389  0.381150  0.250019  1
  Sn  Sn31  1  0.934668  0.118969  0.250022  1
  Sn  Sn32  1  0.328095  0.148221  0.750054  1
  Sn  Sn33  1  0.829209  0.353880  0.749922  1
  Sn  Sn34  1  0.671502  0.853757  0.250015  1
  Sn  Sn35  1  0.171828  0.645801  0.250021  1
