# generated using pymatgen
data_Tb15Y(In3Os)2
_symmetry_space_group_name_H-M   'P 1'
_cell_length_a   10.44003000
_cell_length_b   10.44003033
_cell_length_c   7.13233100
_cell_angle_alpha   90.00000000
_cell_angle_beta   90.00000000
_cell_angle_gamma   120.00000529
_symmetry_Int_Tables_number   1
_chemical_formula_structural   Tb15Y(In3Os)2
_chemical_formula_sum   'Tb15 Y1 In6 Os2'
_cell_volume   673.23332506
_cell_formula_units_Z   1
loop_
 _symmetry_equiv_pos_site_id
 _symmetry_equiv_pos_as_xyz
  1  'x, y, z'
loop_
 _atom_site_type_symbol
 _atom_site_label
 _atom_site_symmetry_multiplicity
 _atom_site_fract_x
 _atom_site_fract_y
 _atom_site_fract_z
 _atom_site_occupancy
  Tb  Tb0  1  0.465531  0.534469  0.479910  1
  Tb  Tb1  1  0.068937  0.534469  0.479910  1
  Tb  Tb2  1  0.465531  0.931063  0.479910  1
  Tb  Tb3  1  0.534516  0.465484  0.980051  1
  Tb  Tb4  1  0.930970  0.465484  0.980051  1
  Tb  Tb5  1  0.534516  0.069030  0.980051  1
  Tb  Tb6  1  0.823188  0.176812  0.275752  1
  Tb  Tb7  1  0.353623  0.176812  0.275752  1
  Tb  Tb8  1  0.823188  0.646377  0.275752  1
  Tb  Tb9  1  0.176870  0.823130  0.775777  1
  Tb  Tb10  1  0.646259  0.823130  0.775777  1
  Tb  Tb11  1  0.176870  0.353741  0.775777  1
  Tb  Tb12  1  0.333333  0.666667  0.102576  1
  Tb  Tb13  1  0.666667  0.333333  0.602976  1
  Tb  Tb14  1  0.000000  0.000000  0.495572  1
  Y  Y15  1  0.000000  0.000000  0.995777  1
  In  In16  1  0.162761  0.837239  0.233133  1
  In  In17  1  0.674479  0.837239  0.233133  1
  In  In18  1  0.162761  0.325521  0.233133  1
  In  In19  1  0.837268  0.162732  0.733471  1
  In  In20  1  0.325464  0.162732  0.733471  1
  In  In21  1  0.837268  0.674536  0.733471  1
  Os  Os22  1  0.333333  0.666667  0.706426  1
  Os  Os23  1  0.666667  0.333333  0.206948  1
