# generated using pymatgen
data_Ca3Dy2Ho(Si3Ru)8
_symmetry_space_group_name_H-M   'P 1'
_cell_length_a   10.17370412
_cell_length_b   10.17370368
_cell_length_c   8.15627200
_cell_angle_alpha   89.99125028
_cell_angle_beta   89.99125401
_cell_angle_gamma   132.72008926
_symmetry_Int_Tables_number   1
_chemical_formula_structural   Ca3Dy2Ho(Si3Ru)8
_chemical_formula_sum   'Ca3 Dy2 Ho1 Si24 Ru8'
_cell_volume   620.22056872
_cell_formula_units_Z   1
loop_
 _symmetry_equiv_pos_site_id
 _symmetry_equiv_pos_as_xyz
  1  'x, y, z'
loop_
 _atom_site_type_symbol
 _atom_site_label
 _atom_site_symmetry_multiplicity
 _atom_site_fract_x
 _atom_site_fract_y
 _atom_site_fract_z
 _atom_site_occupancy
  Ca  Ca0  1  0.500084  0.499916  0.500000  1
  Ca  Ca1  1  0.500920  0.000774  0.749805  1
  Ca  Ca2  1  0.999226  0.499080  0.250195  1
  Dy  Dy3  1  0.498392  0.998420  0.250147  1
  Dy  Dy4  1  0.001580  0.501608  0.749853  1
  Ho  Ho5  1  0.999978  0.000022  0.000000  1
  Si  Si6  1  0.795054  0.204946  0.500000  1
  Si  Si7  1  0.294208  0.705792  0.000000  1
  Si  Si8  1  0.205512  0.794488  0.500000  1
  Si  Si9  1  0.705263  0.294737  0.000000  1
  Si  Si10  1  0.331631  0.336975  0.831894  1
  Si  Si11  1  0.663025  0.668369  0.168106  1
  Si  Si12  1  0.170269  0.165203  0.334078  1
  Si  Si13  1  0.834797  0.829731  0.665922  1
  Si  Si14  1  0.122733  0.889348  0.728203  1
  Si  Si15  1  0.110652  0.877267  0.271797  1
  Si  Si16  1  0.608667  0.375721  0.229327  1
  Si  Si17  1  0.624279  0.391333  0.770673  1
  Si  Si18  1  0.875149  0.108459  0.271673  1
  Si  Si19  1  0.891541  0.124851  0.728327  1
  Si  Si20  1  0.389358  0.622554  0.770631  1
  Si  Si21  1  0.377446  0.610642  0.229369  1
  Si  Si22  1  0.346164  0.112781  0.505037  1
  Si  Si23  1  0.887219  0.653836  0.494963  1
  Si  Si24  1  0.388561  0.155421  0.006793  1
  Si  Si25  1  0.844579  0.611439  0.993207  1
  Si  Si26  1  0.653827  0.886467  0.492379  1
  Si  Si27  1  0.113533  0.346173  0.507621  1
  Si  Si28  1  0.610755  0.844499  0.996460  1
  Si  Si29  1  0.155501  0.389245  0.003540  1
  Ru  Ru30  1  0.670780  0.329220  0.500000  1
  Ru  Ru31  1  0.168760  0.831240  0.000000  1
  Ru  Ru32  1  0.330049  0.669951  0.500000  1
  Ru  Ru33  1  0.830374  0.169626  0.000000  1
  Ru  Ru34  1  0.124501  0.125111  0.627486  1
  Ru  Ru35  1  0.874889  0.875499  0.372514  1
  Ru  Ru36  1  0.372525  0.371781  0.124627  1
  Ru  Ru37  1  0.628219  0.627475  0.875373  1
