# generated using pymatgen
data_Rb2EuErSe8
_symmetry_space_group_name_H-M   'P 1'
_cell_length_a   6.25735400
_cell_length_b   6.25735400
_cell_length_c   8.73079600
_cell_angle_alpha   90.00000000
_cell_angle_beta   90.00000000
_cell_angle_gamma   90.00000000
_symmetry_Int_Tables_number   1
_chemical_formula_structural   Rb2EuErSe8
_chemical_formula_sum   'Rb2 Eu1 Er1 Se8'
_cell_volume   341.84976935
_cell_formula_units_Z   1
loop_
 _symmetry_equiv_pos_site_id
 _symmetry_equiv_pos_as_xyz
  1  'x, y, z'
loop_
 _atom_site_type_symbol
 _atom_site_label
 _atom_site_symmetry_multiplicity
 _atom_site_fract_x
 _atom_site_fract_y
 _atom_site_fract_z
 _atom_site_occupancy
  Rb  Rb0  1  0.500000  0.500000  0.500000  1
  Rb  Rb1  1  0.000000  0.000000  0.500000  1
  Eu  Eu2  1  0.500000  0.500000  0.000000  1
  Er  Er3  1  0.000000  0.000000  0.000000  1
  Se  Se4  1  0.649154  0.875663  0.206164  1
  Se  Se5  1  0.124337  0.649154  0.206164  1
  Se  Se6  1  0.875663  0.350846  0.206164  1
  Se  Se7  1  0.649154  0.124337  0.793836  1
  Se  Se8  1  0.350846  0.875663  0.793836  1
  Se  Se9  1  0.350846  0.124337  0.206164  1
  Se  Se10  1  0.875663  0.649154  0.793836  1
  Se  Se11  1  0.124337  0.350846  0.793836  1
