# generated using pymatgen
data_Ho10Cd7InPd4
_symmetry_space_group_name_H-M   'P 1'
_cell_length_a   3.62533200
_cell_length_b   7.98520667
_cell_length_c   18.35795110
_cell_angle_alpha   89.74261427
_cell_angle_beta   90.00000000
_cell_angle_gamma   90.00000000
_symmetry_Int_Tables_number   1
_chemical_formula_structural   Ho10Cd7InPd4
_chemical_formula_sum   'Ho10 Cd7 In1 Pd4'
_cell_volume   531.43942830
_cell_formula_units_Z   1
loop_
 _symmetry_equiv_pos_site_id
 _symmetry_equiv_pos_as_xyz
  1  'x, y, z'
loop_
 _atom_site_type_symbol
 _atom_site_label
 _atom_site_symmetry_multiplicity
 _atom_site_fract_x
 _atom_site_fract_y
 _atom_site_fract_z
 _atom_site_occupancy
  Ho  Ho0  1  0.000000  0.498603  0.500413  1
  Ho  Ho1  1  0.000000  0.001212  0.999601  1
  Ho  Ho2  1  0.000000  0.739216  0.280985  1
  Ho  Ho3  1  0.000000  0.260702  0.718797  1
  Ho  Ho4  1  0.000000  0.758863  0.780788  1
  Ho  Ho5  1  0.000000  0.240611  0.219204  1
  Ho  Ho6  1  0.000000  0.613479  0.083680  1
  Ho  Ho7  1  0.000000  0.387108  0.916520  1
  Ho  Ho8  1  0.000000  0.886354  0.583270  1
  Ho  Ho9  1  0.000000  0.113851  0.416424  1
  Cd  Cd10  1  0.500000  0.714479  0.931771  1
  Cd  Cd11  1  0.500000  0.286226  0.068507  1
  Cd  Cd12  1  0.500000  0.784820  0.431661  1
  Cd  Cd13  1  0.500000  0.213972  0.568596  1
  Cd  Cd14  1  0.500000  0.577854  0.647956  1
  Cd  Cd15  1  0.500000  0.423112  0.351829  1
  Cd  Cd16  1  0.500000  0.922961  0.148249  1
  In  In17  1  0.500000  0.076658  0.851142  1
  Pd  Pd18  1  0.500000  0.525443  0.195903  1
  Pd  Pd19  1  0.500000  0.474170  0.804236  1
  Pd  Pd20  1  0.500000  0.974617  0.696057  1
  Pd  Pd21  1  0.500000  0.025689  0.304412  1
