# generated using pymatgen
data_CaYb6USb6
_symmetry_space_group_name_H-M   'P 1'
_cell_length_a   8.20160794
_cell_length_b   8.11210268
_cell_length_c   8.19488328
_cell_angle_alpha   70.76230268
_cell_angle_beta   70.32693742
_cell_angle_gamma   109.28636521
_symmetry_Int_Tables_number   1
_chemical_formula_structural   CaYb6USb6
_chemical_formula_sum   'Ca1 Yb6 U1 Sb6'
_cell_volume   420.82627924
_cell_formula_units_Z   1
loop_
 _symmetry_equiv_pos_site_id
 _symmetry_equiv_pos_as_xyz
  1  'x, y, z'
loop_
 _atom_site_type_symbol
 _atom_site_label
 _atom_site_symmetry_multiplicity
 _atom_site_fract_x
 _atom_site_fract_y
 _atom_site_fract_z
 _atom_site_occupancy
  Ca  Ca0  1  0.849399  0.000564  0.000118  1
  Yb  Yb1  1  0.000913  0.354341  0.498447  1
  Yb  Yb2  1  0.499497  0.499367  0.150203  1
  Yb  Yb3  1  0.649432  0.151011  0.351262  1
  Yb  Yb4  1  0.359542  0.002264  0.994592  1
  Yb  Yb5  1  0.494512  0.496637  0.646793  1
  Yb  Yb6  1  0.146706  0.643552  0.858848  1
  U  U7  1  0.000154  0.850651  0.499764  1
  Sb  Sb8  1  0.630950  0.872224  0.745146  1
  Sb  Sb9  1  0.876155  0.629735  0.255739  1
  Sb  Sb10  1  0.245261  0.118228  0.623573  1
  Sb  Sb11  1  0.756206  0.386164  0.867260  1
  Sb  Sb12  1  0.367772  0.753528  0.376940  1
  Sb  Sb13  1  0.123499  0.241736  0.131315  1
