# generated using pymatgen
data_La2Ir5Pt
_symmetry_space_group_name_H-M   'P 1'
_cell_length_a   5.42573000
_cell_length_b   5.42572862
_cell_length_c   17.76403900
_cell_angle_alpha   90.00000000
_cell_angle_beta   90.00000000
_cell_angle_gamma   119.99999621
_symmetry_Int_Tables_number   1
_chemical_formula_structural   La2Ir5Pt
_chemical_formula_sum   'La6 Ir15 Pt3'
_cell_volume   452.88570464
_cell_formula_units_Z   3
loop_
 _symmetry_equiv_pos_site_id
 _symmetry_equiv_pos_as_xyz
  1  'x, y, z'
loop_
 _atom_site_type_symbol
 _atom_site_label
 _atom_site_symmetry_multiplicity
 _atom_site_fract_x
 _atom_site_fract_y
 _atom_site_fract_z
 _atom_site_occupancy
  La  La0  1  0.333333  0.666667  0.540940  1
  La  La1  1  0.666667  0.333333  0.041405  1
  La  La2  1  0.666667  0.333333  0.458595  1
  La  La3  1  0.333333  0.666667  0.959060  1
  La  La4  1  0.333333  0.666667  0.750000  1
  La  La5  1  0.666667  0.333333  0.250000  1
  Ir  Ir6  1  0.166024  0.332048  0.127221  1
  Ir  Ir7  1  0.832798  0.665597  0.625925  1
  Ir  Ir8  1  0.667952  0.833976  0.127221  1
  Ir  Ir9  1  0.166024  0.833976  0.127221  1
  Ir  Ir10  1  0.832798  0.167202  0.625925  1
  Ir  Ir11  1  0.334403  0.167202  0.625925  1
  Ir  Ir12  1  0.832798  0.665597  0.874075  1
  Ir  Ir13  1  0.832798  0.167202  0.874075  1
  Ir  Ir14  1  0.334403  0.167202  0.874075  1
  Ir  Ir15  1  0.667952  0.833976  0.372779  1
  Ir  Ir16  1  0.166024  0.833976  0.372779  1
  Ir  Ir17  1  0.166024  0.332048  0.372779  1
  Ir  Ir18  1  0.000000  0.000000  0.250000  1
  Ir  Ir19  1  0.000000  0.000000  0.000132  1
  Ir  Ir20  1  0.000000  0.000000  0.499868  1
  Pt  Pt21  1  0.000000  0.000000  0.750000  1
  Pt  Pt22  1  0.333333  0.666667  0.250000  1
  Pt  Pt23  1  0.666667  0.333333  0.750000  1
