# generated using pymatgen
data_Li4CaLu3Pt4
_symmetry_space_group_name_H-M   'P 1'
_cell_length_a   3.97826600
_cell_length_b   6.93503294
_cell_length_c   8.35042200
_cell_angle_alpha   89.56383942
_cell_angle_beta   90.00000000
_cell_angle_gamma   90.00000000
_symmetry_Int_Tables_number   1
_chemical_formula_structural   Li4CaLu3Pt4
_chemical_formula_sum   'Li4 Ca1 Lu3 Pt4'
_cell_volume   230.37650551
_cell_formula_units_Z   1
loop_
 _symmetry_equiv_pos_site_id
 _symmetry_equiv_pos_as_xyz
  1  'x, y, z'
loop_
 _atom_site_type_symbol
 _atom_site_label
 _atom_site_symmetry_multiplicity
 _atom_site_fract_x
 _atom_site_fract_y
 _atom_site_fract_z
 _atom_site_occupancy
  Li  Li0  1  0.250000  0.627901  0.558370  1
  Li  Li1  1  0.750000  0.373455  0.442815  1
  Li  Li2  1  0.750000  0.872562  0.056824  1
  Li  Li3  1  0.250000  0.123091  0.942437  1
  Ca  Ca4  1  0.250000  0.546583  0.179322  1
  Lu  Lu5  1  0.750000  0.452576  0.821540  1
  Lu  Lu6  1  0.750000  0.954561  0.677730  1
  Lu  Lu7  1  0.250000  0.048639  0.324561  1
  Pt  Pt8  1  0.250000  0.746298  0.861808  1
  Pt  Pt9  1  0.750000  0.239990  0.124665  1
  Pt  Pt10  1  0.750000  0.768146  0.381734  1
  Pt  Pt11  1  0.250000  0.246196  0.628195  1
