# generated using pymatgen
data_Tm(Hf5Bi6)3
_symmetry_space_group_name_H-M   'P 1'
_cell_length_a   10.85031800
_cell_length_b   10.85031800
_cell_length_c   7.64551000
_cell_angle_alpha   90.00000000
_cell_angle_beta   90.00000000
_cell_angle_gamma   90.00000000
_symmetry_Int_Tables_number   1
_chemical_formula_structural   Tm(Hf5Bi6)3
_chemical_formula_sum   'Tm1 Hf15 Bi18'
_cell_volume   900.10131035
_cell_formula_units_Z   1
loop_
 _symmetry_equiv_pos_site_id
 _symmetry_equiv_pos_as_xyz
  1  'x, y, z'
loop_
 _atom_site_type_symbol
 _atom_site_label
 _atom_site_symmetry_multiplicity
 _atom_site_fract_x
 _atom_site_fract_y
 _atom_site_fract_z
 _atom_site_occupancy
  Tm  Tm0  1  0.750000  0.750000  0.079331  1
  Hf  Hf1  1  0.000899  0.000899  0.000529  1
  Hf  Hf2  1  0.499101  0.000899  0.000529  1
  Hf  Hf3  1  0.000899  0.499101  0.000529  1
  Hf  Hf4  1  0.499101  0.499101  0.000529  1
  Hf  Hf5  1  0.750000  0.104350  0.152458  1
  Hf  Hf6  1  0.750000  0.395649  0.152458  1
  Hf  Hf7  1  0.104350  0.750000  0.152458  1
  Hf  Hf8  1  0.395649  0.750000  0.152458  1
  Hf  Hf9  1  0.250000  0.250000  0.433167  1
  Hf  Hf10  1  0.750000  0.750000  0.566799  1
  Hf  Hf11  1  0.605083  0.249999  0.846183  1
  Hf  Hf12  1  0.894918  0.250000  0.846183  1
  Hf  Hf13  1  0.249999  0.605083  0.846183  1
  Hf  Hf14  1  0.250000  0.894918  0.846183  1
  Hf  Hf15  1  0.250000  0.250000  0.920930  1
  Bi  Bi16  1  0.250000  0.016561  0.197006  1
  Bi  Bi17  1  0.016561  0.250000  0.197006  1
  Bi  Bi18  1  0.483438  0.249999  0.197006  1
  Bi  Bi19  1  0.249999  0.483438  0.197006  1
  Bi  Bi20  1  0.581235  0.581235  0.354338  1
  Bi  Bi21  1  0.918765  0.581235  0.354338  1
  Bi  Bi22  1  0.918765  0.918765  0.354338  1
  Bi  Bi23  1  0.581235  0.918765  0.354338  1
  Bi  Bi24  1  0.750000  0.250000  0.497976  1
  Bi  Bi25  1  0.250000  0.750000  0.497976  1
  Bi  Bi26  1  0.416036  0.083964  0.649361  1
  Bi  Bi27  1  0.083964  0.083964  0.649361  1
  Bi  Bi28  1  0.083964  0.416036  0.649361  1
  Bi  Bi29  1  0.416036  0.416036  0.649361  1
  Bi  Bi30  1  0.750000  0.513485  0.801083  1
  Bi  Bi31  1  0.513485  0.750000  0.801083  1
  Bi  Bi32  1  0.986515  0.750000  0.801083  1
  Bi  Bi33  1  0.750000  0.986515  0.801083  1
