# generated using pymatgen
data_K3Rb3Al8P4(O8F9)2
_symmetry_space_group_name_H-M   'P 1'
_cell_length_a   14.02641100
_cell_length_b   6.82581404
_cell_length_c   7.38640100
_cell_angle_alpha   73.89110812
_cell_angle_beta   90.00000000
_cell_angle_gamma   90.00000000
_symmetry_Int_Tables_number   1
_chemical_formula_structural   K3Rb3Al8P4(O8F9)2
_chemical_formula_sum   'K3 Rb3 Al8 P4 O16 F18'
_cell_volume   679.41949861
_cell_formula_units_Z   1
loop_
 _symmetry_equiv_pos_site_id
 _symmetry_equiv_pos_as_xyz
  1  'x, y, z'
loop_
 _atom_site_type_symbol
 _atom_site_label
 _atom_site_symmetry_multiplicity
 _atom_site_fract_x
 _atom_site_fract_y
 _atom_site_fract_z
 _atom_site_occupancy
  K  K0  1  0.750320  0.078414  0.460829  1
  K  K1  1  0.989926  0.812481  0.790132  1
  K  K2  1  0.249391  0.920987  0.539822  1
  Rb  Rb3  1  0.503775  0.809768  0.796042  1
  Rb  Rb4  1  0.495933  0.190139  0.204023  1
  Rb  Rb5  1  0.004277  0.190022  0.203943  1
  Al  Al6  1  0.377272  0.328891  0.681464  1
  Al  Al7  1  0.249887  0.973869  0.053008  1
  Al  Al8  1  0.249853  0.484964  0.038711  1
  Al  Al9  1  0.877930  0.671156  0.318736  1
  Al  Al10  1  0.622858  0.671208  0.318457  1
  Al  Al11  1  0.122358  0.327997  0.681727  1
  Al  Al12  1  0.750388  0.026355  0.947448  1
  Al  Al13  1  0.750398  0.515600  0.960893  1
  P  P14  1  0.102649  0.652844  0.285224  1
  P  P15  1  0.897718  0.347528  0.714178  1
  P  P16  1  0.397055  0.652950  0.286149  1
  P  P17  1  0.603253  0.347219  0.713627  1
  O  O18  1  0.846602  0.137267  0.777127  1
  O  O19  1  0.105373  0.576233  0.502108  1
  O  O20  1  0.651327  0.499597  0.804368  1
  O  O21  1  0.893530  0.422054  0.497245  1
  O  O22  1  0.001649  0.318724  0.785259  1
  O  O23  1  0.607133  0.422144  0.496744  1
  O  O24  1  0.345833  0.862767  0.223605  1
  O  O25  1  0.150811  0.500112  0.195196  1
  O  O26  1  0.654820  0.137660  0.776123  1
  O  O27  1  0.154509  0.862021  0.224580  1
  O  O28  1  0.349212  0.500752  0.194982  1
  O  O29  1  0.393149  0.577729  0.503049  1
  O  O30  1  0.499016  0.318254  0.783930  1
  O  O31  1  0.850073  0.500484  0.805029  1
  O  O32  1  0.998729  0.683381  0.212134  1
  O  O33  1  0.501348  0.681811  0.216038  1
  F  F34  1  0.249922  0.205353  0.133025  1
  F  F35  1  0.093185  0.151435  0.550579  1
  F  F36  1  0.750797  0.795223  0.866909  1
  F  F37  1  0.155654  0.092435  0.881788  1
  F  F38  1  0.249512  0.322930  0.612175  1
  F  F39  1  0.344028  0.093338  0.880911  1
  F  F40  1  0.250183  0.767106  0.934381  1
  F  F41  1  0.661032  0.526818  0.145666  1
  F  F42  1  0.750346  0.233491  0.065473  1
  F  F43  1  0.750455  0.677201  0.387724  1
  F  F44  1  0.160835  0.474460  0.853197  1
  F  F45  1  0.405232  0.156214  0.546623  1
  F  F46  1  0.906852  0.841445  0.456486  1
  F  F47  1  0.839098  0.526683  0.146442  1
  F  F48  1  0.339167  0.473592  0.853799  1
  F  F49  1  0.594932  0.844051  0.453394  1
  F  F50  1  0.844210  0.907761  0.120655  1
  F  F51  1  0.656208  0.907081  0.118847  1
