# generated using pymatgen
data_Ce5Zr2USb10
_symmetry_space_group_name_H-M   'P 1'
_cell_length_a   9.37006900
_cell_length_b   9.38468431
_cell_length_c   6.33186800
_cell_angle_alpha   90.00000000
_cell_angle_beta   90.00000000
_cell_angle_gamma   119.94849287
_symmetry_Int_Tables_number   1
_chemical_formula_structural   Ce5Zr2USb10
_chemical_formula_sum   'Ce5 Zr2 U1 Sb10'
_cell_volume   482.44756044
_cell_formula_units_Z   1
loop_
 _symmetry_equiv_pos_site_id
 _symmetry_equiv_pos_as_xyz
  1  'x, y, z'
loop_
 _atom_site_type_symbol
 _atom_site_label
 _atom_site_symmetry_multiplicity
 _atom_site_fract_x
 _atom_site_fract_y
 _atom_site_fract_z
 _atom_site_occupancy
  Ce  Ce0  1  0.385152  0.000000  0.750000  1
  Ce  Ce1  1  0.999929  0.615283  0.250000  1
  Ce  Ce2  1  0.000731  0.386042  0.750000  1
  Ce  Ce3  1  0.384647  0.384717  0.250000  1
  Ce  Ce4  1  0.614689  0.613958  0.750000  1
  Zr  Zr5  1  0.999754  0.000000  0.000115  1
  Zr  Zr6  1  0.999754  0.000000  0.499885  1
  U  U7  1  0.614709  0.000000  0.250000  1
  Sb  Sb8  1  0.269402  0.000000  0.250000  1
  Sb  Sb9  1  0.730733  0.000000  0.750000  1
  Sb  Sb10  1  0.996312  0.265347  0.250000  1
  Sb  Sb11  1  0.999550  0.732440  0.750000  1
  Sb  Sb12  1  0.730966  0.734653  0.250000  1
  Sb  Sb13  1  0.267112  0.267560  0.750000  1
  Sb  Sb14  1  0.336521  0.669763  0.001927  1
  Sb  Sb15  1  0.666759  0.330237  0.001927  1
  Sb  Sb16  1  0.666759  0.330237  0.498073  1
  Sb  Sb17  1  0.336521  0.669763  0.498073  1
