# generated using pymatgen
data_NbI3Br8
_symmetry_space_group_name_H-M   'P 1'
_cell_length_a   7.85028930
_cell_length_b   8.27785439
_cell_length_c   8.48613659
_cell_angle_alpha   95.76686041
_cell_angle_beta   90.83746224
_cell_angle_gamma   103.65111681
_symmetry_Int_Tables_number   1
_chemical_formula_structural   NbI3Br8
_chemical_formula_sum   'Nb1 I3 Br8'
_cell_volume   532.74976316
_cell_formula_units_Z   1
loop_
 _symmetry_equiv_pos_site_id
 _symmetry_equiv_pos_as_xyz
  1  'x, y, z'
loop_
 _atom_site_type_symbol
 _atom_site_label
 _atom_site_symmetry_multiplicity
 _atom_site_fract_x
 _atom_site_fract_y
 _atom_site_fract_z
 _atom_site_occupancy
  Nb  Nb0  1  0.000000  0.500000  0.500000  1
  I  I1  1  0.314658  0.230611  0.153525  1
  I  I2  1  0.000000  0.000000  0.000000  1
  I  I3  1  0.685342  0.769389  0.846475  1
  Br  Br4  1  0.491095  0.244802  0.900613  1
  Br  Br5  1  0.508905  0.755198  0.099387  1
  Br  Br6  1  0.866031  0.762169  0.542810  1
  Br  Br7  1  0.906349  0.469066  0.213631  1
  Br  Br8  1  0.133969  0.237831  0.457190  1
  Br  Br9  1  0.290168  0.690209  0.442205  1
  Br  Br10  1  0.709832  0.309791  0.557795  1
  Br  Br11  1  0.093651  0.530934  0.786369  1
