# generated using pymatgen
data_TbPrY2(WO6)2
_symmetry_space_group_name_H-M   'P 1'
_cell_length_a   5.47177100
_cell_length_b   7.80790379
_cell_length_c   11.59514027
_cell_angle_alpha   75.66201561
_cell_angle_beta   90.00000000
_cell_angle_gamma   90.00000000
_symmetry_Int_Tables_number   1
_chemical_formula_structural   TbPrY2(WO6)2
_chemical_formula_sum   'Tb2 Pr2 Y4 W4 O24'
_cell_volume   479.94968437
_cell_formula_units_Z   2
loop_
 _symmetry_equiv_pos_site_id
 _symmetry_equiv_pos_as_xyz
  1  'x, y, z'
loop_
 _atom_site_type_symbol
 _atom_site_label
 _atom_site_symmetry_multiplicity
 _atom_site_fract_x
 _atom_site_fract_y
 _atom_site_fract_z
 _atom_site_occupancy
  Tb  Tb0  1  0.258279  0.000000  0.750000  1
  Tb  Tb1  1  0.741721  0.000000  0.250000  1
  Pr  Pr2  1  0.314701  0.500000  0.750000  1
  Pr  Pr3  1  0.685299  0.500000  0.250000  1
  Y  Y4  1  0.186868  0.796954  0.076900  1
  Y  Y5  1  0.186868  0.203046  0.423100  1
  Y  Y6  1  0.813132  0.203046  0.923100  1
  Y  Y7  1  0.813132  0.796954  0.576900  1
  W  W8  1  0.746527  0.727983  0.884295  1
  W  W9  1  0.253473  0.727983  0.384295  1
  W  W10  1  0.746527  0.272017  0.615705  1
  W  W11  1  0.253473  0.272017  0.115705  1
  O  O12  1  0.853243  0.357817  0.455041  1
  O  O13  1  0.468153  0.845830  0.930466  1
  O  O14  1  0.853243  0.642183  0.044959  1
  O  O15  1  0.013591  0.280852  0.729637  1
  O  O16  1  0.986409  0.280852  0.229637  1
  O  O17  1  0.146757  0.357817  0.955041  1
  O  O18  1  0.651697  0.494728  0.887255  1
  O  O19  1  0.531847  0.154170  0.069534  1
  O  O20  1  0.146757  0.642183  0.544959  1
  O  O21  1  0.013591  0.719148  0.770363  1
  O  O22  1  0.454759  0.205826  0.272251  1
  O  O23  1  0.043608  0.940777  0.395895  1
  O  O24  1  0.468153  0.154170  0.569534  1
  O  O25  1  0.986409  0.719148  0.270363  1
  O  O26  1  0.956392  0.059223  0.604105  1
  O  O27  1  0.545241  0.205826  0.772251  1
  O  O28  1  0.545241  0.794174  0.727749  1
  O  O29  1  0.043608  0.059223  0.104105  1
  O  O30  1  0.651697  0.505272  0.612745  1
  O  O31  1  0.348303  0.505272  0.112745  1
  O  O32  1  0.454759  0.794174  0.227749  1
  O  O33  1  0.348303  0.494728  0.387255  1
  O  O34  1  0.531847  0.845830  0.430466  1
  O  O35  1  0.956392  0.940777  0.895895  1
