# generated using pymatgen
data_Hf4Ge2(IrRh)5
_symmetry_space_group_name_H-M   'P 1'
_cell_length_a   4.05448200
_cell_length_b   5.59161423
_cell_length_c   11.01563343
_cell_angle_alpha   89.96769238
_cell_angle_beta   90.00000000
_cell_angle_gamma   90.00000000
_symmetry_Int_Tables_number   1
_chemical_formula_structural   Hf4Ge2(IrRh)5
_chemical_formula_sum   'Hf4 Ge2 Ir5 Rh5'
_cell_volume   249.73647888
_cell_formula_units_Z   1
loop_
 _symmetry_equiv_pos_site_id
 _symmetry_equiv_pos_as_xyz
  1  'x, y, z'
loop_
 _atom_site_type_symbol
 _atom_site_label
 _atom_site_symmetry_multiplicity
 _atom_site_fract_x
 _atom_site_fract_y
 _atom_site_fract_z
 _atom_site_occupancy
  Hf  Hf0  1  0.500000  0.183969  0.638568  1
  Hf  Hf1  1  0.500000  0.815322  0.360443  1
  Hf  Hf2  1  0.500000  0.684808  0.860617  1
  Hf  Hf3  1  0.500000  0.315659  0.139676  1
  Ge  Ge4  1  0.000000  0.499813  0.500214  1
  Ge  Ge5  1  0.000000  0.999848  0.001012  1
  Ir  Ir6  1  0.500000  0.190370  0.890054  1
  Ir  Ir7  1  0.000000  0.439142  0.747855  1
  Ir  Ir8  1  0.000000  0.561295  0.252839  1
  Ir  Ir9  1  0.000000  0.061380  0.247439  1
  Ir  Ir10  1  0.000000  0.938591  0.751833  1
  Rh  Rh11  1  0.500000  0.810176  0.108985  1
  Rh  Rh12  1  0.500000  0.688317  0.609379  1
  Rh  Rh13  1  0.500000  0.311569  0.391245  1
  Rh  Rh14  1  0.000000  0.999040  0.499472  1
  Rh  Rh15  1  0.000000  0.500703  0.000369  1
