# generated using pymatgen
data_HfScBiRh5
_symmetry_space_group_name_H-M   'P 1'
_cell_length_a   4.15858500
_cell_length_b   5.68617171
_cell_length_c   11.22888930
_cell_angle_alpha   89.86927197
_cell_angle_beta   90.00000000
_cell_angle_gamma   90.00000000
_symmetry_Int_Tables_number   1
_chemical_formula_structural   HfScBiRh5
_chemical_formula_sum   'Hf2 Sc2 Bi2 Rh10'
_cell_volume   265.52243520
_cell_formula_units_Z   2
loop_
 _symmetry_equiv_pos_site_id
 _symmetry_equiv_pos_as_xyz
  1  'x, y, z'
loop_
 _atom_site_type_symbol
 _atom_site_label
 _atom_site_symmetry_multiplicity
 _atom_site_fract_x
 _atom_site_fract_y
 _atom_site_fract_z
 _atom_site_occupancy
  Hf  Hf0  1  0.500000  0.678355  0.855041  1
  Hf  Hf1  1  0.500000  0.321645  0.144959  1
  Sc  Sc2  1  0.500000  0.179580  0.640659  1
  Sc  Sc3  1  0.500000  0.820420  0.359341  1
  Bi  Bi4  1  0.000000  0.500000  0.500000  1
  Bi  Bi5  1  0.000000  0.000000  0.000000  1
  Rh  Rh6  1  0.500000  0.209074  0.883412  1
  Rh  Rh7  1  0.500000  0.790926  0.116588  1
  Rh  Rh8  1  0.500000  0.708683  0.619924  1
  Rh  Rh9  1  0.500000  0.291317  0.380076  1
  Rh  Rh10  1  0.000000  0.443052  0.751596  1
  Rh  Rh11  1  0.000000  0.556948  0.248404  1
  Rh  Rh12  1  0.000000  0.000000  0.500000  1
  Rh  Rh13  1  0.000000  0.500000  0.000000  1
  Rh  Rh14  1  0.000000  0.058791  0.248483  1
  Rh  Rh15  1  0.000000  0.941209  0.751517  1
