# generated using pymatgen
data_Fe3(SeO3)4
_symmetry_space_group_name_H-M   'P 1'
_cell_length_a   8.21209900
_cell_length_b   8.17956126
_cell_length_c   8.38520816
_cell_angle_alpha   87.96675709
_cell_angle_beta   90.00000000
_cell_angle_gamma   90.00000000
_symmetry_Int_Tables_number   1
_chemical_formula_structural   Fe3(SeO3)4
_chemical_formula_sum   'Fe6 Se8 O24'
_cell_volume   562.89127933
_cell_formula_units_Z   2
loop_
 _symmetry_equiv_pos_site_id
 _symmetry_equiv_pos_as_xyz
  1  'x, y, z'
loop_
 _atom_site_type_symbol
 _atom_site_label
 _atom_site_symmetry_multiplicity
 _atom_site_fract_x
 _atom_site_fract_y
 _atom_site_fract_z
 _atom_site_occupancy
  Fe  Fe0  1  0.597103  0.345399  0.161773  1
  Fe  Fe1  1  0.402897  0.845399  0.161773  1
  Fe  Fe2  1  0.762061  0.750877  0.998637  1
  Fe  Fe3  1  0.741170  0.243756  0.508224  1
  Fe  Fe4  1  0.237939  0.250877  0.998637  1
  Fe  Fe5  1  0.258830  0.743756  0.508224  1
  Se  Se6  1  0.093699  0.549613  0.192005  1
  Se  Se7  1  0.906301  0.049613  0.192005  1
  Se  Se8  1  0.571921  0.451626  0.819413  1
  Se  Se9  1  0.323909  0.166928  0.415955  1
  Se  Se10  1  0.057481  0.419757  0.680639  1
  Se  Se11  1  0.428079  0.951626  0.819413  1
  Se  Se12  1  0.676091  0.666928  0.415955  1
  Se  Se13  1  0.942519  0.919757  0.680639  1
  O  O14  1  0.963638  0.698656  0.118065  1
  O  O15  1  0.308237  0.010452  0.984905  1
  O  O16  1  0.161826  0.257585  0.776176  1
  O  O17  1  0.671000  0.459088  0.369465  1
  O  O18  1  0.756391  0.177477  0.271634  1
  O  O19  1  0.193655  0.490925  0.022464  1
  O  O20  1  0.219148  0.512598  0.580247  1
  O  O21  1  0.627946  0.754620  0.226615  1
  O  O22  1  0.717814  0.348304  0.720611  1
  O  O23  1  0.329000  0.959088  0.369465  1
  O  O24  1  0.973340  0.314818  0.523139  1
  O  O25  1  0.480371  0.294586  0.935523  1
  O  O26  1  0.838174  0.757585  0.776176  1
  O  O27  1  0.502206  0.693636  0.520413  1
  O  O28  1  0.282186  0.848304  0.720611  1
  O  O29  1  0.243609  0.677477  0.271634  1
  O  O30  1  0.372054  0.254620  0.226615  1
  O  O31  1  0.036362  0.198656  0.118065  1
  O  O32  1  0.026660  0.814818  0.523139  1
  O  O33  1  0.519629  0.794586  0.935523  1
  O  O34  1  0.691763  0.510451  0.984905  1
  O  O35  1  0.780852  0.012598  0.580247  1
  O  O36  1  0.497794  0.193636  0.520413  1
  O  O37  1  0.806345  0.990925  0.022464  1
