# generated using pymatgen
data_Na2Pa2Ge6Ir7
_symmetry_space_group_name_H-M   'P 1'
_cell_length_a   7.23008866
_cell_length_b   7.24036366
_cell_length_c   7.24036197
_cell_angle_alpha   109.94803651
_cell_angle_beta   109.26174217
_cell_angle_gamma   109.26174724
_symmetry_Int_Tables_number   1
_chemical_formula_structural   Na2Pa2Ge6Ir7
_chemical_formula_sum   'Na2 Pa2 Ge6 Ir7'
_cell_volume   291.55215868
_cell_formula_units_Z   1
loop_
 _symmetry_equiv_pos_site_id
 _symmetry_equiv_pos_as_xyz
  1  'x, y, z'
loop_
 _atom_site_type_symbol
 _atom_site_label
 _atom_site_symmetry_multiplicity
 _atom_site_fract_x
 _atom_site_fract_y
 _atom_site_fract_z
 _atom_site_occupancy
  Na  Na0  1  0.000000  0.000000  0.500000  1
  Na  Na1  1  0.000000  0.500000  0.000000  1
  Pa  Pa2  1  0.500000  0.000000  0.000000  1
  Pa  Pa3  1  0.500000  0.500000  0.500000  1
  Ge  Ge4  1  0.701858  0.685777  0.016081  1
  Ge  Ge5  1  0.298142  0.983919  0.314223  1
  Ge  Ge6  1  0.000000  0.314361  0.314361  1
  Ge  Ge7  1  0.298142  0.314223  0.983919  1
  Ge  Ge8  1  0.701858  0.016081  0.685777  1
  Ge  Ge9  1  0.000000  0.685639  0.685639  1
  Ir  Ir10  1  0.741707  0.249962  0.491745  1
  Ir  Ir11  1  0.741707  0.491745  0.249962  1
  Ir  Ir12  1  0.500000  0.250000  0.750000  1
  Ir  Ir13  1  0.258293  0.508255  0.750038  1
  Ir  Ir14  1  0.258293  0.750038  0.508255  1
  Ir  Ir15  1  0.500000  0.750000  0.250000  1
  Ir  Ir16  1  0.000000  0.000000  0.000000  1
