# generated using pymatgen
data_ErLuGa(Co2P)6
_symmetry_space_group_name_H-M   'P 1'
_cell_length_a   9.04908800
_cell_length_b   9.04908865
_cell_length_c   3.56306600
_cell_angle_alpha   90.00000000
_cell_angle_beta   90.00000000
_cell_angle_gamma   119.99998298
_symmetry_Int_Tables_number   1
_chemical_formula_structural   ErLuGa(Co2P)6
_chemical_formula_sum   'Er1 Lu1 Ga1 Co12 P6'
_cell_volume   252.67613657
_cell_formula_units_Z   1
loop_
 _symmetry_equiv_pos_site_id
 _symmetry_equiv_pos_as_xyz
  1  'x, y, z'
loop_
 _atom_site_type_symbol
 _atom_site_label
 _atom_site_symmetry_multiplicity
 _atom_site_fract_x
 _atom_site_fract_y
 _atom_site_fract_z
 _atom_site_occupancy
  Er  Er0  1  0.666667  0.333333  0.500000  1
  Lu  Lu1  1  0.333333  0.666667  0.000000  1
  Ga  Ga2  1  0.000000  0.000000  0.000000  1
  Co  Co3  1  0.129140  0.836994  0.000000  1
  Co  Co4  1  0.386266  0.440452  0.500000  1
  Co  Co5  1  0.707854  0.870860  0.000000  1
  Co  Co6  1  0.559548  0.945814  0.500000  1
  Co  Co7  1  0.256057  0.114615  0.500000  1
  Co  Co8  1  0.858558  0.743943  0.500000  1
  Co  Co9  1  0.885385  0.141442  0.500000  1
  Co  Co10  1  0.939155  0.377853  0.000000  1
  Co  Co11  1  0.622147  0.561301  0.000000  1
  Co  Co12  1  0.438699  0.060845  0.000000  1
  Co  Co13  1  0.054186  0.613734  0.500000  1
  Co  Co14  1  0.163006  0.292146  0.000000  1
  P  P15  1  0.596301  0.708332  0.500000  1
  P  P16  1  0.708926  0.113395  0.000000  1
  P  P17  1  0.886605  0.595530  0.000000  1
  P  P18  1  0.404470  0.291074  0.000000  1
  P  P19  1  0.291668  0.887969  0.500000  1
  P  P20  1  0.112031  0.403699  0.500000  1
