# generated using pymatgen
data_La17Yb2YIr12
_symmetry_space_group_name_H-M   'P 1'
_cell_length_a   11.40157700
_cell_length_b   11.40157700
_cell_length_c   6.56184200
_cell_angle_alpha   90.00000000
_cell_angle_beta   90.00000000
_cell_angle_gamma   90.00000000
_symmetry_Int_Tables_number   1
_chemical_formula_structural   La17Yb2YIr12
_chemical_formula_sum   'La17 Yb2 Y1 Ir12'
_cell_volume   853.01293761
_cell_formula_units_Z   1
loop_
 _symmetry_equiv_pos_site_id
 _symmetry_equiv_pos_as_xyz
  1  'x, y, z'
loop_
 _atom_site_type_symbol
 _atom_site_label
 _atom_site_symmetry_multiplicity
 _atom_site_fract_x
 _atom_site_fract_y
 _atom_site_fract_z
 _atom_site_occupancy
  La  La0  1  0.285912  0.089858  0.394244  1
  La  La1  1  0.288794  0.910479  0.893073  1
  La  La2  1  0.711206  0.089521  0.893073  1
  La  La3  1  0.714088  0.910142  0.394244  1
  La  La4  1  0.589966  0.787233  0.893590  1
  La  La5  1  0.588954  0.207498  0.392042  1
  La  La6  1  0.411046  0.792502  0.392042  1
  La  La7  1  0.410034  0.212767  0.893590  1
  La  La8  1  0.207498  0.411046  0.607958  1
  La  La9  1  0.212767  0.589966  0.106410  1
  La  La10  1  0.787233  0.410034  0.106410  1
  La  La11  1  0.792502  0.588954  0.607958  1
  La  La12  1  0.910479  0.711206  0.106927  1
  La  La13  1  0.910142  0.285912  0.605756  1
  La  La14  1  0.089858  0.714088  0.605756  1
  La  La15  1  0.089521  0.288794  0.106927  1
  La  La16  1  0.500000  0.500000  0.500000  1
  Yb  Yb17  1  0.000000  0.000000  0.500000  1
  Yb  Yb18  1  0.500000  0.500000  0.000000  1
  Y  Y19  1  0.000000  0.000000  0.000000  1
  Ir  Ir20  1  0.847206  0.152752  0.243768  1
  Ir  Ir21  1  0.847248  0.847206  0.756232  1
  Ir  Ir22  1  0.152752  0.152794  0.756232  1
  Ir  Ir23  1  0.152794  0.847248  0.243768  1
  Ir  Ir24  1  0.656331  0.346299  0.744067  1
  Ir  Ir25  1  0.653701  0.656331  0.255933  1
  Ir  Ir26  1  0.346299  0.343669  0.255933  1
  Ir  Ir27  1  0.343669  0.653701  0.744067  1
  Ir  Ir28  1  0.500000  0.000000  0.119087  1
  Ir  Ir29  1  0.500000  0.000000  0.621942  1
  Ir  Ir30  1  0.000000  0.500000  0.880913  1
  Ir  Ir31  1  0.000000  0.500000  0.378058  1
