# generated using pymatgen
data_Pr8Si11
_symmetry_space_group_name_H-M   'P 1'
_cell_length_a   4.45027699
_cell_length_b   7.95649538
_cell_length_c   13.21625588
_cell_angle_alpha   107.51838171
_cell_angle_beta   99.69268933
_cell_angle_gamma   89.99999893
_symmetry_Int_Tables_number   1
_chemical_formula_structural   Pr8Si11
_chemical_formula_sum   'Pr8 Si11'
_cell_volume   439.25477826
_cell_formula_units_Z   1
loop_
 _symmetry_equiv_pos_site_id
 _symmetry_equiv_pos_as_xyz
  1  'x, y, z'
loop_
 _atom_site_type_symbol
 _atom_site_label
 _atom_site_symmetry_multiplicity
 _atom_site_fract_x
 _atom_site_fract_y
 _atom_site_fract_z
 _atom_site_occupancy
  Pr  Pr0  1  0.567377  0.567376  0.134753  1
  Pr  Pr1  1  0.570236  0.070236  0.140472  1
  Pr  Pr2  1  0.700110  0.448826  0.400220  1
  Pr  Pr3  1  0.700110  0.951395  0.400220  1
  Pr  Pr4  1  0.297417  0.297417  0.594834  1
  Pr  Pr5  1  0.300555  0.800554  0.601110  1
  Pr  Pr6  1  0.430442  0.186195  0.860884  1
  Pr  Pr7  1  0.430442  0.674688  0.860884  1
  Si  Si8  1  0.016738  0.236607  0.033476  1
  Si  Si9  1  0.016738  0.796868  0.033476  1
  Si  Si10  1  0.113807  0.367970  0.227613  1
  Si  Si11  1  0.113807  0.859641  0.227613  1
  Si  Si12  1  0.169850  0.169850  0.339701  1
  Si  Si13  1  0.173644  0.673643  0.347288  1
  Si  Si14  1  0.828098  0.073589  0.656196  1
  Si  Si15  1  0.828098  0.582608  0.656196  1
  Si  Si16  1  0.884252  0.384251  0.768503  1
  Si  Si17  1  0.891108  0.891107  0.782215  1
  Si  Si18  1  0.980372  0.480372  0.960744  1
