# generated using pymatgen
data_Dy8Ti12Si15Sn
_symmetry_space_group_name_H-M   'P 1'
_cell_length_a   7.11515768
_cell_length_b   7.07935330
_cell_length_c   13.03634607
_cell_angle_alpha   89.99200591
_cell_angle_beta   89.74484127
_cell_angle_gamma   89.93743025
_symmetry_Int_Tables_number   1
_chemical_formula_structural   Dy8Ti12Si15Sn
_chemical_formula_sum   'Dy8 Ti12 Si15 Sn1'
_cell_volume   656.64316368
_cell_formula_units_Z   1
loop_
 _symmetry_equiv_pos_site_id
 _symmetry_equiv_pos_as_xyz
  1  'x, y, z'
loop_
 _atom_site_type_symbol
 _atom_site_label
 _atom_site_symmetry_multiplicity
 _atom_site_fract_x
 _atom_site_fract_y
 _atom_site_fract_z
 _atom_site_occupancy
  Dy  Dy0  1  0.343375  0.999412  0.461525  1
  Dy  Dy1  1  0.505399  0.835165  0.718007  1
  Dy  Dy2  1  0.502501  0.159916  0.216514  1
  Dy  Dy3  1  0.840837  0.497121  0.282460  1
  Dy  Dy4  1  0.159246  0.510115  0.786085  1
  Dy  Dy5  1  0.661099  0.996327  0.968469  1
  Dy  Dy6  1  0.993214  0.348388  0.527730  1
  Dy  Dy7  1  0.998642  0.659102  0.034201  1
  Ti  Ti8  1  0.325931  0.326549  0.001075  1
  Ti  Ti9  1  0.174085  0.825904  0.249779  1
  Ti  Ti10  1  0.816502  0.175268  0.751984  1
  Ti  Ti11  1  0.672821  0.673267  0.499530  1
  Ti  Ti12  1  0.152252  0.007879  0.883293  1
  Ti  Ti13  1  0.491823  0.650600  0.126860  1
  Ti  Ti14  1  0.515668  0.353799  0.626458  1
  Ti  Ti15  1  0.653992  0.492826  0.875391  1
  Ti  Ti16  1  0.347697  0.509512  0.372791  1
  Ti  Ti17  1  0.847224  0.991742  0.375908  1
  Ti  Ti18  1  0.009791  0.151719  0.123318  1
  Ti  Ti19  1  0.979609  0.835338  0.618862  1
  Si  Si20  1  0.370882  0.702708  0.936100  1
  Si  Si21  1  0.628384  0.297251  0.433123  1
  Si  Si22  1  0.703323  0.369627  0.066070  1
  Si  Si23  1  0.297182  0.630560  0.565412  1
  Si  Si24  1  0.797445  0.869903  0.184506  1
  Si  Si25  1  0.129968  0.202777  0.314724  1
  Si  Si26  1  0.870331  0.799814  0.815846  1
  Si  Si27  1  0.291758  0.951901  0.066730  1
  Si  Si28  1  0.549469  0.789178  0.313694  1
  Si  Si29  1  0.459160  0.210821  0.819941  1
  Si  Si30  1  0.793380  0.545148  0.686749  1
  Si  Si31  1  0.209634  0.452444  0.185163  1
  Si  Si32  1  0.707433  0.048428  0.564533  1
  Si  Si33  1  0.952272  0.291002  0.935288  1
  Si  Si34  1  0.048339  0.711327  0.432951  1
  Sn  Sn35  1  0.199328  0.127162  0.678930  1
