# generated using pymatgen
data_CeHg(PO4)2
_symmetry_space_group_name_H-M   'P 1'
_cell_length_a   8.80611822
_cell_length_b   8.80611792
_cell_length_c   8.86741847
_cell_angle_alpha   70.26921459
_cell_angle_beta   70.26920751
_cell_angle_gamma   37.88184372
_symmetry_Int_Tables_number   1
_chemical_formula_structural   CeHg(PO4)2
_chemical_formula_sum   'Ce2 Hg2 P4 O16'
_cell_volume   394.42799483
_cell_formula_units_Z   2
loop_
 _symmetry_equiv_pos_site_id
 _symmetry_equiv_pos_as_xyz
  1  'x, y, z'
loop_
 _atom_site_type_symbol
 _atom_site_label
 _atom_site_symmetry_multiplicity
 _atom_site_fract_x
 _atom_site_fract_y
 _atom_site_fract_z
 _atom_site_occupancy
  Ce  Ce0  1  0.740477  0.259523  0.750000  1
  Ce  Ce1  1  0.259523  0.740477  0.250000  1
  Hg  Hg2  1  0.000000  0.500000  0.500000  1
  Hg  Hg3  1  0.500000  0.000000  0.000000  1
  P  P4  1  0.641244  0.128596  0.190378  1
  P  P5  1  0.871404  0.358756  0.309622  1
  P  P6  1  0.358756  0.871404  0.809622  1
  P  P7  1  0.128596  0.641244  0.690378  1
  O  O8  1  0.434510  0.358953  0.284575  1
  O  O9  1  0.641047  0.565490  0.215425  1
  O  O10  1  0.565490  0.641047  0.715425  1
  O  O11  1  0.358953  0.434510  0.784575  1
  O  O12  1  0.702583  0.203336  0.017278  1
  O  O13  1  0.796664  0.297417  0.482722  1
  O  O14  1  0.297417  0.796664  0.982722  1
  O  O15  1  0.203336  0.702583  0.517278  1
  O  O16  1  0.879474  0.915029  0.276914  1
  O  O17  1  0.084971  0.120526  0.223086  1
  O  O18  1  0.120526  0.084971  0.723086  1
  O  O19  1  0.915029  0.879474  0.776914  1
  O  O20  1  0.545851  0.036452  0.191508  1
  O  O21  1  0.963548  0.454149  0.308492  1
  O  O22  1  0.454149  0.963548  0.808492  1
  O  O23  1  0.036452  0.545851  0.691508  1
