# generated using pymatgen
data_Nd3Tm5Cd2IrPt
_symmetry_space_group_name_H-M   'P 1'
_cell_length_a   9.70056438
_cell_length_b   9.70056506
_cell_length_c   9.67526600
_cell_angle_alpha   60.08623446
_cell_angle_beta   60.08623214
_cell_angle_gamma   60.32569748
_symmetry_Int_Tables_number   1
_chemical_formula_structural   Nd3Tm5Cd2IrPt
_chemical_formula_sum   'Nd6 Tm10 Cd4 Ir2 Pt2'
_cell_volume   646.20035324
_cell_formula_units_Z   2
loop_
 _symmetry_equiv_pos_site_id
 _symmetry_equiv_pos_as_xyz
  1  'x, y, z'
loop_
 _atom_site_type_symbol
 _atom_site_label
 _atom_site_symmetry_multiplicity
 _atom_site_fract_x
 _atom_site_fract_y
 _atom_site_fract_z
 _atom_site_occupancy
  Nd  Nd0  1  0.940804  0.561035  0.558163  1
  Nd  Nd1  1  0.561035  0.940804  0.939998  1
  Nd  Nd2  1  0.561035  0.940804  0.558163  1
  Nd  Nd3  1  0.940804  0.561035  0.939998  1
  Nd  Nd4  1  0.559521  0.559521  0.940479  1
  Nd  Nd5  1  0.940500  0.940500  0.559500  1
  Tm  Tm6  1  0.348680  0.348680  0.344899  1
  Tm  Tm7  1  0.348680  0.348680  0.957741  1
  Tm  Tm8  1  0.352069  0.953295  0.347318  1
  Tm  Tm9  1  0.953295  0.352069  0.347318  1
  Tm  Tm10  1  0.808822  0.186609  0.188554  1
  Tm  Tm11  1  0.186609  0.808822  0.816016  1
  Tm  Tm12  1  0.186609  0.808822  0.188554  1
  Tm  Tm13  1  0.808822  0.186609  0.816016  1
  Tm  Tm14  1  0.188288  0.188288  0.811712  1
  Tm  Tm15  1  0.813416  0.813416  0.186584  1
  Cd  Cd16  1  0.579631  0.579631  0.579301  1
  Cd  Cd17  1  0.579631  0.579631  0.261435  1
  Cd  Cd18  1  0.579328  0.261782  0.579444  1
  Cd  Cd19  1  0.261782  0.579328  0.579444  1
  Ir  Ir20  1  0.141854  0.574976  0.141585  1
  Ir  Ir21  1  0.574976  0.141854  0.141585  1
  Pt  Pt22  1  0.141904  0.141904  0.142209  1
  Pt  Pt23  1  0.141904  0.141904  0.573983  1
