# generated using pymatgen
data_YbY2(SiPd)3
_symmetry_space_group_name_H-M   'P 1'
_cell_length_a   4.34188900
_cell_length_b   7.44069000
_cell_length_c   21.17145600
_cell_angle_alpha   90.00000000
_cell_angle_beta   90.00000000
_cell_angle_gamma   90.00000000
_symmetry_Int_Tables_number   1
_chemical_formula_structural   YbY2(SiPd)3
_chemical_formula_sum   'Yb4 Y8 Si12 Pd12'
_cell_volume   683.97882032
_cell_formula_units_Z   4
loop_
 _symmetry_equiv_pos_site_id
 _symmetry_equiv_pos_as_xyz
  1  'x, y, z'
loop_
 _atom_site_type_symbol
 _atom_site_label
 _atom_site_symmetry_multiplicity
 _atom_site_fract_x
 _atom_site_fract_y
 _atom_site_fract_z
 _atom_site_occupancy
  Yb  Yb0  1  0.250000  0.704637  0.332223  1
  Yb  Yb1  1  0.750000  0.295363  0.667777  1
  Yb  Yb2  1  0.750000  0.204637  0.167777  1
  Yb  Yb3  1  0.250000  0.795363  0.832223  1
  Y  Y4  1  0.250000  0.795623  0.166496  1
  Y  Y5  1  0.750000  0.204377  0.833504  1
  Y  Y6  1  0.750000  0.295623  0.333504  1
  Y  Y7  1  0.250000  0.704377  0.666496  1
  Y  Y8  1  0.250000  0.706626  0.000349  1
  Y  Y9  1  0.750000  0.293374  0.999651  1
  Y  Y10  1  0.750000  0.206626  0.499651  1
  Y  Y11  1  0.250000  0.793374  0.500349  1
  Si  Si12  1  0.250000  0.086700  0.065595  1
  Si  Si13  1  0.750000  0.913300  0.934405  1
  Si  Si14  1  0.750000  0.586700  0.434405  1
  Si  Si15  1  0.250000  0.413300  0.565595  1
  Si  Si16  1  0.250000  0.086949  0.274019  1
  Si  Si17  1  0.750000  0.913051  0.725981  1
  Si  Si18  1  0.750000  0.586949  0.225981  1
  Si  Si19  1  0.250000  0.413051  0.774019  1
  Si  Si20  1  0.250000  0.089317  0.395130  1
  Si  Si21  1  0.750000  0.910683  0.604870  1
  Si  Si22  1  0.750000  0.589317  0.104870  1
  Si  Si23  1  0.250000  0.410683  0.895130  1
  Pd  Pd24  1  0.250000  0.415670  0.236803  1
  Pd  Pd25  1  0.750000  0.584330  0.763197  1
  Pd  Pd26  1  0.750000  0.915670  0.263197  1
  Pd  Pd27  1  0.250000  0.084330  0.736803  1
  Pd  Pd28  1  0.250000  0.418604  0.436377  1
  Pd  Pd29  1  0.750000  0.581396  0.563623  1
  Pd  Pd30  1  0.750000  0.918604  0.063623  1
  Pd  Pd31  1  0.250000  0.081396  0.936377  1
  Pd  Pd32  1  0.250000  0.417048  0.093363  1
  Pd  Pd33  1  0.750000  0.582952  0.906637  1
  Pd  Pd34  1  0.750000  0.917048  0.406637  1
  Pd  Pd35  1  0.250000  0.082952  0.593363  1
