# generated using pymatgen
data_TmLu5ReB14Os
_symmetry_space_group_name_H-M   'P 1'
_cell_length_a   7.89852355
_cell_length_b   7.89852339
_cell_length_c   9.21373100
_cell_angle_alpha   90.00000000
_cell_angle_beta   90.00000000
_cell_angle_gamma   154.52738079
_symmetry_Int_Tables_number   1
_chemical_formula_structural   TmLu5ReB14Os
_chemical_formula_sum   'Tm1 Lu5 Re1 B14 Os1'
_cell_volume   247.21585131
_cell_formula_units_Z   1
loop_
 _symmetry_equiv_pos_site_id
 _symmetry_equiv_pos_as_xyz
  1  'x, y, z'
loop_
 _atom_site_type_symbol
 _atom_site_label
 _atom_site_symmetry_multiplicity
 _atom_site_fract_x
 _atom_site_fract_y
 _atom_site_fract_z
 _atom_site_occupancy
  Tm  Tm0  1  0.245136  0.754864  0.250000  1
  Lu  Lu1  1  0.894154  0.105846  0.058585  1
  Lu  Lu2  1  0.106112  0.893888  0.560244  1
  Lu  Lu3  1  0.106112  0.893888  0.939756  1
  Lu  Lu4  1  0.894154  0.105846  0.441415  1
  Lu  Lu5  1  0.756035  0.243965  0.750000  1
  Re  Re6  1  0.948052  0.051948  0.750000  1
  B  B7  1  0.452323  0.547677  0.250000  1
  B  B8  1  0.548029  0.451971  0.750000  1
  B  B9  1  0.727242  0.272758  0.034096  1
  B  B10  1  0.271893  0.728107  0.534592  1
  B  B11  1  0.271893  0.728107  0.965408  1
  B  B12  1  0.727242  0.272758  0.465904  1
  B  B13  1  0.632101  0.367899  0.349643  1
  B  B14  1  0.367209  0.632791  0.849482  1
  B  B15  1  0.367209  0.632791  0.650518  1
  B  B16  1  0.632101  0.367899  0.150357  1
  B  B17  1  0.519273  0.480727  0.404768  1
  B  B18  1  0.480739  0.519261  0.905775  1
  B  B19  1  0.480739  0.519261  0.594225  1
  B  B20  1  0.519273  0.480727  0.095232  1
  Os  Os21  1  0.052981  0.947019  0.250000  1
