# generated using pymatgen
data_EuCr2FeSb12Ru
_symmetry_space_group_name_H-M   'P 1'
_cell_length_a   8.14920568
_cell_length_b   8.20919048
_cell_length_c   8.12207304
_cell_angle_alpha   109.46143893
_cell_angle_beta   109.22007386
_cell_angle_gamma   110.01446408
_symmetry_Int_Tables_number   1
_chemical_formula_structural   EuCr2FeSb12Ru
_chemical_formula_sum   'Eu1 Cr2 Fe1 Sb12 Ru1'
_cell_volume   416.79426200
_cell_formula_units_Z   1
loop_
 _symmetry_equiv_pos_site_id
 _symmetry_equiv_pos_as_xyz
  1  'x, y, z'
loop_
 _atom_site_type_symbol
 _atom_site_label
 _atom_site_symmetry_multiplicity
 _atom_site_fract_x
 _atom_site_fract_y
 _atom_site_fract_z
 _atom_site_occupancy
  Eu  Eu0  1  0.000000  0.000000  0.000000  1
  Cr  Cr1  1  0.500000  0.500000  0.500000  1
  Cr  Cr2  1  0.000000  0.000000  0.500000  1
  Fe  Fe3  1  0.000000  0.500000  0.000000  1
  Sb  Sb4  1  0.654043  0.846231  0.500876  1
  Sb  Sb5  1  0.345957  0.153769  0.499124  1
  Sb  Sb6  1  0.841439  0.186108  0.339077  1
  Sb  Sb7  1  0.821071  0.652196  0.148269  1
  Sb  Sb8  1  0.850985  0.503292  0.671975  1
  Sb  Sb9  1  0.178929  0.347804  0.851731  1
  Sb  Sb10  1  0.158561  0.813892  0.660923  1
  Sb  Sb11  1  0.502812  0.662991  0.848297  1
  Sb  Sb12  1  0.497188  0.337009  0.151703  1
  Sb  Sb13  1  0.149015  0.496708  0.328025  1
  Sb  Sb14  1  0.328054  0.834122  0.173261  1
  Sb  Sb15  1  0.671946  0.165878  0.826739  1
  Ru  Ru16  1  0.500000  0.000000  0.000000  1
