# generated using pymatgen
data_Dy2P7(IrRu3)3
_symmetry_space_group_name_H-M   'P 1'
_cell_length_a   9.45119700
_cell_length_b   9.45119615
_cell_length_c   3.94125700
_cell_angle_alpha   90.00000000
_cell_angle_beta   90.00000000
_cell_angle_gamma   119.99999949
_symmetry_Int_Tables_number   1
_chemical_formula_structural   Dy2P7(IrRu3)3
_chemical_formula_sum   'Dy2 P7 Ir3 Ru9'
_cell_volume   304.88705201
_cell_formula_units_Z   1
loop_
 _symmetry_equiv_pos_site_id
 _symmetry_equiv_pos_as_xyz
  1  'x, y, z'
loop_
 _atom_site_type_symbol
 _atom_site_label
 _atom_site_symmetry_multiplicity
 _atom_site_fract_x
 _atom_site_fract_y
 _atom_site_fract_z
 _atom_site_occupancy
  Dy  Dy0  1  0.666667  0.333333  0.000000  1
  Dy  Dy1  1  0.000000  0.000000  0.500000  1
  P  P2  1  0.447958  0.067009  0.500000  1
  P  P3  1  0.932991  0.380948  0.500000  1
  P  P4  1  0.619052  0.552042  0.500000  1
  P  P5  1  0.333333  0.666667  0.000000  1
  P  P6  1  0.752375  0.965958  0.000000  1
  P  P7  1  0.034042  0.786415  0.000000  1
  P  P8  1  0.213585  0.247625  0.000000  1
  Ir  Ir9  1  0.720990  0.112252  0.500000  1
  Ir  Ir10  1  0.887748  0.608737  0.500000  1
  Ir  Ir11  1  0.391263  0.279010  0.500000  1
  Ru  Ru12  1  0.766566  0.731642  0.000000  1
  Ru  Ru13  1  0.268358  0.034925  0.000000  1
  Ru  Ru14  1  0.965075  0.233434  0.000000  1
  Ru  Ru15  1  0.553236  0.756908  0.500000  1
  Ru  Ru16  1  0.243092  0.796328  0.500000  1
  Ru  Ru17  1  0.203672  0.446764  0.500000  1
  Ru  Ru18  1  0.495093  0.938098  0.000000  1
  Ru  Ru19  1  0.061902  0.556995  0.000000  1
  Ru  Ru20  1  0.443005  0.504907  0.000000  1
