# generated using pymatgen
data_Ce8Zn(Si4Os)3
_symmetry_space_group_name_H-M   'P 1'
_cell_length_a   8.23580204
_cell_length_b   8.23512855
_cell_length_c   8.16508703
_cell_angle_alpha   89.99523945
_cell_angle_beta   90.01029813
_cell_angle_gamma   119.99323613
_symmetry_Int_Tables_number   1
_chemical_formula_structural   Ce8Zn(Si4Os)3
_chemical_formula_sum   'Ce8 Zn1 Si12 Os3'
_cell_volume   479.62004032
_cell_formula_units_Z   1
loop_
 _symmetry_equiv_pos_site_id
 _symmetry_equiv_pos_as_xyz
  1  'x, y, z'
loop_
 _atom_site_type_symbol
 _atom_site_label
 _atom_site_symmetry_multiplicity
 _atom_site_fract_x
 _atom_site_fract_y
 _atom_site_fract_z
 _atom_site_occupancy
  Ce  Ce0  1  0.999985  0.999992  0.248110  1
  Ce  Ce1  1  0.000001  0.000008  0.749904  1
  Ce  Ce2  1  0.505638  0.494370  0.254782  1
  Ce  Ce3  1  0.505629  0.011256  0.254756  1
  Ce  Ce4  1  0.988731  0.494369  0.254768  1
  Ce  Ce5  1  0.502955  0.497076  0.745234  1
  Ce  Ce6  1  0.502944  0.005899  0.745250  1
  Ce  Ce7  1  0.994122  0.497059  0.745246  1
  Zn  Zn8  1  0.333338  0.666655  0.013158  1
  Si  Si9  1  0.166044  0.833973  0.498768  1
  Si  Si10  1  0.166056  0.332099  0.498816  1
  Si  Si11  1  0.667892  0.833950  0.498873  1
  Si  Si12  1  0.835631  0.164349  0.500259  1
  Si  Si13  1  0.835626  0.671269  0.500310  1
  Si  Si14  1  0.328743  0.164371  0.500352  1
  Si  Si15  1  0.833909  0.166073  0.002175  1
  Si  Si16  1  0.833896  0.667802  0.002149  1
  Si  Si17  1  0.332196  0.166094  0.002102  1
  Si  Si18  1  0.164887  0.835137  0.997930  1
  Si  Si19  1  0.164894  0.329761  0.997911  1
  Si  Si20  1  0.670236  0.835117  0.997854  1
  Os  Os21  1  0.333335  0.666676  0.498409  1
  Os  Os22  1  0.666662  0.333329  0.503277  1
  Os  Os23  1  0.666653  0.333315  0.989606  1
