# generated using pymatgen
data_Ca3Mg(TaN3)2
_symmetry_space_group_name_H-M   'P 1'
_cell_length_a   5.57662969
_cell_length_b   5.57662947
_cell_length_c   5.83340198
_cell_angle_alpha   99.19231281
_cell_angle_beta   99.19231087
_cell_angle_gamma   119.96899010
_symmetry_Int_Tables_number   1
_chemical_formula_structural   Ca3Mg(TaN3)2
_chemical_formula_sum   'Ca3 Mg1 Ta2 N6'
_cell_volume   148.92720252
_cell_formula_units_Z   1
loop_
 _symmetry_equiv_pos_site_id
 _symmetry_equiv_pos_as_xyz
  1  'x, y, z'
loop_
 _atom_site_type_symbol
 _atom_site_label
 _atom_site_symmetry_multiplicity
 _atom_site_fract_x
 _atom_site_fract_y
 _atom_site_fract_z
 _atom_site_occupancy
  Ca  Ca0  1  0.836723  0.163277  0.500000  1
  Ca  Ca1  1  0.163277  0.836723  0.500000  1
  Ca  Ca2  1  0.500000  0.500000  0.500000  1
  Mg  Mg3  1  0.000000  0.000000  0.000000  1
  Ta  Ta4  1  0.332423  0.667577  0.000000  1
  Ta  Ta5  1  0.667577  0.332423  0.000000  1
  N  N6  1  0.424157  0.070087  0.210931  1
  N  N7  1  0.929913  0.575843  0.789069  1
  N  N8  1  0.575843  0.929913  0.789069  1
  N  N9  1  0.070087  0.424157  0.210931  1
  N  N10  1  0.716760  0.716760  0.211132  1
  N  N11  1  0.283240  0.283240  0.788868  1
