# generated using pymatgen
data_Tm4MnCo8P12Ir11
_symmetry_space_group_name_H-M   'P 1'
_cell_length_a   3.83490100
_cell_length_b   10.56102319
_cell_length_c   12.19732322
_cell_angle_alpha   90.13336621
_cell_angle_beta   90.00000000
_cell_angle_gamma   90.00000000
_symmetry_Int_Tables_number   1
_chemical_formula_structural   Tm4MnCo8P12Ir11
_chemical_formula_sum   'Tm4 Mn1 Co8 P12 Ir11'
_cell_volume   493.99608716
_cell_formula_units_Z   1
loop_
 _symmetry_equiv_pos_site_id
 _symmetry_equiv_pos_as_xyz
  1  'x, y, z'
loop_
 _atom_site_type_symbol
 _atom_site_label
 _atom_site_symmetry_multiplicity
 _atom_site_fract_x
 _atom_site_fract_y
 _atom_site_fract_z
 _atom_site_occupancy
  Tm  Tm0  1  0.250000  0.583977  0.711857  1
  Tm  Tm1  1  0.250000  0.914797  0.210100  1
  Tm  Tm2  1  0.750000  0.417181  0.288958  1
  Tm  Tm3  1  0.750000  0.081249  0.791048  1
  Mn  Mn4  1  0.250000  0.715555  0.984211  1
  Co  Co5  1  0.250000  0.886270  0.697094  1
  Co  Co6  1  0.250000  0.620894  0.194653  1
  Co  Co7  1  0.750000  0.115699  0.301297  1
  Co  Co8  1  0.750000  0.384167  0.804963  1
  Co  Co9  1  0.250000  0.464417  0.935282  1
  Co  Co10  1  0.250000  0.036221  0.432631  1
  Co  Co11  1  0.750000  0.534932  0.066277  1
  Co  Co12  1  0.750000  0.964470  0.565884  1
  P  P13  1  0.250000  0.433592  0.113035  1
  P  P14  1  0.250000  0.068238  0.611178  1
  P  P15  1  0.750000  0.570798  0.890506  1
  P  P16  1  0.750000  0.932896  0.387647  1
  P  P17  1  0.250000  0.273489  0.869670  1
  P  P18  1  0.250000  0.226543  0.370387  1
  P  P19  1  0.750000  0.726208  0.129513  1
  P  P20  1  0.750000  0.774855  0.629798  1
  P  P21  1  0.250000  0.597837  0.375122  1
  P  P22  1  0.250000  0.897120  0.881140  1
  P  P23  1  0.750000  0.402647  0.625023  1
  P  P24  1  0.750000  0.095859  0.121191  1
  Ir  Ir25  1  0.250000  0.776414  0.492197  1
  Ir  Ir26  1  0.750000  0.280530  0.012081  1
  Ir  Ir27  1  0.750000  0.224303  0.507574  1
  Ir  Ir28  1  0.250000  0.411717  0.475395  1
  Ir  Ir29  1  0.250000  0.090991  0.975733  1
  Ir  Ir30  1  0.750000  0.589146  0.525422  1
  Ir  Ir31  1  0.750000  0.905594  0.022691  1
  Ir  Ir32  1  0.250000  0.228629  0.180074  1
  Ir  Ir33  1  0.250000  0.272645  0.678476  1
  Ir  Ir34  1  0.750000  0.772394  0.819314  1
  Ir  Ir35  1  0.750000  0.727724  0.322576  1
