# generated using pymatgen
data_Sc12Ni2RuI16
_symmetry_space_group_name_H-M   'P 1'
_cell_length_a   8.99931901
_cell_length_b   11.97352178
_cell_length_c   12.63671590
_cell_angle_alpha   117.23427651
_cell_angle_beta   100.98074251
_cell_angle_gamma   100.44297428
_symmetry_Int_Tables_number   1
_chemical_formula_structural   Sc12Ni2RuI16
_chemical_formula_sum   'Sc12 Ni2 Ru1 I16'
_cell_volume   1130.93991307
_cell_formula_units_Z   1
loop_
 _symmetry_equiv_pos_site_id
 _symmetry_equiv_pos_as_xyz
  1  'x, y, z'
loop_
 _atom_site_type_symbol
 _atom_site_label
 _atom_site_symmetry_multiplicity
 _atom_site_fract_x
 _atom_site_fract_y
 _atom_site_fract_z
 _atom_site_occupancy
  Sc  Sc0  1  0.087345  0.276173  0.363097  1
  Sc  Sc1  1  0.912655  0.723827  0.636903  1
  Sc  Sc2  1  0.784300  0.534973  0.333670  1
  Sc  Sc3  1  0.215700  0.465027  0.666330  1
  Sc  Sc4  1  0.270287  0.724739  0.637357  1
  Sc  Sc5  1  0.729713  0.275261  0.362643  1
  Sc  Sc6  1  0.142062  0.535553  0.334312  1
  Sc  Sc7  1  0.857938  0.464447  0.665688  1
  Sc  Sc8  1  0.409044  0.364417  0.282631  1
  Sc  Sc9  1  0.590956  0.635583  0.717369  1
  Sc  Sc10  1  0.460553  0.315093  0.520488  1
  Sc  Sc11  1  0.539447  0.684907  0.479512  1
  Ni  Ni12  1  0.343792  0.500178  0.499799  1
  Ni  Ni13  1  0.656209  0.499822  0.500201  1
  Ru  Ru14  1  0.000000  0.500000  0.500000  1
  I  I15  1  0.393746  0.738391  0.881388  1
  I  I16  1  0.606254  0.261609  0.118612  1
  I  I17  1  0.186978  0.962934  0.781474  1
  I  I18  1  0.813022  0.037066  0.218526  1
  I  I19  1  0.339319  0.099498  0.254318  1
  I  I20  1  0.660681  0.900502  0.745682  1
  I  I21  1  0.560195  0.437909  0.796700  1
  I  I22  1  0.439805  0.562091  0.203300  1
  I  I23  1  0.306046  0.825619  0.462596  1
  I  I24  1  0.693954  0.174381  0.537404  1
  I  I25  1  0.167376  0.173901  0.535353  1
  I  I26  1  0.832624  0.826099  0.464647  1
  I  I27  1  0.925809  0.575576  0.160149  1
  I  I28  1  0.074191  0.424424  0.839851  1
  I  I29  1  0.924176  0.736813  0.880937  1
  I  I30  1  0.075824  0.263187  0.119063  1
