# generated using pymatgen
data_Tb6Er4Tl7InPt4
_symmetry_space_group_name_H-M   'P 1'
_cell_length_a   3.60868400
_cell_length_b   8.26626059
_cell_length_c   18.50914285
_cell_angle_alpha   89.90910085
_cell_angle_beta   90.00000000
_cell_angle_gamma   90.00000000
_symmetry_Int_Tables_number   1
_chemical_formula_structural   Tb6Er4Tl7InPt4
_chemical_formula_sum   'Tb6 Er4 Tl7 In1 Pt4'
_cell_volume   552.13300236
_cell_formula_units_Z   1
loop_
 _symmetry_equiv_pos_site_id
 _symmetry_equiv_pos_as_xyz
  1  'x, y, z'
loop_
 _atom_site_type_symbol
 _atom_site_label
 _atom_site_symmetry_multiplicity
 _atom_site_fract_x
 _atom_site_fract_y
 _atom_site_fract_z
 _atom_site_occupancy
  Tb  Tb0  1  0.000000  0.115547  0.413527  1
  Tb  Tb1  1  0.000000  0.883539  0.585837  1
  Tb  Tb2  1  0.000000  0.384208  0.913160  1
  Tb  Tb3  1  0.000000  0.615709  0.086883  1
  Tb  Tb4  1  0.000000  0.999937  0.000084  1
  Tb  Tb5  1  0.000000  0.501619  0.499732  1
  Er  Er6  1  0.000000  0.243693  0.221379  1
  Er  Er7  1  0.000000  0.756960  0.778854  1
  Er  Er8  1  0.000000  0.256209  0.720992  1
  Er  Er9  1  0.000000  0.743428  0.279168  1
  Tl  Tl10  1  0.500000  0.424257  0.352455  1
  Tl  Tl11  1  0.500000  0.578040  0.648003  1
  Tl  Tl12  1  0.500000  0.077679  0.851984  1
  Tl  Tl13  1  0.500000  0.922568  0.148201  1
  Tl  Tl14  1  0.500000  0.291879  0.066934  1
  Tl  Tl15  1  0.500000  0.708047  0.933075  1
  Tl  Tl16  1  0.500000  0.207948  0.566777  1
  In  In17  1  0.500000  0.792669  0.432016  1
  Pt  Pt18  1  0.500000  0.022185  0.303389  1
  Pt  Pt19  1  0.500000  0.974574  0.697631  1
  Pt  Pt20  1  0.500000  0.474496  0.802066  1
  Pt  Pt21  1  0.500000  0.524807  0.197854  1
