# generated using pymatgen
data_LaTb(Zn2Pt)4
_symmetry_space_group_name_H-M   'P 1'
_cell_length_a   7.68249927
_cell_length_b   7.68249927
_cell_length_c   4.22389400
_cell_angle_alpha   90.00000000
_cell_angle_beta   90.00000000
_cell_angle_gamma   92.26166908
_symmetry_Int_Tables_number   1
_chemical_formula_structural   LaTb(Zn2Pt)4
_chemical_formula_sum   'La1 Tb1 Zn8 Pt4'
_cell_volume   249.10338441
_cell_formula_units_Z   1
loop_
 _symmetry_equiv_pos_site_id
 _symmetry_equiv_pos_as_xyz
  1  'x, y, z'
loop_
 _atom_site_type_symbol
 _atom_site_label
 _atom_site_symmetry_multiplicity
 _atom_site_fract_x
 _atom_site_fract_y
 _atom_site_fract_z
 _atom_site_occupancy
  La  La0  1  0.000000  0.000000  0.000000  1
  Tb  Tb1  1  0.500000  0.500000  0.500000  1
  Zn  Zn2  1  0.353663  0.096402  0.500000  1
  Zn  Zn3  1  0.646337  0.903598  0.500000  1
  Zn  Zn4  1  0.845294  0.408861  0.000000  1
  Zn  Zn5  1  0.154706  0.591139  0.000000  1
  Zn  Zn6  1  0.096402  0.353663  0.500000  1
  Zn  Zn7  1  0.903598  0.646337  0.500000  1
  Zn  Zn8  1  0.408861  0.845294  0.000000  1
  Zn  Zn9  1  0.591139  0.154706  0.000000  1
  Pt  Pt10  1  0.778958  0.221042  0.500000  1
  Pt  Pt11  1  0.221042  0.778958  0.500000  1
  Pt  Pt12  1  0.288758  0.288758  0.000000  1
  Pt  Pt13  1  0.711242  0.711242  0.000000  1
