# generated using pymatgen
data_NpU(Sb2Au)2
_symmetry_space_group_name_H-M   'P 1'
_cell_length_a   4.43628100
_cell_length_b   4.43628100
_cell_length_c   9.84915100
_cell_angle_alpha   90.00000000
_cell_angle_beta   90.00000000
_cell_angle_gamma   90.00000000
_symmetry_Int_Tables_number   1
_chemical_formula_structural   NpU(Sb2Au)2
_chemical_formula_sum   'Np1 U1 Sb4 Au2'
_cell_volume   193.83709392
_cell_formula_units_Z   1
loop_
 _symmetry_equiv_pos_site_id
 _symmetry_equiv_pos_as_xyz
  1  'x, y, z'
loop_
 _atom_site_type_symbol
 _atom_site_label
 _atom_site_symmetry_multiplicity
 _atom_site_fract_x
 _atom_site_fract_y
 _atom_site_fract_z
 _atom_site_occupancy
  Np  Np0  1  0.500000  0.000000  0.247261  1
  U  U1  1  0.000000  0.500000  0.751776  1
  Sb  Sb2  1  0.500000  0.000000  0.697467  1
  Sb  Sb3  1  0.000000  0.500000  0.306176  1
  Sb  Sb4  1  0.000000  0.000000  0.997889  1
  Sb  Sb5  1  0.500000  0.500000  0.997889  1
  Au  Au6  1  0.000000  0.000000  0.500771  1
  Au  Au7  1  0.500000  0.500000  0.500771  1
