# generated using pymatgen
data_LuIn2(Ni10P3)2
_symmetry_space_group_name_H-M   'P 1'
_cell_length_a   7.92411453
_cell_length_b   7.92376326
_cell_length_c   7.92226907
_cell_angle_alpha   60.02100149
_cell_angle_beta   60.00828994
_cell_angle_gamma   59.99037913
_symmetry_Int_Tables_number   1
_chemical_formula_structural   LuIn2(Ni10P3)2
_chemical_formula_sum   'Lu1 In2 Ni20 P6'
_cell_volume   351.78824095
_cell_formula_units_Z   1
loop_
 _symmetry_equiv_pos_site_id
 _symmetry_equiv_pos_as_xyz
  1  'x, y, z'
loop_
 _atom_site_type_symbol
 _atom_site_label
 _atom_site_symmetry_multiplicity
 _atom_site_fract_x
 _atom_site_fract_y
 _atom_site_fract_z
 _atom_site_occupancy
  Lu  Lu0  1  0.000000  0.000000  0.000000  1
  In  In1  1  0.750003  0.750016  0.749991  1
  In  In2  1  0.249997  0.249984  0.250009  1
  Ni  Ni3  1  0.384466  0.846451  0.384556  1
  Ni  Ni4  1  0.384540  0.384541  0.846382  1
  Ni  Ni5  1  0.350231  0.999970  0.649756  1
  Ni  Ni6  1  0.999987  0.350179  0.649796  1
  Ni  Ni7  1  0.153592  0.615533  0.615444  1
  Ni  Ni8  1  0.649812  0.000017  0.999966  1
  Ni  Ni9  1  0.846408  0.384467  0.384556  1
  Ni  Ni10  1  0.649773  0.350224  0.000013  1
  Ni  Ni11  1  0.999975  0.350206  0.000050  1
  Ni  Ni12  1  0.350227  0.649776  0.999987  1
  Ni  Ni13  1  0.999992  0.000018  0.350243  1
  Ni  Ni14  1  0.615534  0.153549  0.615444  1
  Ni  Ni15  1  0.649769  0.000030  0.350244  1
  Ni  Ni16  1  0.000025  0.649794  0.999950  1
  Ni  Ni17  1  0.615460  0.615459  0.153618  1
  Ni  Ni18  1  0.000013  0.649821  0.350204  1
  Ni  Ni19  1  0.350188  0.999983  0.000034  1
  Ni  Ni20  1  0.000008  0.999982  0.649757  1
  Ni  Ni21  1  0.384570  0.384527  0.384550  1
  Ni  Ni22  1  0.615430  0.615473  0.615450  1
  P  P23  1  0.264559  0.264567  0.735433  1
  P  P24  1  0.264556  0.735436  0.264564  1
  P  P25  1  0.735440  0.264560  0.264560  1
  P  P26  1  0.264560  0.735440  0.735440  1
  P  P27  1  0.735444  0.264564  0.735436  1
  P  P28  1  0.735441  0.735433  0.264567  1
