# generated using pymatgen
data_Ba6Tb2MnNiO12
_symmetry_space_group_name_H-M   'P 1'
_cell_length_a   7.16660474
_cell_length_b   7.16660516
_cell_length_c   7.16660546
_cell_angle_alpha   93.55828840
_cell_angle_beta   93.55829843
_cell_angle_gamma   93.55828486
_symmetry_Int_Tables_number   1
_chemical_formula_structural   Ba6Tb2MnNiO12
_chemical_formula_sum   'Ba6 Tb2 Mn1 Ni1 O12'
_cell_volume   365.85705862
_cell_formula_units_Z   1
loop_
 _symmetry_equiv_pos_site_id
 _symmetry_equiv_pos_as_xyz
  1  'x, y, z'
loop_
 _atom_site_type_symbol
 _atom_site_label
 _atom_site_symmetry_multiplicity
 _atom_site_fract_x
 _atom_site_fract_y
 _atom_site_fract_z
 _atom_site_occupancy
  Ba  Ba0  1  0.377755  0.112726  0.751574  1
  Ba  Ba1  1  0.751574  0.377756  0.112727  1
  Ba  Ba2  1  0.248425  0.622245  0.887274  1
  Ba  Ba3  1  0.622244  0.887273  0.248427  1
  Ba  Ba4  1  0.112727  0.751574  0.377756  1
  Ba  Ba5  1  0.887273  0.248426  0.622245  1
  Tb  Tb6  1  0.755799  0.755800  0.755799  1
  Tb  Tb7  1  0.244202  0.244201  0.244201  1
  Mn  Mn8  1  0.500000  0.500000  0.500000  1
  Ni  Ni9  1  0.000000  0.000000  0.000000  1
  O  O10  1  0.765423  0.584909  0.463669  1
  O  O11  1  0.584910  0.463668  0.765423  1
  O  O12  1  0.463668  0.765423  0.584910  1
  O  O13  1  0.035185  0.899936  0.709839  1
  O  O14  1  0.899935  0.709838  0.035185  1
  O  O15  1  0.709839  0.035185  0.899935  1
  O  O16  1  0.234578  0.415090  0.536332  1
  O  O17  1  0.415090  0.536331  0.234578  1
  O  O18  1  0.536331  0.234578  0.415089  1
  O  O19  1  0.964815  0.100065  0.290162  1
  O  O20  1  0.290162  0.964814  0.100064  1
  O  O21  1  0.100064  0.290161  0.964814  1
