# generated using pymatgen
data_CaNd3Cd3In5
_symmetry_space_group_name_H-M   'P 1'
_cell_length_a   4.92569300
_cell_length_b   7.82222231
_cell_length_c   8.54420100
_cell_angle_alpha   89.95599293
_cell_angle_beta   90.00000000
_cell_angle_gamma   90.00000000
_symmetry_Int_Tables_number   1
_chemical_formula_structural   CaNd3Cd3In5
_chemical_formula_sum   'Ca1 Nd3 Cd3 In5'
_cell_volume   329.20681963
_cell_formula_units_Z   1
loop_
 _symmetry_equiv_pos_site_id
 _symmetry_equiv_pos_as_xyz
  1  'x, y, z'
loop_
 _atom_site_type_symbol
 _atom_site_label
 _atom_site_symmetry_multiplicity
 _atom_site_fract_x
 _atom_site_fract_y
 _atom_site_fract_z
 _atom_site_occupancy
  Ca  Ca0  1  0.000000  0.503312  0.251792  1
  Nd  Nd1  1  0.500000  0.499000  0.751364  1
  Nd  Nd2  1  0.500000  0.992132  0.749585  1
  Nd  Nd3  1  0.000000  0.997742  0.249901  1
  Cd  Cd4  1  0.500000  0.789441  0.416440  1
  Cd  Cd5  1  0.000000  0.786072  0.916268  1
  Cd  Cd6  1  0.000000  0.297547  0.579134  1
  In  In7  1  0.500000  0.717693  0.083942  1
  In  In8  1  0.500000  0.205269  0.421155  1
  In  In9  1  0.000000  0.205071  0.910321  1
  In  In10  1  0.000000  0.714860  0.583986  1
  In  In11  1  0.500000  0.291861  0.086112  1
