# generated using pymatgen
data_Li6PrGd(BO3)4
_symmetry_space_group_name_H-M   'P 1'
_cell_length_a   6.51597600
_cell_length_b   8.88624015
_cell_length_c   10.05237681
_cell_angle_alpha   114.91862927
_cell_angle_beta   90.00000000
_cell_angle_gamma   90.00000000
_symmetry_Int_Tables_number   1
_chemical_formula_structural   Li6PrGd(BO3)4
_chemical_formula_sum   'Li12 Pr2 Gd2 B8 O24'
_cell_volume   527.87253840
_cell_formula_units_Z   2
loop_
 _symmetry_equiv_pos_site_id
 _symmetry_equiv_pos_as_xyz
  1  'x, y, z'
loop_
 _atom_site_type_symbol
 _atom_site_label
 _atom_site_symmetry_multiplicity
 _atom_site_fract_x
 _atom_site_fract_y
 _atom_site_fract_z
 _atom_site_occupancy
  Li  Li0  1  0.437387  0.037455  0.333553  1
  Li  Li1  1  0.743066  0.127076  0.520663  1
  Li  Li2  1  0.757862  0.629087  0.023276  1
  Li  Li3  1  0.243066  0.372924  0.979337  1
  Li  Li4  1  0.217067  0.295071  0.456760  1
  Li  Li5  1  0.937387  0.462545  0.166447  1
  Li  Li6  1  0.564250  0.963543  0.665545  1
  Li  Li7  1  0.781300  0.704297  0.539728  1
  Li  Li8  1  0.257862  0.870913  0.476724  1
  Li  Li9  1  0.717067  0.204929  0.043240  1
  Li  Li10  1  0.281300  0.795703  0.960272  1
  Li  Li11  1  0.064250  0.536457  0.834455  1
  Pr  Pr12  1  0.028406  0.982827  0.801176  1
  Pr  Pr13  1  0.528406  0.517173  0.698824  1
  Gd  Gd14  1  0.971159  0.016367  0.201669  1
  Gd  Gd15  1  0.471159  0.483633  0.298331  1
  B  B16  1  0.336465  0.214272  0.674230  1
  B  B17  1  0.328602  0.159878  0.111676  1
  B  B18  1  0.663298  0.781860  0.323154  1
  B  B19  1  0.163298  0.718140  0.176846  1
  B  B20  1  0.828602  0.340122  0.388324  1
  B  B21  1  0.671069  0.844261  0.896338  1
  B  B22  1  0.836465  0.285728  0.825770  1
  B  B23  1  0.171069  0.655739  0.603662  1
  O  O24  1  0.296376  0.066032  0.682661  1
  O  O25  1  0.562151  0.783311  0.447591  1
  O  O26  1  0.217921  0.022499  0.019867  1
  O  O27  1  0.709544  0.928819  0.313070  1
  O  O28  1  0.181253  0.691742  0.753583  1
  O  O29  1  0.796376  0.433968  0.817339  1
  O  O30  1  0.435266  0.214164  0.549639  1
  O  O31  1  0.286762  0.369042  0.785986  1
  O  O32  1  0.062151  0.716689  0.052409  1
  O  O33  1  0.935266  0.285836  0.950361  1
  O  O34  1  0.717921  0.477501  0.480133  1
  O  O35  1  0.782532  0.978439  0.992177  1
  O  O36  1  0.565247  0.740901  0.942571  1
  O  O37  1  0.209544  0.571181  0.186930  1
  O  O38  1  0.208395  0.875315  0.286876  1
  O  O39  1  0.065247  0.759099  0.557429  1
  O  O40  1  0.681253  0.808258  0.746417  1
  O  O41  1  0.431179  0.263100  0.062834  1
  O  O42  1  0.823443  0.299987  0.238938  1
  O  O43  1  0.708395  0.624685  0.213124  1
  O  O44  1  0.786762  0.130958  0.714014  1
  O  O45  1  0.282532  0.521561  0.507823  1
  O  O46  1  0.931179  0.236900  0.437166  1
  O  O47  1  0.323443  0.200013  0.261062  1
