# generated using pymatgen
data_Hf6Be4Ir9Pd
_symmetry_space_group_name_H-M   'P 1'
_cell_length_a   9.37416988
_cell_length_b   9.41543387
_cell_length_c   3.40244100
_cell_angle_alpha   90.00000000
_cell_angle_beta   90.00000000
_cell_angle_gamma   89.92762049
_symmetry_Int_Tables_number   1
_chemical_formula_structural   Hf6Be4Ir9Pd
_chemical_formula_sum   'Hf6 Be4 Ir9 Pd1'
_cell_volume   300.30558797
_cell_formula_units_Z   1
loop_
 _symmetry_equiv_pos_site_id
 _symmetry_equiv_pos_as_xyz
  1  'x, y, z'
loop_
 _atom_site_type_symbol
 _atom_site_label
 _atom_site_symmetry_multiplicity
 _atom_site_fract_x
 _atom_site_fract_y
 _atom_site_fract_z
 _atom_site_occupancy
  Hf  Hf0  1  0.176550  0.668593  0.000000  1
  Hf  Hf1  1  0.328372  0.180884  0.000000  1
  Hf  Hf2  1  0.823778  0.324961  0.000000  1
  Hf  Hf3  1  0.500653  0.500787  0.000000  1
  Hf  Hf4  1  0.676802  0.824469  0.000000  1
  Hf  Hf5  1  0.997086  0.001601  0.000000  1
  Be  Be6  1  0.383513  0.878651  0.000000  1
  Be  Be7  1  0.118956  0.379857  0.000000  1
  Be  Be8  1  0.879788  0.619440  0.000000  1
  Be  Be9  1  0.618830  0.119607  0.000000  1
  Ir  Ir10  1  0.928893  0.784272  0.500000  1
  Ir  Ir11  1  0.425200  0.716375  0.500000  1
  Ir  Ir12  1  0.573330  0.284234  0.500000  1
  Ir  Ir13  1  0.715329  0.573659  0.500000  1
  Ir  Ir14  1  0.284298  0.427082  0.500000  1
  Ir  Ir15  1  0.073024  0.215406  0.500000  1
  Ir  Ir16  1  0.999544  0.499749  0.500000  1
  Ir  Ir17  1  0.498857  0.999419  0.500000  1
  Ir  Ir18  1  0.783166  0.072438  0.500000  1
  Pd  Pd19  1  0.214029  0.928517  0.500000  1
