# generated using pymatgen
data_LaThAl5Au3
_symmetry_space_group_name_H-M   'P 1'
_cell_length_a   4.36981300
_cell_length_b   4.36824100
_cell_length_c   10.82154300
_cell_angle_alpha   90.00000000
_cell_angle_beta   90.00000000
_cell_angle_gamma   90.00000000
_symmetry_Int_Tables_number   1
_chemical_formula_structural   LaThAl5Au3
_chemical_formula_sum   'La1 Th1 Al5 Au3'
_cell_volume   206.56590146
_cell_formula_units_Z   1
loop_
 _symmetry_equiv_pos_site_id
 _symmetry_equiv_pos_as_xyz
  1  'x, y, z'
loop_
 _atom_site_type_symbol
 _atom_site_label
 _atom_site_symmetry_multiplicity
 _atom_site_fract_x
 _atom_site_fract_y
 _atom_site_fract_z
 _atom_site_occupancy
  La  La0  1  0.500000  0.000000  0.747952  1
  Th  Th1  1  0.000000  0.500000  0.252304  1
  Al  Al2  1  0.500000  0.500000  0.001513  1
  Al  Al3  1  0.000000  0.000000  0.001215  1
  Al  Al4  1  0.000000  0.500000  0.636445  1
  Al  Al5  1  0.500000  0.000000  0.362108  1
  Al  Al6  1  0.000000  0.000000  0.498751  1
  Au  Au7  1  0.000000  0.500000  0.870449  1
  Au  Au8  1  0.500000  0.000000  0.132245  1
  Au  Au9  1  0.500000  0.500000  0.497019  1
