# generated using pymatgen
data_HoEr3(Re3Tc)2
_symmetry_space_group_name_H-M   'P 1'
_cell_length_a   5.37323900
_cell_length_b   5.37323971
_cell_length_c   8.92781900
_cell_angle_alpha   90.00000000
_cell_angle_beta   90.00000000
_cell_angle_gamma   120.00000182
_symmetry_Int_Tables_number   1
_chemical_formula_structural   HoEr3(Re3Tc)2
_chemical_formula_sum   'Ho1 Er3 Re6 Tc2'
_cell_volume   223.22784887
_cell_formula_units_Z   1
loop_
 _symmetry_equiv_pos_site_id
 _symmetry_equiv_pos_as_xyz
  1  'x, y, z'
loop_
 _atom_site_type_symbol
 _atom_site_label
 _atom_site_symmetry_multiplicity
 _atom_site_fract_x
 _atom_site_fract_y
 _atom_site_fract_z
 _atom_site_occupancy
  Ho  Ho0  1  0.333333  0.666667  0.436728  1
  Er  Er1  1  0.666667  0.333333  0.563301  1
  Er  Er2  1  0.666667  0.333333  0.936715  1
  Er  Er3  1  0.333333  0.666667  0.063285  1
  Re  Re4  1  0.828364  0.171636  0.249913  1
  Re  Re5  1  0.828364  0.656729  0.249913  1
  Re  Re6  1  0.343271  0.171636  0.249913  1
  Re  Re7  1  0.171634  0.828366  0.750090  1
  Re  Re8  1  0.171634  0.343267  0.750090  1
  Re  Re9  1  0.656733  0.828366  0.750090  1
  Tc  Tc10  1  0.000000  0.000000  0.500018  1
  Tc  Tc11  1  0.000000  0.000000  0.999944  1
