# generated using pymatgen
data_Li5TiPd6
_symmetry_space_group_name_H-M   'P 1'
_cell_length_a   4.31266400
_cell_length_b   4.31266400
_cell_length_c   10.44867700
_cell_angle_alpha   90.00000000
_cell_angle_beta   90.00000000
_cell_angle_gamma   120.00001537
_symmetry_Int_Tables_number   1
_chemical_formula_structural   Li5TiPd6
_chemical_formula_sum   'Li5 Ti1 Pd6'
_cell_volume   168.29961216
_cell_formula_units_Z   1
loop_
 _symmetry_equiv_pos_site_id
 _symmetry_equiv_pos_as_xyz
  1  'x, y, z'
loop_
 _atom_site_type_symbol
 _atom_site_label
 _atom_site_symmetry_multiplicity
 _atom_site_fract_x
 _atom_site_fract_y
 _atom_site_fract_z
 _atom_site_occupancy
  Li  Li0  1  0.000000  0.000000  0.493854  1
  Li  Li1  1  0.333333  0.666667  0.166421  1
  Li  Li2  1  0.666667  0.333333  0.839851  1
  Li  Li3  1  0.000000  0.000000  0.003494  1
  Li  Li4  1  0.666667  0.333333  0.329062  1
  Ti  Ti5  1  0.333333  0.666667  0.666898  1
  Pd  Pd6  1  0.333333  0.666667  0.419678  1
  Pd  Pd7  1  0.666667  0.333333  0.082110  1
  Pd  Pd8  1  0.000000  0.000000  0.750653  1
  Pd  Pd9  1  0.000000  0.000000  0.250273  1
  Pd  Pd10  1  0.333333  0.666667  0.914313  1
  Pd  Pd11  1  0.666667  0.333333  0.583393  1
