# generated using pymatgen
data_LaPr2(AgPd)3
_symmetry_space_group_name_H-M   'P 1'
_cell_length_a   7.67758900
_cell_length_b   7.67759172
_cell_length_c   4.00054500
_cell_angle_alpha   90.00000000
_cell_angle_beta   90.00000000
_cell_angle_gamma   119.99234940
_symmetry_Int_Tables_number   1
_chemical_formula_structural   LaPr2(AgPd)3
_chemical_formula_sum   'La1 Pr2 Ag3 Pd3'
_cell_volume   204.23639706
_cell_formula_units_Z   1
loop_
 _symmetry_equiv_pos_site_id
 _symmetry_equiv_pos_as_xyz
  1  'x, y, z'
loop_
 _atom_site_type_symbol
 _atom_site_label
 _atom_site_symmetry_multiplicity
 _atom_site_fract_x
 _atom_site_fract_y
 _atom_site_fract_z
 _atom_site_occupancy
  La  La0  1  0.396091  0.396091  0.500000  1
  Pr  Pr1  1  0.602078  0.000154  0.500000  1
  Pr  Pr2  1  0.000154  0.602078  0.500000  1
  Ag  Ag3  1  0.748505  0.748505  0.000000  1
  Ag  Ag4  1  0.255129  0.995315  0.000000  1
  Ag  Ag5  1  0.995315  0.255129  0.000000  1
  Pd  Pd6  1  0.664618  0.334552  0.000000  1
  Pd  Pd7  1  0.334552  0.664618  0.000000  1
  Pd  Pd8  1  0.003558  0.003558  0.500000  1
