# generated using pymatgen
data_SrTm3Al15(SiIr2)3
_symmetry_space_group_name_H-M   'P 1'
_cell_length_a   7.53636773
_cell_length_b   7.52932157
_cell_length_c   9.35479800
_cell_angle_alpha   89.99256534
_cell_angle_beta   89.90332565
_cell_angle_gamma   119.78324560
_symmetry_Int_Tables_number   1
_chemical_formula_structural   SrTm3Al15(SiIr2)3
_chemical_formula_sum   'Sr1 Tm3 Al15 Si3 Ir6'
_cell_volume   460.70880870
_cell_formula_units_Z   1
loop_
 _symmetry_equiv_pos_site_id
 _symmetry_equiv_pos_as_xyz
  1  'x, y, z'
loop_
 _atom_site_type_symbol
 _atom_site_label
 _atom_site_symmetry_multiplicity
 _atom_site_fract_x
 _atom_site_fract_y
 _atom_site_fract_z
 _atom_site_occupancy
  Sr  Sr0  1  0.993409  0.669128  0.748124  1
  Tm  Tm1  1  0.004850  0.324631  0.254329  1
  Tm  Tm2  1  0.681397  0.002514  0.746906  1
  Tm  Tm3  1  0.323786  0.004296  0.249842  1
  Al  Al4  1  0.997788  0.668036  0.418518  1
  Al  Al5  1  0.998809  0.663632  0.079404  1
  Al  Al6  1  0.337615  0.000863  0.927079  1
  Al  Al7  1  0.002765  0.335861  0.931807  1
  Al  Al8  1  0.663430  0.999873  0.078598  1
  Al  Al9  1  0.659190  0.994411  0.419170  1
  Al  Al10  1  0.336563  0.000743  0.572674  1
  Al  Al11  1  0.335894  0.335216  0.061548  1
  Al  Al12  1  0.663949  0.665917  0.945358  1
  Al  Al13  1  0.662642  0.665097  0.555494  1
  Al  Al14  1  0.338767  0.334969  0.438988  1
  Al  Al15  1  0.339267  0.548663  0.750262  1
  Al  Al16  1  0.663860  0.448408  0.250425  1
  Al  Al17  1  0.542215  0.330660  0.750100  1
  Al  Al18  1  0.449529  0.662392  0.249550  1
  Si  Si19  1  0.133404  0.133799  0.750765  1
  Si  Si20  1  0.871846  0.874042  0.249998  1
  Si  Si21  1  0.001245  0.335704  0.569343  1
  Ir  Ir22  1  0.677241  0.325967  0.499505  1
  Ir  Ir23  1  0.320989  0.663372  0.497715  1
  Ir  Ir24  1  0.329125  0.671417  0.001698  1
  Ir  Ir25  1  0.670577  0.326706  0.001136  1
  Ir  Ir26  1  0.999502  0.010626  0.499130  1
  Ir  Ir27  1  0.000345  0.003059  0.002533  1
