# generated using pymatgen
data_Tb3Pr2Y5(In2Pt)4
_symmetry_space_group_name_H-M   'P 1'
_cell_length_a   3.66829400
_cell_length_b   8.22869419
_cell_length_c   18.47833231
_cell_angle_alpha   89.99811737
_cell_angle_beta   90.00000000
_cell_angle_gamma   90.00000000
_symmetry_Int_Tables_number   1
_chemical_formula_structural   Tb3Pr2Y5(In2Pt)4
_chemical_formula_sum   'Tb3 Pr2 Y5 In8 Pt4'
_cell_volume   557.77344105
_cell_formula_units_Z   1
loop_
 _symmetry_equiv_pos_site_id
 _symmetry_equiv_pos_as_xyz
  1  'x, y, z'
loop_
 _atom_site_type_symbol
 _atom_site_label
 _atom_site_symmetry_multiplicity
 _atom_site_fract_x
 _atom_site_fract_y
 _atom_site_fract_z
 _atom_site_occupancy
  Tb  Tb0  1  0.000000  0.758225  0.780570  1
  Tb  Tb1  1  0.000000  0.258171  0.719364  1
  Tb  Tb2  1  0.000000  0.741336  0.280896  1
  Pr  Pr3  1  0.000000  0.999827  0.000064  1
  Pr  Pr4  1  0.000000  0.500502  0.499954  1
  Y  Y5  1  0.000000  0.120084  0.414104  1
  Y  Y6  1  0.000000  0.879594  0.585698  1
  Y  Y7  1  0.000000  0.379925  0.914246  1
  Y  Y8  1  0.000000  0.620085  0.085879  1
  Y  Y9  1  0.000000  0.241699  0.219411  1
  In  In10  1  0.500000  0.421266  0.347744  1
  In  In11  1  0.500000  0.578513  0.651966  1
  In  In12  1  0.500000  0.078374  0.847950  1
  In  In13  1  0.500000  0.921582  0.152272  1
  In  In14  1  0.500000  0.300558  0.068012  1
  In  In15  1  0.500000  0.699588  0.932031  1
  In  In16  1  0.500000  0.199121  0.567570  1
  In  In17  1  0.500000  0.800793  0.432089  1
  Pt  Pt18  1  0.500000  0.023930  0.303367  1
  Pt  Pt19  1  0.500000  0.976193  0.696808  1
  Pt  Pt20  1  0.500000  0.475835  0.803209  1
  Pt  Pt21  1  0.500000  0.524799  0.196796  1
