# generated using pymatgen
data_Dy7LuSc12Si15Bi
_symmetry_space_group_name_H-M   'P 1'
_cell_length_a   7.16248456
_cell_length_b   7.40890923
_cell_length_c   14.05986261
_cell_angle_alpha   90.01175848
_cell_angle_beta   88.75564353
_cell_angle_gamma   90.12172960
_symmetry_Int_Tables_number   1
_chemical_formula_structural   Dy7LuSc12Si15Bi
_chemical_formula_sum   'Dy7 Lu1 Sc12 Si15 Bi1'
_cell_volume   745.92580650
_cell_formula_units_Z   1
loop_
 _symmetry_equiv_pos_site_id
 _symmetry_equiv_pos_as_xyz
  1  'x, y, z'
loop_
 _atom_site_type_symbol
 _atom_site_label
 _atom_site_symmetry_multiplicity
 _atom_site_fract_x
 _atom_site_fract_y
 _atom_site_fract_z
 _atom_site_occupancy
  Dy  Dy0  1  0.988260  0.825020  0.904725  1
  Dy  Dy1  1  0.488290  0.675550  0.904389  1
  Dy  Dy2  1  0.992608  0.831406  0.598485  1
  Dy  Dy3  1  0.511639  0.324056  0.097394  1
  Dy  Dy4  1  0.000164  0.169755  0.399154  1
  Dy  Dy5  1  0.511750  0.317754  0.396830  1
  Dy  Dy6  1  0.511243  0.686108  0.601279  1
  Lu  Lu7  1  0.012722  0.177830  0.097598  1
  Sc  Sc8  1  0.164393  0.501087  0.756399  1
  Sc  Sc9  1  0.835265  0.498692  0.250986  1
  Sc  Sc10  1  0.334931  0.002274  0.249839  1
  Sc  Sc11  1  0.666630  0.999003  0.751401  1
  Sc  Sc12  1  0.348810  0.155983  0.631805  1
  Sc  Sc13  1  0.659367  0.827498  0.371960  1
  Sc  Sc14  1  0.155033  0.683498  0.368671  1
  Sc  Sc15  1  0.668034  0.823545  0.123552  1
  Sc  Sc16  1  0.825944  0.326205  0.625806  1
  Sc  Sc17  1  0.330047  0.175158  0.875643  1
  Sc  Sc18  1  0.832075  0.322577  0.876077  1
  Sc  Sc19  1  0.168045  0.677089  0.124791  1
  Si  Si20  1  0.036512  0.119646  0.751242  1
  Si  Si21  1  0.961348  0.886511  0.245451  1
  Si  Si22  1  0.461219  0.616978  0.247206  1
  Si  Si23  1  0.536070  0.383783  0.753233  1
  Si  Si24  1  0.289088  0.867502  0.753168  1
  Si  Si25  1  0.712383  0.126841  0.245478  1
  Si  Si26  1  0.208784  0.372783  0.248042  1
  Si  Si27  1  0.793550  0.627707  0.752096  1
  Si  Si28  1  0.813101  0.541600  0.456470  1
  Si  Si29  1  0.331583  0.963111  0.459753  1
  Si  Si30  1  0.844526  0.532477  0.040551  1
  Si  Si31  1  0.670421  0.038995  0.538317  1
  Si  Si32  1  0.155225  0.463310  0.962286  1
  Si  Si33  1  0.654701  0.034499  0.960377  1
  Si  Si34  1  0.340645  0.967171  0.040388  1
  Bi  Bi35  1  0.185594  0.456999  0.539158  1
