# generated using pymatgen
data_Tb2Pr4VCo17P12
_symmetry_space_group_name_H-M   'P 1'
_cell_length_a   3.76087200
_cell_length_b   10.65391200
_cell_length_c   12.38699100
_cell_angle_alpha   90.00000000
_cell_angle_beta   90.00000000
_cell_angle_gamma   90.00000000
_symmetry_Int_Tables_number   1
_chemical_formula_structural   Tb2Pr4VCo17P12
_chemical_formula_sum   'Tb2 Pr4 V1 Co17 P12'
_cell_volume   496.32194710
_cell_formula_units_Z   1
loop_
 _symmetry_equiv_pos_site_id
 _symmetry_equiv_pos_as_xyz
  1  'x, y, z'
loop_
 _atom_site_type_symbol
 _atom_site_label
 _atom_site_symmetry_multiplicity
 _atom_site_fract_x
 _atom_site_fract_y
 _atom_site_fract_z
 _atom_site_occupancy
  Tb  Tb0  1  0.500000  0.818047  0.205530  1
  Tb  Tb1  1  0.500000  0.181953  0.205530  1
  Pr  Pr2  1  0.000000  0.500000  0.521968  1
  Pr  Pr3  1  0.500000  0.000000  0.477297  1
  Pr  Pr4  1  0.000000  0.683402  0.796061  1
  Pr  Pr5  1  0.000000  0.316598  0.796061  1
  V  V6  1  0.500000  0.500000  0.151473  1
  Co  Co7  1  0.000000  0.000000  0.842998  1
  Co  Co8  1  0.500000  0.500000  0.704137  1
  Co  Co9  1  0.000000  0.000000  0.293557  1
  Co  Co10  1  0.000000  0.500000  0.990406  1
  Co  Co11  1  0.500000  0.000000  0.017032  1
  Co  Co12  1  0.500000  0.330755  0.996818  1
  Co  Co13  1  0.500000  0.669245  0.996818  1
  Co  Co14  1  0.000000  0.164872  0.008041  1
  Co  Co15  1  0.000000  0.835128  0.008041  1
  Co  Co16  1  0.500000  0.295138  0.427539  1
  Co  Co17  1  0.500000  0.704862  0.427539  1
  Co  Co18  1  0.000000  0.203105  0.567482  1
  Co  Co19  1  0.000000  0.796895  0.567482  1
  Co  Co20  1  0.500000  0.882111  0.710120  1
  Co  Co21  1  0.500000  0.117889  0.710120  1
  Co  Co22  1  0.000000  0.620651  0.287808  1
  Co  Co23  1  0.000000  0.379349  0.287808  1
  P  P24  1  0.500000  0.500000  0.888586  1
  P  P25  1  0.000000  0.000000  0.117418  1
  P  P26  1  0.500000  0.500000  0.340249  1
  P  P27  1  0.000000  0.000000  0.661440  1
  P  P28  1  0.500000  0.304499  0.613041  1
  P  P29  1  0.500000  0.695501  0.613041  1
  P  P30  1  0.000000  0.193041  0.382012  1
  P  P31  1  0.000000  0.806959  0.382012  1
  P  P32  1  0.500000  0.852117  0.896140  1
  P  P33  1  0.500000  0.147883  0.896140  1
  P  P34  1  0.000000  0.655420  0.106127  1
  P  P35  1  0.000000  0.344580  0.106127  1
