# generated using pymatgen
data_La2Sm6GePd24
_symmetry_space_group_name_H-M   'P 1'
_cell_length_a   8.47032893
_cell_length_b   8.47032888
_cell_length_c   8.47032900
_cell_angle_alpha   90.05522369
_cell_angle_beta   90.05522369
_cell_angle_gamma   90.05522455
_symmetry_Int_Tables_number   1
_chemical_formula_structural   La2Sm6GePd24
_chemical_formula_sum   'La2 Sm6 Ge1 Pd24'
_cell_volume   607.71537306
_cell_formula_units_Z   1
loop_
 _symmetry_equiv_pos_site_id
 _symmetry_equiv_pos_as_xyz
  1  'x, y, z'
loop_
 _atom_site_type_symbol
 _atom_site_label
 _atom_site_symmetry_multiplicity
 _atom_site_fract_x
 _atom_site_fract_y
 _atom_site_fract_z
 _atom_site_occupancy
  La  La0  1  0.253764  0.253769  0.253838  1
  La  La1  1  0.746236  0.746229  0.746167  1
  Sm  Sm2  1  0.746442  0.746444  0.253004  1
  Sm  Sm3  1  0.746435  0.252899  0.746341  1
  Sm  Sm4  1  0.253558  0.253555  0.746995  1
  Sm  Sm5  1  0.253565  0.747104  0.253661  1
  Sm  Sm6  1  0.252899  0.746439  0.746335  1
  Sm  Sm7  1  0.747098  0.253561  0.253662  1
  Ge  Ge8  1  0.000000  0.000000  0.000001  1
  Pd  Pd9  1  0.259590  0.500615  0.998777  1
  Pd  Pd10  1  0.740411  0.499383  0.001226  1
  Pd  Pd11  1  0.998774  0.259375  0.500628  1
  Pd  Pd12  1  0.500616  0.259586  0.998774  1
  Pd  Pd13  1  0.001225  0.740629  0.499371  1
  Pd  Pd14  1  0.499382  0.740414  0.001224  1
  Pd  Pd15  1  0.500627  0.998768  0.259587  1
  Pd  Pd16  1  0.259376  0.998777  0.500628  1
  Pd  Pd17  1  0.499371  0.001229  0.740411  1
  Pd  Pd18  1  0.740627  0.001221  0.499371  1
  Pd  Pd19  1  0.998773  0.500638  0.259586  1
  Pd  Pd20  1  0.001230  0.499365  0.740416  1
  Pd  Pd21  1  0.252799  0.501216  0.501208  1
  Pd  Pd22  1  0.747202  0.498785  0.498787  1
  Pd  Pd23  1  0.501212  0.252790  0.501210  1
  Pd  Pd24  1  0.498790  0.747209  0.498788  1
  Pd  Pd25  1  0.501199  0.501205  0.252776  1
  Pd  Pd26  1  0.498800  0.498795  0.747225  1
  Pd  Pd27  1  0.289644  0.997837  0.997857  1
  Pd  Pd28  1  0.710352  0.002167  0.002144  1
  Pd  Pd29  1  0.997833  0.289649  0.997862  1
  Pd  Pd30  1  0.002169  0.710349  0.002139  1
  Pd  Pd31  1  0.997861  0.997871  0.289809  1
  Pd  Pd32  1  0.002138  0.002128  0.710190  1
