# generated using pymatgen
data_Ca20Cd3InHg8
_symmetry_space_group_name_H-M   'P 1'
_cell_length_a   8.28535400
_cell_length_b   8.28535400
_cell_length_c   14.87474700
_cell_angle_alpha   90.00000000
_cell_angle_beta   90.00000000
_cell_angle_gamma   90.00000000
_symmetry_Int_Tables_number   1
_chemical_formula_structural   Ca20Cd3InHg8
_chemical_formula_sum   'Ca20 Cd3 In1 Hg8'
_cell_volume   1021.10810950
_cell_formula_units_Z   1
loop_
 _symmetry_equiv_pos_site_id
 _symmetry_equiv_pos_as_xyz
  1  'x, y, z'
loop_
 _atom_site_type_symbol
 _atom_site_label
 _atom_site_symmetry_multiplicity
 _atom_site_fract_x
 _atom_site_fract_y
 _atom_site_fract_z
 _atom_site_occupancy
  Ca  Ca0  1  0.666980  0.161380  0.101677  1
  Ca  Ca1  1  0.163212  0.663856  0.603051  1
  Ca  Ca2  1  0.333020  0.838620  0.101677  1
  Ca  Ca3  1  0.836788  0.336144  0.603051  1
  Ca  Ca4  1  0.838620  0.666980  0.101677  1
  Ca  Ca5  1  0.336144  0.163212  0.603051  1
  Ca  Ca6  1  0.161380  0.333020  0.101677  1
  Ca  Ca7  1  0.663856  0.836788  0.603051  1
  Ca  Ca8  1  0.838620  0.333020  0.898323  1
  Ca  Ca9  1  0.336144  0.836788  0.396949  1
  Ca  Ca10  1  0.161380  0.666980  0.898323  1
  Ca  Ca11  1  0.663856  0.163212  0.396949  1
  Ca  Ca12  1  0.666980  0.838620  0.898323  1
  Ca  Ca13  1  0.163212  0.336144  0.396949  1
  Ca  Ca14  1  0.333020  0.161380  0.898323  1
  Ca  Ca15  1  0.836788  0.663856  0.396949  1
  Ca  Ca16  1  0.500000  0.500000  0.754240  1
  Ca  Ca17  1  0.000000  0.000000  0.249072  1
  Ca  Ca18  1  0.000000  0.000000  0.750928  1
  Ca  Ca19  1  0.500000  0.500000  0.245760  1
  Cd  Cd20  1  0.500000  0.500000  0.500000  1
  Cd  Cd21  1  0.500000  0.500000  0.000000  1
  Cd  Cd22  1  0.000000  0.000000  0.500000  1
  In  In23  1  0.000000  0.000000  0.000000  1
  Hg  Hg24  1  0.634371  0.134597  0.749609  1
  Hg  Hg25  1  0.134597  0.634371  0.250391  1
  Hg  Hg26  1  0.865403  0.365629  0.250391  1
  Hg  Hg27  1  0.365629  0.865403  0.749609  1
  Hg  Hg28  1  0.865403  0.634371  0.749609  1
  Hg  Hg29  1  0.365629  0.134597  0.250391  1
  Hg  Hg30  1  0.134597  0.365629  0.749609  1
  Hg  Hg31  1  0.634371  0.865403  0.250391  1
