# generated using pymatgen
data_Er8Cd2NiRu
_symmetry_space_group_name_H-M   'P 1'
_cell_length_a   9.49933094
_cell_length_b   9.49933434
_cell_length_c   9.48284231
_cell_angle_alpha   59.88387067
_cell_angle_beta   59.88388238
_cell_angle_gamma   60.18089112
_symmetry_Int_Tables_number   1
_chemical_formula_structural   Er8Cd2NiRu
_chemical_formula_sum   'Er16 Cd4 Ni2 Ru2'
_cell_volume   604.82998390
_cell_formula_units_Z   2
loop_
 _symmetry_equiv_pos_site_id
 _symmetry_equiv_pos_as_xyz
  1  'x, y, z'
loop_
 _atom_site_type_symbol
 _atom_site_label
 _atom_site_symmetry_multiplicity
 _atom_site_fract_x
 _atom_site_fract_y
 _atom_site_fract_z
 _atom_site_occupancy
  Er  Er0  1  0.596169  0.596169  0.601910  1
  Er  Er1  1  0.596229  0.596229  0.204747  1
  Er  Er2  1  0.596660  0.205779  0.600794  1
  Er  Er3  1  0.205779  0.596660  0.600794  1
  Er  Er4  1  0.060836  0.439785  0.438334  1
  Er  Er5  1  0.438653  0.061797  0.059836  1
  Er  Er6  1  0.439784  0.060836  0.438334  1
  Er  Er7  1  0.061797  0.438653  0.059836  1
  Er  Er8  1  0.439146  0.439146  0.059726  1
  Er  Er9  1  0.061775  0.061775  0.435641  1
  Er  Er10  1  0.188061  0.816117  0.809636  1
  Er  Er11  1  0.814521  0.187958  0.188229  1
  Er  Er12  1  0.816117  0.188061  0.809636  1
  Er  Er13  1  0.187958  0.814521  0.188230  1
  Er  Er14  1  0.809855  0.809855  0.190269  1
  Er  Er15  1  0.185505  0.185505  0.813353  1
  Cd  Cd16  1  0.831193  0.831193  0.829288  1
  Cd  Cd17  1  0.831544  0.831544  0.506605  1
  Cd  Cd18  1  0.831874  0.506696  0.830441  1
  Cd  Cd19  1  0.506696  0.831874  0.830441  1
  Ni  Ni20  1  0.390801  0.390800  0.393431  1
  Ni  Ni21  1  0.391747  0.391748  0.825617  1
  Ru  Ru22  1  0.392962  0.824333  0.392438  1
  Ru  Ru23  1  0.824333  0.392962  0.392438  1
