# generated using pymatgen
data_Tb2ErTm2(ReO6)2
_symmetry_space_group_name_H-M   'P 1'
_cell_length_a   6.79784457
_cell_length_b   6.79784484
_cell_length_c   7.50734589
_cell_angle_alpha   73.94299273
_cell_angle_beta   73.94299265
_cell_angle_gamma   49.25350308
_symmetry_Int_Tables_number   1
_chemical_formula_structural   Tb2ErTm2(ReO6)2
_chemical_formula_sum   'Tb2 Er1 Tm2 Re2 O12'
_cell_volume   250.36629714
_cell_formula_units_Z   1
loop_
 _symmetry_equiv_pos_site_id
 _symmetry_equiv_pos_as_xyz
  1  'x, y, z'
loop_
 _atom_site_type_symbol
 _atom_site_label
 _atom_site_symmetry_multiplicity
 _atom_site_fract_x
 _atom_site_fract_y
 _atom_site_fract_z
 _atom_site_occupancy
  Tb  Tb0  1  0.803373  0.803373  0.358035  1
  Tb  Tb1  1  0.196602  0.196602  0.642587  1
  Er  Er2  1  0.185360  0.185360  0.176328  1
  Tm  Tm3  1  0.814718  0.814718  0.823307  1
  Tm  Tm4  1  0.499946  0.499946  0.500183  1
  Re  Re5  1  0.286034  0.713987  0.999791  1
  Re  Re6  1  0.713987  0.286034  0.999791  1
  O  O7  1  0.415483  0.917344  0.915193  1
  O  O8  1  0.081340  0.586215  0.083781  1
  O  O9  1  0.586215  0.081340  0.083781  1
  O  O10  1  0.917344  0.415483  0.915193  1
  O  O11  1  0.600913  0.095994  0.575813  1
  O  O12  1  0.903359  0.399780  0.425488  1
  O  O13  1  0.399780  0.903359  0.425488  1
  O  O14  1  0.998994  0.998994  0.822789  1
  O  O15  1  0.000581  0.000581  0.176731  1
  O  O16  1  0.498391  0.498391  0.792172  1
  O  O17  1  0.501588  0.501588  0.207735  1
  O  O18  1  0.095994  0.600913  0.575813  1
