# generated using pymatgen
data_Pm4AgPt3
_symmetry_space_group_name_H-M   'P 1'
_cell_length_a   7.30986906
_cell_length_b   5.76891089
_cell_length_c   4.67887500
_cell_angle_alpha   90.00000000
_cell_angle_beta   90.00000000
_cell_angle_gamma   89.86859076
_symmetry_Int_Tables_number   1
_chemical_formula_structural   Pm4AgPt3
_chemical_formula_sum   'Pm4 Ag1 Pt3'
_cell_volume   197.30756112
_cell_formula_units_Z   1
loop_
 _symmetry_equiv_pos_site_id
 _symmetry_equiv_pos_as_xyz
  1  'x, y, z'
loop_
 _atom_site_type_symbol
 _atom_site_label
 _atom_site_symmetry_multiplicity
 _atom_site_fract_x
 _atom_site_fract_y
 _atom_site_fract_z
 _atom_site_occupancy
  Pm  Pm0  1  0.111003  0.503442  0.000000  1
  Pm  Pm1  1  0.586855  0.739047  0.000000  1
  Pm  Pm2  1  0.238044  0.021147  0.499999  1
  Pm  Pm3  1  0.725852  0.232462  0.499999  1
  Ag  Ag4  1  0.879358  0.730259  0.499999  1
  Pt  Pt5  1  0.462738  0.222612  0.000000  1
  Pt  Pt6  1  0.956205  0.014342  0.000000  1
  Pt  Pt7  1  0.373275  0.536691  0.499999  1
