# generated using pymatgen
data_Ba4Zn2Si20Ni
_symmetry_space_group_name_H-M   'P 1'
_cell_length_a   10.32336500
_cell_length_b   10.32336502
_cell_length_c   10.32876400
_cell_angle_alpha   90.00000000
_cell_angle_beta   90.00000000
_cell_angle_gamma   90.00382402
_symmetry_Int_Tables_number   1
_chemical_formula_structural   Ba4Zn2Si20Ni
_chemical_formula_sum   'Ba8 Zn4 Si40 Ni2'
_cell_volume   1100.75564183
_cell_formula_units_Z   2
loop_
 _symmetry_equiv_pos_site_id
 _symmetry_equiv_pos_as_xyz
  1  'x, y, z'
loop_
 _atom_site_type_symbol
 _atom_site_label
 _atom_site_symmetry_multiplicity
 _atom_site_fract_x
 _atom_site_fract_y
 _atom_site_fract_z
 _atom_site_occupancy
  Ba  Ba0  1  0.497819  0.997399  0.250000  1
  Ba  Ba1  1  0.002601  0.502181  0.750000  1
  Ba  Ba2  1  0.253801  0.994970  0.750000  1
  Ba  Ba3  1  0.005030  0.746199  0.250000  1
  Ba  Ba4  1  0.495487  0.504513  0.500000  1
  Ba  Ba5  1  0.745964  0.995420  0.750000  1
  Ba  Ba6  1  0.004580  0.254036  0.250000  1
  Ba  Ba7  1  0.495487  0.504513  0.000000  1
  Zn  Zn8  1  0.999757  0.000243  0.500000  1
  Zn  Zn9  1  0.749743  0.499742  0.250000  1
  Zn  Zn10  1  0.500258  0.250257  0.750000  1
  Zn  Zn11  1  0.999757  0.000243  0.000000  1
  Si  Si12  1  0.316285  0.815710  0.434534  1
  Si  Si13  1  0.682119  0.184483  0.066488  1
  Si  Si14  1  0.682119  0.184483  0.433512  1
  Si  Si15  1  0.316285  0.815710  0.065466  1
  Si  Si16  1  0.317910  0.184430  0.065484  1
  Si  Si17  1  0.683445  0.815176  0.433523  1
  Si  Si18  1  0.683445  0.815176  0.066477  1
  Si  Si19  1  0.317910  0.184430  0.434516  1
  Si  Si20  1  0.184290  0.683715  0.934534  1
  Si  Si21  1  0.815517  0.317881  0.566488  1
  Si  Si22  1  0.815517  0.317881  0.933512  1
  Si  Si23  1  0.184290  0.683715  0.565466  1
  Si  Si24  1  0.815570  0.682090  0.565484  1
  Si  Si25  1  0.184824  0.316555  0.933523  1
  Si  Si26  1  0.184824  0.316555  0.566477  1
  Si  Si27  1  0.815570  0.682090  0.934516  1
  Si  Si28  1  0.499884  0.870724  0.567617  1
  Si  Si29  1  0.195589  0.000114  0.367496  1
  Si  Si30  1  0.370312  0.682434  0.250000  1
  Si  Si31  1  0.499871  0.111361  0.944527  1
  Si  Si32  1  0.804590  0.999832  0.133386  1
  Si  Si33  1  0.610748  0.305545  0.250000  1
  Si  Si34  1  0.499871  0.111361  0.555473  1
  Si  Si35  1  0.804590  0.999832  0.366614  1
  Si  Si36  1  0.499884  0.870724  0.932383  1
  Si  Si37  1  0.195589  0.000114  0.132504  1
  Si  Si38  1  0.371821  0.318113  0.250000  1
  Si  Si39  1  0.611795  0.694562  0.250000  1
  Si  Si40  1  0.129276  0.500116  0.067617  1
  Si  Si41  1  0.999886  0.804411  0.867496  1
  Si  Si42  1  0.317566  0.629688  0.750000  1
  Si  Si43  1  0.888639  0.500129  0.444527  1
  Si  Si44  1  0.000168  0.195410  0.633386  1
  Si  Si45  1  0.694455  0.389252  0.750000  1
  Si  Si46  1  0.888639  0.500129  0.055473  1
  Si  Si47  1  0.000168  0.195410  0.866614  1
  Si  Si48  1  0.129276  0.500116  0.432383  1
  Si  Si49  1  0.999886  0.804411  0.632504  1
  Si  Si50  1  0.681887  0.628179  0.750000  1
  Si  Si51  1  0.305438  0.388205  0.750000  1
  Ni  Ni52  1  0.249242  0.499280  0.250000  1
  Ni  Ni53  1  0.500720  0.750758  0.750000  1
