# generated using pymatgen
data_TmAlGa3(Fe3Ge)2
_symmetry_space_group_name_H-M   'P 1'
_cell_length_a   4.98459993
_cell_length_b   6.53969152
_cell_length_c   6.53969184
_cell_angle_alpha   80.35330570
_cell_angle_beta   67.59794982
_cell_angle_gamma   67.59794801
_symmetry_Int_Tables_number   1
_chemical_formula_structural   TmAlGa3(Fe3Ge)2
_chemical_formula_sum   'Tm1 Al1 Ga3 Fe6 Ge2'
_cell_volume   182.15489073
_cell_formula_units_Z   1
loop_
 _symmetry_equiv_pos_site_id
 _symmetry_equiv_pos_as_xyz
  1  'x, y, z'
loop_
 _atom_site_type_symbol
 _atom_site_label
 _atom_site_symmetry_multiplicity
 _atom_site_fract_x
 _atom_site_fract_y
 _atom_site_fract_z
 _atom_site_occupancy
  Tm  Tm0  1  0.999213  0.000787  0.000787  1
  Al  Al1  1  0.343828  0.656172  0.656172  1
  Ga  Ga2  1  0.658688  0.341312  0.341312  1
  Ga  Ga3  1  0.324522  0.175478  0.175478  1
  Ga  Ga4  1  0.676300  0.823700  0.823700  1
  Fe  Fe5  1  0.499639  0.247019  0.753704  1
  Fe  Fe6  1  0.499639  0.753704  0.247019  1
  Fe  Fe7  1  0.001308  0.500396  0.999554  1
  Fe  Fe8  1  0.498742  0.500396  0.999554  1
  Fe  Fe9  1  0.001308  0.999554  0.500396  1
  Fe  Fe10  1  0.498742  0.999554  0.500396  1
  Ge  Ge11  1  0.999036  0.657338  0.344590  1
  Ge  Ge12  1  0.999036  0.344590  0.657338  1
