# generated using pymatgen
data_Hf8Al5Si(MoN)2
_symmetry_space_group_name_H-M   'P 1'
_cell_length_a   7.94598063
_cell_length_b   7.97490100
_cell_length_c   5.46895643
_cell_angle_alpha   89.94580589
_cell_angle_beta   90.10878275
_cell_angle_gamma   119.88011536
_symmetry_Int_Tables_number   1
_chemical_formula_structural   Hf8Al5Si(MoN)2
_chemical_formula_sum   'Hf8 Al5 Si1 Mo2 N2'
_cell_volume   300.49032406
_cell_formula_units_Z   1
loop_
 _symmetry_equiv_pos_site_id
 _symmetry_equiv_pos_as_xyz
  1  'x, y, z'
loop_
 _atom_site_type_symbol
 _atom_site_label
 _atom_site_symmetry_multiplicity
 _atom_site_fract_x
 _atom_site_fract_y
 _atom_site_fract_z
 _atom_site_occupancy
  Hf  Hf0  1  0.231044  0.000000  0.252771  1
  Hf  Hf1  1  0.995522  0.226073  0.251039  1
  Hf  Hf2  1  0.769449  0.773927  0.251039  1
  Hf  Hf3  1  0.665171  0.327213  0.499494  1
  Hf  Hf4  1  0.337957  0.672787  0.499494  1
  Hf  Hf5  1  0.768820  0.000000  0.751076  1
  Hf  Hf6  1  0.999909  0.772965  0.747258  1
  Hf  Hf7  1  0.226944  0.227035  0.747258  1
  Al  Al8  1  0.999713  0.588126  0.225670  1
  Al  Al9  1  0.411588  0.411874  0.225670  1
  Al  Al10  1  0.409700  0.000000  0.776300  1
  Al  Al11  1  0.002756  0.414519  0.773555  1
  Al  Al12  1  0.588237  0.585481  0.773555  1
  Si  Si13  1  0.588241  0.000000  0.223776  1
  Mo  Mo14  1  0.666915  0.326747  0.001453  1
  Mo  Mo15  1  0.340168  0.673253  0.001453  1
  N  N16  1  0.999339  0.000000  0.999925  1
  N  N17  1  0.998527  0.000000  0.499209  1
