# generated using pymatgen
data_Lu12AlSi11Ir4
_symmetry_space_group_name_H-M   'P 1'
_cell_length_a   4.19496000
_cell_length_b   10.48622197
_cell_length_c   12.06659011
_cell_angle_alpha   90.04914034
_cell_angle_beta   90.00000000
_cell_angle_gamma   90.00000000
_symmetry_Int_Tables_number   1
_chemical_formula_structural   Lu12AlSi11Ir4
_chemical_formula_sum   'Lu12 Al1 Si11 Ir4'
_cell_volume   530.80043615
_cell_formula_units_Z   1
loop_
 _symmetry_equiv_pos_site_id
 _symmetry_equiv_pos_as_xyz
  1  'x, y, z'
loop_
 _atom_site_type_symbol
 _atom_site_label
 _atom_site_symmetry_multiplicity
 _atom_site_fract_x
 _atom_site_fract_y
 _atom_site_fract_z
 _atom_site_occupancy
  Lu  Lu0  1  0.250000  0.877781  0.023728  1
  Lu  Lu1  1  0.250000  0.619331  0.520155  1
  Lu  Lu2  1  0.750000  0.121203  0.981127  1
  Lu  Lu3  1  0.750000  0.378508  0.479840  1
  Lu  Lu4  1  0.250000  0.917988  0.594945  1
  Lu  Lu5  1  0.250000  0.580861  0.105105  1
  Lu  Lu6  1  0.750000  0.081527  0.394964  1
  Lu  Lu7  1  0.750000  0.421699  0.897991  1
  Lu  Lu8  1  0.250000  0.661403  0.799949  1
  Lu  Lu9  1  0.250000  0.841917  0.301351  1
  Lu  Lu10  1  0.750000  0.340525  0.199819  1
  Lu  Lu11  1  0.750000  0.164970  0.700325  1
  Al  Al12  1  0.250000  0.009505  0.817576  1
  Si  Si13  1  0.250000  0.486652  0.321669  1
  Si  Si14  1  0.750000  0.987165  0.178821  1
  Si  Si15  1  0.750000  0.512893  0.679242  1
  Si  Si16  1  0.250000  0.252633  0.842062  1
  Si  Si17  1  0.250000  0.251801  0.340768  1
  Si  Si18  1  0.750000  0.751683  0.160320  1
  Si  Si19  1  0.750000  0.748602  0.658418  1
  Si  Si20  1  0.250000  0.194727  0.544935  1
  Si  Si21  1  0.250000  0.304316  0.044288  1
  Si  Si22  1  0.750000  0.800380  0.454762  1
  Si  Si23  1  0.750000  0.695904  0.957584  1
  Ir  Ir24  1  0.250000  0.392897  0.678104  1
  Ir  Ir25  1  0.250000  0.110048  0.176550  1
  Ir  Ir26  1  0.750000  0.607760  0.321592  1
  Ir  Ir27  1  0.750000  0.885319  0.824011  1
