# generated using pymatgen
data_Pr12CoIr(PtBr6)2
_symmetry_space_group_name_H-M   'P 1'
_cell_length_a   10.61956457
_cell_length_b   10.62853075
_cell_length_c   10.53210526
_cell_angle_alpha   109.49740710
_cell_angle_beta   109.46213246
_cell_angle_gamma   109.80559836
_symmetry_Int_Tables_number   1
_chemical_formula_structural   Pr12CoIr(PtBr6)2
_chemical_formula_sum   'Pr12 Co1 Ir1 Pt2 Br12'
_cell_volume   911.11137818
_cell_formula_units_Z   1
loop_
 _symmetry_equiv_pos_site_id
 _symmetry_equiv_pos_as_xyz
  1  'x, y, z'
loop_
 _atom_site_type_symbol
 _atom_site_label
 _atom_site_symmetry_multiplicity
 _atom_site_fract_x
 _atom_site_fract_y
 _atom_site_fract_z
 _atom_site_occupancy
  Pr  Pr0  1  0.468820  0.487970  0.232257  1
  Pr  Pr1  1  0.762090  0.237660  0.273640  1
  Pr  Pr2  1  0.762220  0.023879  0.488955  1
  Pr  Pr3  1  0.226738  0.465077  0.488956  1
  Pr  Pr4  1  0.263436  0.744291  0.232257  1
  Pr  Pr5  1  0.028705  0.266457  0.011138  1
  Pr  Pr6  1  0.011548  0.035979  0.273641  1
  Pr  Pr7  1  0.482438  0.744688  0.011142  1
  Pr  Pr8  1  0.485703  0.235702  0.471405  1
  Pr  Pr9  1  0.014670  0.479683  0.743804  1
  Pr  Pr10  1  0.264769  0.014765  0.029536  1
  Pr  Pr11  1  0.229134  0.264124  0.743804  1
  Co  Co12  1  0.000377  0.250377  0.500755  1
  Ir  Ir13  1  0.249109  0.499110  0.998216  1
  Pt  Pt14  1  0.249357  0.250418  0.250264  1
  Pt  Pt15  1  0.500907  0.999846  0.250267  1
  Br  Br16  1  0.250020  0.754970  0.745022  1
  Br  Br17  1  0.509450  0.504018  0.753702  1
  Br  Br18  1  0.994304  0.747786  0.997760  1
  Br  Br19  1  0.744249  0.249683  0.753700  1
  Br  Br20  1  0.995003  0.990049  0.745022  1
  Br  Br21  1  0.249670  0.996909  0.503479  1
  Br  Br22  1  0.753809  0.506572  0.503480  1
  Br  Br23  1  0.503456  0.249972  0.997760  1
  Br  Br24  1  0.755376  0.747040  0.250362  1
  Br  Br25  1  0.745996  0.995997  0.991991  1
  Br  Br26  1  0.994992  0.503322  0.250368  1
  Br  Br27  1  0.503657  0.753657  0.507316  1
