# generated using pymatgen
data_Tb4YEr7Ru4
_symmetry_space_group_name_H-M   'P 1'
_cell_length_a   6.29280160
_cell_length_b   7.29755925
_cell_length_c   9.12220602
_cell_angle_alpha   89.97785494
_cell_angle_beta   90.15208652
_cell_angle_gamma   90.12109658
_symmetry_Int_Tables_number   1
_chemical_formula_structural   Tb4YEr7Ru4
_chemical_formula_sum   'Tb4 Y1 Er7 Ru4'
_cell_volume   418.90834710
_cell_formula_units_Z   1
loop_
 _symmetry_equiv_pos_site_id
 _symmetry_equiv_pos_as_xyz
  1  'x, y, z'
loop_
 _atom_site_type_symbol
 _atom_site_label
 _atom_site_symmetry_multiplicity
 _atom_site_fract_x
 _atom_site_fract_y
 _atom_site_fract_z
 _atom_site_occupancy
  Tb  Tb0  1  0.331191  0.676850  0.064370  1
  Tb  Tb1  1  0.866363  0.539779  0.250645  1
  Tb  Tb2  1  0.633429  0.040387  0.250356  1
  Tb  Tb3  1  0.133060  0.459497  0.749441  1
  Y  Y4  1  0.367831  0.960846  0.749505  1
  Er  Er5  1  0.168432  0.176548  0.435335  1
  Er  Er6  1  0.668614  0.323590  0.564451  1
  Er  Er7  1  0.831396  0.823810  0.934787  1
  Er  Er8  1  0.669142  0.323126  0.934996  1
  Er  Er9  1  0.831529  0.823739  0.564731  1
  Er  Er10  1  0.331389  0.676168  0.435953  1
  Er  Er11  1  0.168065  0.176215  0.064788  1
  Ru  Ru12  1  0.041113  0.885319  0.250701  1
  Ru  Ru13  1  0.458134  0.384003  0.250782  1
  Ru  Ru14  1  0.956676  0.115849  0.750230  1
  Ru  Ru15  1  0.543637  0.614276  0.748930  1
