# generated using pymatgen
data_RbYTlF7
_symmetry_space_group_name_H-M   'P 1'
_cell_length_a   6.73052300
_cell_length_b   6.73052232
_cell_length_c   4.38513500
_cell_angle_alpha   90.00000000
_cell_angle_beta   90.00000000
_cell_angle_gamma   116.65948516
_symmetry_Int_Tables_number   1
_chemical_formula_structural   RbYTlF7
_chemical_formula_sum   'Rb1 Y1 Tl1 F7'
_cell_volume   177.52801903
_cell_formula_units_Z   1
loop_
 _symmetry_equiv_pos_site_id
 _symmetry_equiv_pos_as_xyz
  1  'x, y, z'
loop_
 _atom_site_type_symbol
 _atom_site_label
 _atom_site_symmetry_multiplicity
 _atom_site_fract_x
 _atom_site_fract_y
 _atom_site_fract_z
 _atom_site_occupancy
  Rb  Rb0  1  0.000625  0.999375  0.000000  1
  Y  Y1  1  0.692847  0.307153  0.500000  1
  Tl  Tl2  1  0.306899  0.693101  0.500000  1
  F  F3  1  0.707229  0.292770  0.000000  1
  F  F4  1  0.292721  0.707278  0.000000  1
  F  F5  1  0.333732  0.044548  0.500000  1
  F  F6  1  0.043579  0.333316  0.500000  1
  F  F7  1  0.500231  0.499769  0.500000  1
  F  F8  1  0.955452  0.666268  0.500000  1
  F  F9  1  0.666684  0.956421  0.500000  1
