# generated using pymatgen
data_Tb4MoOsC4
_symmetry_space_group_name_H-M   'P 1'
_cell_length_a   5.13949400
_cell_length_b   6.61705300
_cell_length_c   9.96553400
_cell_angle_alpha   90.00000000
_cell_angle_beta   90.00000000
_cell_angle_gamma   90.00000000
_symmetry_Int_Tables_number   1
_chemical_formula_structural   Tb4MoOsC4
_chemical_formula_sum   'Tb8 Mo2 Os2 C8'
_cell_volume   338.91091170
_cell_formula_units_Z   2
loop_
 _symmetry_equiv_pos_site_id
 _symmetry_equiv_pos_as_xyz
  1  'x, y, z'
loop_
 _atom_site_type_symbol
 _atom_site_label
 _atom_site_symmetry_multiplicity
 _atom_site_fract_x
 _atom_site_fract_y
 _atom_site_fract_z
 _atom_site_occupancy
  Tb  Tb0  1  0.750000  0.819707  0.057464  1
  Tb  Tb1  1  0.250000  0.680293  0.557464  1
  Tb  Tb2  1  0.750000  0.321837  0.443757  1
  Tb  Tb3  1  0.250000  0.178163  0.943757  1
  Tb  Tb4  1  0.750000  0.467493  0.785631  1
  Tb  Tb5  1  0.250000  0.032507  0.285631  1
  Tb  Tb6  1  0.750000  0.965205  0.719903  1
  Tb  Tb7  1  0.250000  0.534795  0.219903  1
  Mo  Mo8  1  0.750000  0.279214  0.134667  1
  Mo  Mo9  1  0.250000  0.220786  0.634667  1
  Os  Os10  1  0.750000  0.779146  0.364673  1
  Os  Os11  1  0.250000  0.720854  0.864673  1
  C  C12  1  0.750000  0.177215  0.949098  1
  C  C13  1  0.250000  0.819902  0.045031  1
  C  C14  1  0.750000  0.680098  0.545031  1
  C  C15  1  0.250000  0.322785  0.449098  1
  C  C16  1  0.750000  0.042201  0.258707  1
  C  C17  1  0.250000  0.457799  0.758707  1
  C  C18  1  0.750000  0.548264  0.241068  1
  C  C19  1  0.250000  0.951736  0.741068  1
