# generated using pymatgen
data_Rb2MoF5
_symmetry_space_group_name_H-M   'P 1'
_cell_length_a   6.56308500
_cell_length_b   7.99282500
_cell_length_c   11.49737200
_cell_angle_alpha   90.00000000
_cell_angle_beta   90.00000000
_cell_angle_gamma   90.00000000
_symmetry_Int_Tables_number   1
_chemical_formula_structural   Rb2MoF5
_chemical_formula_sum   'Rb8 Mo4 F20'
_cell_volume   603.12442490
_cell_formula_units_Z   4
loop_
 _symmetry_equiv_pos_site_id
 _symmetry_equiv_pos_as_xyz
  1  'x, y, z'
loop_
 _atom_site_type_symbol
 _atom_site_label
 _atom_site_symmetry_multiplicity
 _atom_site_fract_x
 _atom_site_fract_y
 _atom_site_fract_z
 _atom_site_occupancy
  Rb  Rb0  1  0.016005  0.250000  0.136175  1
  Rb  Rb1  1  0.516005  0.250000  0.363825  1
  Rb  Rb2  1  0.983995  0.750000  0.863825  1
  Rb  Rb3  1  0.483995  0.750000  0.636175  1
  Rb  Rb4  1  0.079195  0.750000  0.202650  1
  Rb  Rb5  1  0.579195  0.750000  0.297350  1
  Rb  Rb6  1  0.920805  0.250000  0.797350  1
  Rb  Rb7  1  0.420805  0.250000  0.702650  1
  Mo  Mo8  1  0.500000  0.500000  0.000000  1
  Mo  Mo9  1  0.000000  0.000000  0.500000  1
  Mo  Mo10  1  0.500000  0.000000  0.000000  1
  Mo  Mo11  1  0.000000  0.500000  0.500000  1
  F  F12  1  0.783451  0.560751  0.070837  1
  F  F13  1  0.283451  0.939249  0.429163  1
  F  F14  1  0.216549  0.060751  0.929163  1
  F  F15  1  0.716549  0.439249  0.570837  1
  F  F16  1  0.216549  0.439249  0.929163  1
  F  F17  1  0.716549  0.060751  0.570837  1
  F  F18  1  0.783451  0.939249  0.070837  1
  F  F19  1  0.283451  0.560751  0.429163  1
  F  F20  1  0.621295  0.529827  0.832640  1
  F  F21  1  0.121295  0.970173  0.667360  1
  F  F22  1  0.378705  0.029827  0.167360  1
  F  F23  1  0.878705  0.470173  0.332640  1
  F  F24  1  0.378705  0.470173  0.167360  1
  F  F25  1  0.878705  0.029827  0.332640  1
  F  F26  1  0.621295  0.970173  0.832640  1
  F  F27  1  0.121295  0.529827  0.667360  1
  F  F28  1  0.614290  0.250000  0.987612  1
  F  F29  1  0.114290  0.250000  0.512388  1
  F  F30  1  0.385710  0.750000  0.012388  1
  F  F31  1  0.885710  0.750000  0.487612  1
