# generated using pymatgen
data_Sm4ErTm3(B6Os)4
_symmetry_space_group_name_H-M   'P 1'
_cell_length_a   3.66511400
_cell_length_b   9.16793001
_cell_length_c   11.58373702
_cell_angle_alpha   90.00645467
_cell_angle_beta   90.00000000
_cell_angle_gamma   90.00000000
_symmetry_Int_Tables_number   1
_chemical_formula_structural   Sm4ErTm3(B6Os)4
_chemical_formula_sum   'Sm4 Er1 Tm3 B24 Os4'
_cell_volume   389.23103712
_cell_formula_units_Z   1
loop_
 _symmetry_equiv_pos_site_id
 _symmetry_equiv_pos_as_xyz
  1  'x, y, z'
loop_
 _atom_site_type_symbol
 _atom_site_label
 _atom_site_symmetry_multiplicity
 _atom_site_fract_x
 _atom_site_fract_y
 _atom_site_fract_z
 _atom_site_occupancy
  Sm  Sm0  1  0.000000  0.322040  0.414201  1
  Sm  Sm1  1  0.000000  0.677983  0.585923  1
  Sm  Sm2  1  0.000000  0.821915  0.085760  1
  Sm  Sm3  1  0.000000  0.178092  0.914137  1
  Er  Er4  1  0.000000  0.944326  0.372743  1
  Tm  Tm5  1  0.000000  0.055760  0.627473  1
  Tm  Tm6  1  0.000000  0.444321  0.127186  1
  Tm  Tm7  1  0.000000  0.555688  0.872739  1
  B  B8  1  0.500000  0.555253  0.431526  1
  B  B9  1  0.500000  0.444576  0.568529  1
  B  B10  1  0.500000  0.055424  0.068398  1
  B  B11  1  0.500000  0.944612  0.931482  1
  B  B12  1  0.500000  0.749342  0.418241  1
  B  B13  1  0.500000  0.250337  0.581800  1
  B  B14  1  0.500000  0.249782  0.081717  1
  B  B15  1  0.500000  0.750291  0.918234  1
  B  B16  1  0.500000  0.791064  0.266460  1
  B  B17  1  0.500000  0.208636  0.733474  1
  B  B18  1  0.500000  0.291556  0.233396  1
  B  B19  1  0.500000  0.708604  0.766560  1
  B  B20  1  0.500000  0.630538  0.184838  1
  B  B21  1  0.500000  0.369374  0.815092  1
  B  B22  1  0.500000  0.130923  0.314944  1
  B  B23  1  0.500000  0.869338  0.684960  1
  B  B24  1  0.500000  0.984310  0.213841  1
  B  B25  1  0.500000  0.015883  0.785930  1
  B  B26  1  0.500000  0.484002  0.285864  1
  B  B27  1  0.500000  0.515899  0.714101  1
  B  B28  1  0.500000  0.603036  0.028242  1
  B  B29  1  0.500000  0.396964  0.971722  1
  B  B30  1  0.500000  0.103517  0.471943  1
  B  B31  1  0.500000  0.896762  0.528643  1
  Os  Os32  1  0.000000  0.638230  0.319807  1
  Os  Os33  1  0.000000  0.361413  0.680229  1
  Os  Os34  1  0.000000  0.138865  0.179973  1
  Os  Os35  1  0.000000  0.861343  0.819892  1
