# generated using pymatgen
data_Dy16In4Os3Au
_symmetry_space_group_name_H-M   'P 1'
_cell_length_a   9.68560041
_cell_length_b   9.68551982
_cell_length_c   9.68564002
_cell_angle_alpha   60.24854909
_cell_angle_beta   60.24933517
_cell_angle_gamma   60.24823678
_symmetry_Int_Tables_number   1
_chemical_formula_structural   Dy16In4Os3Au
_chemical_formula_sum   'Dy16 In4 Os3 Au1'
_cell_volume   646.10185232
_cell_formula_units_Z   1
loop_
 _symmetry_equiv_pos_site_id
 _symmetry_equiv_pos_as_xyz
  1  'x, y, z'
loop_
 _atom_site_type_symbol
 _atom_site_label
 _atom_site_symmetry_multiplicity
 _atom_site_fract_x
 _atom_site_fract_y
 _atom_site_fract_z
 _atom_site_occupancy
  Dy  Dy0  1  0.596190  0.596229  0.596178  1
  Dy  Dy1  1  0.607031  0.607067  0.193814  1
  Dy  Dy2  1  0.607052  0.193796  0.607039  1
  Dy  Dy3  1  0.193809  0.607072  0.607023  1
  Dy  Dy4  1  0.046833  0.442246  0.442244  1
  Dy  Dy5  1  0.441576  0.058458  0.058517  1
  Dy  Dy6  1  0.442241  0.046813  0.442241  1
  Dy  Dy7  1  0.058478  0.441579  0.058494  1
  Dy  Dy8  1  0.442245  0.442247  0.046840  1
  Dy  Dy9  1  0.058510  0.058467  0.441574  1
  Dy  Dy10  1  0.192707  0.809276  0.809268  1
  Dy  Dy11  1  0.815260  0.192071  0.192075  1
  Dy  Dy12  1  0.809277  0.192702  0.809274  1
  Dy  Dy13  1  0.192075  0.815261  0.192076  1
  Dy  Dy14  1  0.809268  0.809273  0.192708  1
  Dy  Dy15  1  0.192073  0.192071  0.815261  1
  In  In16  1  0.833619  0.833615  0.833620  1
  In  In17  1  0.831944  0.831942  0.501626  1
  In  In18  1  0.831943  0.501629  0.831944  1
  In  In19  1  0.501627  0.831943  0.831944  1
  Os  Os20  1  0.388445  0.388446  0.826772  1
  Os  Os21  1  0.388447  0.826767  0.388446  1
  Os  Os22  1  0.826772  0.388447  0.388445  1
  Au  Au23  1  0.392579  0.392581  0.392578  1
