# generated using pymatgen
data_Dy12TlIn(NiRu)2
_symmetry_space_group_name_H-M   'P 1'
_cell_length_a   8.46011217
_cell_length_b   8.46011354
_cell_length_c   8.46011185
_cell_angle_alpha   113.27354731
_cell_angle_beta   109.83120510
_cell_angle_gamma   105.40428383
_symmetry_Int_Tables_number   1
_chemical_formula_structural   Dy12TlIn(NiRu)2
_chemical_formula_sum   'Dy12 Tl1 In1 Ni2 Ru2'
_cell_volume   463.93164695
_cell_formula_units_Z   1
loop_
 _symmetry_equiv_pos_site_id
 _symmetry_equiv_pos_as_xyz
  1  'x, y, z'
loop_
 _atom_site_type_symbol
 _atom_site_label
 _atom_site_symmetry_multiplicity
 _atom_site_fract_x
 _atom_site_fract_y
 _atom_site_fract_z
 _atom_site_occupancy
  Dy  Dy0  1  0.440363  0.239735  0.200630  1
  Dy  Dy1  1  0.559637  0.760265  0.799370  1
  Dy  Dy2  1  0.039105  0.239735  0.799370  1
  Dy  Dy3  1  0.960895  0.760265  0.200630  1
  Dy  Dy4  1  0.185113  0.283318  0.468431  1
  Dy  Dy5  1  0.814887  0.716682  0.531569  1
  Dy  Dy6  1  0.185113  0.716682  0.901795  1
  Dy  Dy7  1  0.814887  0.283318  0.098205  1
  Dy  Dy8  1  0.326549  0.639473  0.312924  1
  Dy  Dy9  1  0.673451  0.360527  0.687076  1
  Dy  Dy10  1  0.326549  0.013626  0.687076  1
  Dy  Dy11  1  0.673451  0.986374  0.312924  1
  Tl  Tl12  1  0.000000  0.000000  0.000000  1
  In  In13  1  0.500000  0.500000  0.000000  1
  Ni  Ni14  1  0.115664  0.615664  0.500000  1
  Ni  Ni15  1  0.884336  0.384336  0.500000  1
  Ru  Ru16  1  0.334461  0.000000  0.334461  1
  Ru  Ru17  1  0.665539  0.000000  0.665539  1
