# generated using pymatgen
data_CsRb3(Lu3Te5)4
_symmetry_space_group_name_H-M   'P 1'
_cell_length_a   4.34157800
_cell_length_b   13.13290798
_cell_length_c   23.34885752
_cell_angle_alpha   89.84481477
_cell_angle_beta   90.00000000
_cell_angle_gamma   90.00000000
_symmetry_Int_Tables_number   1
_chemical_formula_structural   CsRb3(Lu3Te5)4
_chemical_formula_sum   'Cs1 Rb3 Lu12 Te20'
_cell_volume   1331.28963645
_cell_formula_units_Z   1
loop_
 _symmetry_equiv_pos_site_id
 _symmetry_equiv_pos_as_xyz
  1  'x, y, z'
loop_
 _atom_site_type_symbol
 _atom_site_label
 _atom_site_symmetry_multiplicity
 _atom_site_fract_x
 _atom_site_fract_y
 _atom_site_fract_z
 _atom_site_occupancy
  Cs  Cs0  1  0.250000  0.353333  0.089562  1
  Rb  Rb1  1  0.750000  0.648113  0.909628  1
  Rb  Rb2  1  0.750000  0.852006  0.409660  1
  Rb  Rb3  1  0.250000  0.147989  0.590251  1
  Lu  Lu4  1  0.250000  0.453520  0.697850  1
  Lu  Lu5  1  0.750000  0.546717  0.302330  1
  Lu  Lu6  1  0.750000  0.953595  0.802130  1
  Lu  Lu7  1  0.250000  0.045774  0.198115  1
  Lu  Lu8  1  0.250000  0.797543  0.674409  1
  Lu  Lu9  1  0.750000  0.202229  0.325798  1
  Lu  Lu10  1  0.750000  0.297429  0.825340  1
  Lu  Lu11  1  0.250000  0.703301  0.174681  1
  Lu  Lu12  1  0.250000  0.391974  0.444386  1
  Lu  Lu13  1  0.750000  0.608062  0.555591  1
  Lu  Lu14  1  0.750000  0.891771  0.055571  1
  Lu  Lu15  1  0.250000  0.107712  0.944122  1
  Te  Te16  1  0.250000  0.444793  0.569047  1
  Te  Te17  1  0.750000  0.555218  0.430978  1
  Te  Te18  1  0.750000  0.944725  0.930950  1
  Te  Te19  1  0.250000  0.054389  0.068974  1
  Te  Te20  1  0.250000  0.768768  0.545893  1
  Te  Te21  1  0.750000  0.231243  0.454144  1
  Te  Te22  1  0.750000  0.267866  0.953137  1
  Te  Te23  1  0.250000  0.731152  0.045895  1
  Te  Te24  1  0.250000  0.798516  0.803199  1
  Te  Te25  1  0.750000  0.200191  0.197492  1
  Te  Te26  1  0.750000  0.298546  0.696764  1
  Te  Te27  1  0.250000  0.701686  0.303319  1
  Te  Te28  1  0.250000  0.454890  0.827157  1
  Te  Te29  1  0.750000  0.547089  0.173683  1
  Te  Te30  1  0.750000  0.954926  0.672774  1
  Te  Te31  1  0.250000  0.044956  0.327314  1
  Te  Te32  1  0.250000  0.374828  0.313517  1
  Te  Te33  1  0.750000  0.625195  0.686438  1
  Te  Te34  1  0.750000  0.874878  0.186488  1
  Te  Te35  1  0.250000  0.125077  0.813412  1
