# generated using pymatgen
data_Y3HoTcB12Rh
_symmetry_space_group_name_H-M   'P 1'
_cell_length_a   3.68500900
_cell_length_b   9.15540875
_cell_length_c   11.55040528
_cell_angle_alpha   90.35925564
_cell_angle_beta   90.00000000
_cell_angle_gamma   90.00000000
_symmetry_Int_Tables_number   1
_chemical_formula_structural   Y3HoTcB12Rh
_chemical_formula_sum   'Y6 Ho2 Tc2 B24 Rh2'
_cell_volume   389.67718277
_cell_formula_units_Z   2
loop_
 _symmetry_equiv_pos_site_id
 _symmetry_equiv_pos_as_xyz
  1  'x, y, z'
loop_
 _atom_site_type_symbol
 _atom_site_label
 _atom_site_symmetry_multiplicity
 _atom_site_fract_x
 _atom_site_fract_y
 _atom_site_fract_z
 _atom_site_occupancy
  Y  Y0  1  0.500000  0.318778  0.410997  1
  Y  Y1  1  0.500000  0.681222  0.589003  1
  Y  Y2  1  0.500000  0.173128  0.917079  1
  Y  Y3  1  0.500000  0.826872  0.082921  1
  Y  Y4  1  0.500000  0.441921  0.126782  1
  Y  Y5  1  0.500000  0.558079  0.873218  1
  Ho  Ho6  1  0.500000  0.054039  0.628491  1
  Ho  Ho7  1  0.500000  0.945961  0.371509  1
  Tc  Tc8  1  0.500000  0.138774  0.180042  1
  Tc  Tc9  1  0.500000  0.861226  0.819958  1
  B  B10  1  0.000000  0.108247  0.470886  1
  B  B11  1  0.000000  0.891753  0.529114  1
  B  B12  1  0.000000  0.392438  0.970122  1
  B  B13  1  0.000000  0.607562  0.029878  1
  B  B14  1  0.000000  0.132182  0.314675  1
  B  B15  1  0.000000  0.867818  0.685325  1
  B  B16  1  0.000000  0.367055  0.816129  1
  B  B17  1  0.000000  0.632945  0.183871  1
  B  B18  1  0.000000  0.053324  0.067756  1
  B  B19  1  0.000000  0.946676  0.932244  1
  B  B20  1  0.000000  0.445482  0.566182  1
  B  B21  1  0.000000  0.554518  0.433818  1
  B  B22  1  0.000000  0.484056  0.287802  1
  B  B23  1  0.000000  0.515944  0.712198  1
  B  B24  1  0.000000  0.016249  0.786788  1
  B  B25  1  0.000000  0.983751  0.213212  1
  B  B26  1  0.000000  0.247663  0.081376  1
  B  B27  1  0.000000  0.752337  0.918624  1
  B  B28  1  0.000000  0.250853  0.578954  1
  B  B29  1  0.000000  0.749147  0.421046  1
  B  B30  1  0.000000  0.292374  0.234570  1
  B  B31  1  0.000000  0.707626  0.765430  1
  B  B32  1  0.000000  0.208560  0.734460  1
  B  B33  1  0.000000  0.791440  0.265540  1
  Rh  Rh34  1  0.500000  0.361451  0.678391  1
  Rh  Rh35  1  0.500000  0.638549  0.321609  1
