# generated using pymatgen
data_YBeB14
_symmetry_space_group_name_H-M   'P 1'
_cell_length_a   7.20917863
_cell_length_b   7.20917770
_cell_length_c   7.20917710
_cell_angle_alpha   132.74067736
_cell_angle_beta   110.34528505
_cell_angle_gamma   88.48961326
_symmetry_Int_Tables_number   1
_chemical_formula_structural   YBeB14
_chemical_formula_sum   'Y2 Be2 B28'
_cell_volume   245.76561235
_cell_formula_units_Z   2
loop_
 _symmetry_equiv_pos_site_id
 _symmetry_equiv_pos_as_xyz
  1  'x, y, z'
loop_
 _atom_site_type_symbol
 _atom_site_label
 _atom_site_symmetry_multiplicity
 _atom_site_fract_x
 _atom_site_fract_y
 _atom_site_fract_z
 _atom_site_occupancy
  Y  Y0  1  0.607792  0.250000  0.357792  1
  Y  Y1  1  0.392208  0.750000  0.642208  1
  Be  Be2  1  0.000000  0.000000  0.500000  1
  Be  Be3  1  0.000000  0.500000  0.000000  1
  B  B4  1  0.631781  0.666273  0.965508  1
  B  B5  1  0.368219  0.333727  0.034492  1
  B  B6  1  0.200765  0.166273  0.034492  1
  B  B7  1  0.799235  0.833727  0.965508  1
  B  B8  1  0.790896  0.155706  0.635188  1
  B  B9  1  0.209104  0.844294  0.364812  1
  B  B10  1  0.020518  0.655706  0.364812  1
  B  B11  1  0.979482  0.344294  0.635188  1
  B  B12  1  0.924818  0.092276  0.832542  1
  B  B13  1  0.075182  0.907724  0.167458  1
  B  B14  1  0.759737  0.592276  0.167458  1
  B  B15  1  0.240263  0.407724  0.832542  1
  B  B16  1  0.398104  0.395810  0.676344  1
  B  B17  1  0.601896  0.278240  0.997707  1
  B  B18  1  0.219466  0.895810  0.997707  1
  B  B19  1  0.780534  0.778240  0.676344  1
  B  B20  1  0.601896  0.604190  0.323656  1
  B  B21  1  0.398104  0.721760  0.002293  1
  B  B22  1  0.780534  0.104190  0.002293  1
  B  B23  1  0.219466  0.221760  0.323656  1
  B  B24  1  0.032779  0.827934  0.698471  1
  B  B25  1  0.967221  0.665691  0.795154  1
  B  B26  1  0.629464  0.327934  0.795154  1
  B  B27  1  0.370536  0.165691  0.698471  1
  B  B28  1  0.967221  0.172066  0.301529  1
  B  B29  1  0.032779  0.334309  0.204846  1
  B  B30  1  0.370536  0.672066  0.204846  1
  B  B31  1  0.629464  0.834309  0.301529  1
