# generated using pymatgen
data_Dy6Mn5Co(NiP)12
_symmetry_space_group_name_H-M   'P 1'
_cell_length_a   3.77398300
_cell_length_b   10.53301565
_cell_length_c   12.35398602
_cell_angle_alpha   89.77871723
_cell_angle_beta   90.00000000
_cell_angle_gamma   90.00000000
_symmetry_Int_Tables_number   1
_chemical_formula_structural   Dy6Mn5Co(NiP)12
_chemical_formula_sum   'Dy6 Mn5 Co1 Ni12 P12'
_cell_volume   491.08484920
_cell_formula_units_Z   1
loop_
 _symmetry_equiv_pos_site_id
 _symmetry_equiv_pos_as_xyz
  1  'x, y, z'
loop_
 _atom_site_type_symbol
 _atom_site_label
 _atom_site_symmetry_multiplicity
 _atom_site_fract_x
 _atom_site_fract_y
 _atom_site_fract_z
 _atom_site_occupancy
  Dy  Dy0  1  0.000000  0.500548  0.520920  1
  Dy  Dy1  1  0.500000  0.999614  0.478613  1
  Dy  Dy2  1  0.500000  0.818311  0.206544  1
  Dy  Dy3  1  0.500000  0.182120  0.209464  1
  Dy  Dy4  1  0.000000  0.681701  0.794171  1
  Dy  Dy5  1  0.000000  0.318588  0.790602  1
  Mn  Mn6  1  0.500000  0.500925  0.154685  1
  Mn  Mn7  1  0.000000  0.999121  0.844594  1
  Mn  Mn8  1  0.000000  0.501013  0.988663  1
  Mn  Mn9  1  0.500000  0.331649  0.996559  1
  Mn  Mn10  1  0.000000  0.167753  0.002784  1
  Co  Co11  1  0.500000  0.998206  0.014112  1
  Ni  Ni12  1  0.500000  0.500627  0.699958  1
  Ni  Ni13  1  0.000000  0.999290  0.297622  1
  Ni  Ni14  1  0.500000  0.669637  0.991275  1
  Ni  Ni15  1  0.000000  0.831154  0.008042  1
  Ni  Ni16  1  0.500000  0.301162  0.429050  1
  Ni  Ni17  1  0.500000  0.699072  0.428578  1
  Ni  Ni18  1  0.000000  0.198600  0.571459  1
  Ni  Ni19  1  0.000000  0.801063  0.571547  1
  Ni  Ni20  1  0.500000  0.879650  0.709613  1
  Ni  Ni21  1  0.500000  0.120205  0.710467  1
  Ni  Ni22  1  0.000000  0.620126  0.290469  1
  Ni  Ni23  1  0.000000  0.379844  0.290282  1
  P  P24  1  0.500000  0.498455  0.879459  1
  P  P25  1  0.000000  0.002027  0.118390  1
  P  P26  1  0.500000  0.500956  0.345630  1
  P  P27  1  0.000000  0.998839  0.654671  1
  P  P28  1  0.500000  0.312952  0.614268  1
  P  P29  1  0.500000  0.687426  0.614263  1
  P  P30  1  0.000000  0.186021  0.385627  1
  P  P31  1  0.000000  0.813222  0.385382  1
  P  P32  1  0.500000  0.849671  0.891186  1
  P  P33  1  0.500000  0.153581  0.893075  1
  P  P34  1  0.000000  0.652350  0.109438  1
  P  P35  1  0.000000  0.344521  0.108537  1
