# generated using pymatgen
data_Sr4YbIn(MoO6)2
_symmetry_space_group_name_H-M   'P 1'
_cell_length_a   5.79078004
_cell_length_b   8.18430300
_cell_length_c   5.90308869
_cell_angle_alpha   90.20529625
_cell_angle_beta   90.07600019
_cell_angle_gamma   89.96340525
_symmetry_Int_Tables_number   1
_chemical_formula_structural   Sr4YbIn(MoO6)2
_chemical_formula_sum   'Sr4 Yb1 In1 Mo2 O12'
_cell_volume   279.76592652
_cell_formula_units_Z   1
loop_
 _symmetry_equiv_pos_site_id
 _symmetry_equiv_pos_as_xyz
  1  'x, y, z'
loop_
 _atom_site_type_symbol
 _atom_site_label
 _atom_site_symmetry_multiplicity
 _atom_site_fract_x
 _atom_site_fract_y
 _atom_site_fract_z
 _atom_site_occupancy
  Sr  Sr0  1  0.488140  0.253179  0.542042  1
  Sr  Sr1  1  0.009714  0.255318  0.041021  1
  Sr  Sr2  1  0.990286  0.744680  0.958978  1
  Sr  Sr3  1  0.511861  0.746820  0.457957  1
  Yb  Yb4  1  0.500000  0.000001  0.000000  1
  In  In5  1  0.000001  0.500000  0.500001  1
  Mo  Mo6  1  0.000000  0.999999  0.500000  1
  Mo  Mo7  1  0.500000  0.500002  0.999999  1
  O  O8  1  0.783360  0.541766  0.203357  1
  O  O9  1  0.216639  0.458234  0.796643  1
  O  O10  1  0.268084  0.038890  0.309555  1
  O  O11  1  0.731917  0.961109  0.690446  1
  O  O12  1  0.578584  0.271712  0.975798  1
  O  O13  1  0.917890  0.234025  0.476078  1
  O  O14  1  0.082111  0.765976  0.523922  1
  O  O15  1  0.421414  0.728289  0.024202  1
  O  O16  1  0.298531  0.453280  0.281652  1
  O  O17  1  0.812641  0.955303  0.232190  1
  O  O18  1  0.187360  0.044697  0.767810  1
  O  O19  1  0.701468  0.546719  0.718347  1
