# generated using pymatgen
data_Tm2Lu18CoBi11
_symmetry_space_group_name_H-M   'P 1'
_cell_length_a   8.08440496
_cell_length_b   9.37502300
_cell_length_c   11.79990600
_cell_angle_alpha   90.00000000
_cell_angle_beta   89.64754433
_cell_angle_gamma   90.00000000
_symmetry_Int_Tables_number   1
_chemical_formula_structural   Tm2Lu18CoBi11
_chemical_formula_sum   'Tm2 Lu18 Co1 Bi11'
_cell_volume   894.31544730
_cell_formula_units_Z   1
loop_
 _symmetry_equiv_pos_site_id
 _symmetry_equiv_pos_as_xyz
  1  'x, y, z'
loop_
 _atom_site_type_symbol
 _atom_site_label
 _atom_site_symmetry_multiplicity
 _atom_site_fract_x
 _atom_site_fract_y
 _atom_site_fract_z
 _atom_site_occupancy
  Tm  Tm0  1  0.808865  0.750000  0.216525  1
  Tm  Tm1  1  0.314787  0.750000  0.280796  1
  Lu  Lu2  1  0.049155  0.250000  0.507175  1
  Lu  Lu3  1  0.985936  0.750000  0.493063  1
  Lu  Lu4  1  0.478013  0.750000  0.010935  1
  Lu  Lu5  1  0.527540  0.250000  0.990221  1
  Lu  Lu6  1  0.357979  0.250000  0.309901  1
  Lu  Lu7  1  0.655304  0.750000  0.718247  1
  Lu  Lu8  1  0.147414  0.750000  0.778506  1
  Lu  Lu9  1  0.847129  0.250000  0.216083  1
  Lu  Lu10  1  0.206557  0.250000  0.773436  1
  Lu  Lu11  1  0.641410  0.250000  0.698912  1
  Lu  Lu12  1  0.194015  0.067509  0.064329  1
  Lu  Lu13  1  0.807261  0.933193  0.940203  1
  Lu  Lu14  1  0.316412  0.974779  0.558387  1
  Lu  Lu15  1  0.807261  0.566807  0.940203  1
  Lu  Lu16  1  0.675692  0.076719  0.447888  1
  Lu  Lu17  1  0.194015  0.432491  0.064329  1
  Lu  Lu18  1  0.675692  0.423281  0.447888  1
  Lu  Lu19  1  0.316412  0.525221  0.558387  1
  Co  Co20  1  0.414882  0.250000  0.530075  1
  Bi  Bi21  1  0.595757  0.750000  0.459917  1
  Bi  Bi22  1  0.097705  0.750000  0.041125  1
  Bi  Bi23  1  0.910609  0.250000  0.951199  1
  Bi  Bi24  1  0.057005  0.000486  0.322423  1
  Bi  Bi25  1  0.931982  0.002228  0.675394  1
  Bi  Bi26  1  0.434988  0.992067  0.828289  1
  Bi  Bi27  1  0.931982  0.497772  0.675394  1
  Bi  Bi28  1  0.563122  0.006056  0.175028  1
  Bi  Bi29  1  0.057005  0.499514  0.322423  1
  Bi  Bi30  1  0.563122  0.493944  0.175028  1
  Bi  Bi31  1  0.434988  0.507933  0.828289  1
