# generated using pymatgen
data_TbDy6Cd(Sn11Os3)2
_symmetry_space_group_name_H-M   'P 1'
_cell_length_a   9.83236600
_cell_length_b   9.83236436
_cell_length_c   10.18625100
_cell_angle_alpha   90.00000000
_cell_angle_beta   90.00000000
_cell_angle_gamma   119.99999205
_symmetry_Int_Tables_number   1
_chemical_formula_structural   TbDy6Cd(Sn11Os3)2
_chemical_formula_sum   'Tb1 Dy6 Cd1 Sn22 Os6'
_cell_volume   852.82719430
_cell_formula_units_Z   1
loop_
 _symmetry_equiv_pos_site_id
 _symmetry_equiv_pos_as_xyz
  1  'x, y, z'
loop_
 _atom_site_type_symbol
 _atom_site_label
 _atom_site_symmetry_multiplicity
 _atom_site_fract_x
 _atom_site_fract_y
 _atom_site_fract_z
 _atom_site_occupancy
  Tb  Tb0  1  0.000000  0.000000  0.000000  1
  Dy  Dy1  1  0.482834  0.517166  0.305933  1
  Dy  Dy2  1  0.517166  0.482834  0.694067  1
  Dy  Dy3  1  0.482834  0.965669  0.305933  1
  Dy  Dy4  1  0.517166  0.034331  0.694067  1
  Dy  Dy5  1  0.034331  0.517166  0.305933  1
  Dy  Dy6  1  0.965669  0.482834  0.694067  1
  Cd  Cd7  1  0.000000  0.000000  0.500000  1
  Sn  Sn8  1  0.349855  0.000000  0.000000  1
  Sn  Sn9  1  0.650145  0.000000  0.000000  1
  Sn  Sn10  1  0.000000  0.349855  0.000000  1
  Sn  Sn11  1  0.000000  0.650145  0.000000  1
  Sn  Sn12  1  0.650145  0.650145  0.000000  1
  Sn  Sn13  1  0.349855  0.349855  0.000000  1
  Sn  Sn14  1  0.333333  0.666667  0.824824  1
  Sn  Sn15  1  0.666667  0.333333  0.175176  1
  Sn  Sn16  1  0.779670  0.220330  0.460644  1
  Sn  Sn17  1  0.220330  0.779670  0.539356  1
  Sn  Sn18  1  0.779670  0.559338  0.460644  1
  Sn  Sn19  1  0.220330  0.440662  0.539356  1
  Sn  Sn20  1  0.440662  0.220330  0.460644  1
  Sn  Sn21  1  0.559338  0.779670  0.539356  1
  Sn  Sn22  1  0.333333  0.666667  0.126108  1
  Sn  Sn23  1  0.666667  0.333333  0.873892  1
  Sn  Sn24  1  0.122540  0.877460  0.267827  1
  Sn  Sn25  1  0.877460  0.122540  0.732173  1
  Sn  Sn26  1  0.122540  0.245080  0.267827  1
  Sn  Sn27  1  0.877460  0.754920  0.732173  1
  Sn  Sn28  1  0.754920  0.877460  0.267827  1
  Sn  Sn29  1  0.245080  0.122540  0.732173  1
  Os  Os30  1  0.830954  0.169046  0.203558  1
  Os  Os31  1  0.169046  0.830954  0.796442  1
  Os  Os32  1  0.830954  0.661908  0.203558  1
  Os  Os33  1  0.169046  0.338092  0.796442  1
  Os  Os34  1  0.338092  0.169046  0.203558  1
  Os  Os35  1  0.661908  0.830954  0.796442  1
