# generated using pymatgen
data_Sm2ScAlIr2
_symmetry_space_group_name_H-M   'P 1'
_cell_length_a   4.36460800
_cell_length_b   7.23616700
_cell_length_c   8.30136600
_cell_angle_alpha   90.00000000
_cell_angle_beta   90.00000000
_cell_angle_gamma   90.00000000
_symmetry_Int_Tables_number   1
_chemical_formula_structural   Sm2ScAlIr2
_chemical_formula_sum   'Sm4 Sc2 Al2 Ir4'
_cell_volume   262.18231116
_cell_formula_units_Z   2
loop_
 _symmetry_equiv_pos_site_id
 _symmetry_equiv_pos_as_xyz
  1  'x, y, z'
loop_
 _atom_site_type_symbol
 _atom_site_label
 _atom_site_symmetry_multiplicity
 _atom_site_fract_x
 _atom_site_fract_y
 _atom_site_fract_z
 _atom_site_occupancy
  Sm  Sm0  1  0.750000  0.451877  0.177118  1
  Sm  Sm1  1  0.250000  0.048123  0.677118  1
  Sm  Sm2  1  0.750000  0.980186  0.322245  1
  Sm  Sm3  1  0.250000  0.519814  0.822245  1
  Sc  Sc4  1  0.750000  0.873243  0.938986  1
  Sc  Sc5  1  0.250000  0.626757  0.438986  1
  Al  Al6  1  0.750000  0.360442  0.564158  1
  Al  Al7  1  0.250000  0.139558  0.064158  1
  Ir  Ir8  1  0.750000  0.729326  0.616292  1
  Ir  Ir9  1  0.750000  0.234553  0.881200  1
  Ir  Ir10  1  0.250000  0.265447  0.381200  1
  Ir  Ir11  1  0.250000  0.770674  0.116292  1
