# generated using pymatgen
data_MgZn21Pd4
_symmetry_space_group_name_H-M   'P 1'
_cell_length_a   7.98324227
_cell_length_b   7.91574419
_cell_length_c   7.98324263
_cell_angle_alpha   109.30003410
_cell_angle_beta   109.64186441
_cell_angle_gamma   109.30004039
_symmetry_Int_Tables_number   1
_chemical_formula_structural   MgZn21Pd4
_chemical_formula_sum   'Mg1 Zn21 Pd4'
_cell_volume   389.17203214
_cell_formula_units_Z   1
loop_
 _symmetry_equiv_pos_site_id
 _symmetry_equiv_pos_as_xyz
  1  'x, y, z'
loop_
 _atom_site_type_symbol
 _atom_site_label
 _atom_site_symmetry_multiplicity
 _atom_site_fract_x
 _atom_site_fract_y
 _atom_site_fract_z
 _atom_site_occupancy
  Mg  Mg0  1  0.000000  0.773400  0.000000  1
  Zn  Zn1  1  0.779882  0.001283  0.000000  1
  Zn  Zn2  1  0.000000  0.001283  0.779882  1
  Zn  Zn3  1  0.220118  0.221401  0.220118  1
  Zn  Zn4  1  0.348005  0.625318  0.348005  1
  Zn  Zn5  1  0.279222  0.004734  0.653166  1
  Zn  Zn6  1  0.653166  0.004734  0.279222  1
  Zn  Zn7  1  0.289083  0.649646  0.000000  1
  Zn  Zn8  1  0.720778  0.725512  0.373943  1
  Zn  Zn9  1  0.373943  0.725512  0.720778  1
  Zn  Zn10  1  0.000000  0.649646  0.289083  1
  Zn  Zn11  1  0.000000  0.277312  0.651995  1
  Zn  Zn12  1  0.651995  0.277312  0.000000  1
  Zn  Zn13  1  0.346834  0.351569  0.626057  1
  Zn  Zn14  1  0.626057  0.351569  0.346834  1
  Zn  Zn15  1  0.710917  0.360563  0.710917  1
  Zn  Zn16  1  0.356616  0.352138  0.000000  1
  Zn  Zn17  1  0.000000  0.643112  0.634602  1
  Zn  Zn18  1  0.000000  0.352138  0.356616  1
  Zn  Zn19  1  0.365398  0.008510  0.365398  1
  Zn  Zn20  1  0.643384  0.995522  0.643384  1
  Zn  Zn21  1  0.634602  0.643112  0.000000  1
  Pd  Pd22  1  0.000000  0.356113  0.000000  1
  Pd  Pd23  1  0.346768  0.998443  0.000000  1
  Pd  Pd24  1  0.000000  0.998443  0.346768  1
  Pd  Pd25  1  0.653232  0.651675  0.653232  1
