# generated using pymatgen
data_Zn22AgRh3
_symmetry_space_group_name_H-M   'P 1'
_cell_length_a   7.93152119
_cell_length_b   7.94597591
_cell_length_c   7.93152165
_cell_angle_alpha   109.50814449
_cell_angle_beta   109.43427475
_cell_angle_gamma   109.50813731
_symmetry_Int_Tables_number   1
_chemical_formula_structural   Zn22AgRh3
_chemical_formula_sum   'Zn22 Ag1 Rh3'
_cell_volume   384.62744621
_cell_formula_units_Z   1
loop_
 _symmetry_equiv_pos_site_id
 _symmetry_equiv_pos_as_xyz
  1  'x, y, z'
loop_
 _atom_site_type_symbol
 _atom_site_label
 _atom_site_symmetry_multiplicity
 _atom_site_fract_x
 _atom_site_fract_y
 _atom_site_fract_z
 _atom_site_occupancy
  Zn  Zn0  1  0.000000  0.790146  0.000000  1
  Zn  Zn1  1  0.780368  0.993171  0.000000  1
  Zn  Zn2  1  0.000000  0.993171  0.780368  1
  Zn  Zn3  1  0.219632  0.212802  0.219632  1
  Zn  Zn4  1  0.354723  0.621759  0.354723  1
  Zn  Zn5  1  0.268010  0.002412  0.649970  1
  Zn  Zn6  1  0.649970  0.002412  0.268010  1
  Zn  Zn7  1  0.276721  0.655265  0.000000  1
  Zn  Zn8  1  0.731990  0.734402  0.381960  1
  Zn  Zn9  1  0.381960  0.734402  0.731990  1
  Zn  Zn10  1  0.000000  0.655265  0.276721  1
  Zn  Zn11  1  0.000000  0.267037  0.645277  1
  Zn  Zn12  1  0.645277  0.267037  0.000000  1
  Zn  Zn13  1  0.350030  0.352442  0.618040  1
  Zn  Zn14  1  0.618040  0.352442  0.350030  1
  Zn  Zn15  1  0.723279  0.378544  0.723279  1
  Zn  Zn16  1  0.357380  0.355826  0.000000  1
  Zn  Zn17  1  0.000000  0.638005  0.647671  1
  Zn  Zn18  1  0.000000  0.355826  0.357380  1
  Zn  Zn19  1  0.352329  0.990335  0.352329  1
  Zn  Zn20  1  0.642620  0.998446  0.642620  1
  Zn  Zn21  1  0.647671  0.638005  0.000000  1
  Ag  Ag22  1  0.000000  0.350638  0.000000  1
  Rh  Rh23  1  0.345603  0.001938  0.000000  1
  Rh  Rh24  1  0.000000  0.001938  0.345603  1
  Rh  Rh25  1  0.654397  0.656335  0.654397  1
