# generated using pymatgen
data_YEr2Np7O20
_symmetry_space_group_name_H-M   'P 1'
_cell_length_a   6.57663378
_cell_length_b   7.58394409
_cell_length_c   8.47818800
_cell_angle_alpha   102.65008233
_cell_angle_beta   97.33635171
_cell_angle_gamma   106.86199922
_symmetry_Int_Tables_number   1
_chemical_formula_structural   YEr2Np7O20
_chemical_formula_sum   'Y1 Er2 Np7 O20'
_cell_volume   386.49326683
_cell_formula_units_Z   1
loop_
 _symmetry_equiv_pos_site_id
 _symmetry_equiv_pos_as_xyz
  1  'x, y, z'
loop_
 _atom_site_type_symbol
 _atom_site_label
 _atom_site_symmetry_multiplicity
 _atom_site_fract_x
 _atom_site_fract_y
 _atom_site_fract_z
 _atom_site_occupancy
  Y  Y0  1  0.999433  0.999698  0.999631  1
  Er  Er1  1  0.799661  0.599373  0.599409  1
  Er  Er2  1  0.600856  0.200943  0.200764  1
  Np  Np3  1  0.998755  0.499521  0.999578  1
  Np  Np4  1  0.799556  0.100093  0.599351  1
  Np  Np5  1  0.199539  0.399034  0.398157  1
  Np  Np6  1  0.601089  0.700005  0.200760  1
  Np  Np7  1  0.400386  0.299001  0.801149  1
  Np  Np8  1  0.200168  0.901320  0.399124  1
  Np  Np9  1  0.400589  0.800975  0.802026  1
  O  O10  1  0.857060  0.321227  0.453457  1
  O  O11  1  0.642739  0.915711  0.051844  1
  O  O12  1  0.442526  0.521428  0.654416  1
  O  O13  1  0.950138  0.768508  0.153271  1
  O  O14  1  0.855004  0.831227  0.448024  1
  O  O15  1  0.744402  0.368806  0.751738  1
  O  O16  1  0.248783  0.125635  0.257766  1
  O  O17  1  0.649702  0.430429  0.047866  1
  O  O18  1  0.954952  0.285418  0.150335  1
  O  O19  1  0.447280  0.026617  0.647151  1
  O  O20  1  0.549434  0.970399  0.354525  1
  O  O21  1  0.055314  0.717626  0.849425  1
  O  O22  1  0.740458  0.877630  0.744889  1
  O  O23  1  0.251843  0.628070  0.247259  1
  O  O24  1  0.349914  0.572031  0.953275  1
  O  O25  1  0.050759  0.230655  0.844784  1
  O  O26  1  0.545669  0.481189  0.349345  1
  O  O27  1  0.151513  0.173332  0.552222  1
  O  O28  1  0.355523  0.076184  0.943642  1
  O  O29  1  0.156953  0.677917  0.544820  1
