# generated using pymatgen
data_Er2Al3Si2Pt2Rh
_symmetry_space_group_name_H-M   'P 1'
_cell_length_a   8.32379120
_cell_length_b   8.32379051
_cell_length_c   8.32378977
_cell_angle_alpha   139.18546171
_cell_angle_beta   100.81693576
_cell_angle_gamma   93.18150792
_symmetry_Int_Tables_number   1
_chemical_formula_structural   Er2Al3Si2Pt2Rh
_chemical_formula_sum   'Er4 Al6 Si4 Pt4 Rh2'
_cell_volume   352.29060272
_cell_formula_units_Z   2
loop_
 _symmetry_equiv_pos_site_id
 _symmetry_equiv_pos_as_xyz
  1  'x, y, z'
loop_
 _atom_site_type_symbol
 _atom_site_label
 _atom_site_symmetry_multiplicity
 _atom_site_fract_x
 _atom_site_fract_y
 _atom_site_fract_z
 _atom_site_occupancy
  Er  Er0  1  0.872367  0.629843  0.242525  1
  Er  Er1  1  0.127633  0.370157  0.757475  1
  Er  Er2  1  0.387318  0.129843  0.257475  1
  Er  Er3  1  0.612682  0.870157  0.742525  1
  Al  Al4  1  0.500000  0.750000  0.250000  1
  Al  Al5  1  0.500000  0.250000  0.750000  1
  Al  Al6  1  0.238126  0.988126  0.750000  1
  Al  Al7  1  0.761874  0.511874  0.750000  1
  Al  Al8  1  0.761874  0.011874  0.250000  1
  Al  Al9  1  0.238126  0.488126  0.250000  1
  Si  Si10  1  0.036068  0.892637  0.143431  1
  Si  Si11  1  0.963932  0.107363  0.856569  1
  Si  Si12  1  0.749207  0.392637  0.356569  1
  Si  Si13  1  0.250793  0.607363  0.643431  1
  Pt  Pt14  1  0.233013  0.868095  0.364920  1
  Pt  Pt15  1  0.766987  0.131905  0.635080  1
  Pt  Pt16  1  0.503175  0.368095  0.135080  1
  Pt  Pt17  1  0.496825  0.631905  0.864920  1
  Rh  Rh18  1  0.000000  0.750000  0.750000  1
  Rh  Rh19  1  0.000000  0.250000  0.250000  1
