# generated using pymatgen
data_Er6Zn22BPd
_symmetry_space_group_name_H-M   'P 1'
_cell_length_a   8.96044871
_cell_length_b   8.96044751
_cell_length_c   8.96044900
_cell_angle_alpha   60.00000557
_cell_angle_beta   60.00001002
_cell_angle_gamma   60.00000223
_symmetry_Int_Tables_number   1
_chemical_formula_structural   Er6Zn22BPd
_chemical_formula_sum   'Er6 Zn22 B1 Pd1'
_cell_volume   508.71470480
_cell_formula_units_Z   1
loop_
 _symmetry_equiv_pos_site_id
 _symmetry_equiv_pos_as_xyz
  1  'x, y, z'
loop_
 _atom_site_type_symbol
 _atom_site_label
 _atom_site_symmetry_multiplicity
 _atom_site_fract_x
 _atom_site_fract_y
 _atom_site_fract_z
 _atom_site_occupancy
  Er  Er0  1  0.699983  0.300017  0.300017  1
  Er  Er1  1  0.300017  0.699983  0.699983  1
  Er  Er2  1  0.300017  0.699983  0.300017  1
  Er  Er3  1  0.699983  0.300017  0.699983  1
  Er  Er4  1  0.300017  0.300017  0.699983  1
  Er  Er5  1  0.699983  0.699983  0.300017  1
  Zn  Zn6  1  0.120511  0.120511  0.120511  1
  Zn  Zn7  1  0.879489  0.879489  0.879489  1
  Zn  Zn8  1  0.120511  0.120511  0.638466  1
  Zn  Zn9  1  0.120511  0.638466  0.120511  1
  Zn  Zn10  1  0.879489  0.879489  0.361534  1
  Zn  Zn11  1  0.879489  0.361534  0.879489  1
  Zn  Zn12  1  0.638466  0.120511  0.120511  1
  Zn  Zn13  1  0.361534  0.879489  0.879489  1
  Zn  Zn14  1  0.500000  0.000000  0.000000  1
  Zn  Zn15  1  0.000000  0.500000  0.500000  1
  Zn  Zn16  1  0.000000  0.500000  0.000000  1
  Zn  Zn17  1  0.500000  0.000000  0.500000  1
  Zn  Zn18  1  0.000000  0.000000  0.500000  1
  Zn  Zn19  1  0.500000  0.500000  0.000000  1
  Zn  Zn20  1  0.329561  0.329561  0.329561  1
  Zn  Zn21  1  0.670439  0.670439  0.670439  1
  Zn  Zn22  1  0.329561  0.329561  0.011316  1
  Zn  Zn23  1  0.329561  0.011316  0.329561  1
  Zn  Zn24  1  0.670439  0.670439  0.988684  1
  Zn  Zn25  1  0.670439  0.988684  0.670439  1
  Zn  Zn26  1  0.011316  0.329561  0.329561  1
  Zn  Zn27  1  0.988684  0.670439  0.670439  1
  B  B28  1  0.500000  0.500000  0.500000  1
  Pd  Pd29  1  0.000000  0.000000  0.000000  1
