# generated using pymatgen
data_VFeBr14
_symmetry_space_group_name_H-M   'P 1'
_cell_length_a   10.60747800
_cell_length_b   11.22117676
_cell_length_c   12.01593488
_cell_angle_alpha   79.88113654
_cell_angle_beta   90.00000000
_cell_angle_gamma   90.00000000
_symmetry_Int_Tables_number   1
_chemical_formula_structural   VFeBr14
_chemical_formula_sum   'V2 Fe2 Br28'
_cell_volume   1407.99054781
_cell_formula_units_Z   2
loop_
 _symmetry_equiv_pos_site_id
 _symmetry_equiv_pos_as_xyz
  1  'x, y, z'
loop_
 _atom_site_type_symbol
 _atom_site_label
 _atom_site_symmetry_multiplicity
 _atom_site_fract_x
 _atom_site_fract_y
 _atom_site_fract_z
 _atom_site_occupancy
  V  V0  1  0.758650  0.670821  0.920457  1
  V  V1  1  0.258650  0.329179  0.579543  1
  Fe  Fe2  1  0.244460  0.329279  0.081471  1
  Fe  Fe3  1  0.744460  0.670721  0.418529  1
  Br  Br4  1  0.236764  0.769508  0.372162  1
  Br  Br5  1  0.736764  0.230492  0.127838  1
  Br  Br6  1  0.738570  0.248774  0.636472  1
  Br  Br7  1  0.238570  0.751226  0.863528  1
  Br  Br8  1  0.582096  0.066311  0.050869  1
  Br  Br9  1  0.082096  0.933689  0.449131  1
  Br  Br10  1  0.426621  0.929993  0.979555  1
  Br  Br11  1  0.926621  0.070007  0.520445  1
  Br  Br12  1  0.820269  0.152718  0.315936  1
  Br  Br13  1  0.320269  0.847282  0.184064  1
  Br  Br14  1  0.175014  0.838973  0.677592  1
  Br  Br15  1  0.675014  0.161027  0.822408  1
  Br  Br16  1  0.361270  0.242335  0.239161  1
  Br  Br17  1  0.861270  0.757665  0.260839  1
  Br  Br18  1  0.640063  0.732972  0.765583  1
  Br  Br19  1  0.140063  0.267028  0.734417  1
  Br  Br20  1  0.385854  0.402987  0.935728  1
  Br  Br21  1  0.885854  0.597013  0.564272  1
  Br  Br22  1  0.634519  0.600925  0.069103  1
  Br  Br23  1  0.134519  0.399075  0.430897  1
  Br  Br24  1  0.888907  0.522402  0.887805  1
  Br  Br25  1  0.388907  0.477598  0.612195  1
  Br  Br26  1  0.123799  0.489923  0.127001  1
  Br  Br27  1  0.623799  0.510077  0.372999  1
  Br  Br28  1  0.111227  0.183183  0.026259  1
  Br  Br29  1  0.611227  0.816817  0.473741  1
  Br  Br30  1  0.871918  0.827737  0.960375  1
  Br  Br31  1  0.371918  0.172263  0.539625  1
