# generated using pymatgen
data_Rb2VFeS4
_symmetry_space_group_name_H-M   'P 1'
_cell_length_a   13.78439284
_cell_length_b   12.29230251
_cell_length_c   7.33317349
_cell_angle_alpha   85.26986582
_cell_angle_beta   62.71258059
_cell_angle_gamma   32.01756258
_symmetry_Int_Tables_number   1
_chemical_formula_structural   Rb2VFeS4
_chemical_formula_sum   'Rb4 V2 Fe2 S8'
_cell_volume   444.92673416
_cell_formula_units_Z   2
loop_
 _symmetry_equiv_pos_site_id
 _symmetry_equiv_pos_as_xyz
  1  'x, y, z'
loop_
 _atom_site_type_symbol
 _atom_site_label
 _atom_site_symmetry_multiplicity
 _atom_site_fract_x
 _atom_site_fract_y
 _atom_site_fract_z
 _atom_site_occupancy
  Rb  Rb0  1  0.572721  0.572721  0.927279  1
  Rb  Rb1  1  0.927279  0.927279  0.572721  1
  Rb  Rb2  1  0.322721  0.322721  0.677279  1
  Rb  Rb3  1  0.677279  0.677279  0.322721  1
  V  V4  1  0.750000  0.750000  0.750000  1
  V  V5  1  0.500000  0.500000  0.500000  1
  Fe  Fe6  1  0.000000  0.000000  0.000000  1
  Fe  Fe7  1  0.250000  0.250000  0.250000  1
  S  S8  1  0.218476  0.885057  0.596711  1
  S  S9  1  0.299756  0.596711  0.885057  1
  S  S10  1  0.596711  0.299756  0.218476  1
  S  S11  1  0.885057  0.218476  0.299756  1
  S  S12  1  0.364943  0.031524  0.950244  1
  S  S13  1  0.950244  0.653289  0.364943  1
  S  S14  1  0.653289  0.950244  0.031524  1
  S  S15  1  0.031524  0.364943  0.653289  1
