# generated using pymatgen
data_TbIn(Pd2Au)2
_symmetry_space_group_name_H-M   'P 1'
_cell_length_a   6.00953700
_cell_length_b   6.01004300
_cell_length_c   7.89492300
_cell_angle_alpha   90.00000000
_cell_angle_beta   89.99936790
_cell_angle_gamma   90.00000000
_symmetry_Int_Tables_number   1
_chemical_formula_structural   TbIn(Pd2Au)2
_chemical_formula_sum   'Tb2 In2 Pd8 Au4'
_cell_volume   285.14547972
_cell_formula_units_Z   2
loop_
 _symmetry_equiv_pos_site_id
 _symmetry_equiv_pos_as_xyz
  1  'x, y, z'
loop_
 _atom_site_type_symbol
 _atom_site_label
 _atom_site_symmetry_multiplicity
 _atom_site_fract_x
 _atom_site_fract_y
 _atom_site_fract_z
 _atom_site_occupancy
  Tb  Tb0  1  0.250113  0.250001  0.999994  1
  Tb  Tb1  1  0.749887  0.750000  0.000006  1
  In  In2  1  0.249898  0.250001  0.500001  1
  In  In3  1  0.750102  0.750000  0.499999  1
  Pd  Pd4  1  0.999995  0.000004  0.254686  1
  Pd  Pd5  1  0.999995  0.500004  0.254686  1
  Pd  Pd6  1  0.499983  0.999998  0.254852  1
  Pd  Pd7  1  0.499983  0.499995  0.254852  1
  Pd  Pd8  1  0.500017  0.000002  0.745147  1
  Pd  Pd9  1  0.500017  0.500006  0.745147  1
  Pd  Pd10  1  0.000005  0.999996  0.745314  1
  Pd  Pd11  1  0.000005  0.499997  0.745314  1
  Au  Au12  1  0.749984  0.250001  0.000004  1
  Au  Au13  1  0.250016  0.750000  0.999996  1
  Au  Au14  1  0.750104  0.250001  0.500001  1
  Au  Au15  1  0.249896  0.750000  0.499999  1
