# generated using pymatgen
data_Ti7CrP4
_symmetry_space_group_name_H-M   'P 1'
_cell_length_a   3.38131300
_cell_length_b   6.45321410
_cell_length_c   7.87708794
_cell_angle_alpha   89.69130516
_cell_angle_beta   90.00000000
_cell_angle_gamma   90.00000000
_symmetry_Int_Tables_number   1
_chemical_formula_structural   Ti7CrP4
_chemical_formula_sum   'Ti7 Cr1 P4'
_cell_volume   171.87821679
_cell_formula_units_Z   1
loop_
 _symmetry_equiv_pos_site_id
 _symmetry_equiv_pos_as_xyz
  1  'x, y, z'
loop_
 _atom_site_type_symbol
 _atom_site_label
 _atom_site_symmetry_multiplicity
 _atom_site_fract_x
 _atom_site_fract_y
 _atom_site_fract_z
 _atom_site_occupancy
  Ti  Ti0  1  0.250000  0.535036  0.166123  1
  Ti  Ti1  1  0.750000  0.456565  0.835199  1
  Ti  Ti2  1  0.750000  0.965748  0.671364  1
  Ti  Ti3  1  0.250000  0.037244  0.326872  1
  Ti  Ti4  1  0.250000  0.637514  0.564382  1
  Ti  Ti5  1  0.750000  0.356496  0.437280  1
  Ti  Ti6  1  0.750000  0.868934  0.059591  1
  Cr  Cr7  1  0.250000  0.138685  0.940290  1
  P  P8  1  0.250000  0.760399  0.859182  1
  P  P9  1  0.750000  0.244671  0.132445  1
  P  P10  1  0.750000  0.744176  0.359158  1
  P  P11  1  0.250000  0.254533  0.648111  1
