# generated using pymatgen
data_LiHo5Tm11In3Rh4
_symmetry_space_group_name_H-M   'P 1'
_cell_length_a   9.56209070
_cell_length_b   9.55078816
_cell_length_c   9.55078753
_cell_angle_alpha   59.87454572
_cell_angle_beta   59.78967725
_cell_angle_gamma   59.78968613
_symmetry_Int_Tables_number   1
_chemical_formula_structural   LiHo5Tm11In3Rh4
_chemical_formula_sum   'Li1 Ho5 Tm11 In3 Rh4'
_cell_volume   614.21085935
_cell_formula_units_Z   1
loop_
 _symmetry_equiv_pos_site_id
 _symmetry_equiv_pos_as_xyz
  1  'x, y, z'
loop_
 _atom_site_type_symbol
 _atom_site_label
 _atom_site_symmetry_multiplicity
 _atom_site_fract_x
 _atom_site_fract_y
 _atom_site_fract_z
 _atom_site_occupancy
  Li  Li0  1  0.426421  0.426248  0.426248  1
  Ho  Ho1  1  0.062306  0.061833  0.437617  1
  Ho  Ho2  1  0.436829  0.063579  0.436392  1
  Ho  Ho3  1  0.062306  0.437617  0.061833  1
  Ho  Ho4  1  0.049802  0.649477  0.649477  1
  Ho  Ho5  1  0.436829  0.436392  0.063579  1
  Tm  Tm6  1  0.650020  0.047954  0.649615  1
  Tm  Tm7  1  0.186538  0.814856  0.186559  1
  Tm  Tm8  1  0.186538  0.186559  0.814856  1
  Tm  Tm9  1  0.808726  0.808901  0.192083  1
  Tm  Tm10  1  0.438940  0.060520  0.060520  1
  Tm  Tm11  1  0.814684  0.186766  0.186766  1
  Tm  Tm12  1  0.062055  0.437804  0.437804  1
  Tm  Tm13  1  0.808726  0.192083  0.808901  1
  Tm  Tm14  1  0.191607  0.809254  0.809254  1
  Tm  Tm15  1  0.650020  0.649615  0.047954  1
  Tm  Tm16  1  0.650139  0.650873  0.650873  1
  In  In17  1  0.744718  0.417732  0.417732  1
  In  In18  1  0.418508  0.744963  0.416800  1
  In  In19  1  0.418508  0.416800  0.744963  1
  Rh  Rh20  1  0.856599  0.857506  0.426559  1
  Rh  Rh21  1  0.855622  0.858152  0.858152  1
  Rh  Rh22  1  0.426953  0.857955  0.857955  1
  Rh  Rh23  1  0.856599  0.426559  0.857506  1
