# generated using pymatgen
data_HfZr2Nb7(ZnSn3)2
_symmetry_space_group_name_H-M   'P 1'
_cell_length_a   8.44070103
_cell_length_b   8.44070151
_cell_length_c   5.70875300
_cell_angle_alpha   90.00000000
_cell_angle_beta   90.00000000
_cell_angle_gamma   120.00959028
_symmetry_Int_Tables_number   1
_chemical_formula_structural   HfZr2Nb7(ZnSn3)2
_chemical_formula_sum   'Hf1 Zr2 Nb7 Zn2 Sn6'
_cell_volume   352.19806657
_cell_formula_units_Z   1
loop_
 _symmetry_equiv_pos_site_id
 _symmetry_equiv_pos_as_xyz
  1  'x, y, z'
loop_
 _atom_site_type_symbol
 _atom_site_label
 _atom_site_symmetry_multiplicity
 _atom_site_fract_x
 _atom_site_fract_y
 _atom_site_fract_z
 _atom_site_occupancy
  Hf  Hf0  1  0.260942  0.260942  0.250000  1
  Zr  Zr1  1  0.739056  0.000037  0.250000  1
  Zr  Zr2  1  0.000037  0.739056  0.250000  1
  Nb  Nb3  1  0.666441  0.333231  0.997737  1
  Nb  Nb4  1  0.333231  0.666441  0.997737  1
  Nb  Nb5  1  0.333231  0.666441  0.502263  1
  Nb  Nb6  1  0.666441  0.333231  0.502263  1
  Nb  Nb7  1  0.720140  0.720140  0.750000  1
  Nb  Nb8  1  0.279827  0.000175  0.750000  1
  Nb  Nb9  1  0.000175  0.279827  0.750000  1
  Zn  Zn10  1  0.000354  0.000354  0.976152  1
  Zn  Zn11  1  0.000354  0.000354  0.523848  1
  Sn  Sn12  1  0.381923  0.381923  0.750000  1
  Sn  Sn13  1  0.618001  0.000014  0.750000  1
  Sn  Sn14  1  0.000014  0.618001  0.750000  1
  Sn  Sn15  1  0.607816  0.607816  0.250000  1
  Sn  Sn16  1  0.391778  0.000238  0.250000  1
  Sn  Sn17  1  0.000238  0.391778  0.250000  1
