# generated using pymatgen
data_Cd3GeAs(PN2)6
_symmetry_space_group_name_H-M   'P 1'
_cell_length_a   7.40312249
_cell_length_b   7.42587516
_cell_length_c   7.42587536
_cell_angle_alpha   109.53320029
_cell_angle_beta   109.40915921
_cell_angle_gamma   109.40917079
_symmetry_Int_Tables_number   1
_chemical_formula_structural   Cd3GeAs(PN2)6
_chemical_formula_sum   'Cd3 Ge1 As1 P6 N12'
_cell_volume   314.49981889
_cell_formula_units_Z   1
loop_
 _symmetry_equiv_pos_site_id
 _symmetry_equiv_pos_as_xyz
  1  'x, y, z'
loop_
 _atom_site_type_symbol
 _atom_site_label
 _atom_site_symmetry_multiplicity
 _atom_site_fract_x
 _atom_site_fract_y
 _atom_site_fract_z
 _atom_site_occupancy
  Cd  Cd0  1  0.999856  0.000000  0.666997  1
  Cd  Cd1  1  0.999856  0.666997  0.000000  1
  Cd  Cd2  1  0.332859  0.333003  0.333003  1
  Ge  Ge3  1  0.634160  0.000000  0.000000  1
  As  As4  1  0.979992  0.000000  0.000000  1
  P  P5  1  0.252140  0.748488  0.500166  1
  P  P6  1  0.751974  0.248322  0.499834  1
  P  P7  1  0.751974  0.499834  0.248322  1
  P  P8  1  0.252140  0.500166  0.748488  1
  P  P9  1  0.503652  0.751678  0.251512  1
  P  P10  1  0.503652  0.251512  0.751678  1
  N  N11  1  0.705907  0.280150  0.280150  1
  N  N12  1  0.291511  0.715073  0.289807  1
  N  N13  1  0.303384  0.584565  0.584565  1
  N  N14  1  0.576437  0.574734  0.284927  1
  N  N15  1  0.425757  0.719850  0.000000  1
  N  N16  1  0.001704  0.710193  0.425266  1
  N  N17  1  0.576437  0.284927  0.574734  1
  N  N18  1  0.718819  0.000000  0.415435  1
  N  N19  1  0.425757  0.000000  0.719850  1
  N  N20  1  0.718819  0.415435  0.000000  1
  N  N21  1  0.291511  0.289807  0.715073  1
  N  N22  1  0.001704  0.425266  0.710193  1
