# generated using pymatgen
data_Tb4Al24Pd7Au2
_symmetry_space_group_name_H-M   'P 1'
_cell_length_a   7.59333173
_cell_length_b   7.59281480
_cell_length_c   13.20865561
_cell_angle_alpha   84.50112549
_cell_angle_beta   101.02680495
_cell_angle_gamma   119.84370675
_symmetry_Int_Tables_number   1
_chemical_formula_structural   Tb4Al24Pd7Au2
_chemical_formula_sum   'Tb4 Al24 Pd7 Au2'
_cell_volume   648.35544497
_cell_formula_units_Z   1
loop_
 _symmetry_equiv_pos_site_id
 _symmetry_equiv_pos_as_xyz
  1  'x, y, z'
loop_
 _atom_site_type_symbol
 _atom_site_label
 _atom_site_symmetry_multiplicity
 _atom_site_fract_x
 _atom_site_fract_y
 _atom_site_fract_z
 _atom_site_occupancy
  Tb  Tb0  1  0.438113  0.830372  0.809135  1
  Tb  Tb1  1  0.561887  0.169628  0.190865  1
  Tb  Tb2  1  0.767893  0.501712  0.809667  1
  Tb  Tb3  1  0.232107  0.498288  0.190333  1
  Al  Al4  1  0.482664  0.165610  0.945095  1
  Al  Al5  1  0.517336  0.834390  0.054905  1
  Al  Al6  1  0.016035  0.160998  0.562478  1
  Al  Al7  1  0.983965  0.839002  0.437522  1
  Al  Al8  1  0.353273  0.839903  0.560236  1
  Al  Al9  1  0.646727  0.160097  0.439764  1
  Al  Al10  1  0.616381  0.840171  0.326715  1
  Al  Al11  1  0.383619  0.159829  0.673285  1
  Al  Al12  1  0.052884  0.492824  0.673557  1
  Al  Al13  1  0.947116  0.507176  0.326443  1
  Al  Al14  1  0.737371  0.846562  0.671969  1
  Al  Al15  1  0.262629  0.153438  0.328031  1
  Al  Al16  1  0.147842  0.500715  0.944860  1
  Al  Al17  1  0.852158  0.499285  0.055140  1
  Al  Al18  1  0.817867  0.832958  0.954862  1
  Al  Al19  1  0.182133  0.167042  0.045138  1
  Al  Al20  1  0.304633  0.500270  0.436743  1
  Al  Al21  1  0.695367  0.499730  0.563257  1
  Al  Al22  1  0.103521  0.835621  0.183431  1
  Al  Al23  1  0.896479  0.164379  0.816569  1
  Al  Al24  1  0.304967  0.365306  0.818060  1
  Al  Al25  1  0.695033  0.634694  0.181940  1
  Al  Al26  1  0.103378  0.957787  0.816025  1
  Al  Al27  1  0.896622  0.042213  0.183975  1
  Pd  Pd28  1  0.170656  0.828701  0.999768  1
  Pd  Pd29  1  0.829344  0.171299  0.000232  1
  Pd  Pd30  1  0.295019  0.833323  0.363042  1
  Pd  Pd31  1  0.704981  0.166677  0.636958  1
  Pd  Pd32  1  0.045148  0.825188  0.636462  1
  Pd  Pd33  1  0.954852  0.174812  0.363538  1
  Pd  Pd34  1  0.500000  0.500000  0.000000  1
  Au  Au35  1  0.388913  0.508425  0.637471  1
  Au  Au36  1  0.611087  0.491575  0.362529  1
