# generated using pymatgen
data_Tm4AlTc6Ru
_symmetry_space_group_name_H-M   'P 1'
_cell_length_a   5.25781740
_cell_length_b   5.25781757
_cell_length_c   9.07331804
_cell_angle_alpha   89.99108595
_cell_angle_beta   90.00891271
_cell_angle_gamma   119.98820464
_symmetry_Int_Tables_number   1
_chemical_formula_structural   Tm4AlTc6Ru
_chemical_formula_sum   'Tm4 Al1 Tc6 Ru1'
_cell_volume   217.24979679
_cell_formula_units_Z   1
loop_
 _symmetry_equiv_pos_site_id
 _symmetry_equiv_pos_as_xyz
  1  'x, y, z'
loop_
 _atom_site_type_symbol
 _atom_site_label
 _atom_site_symmetry_multiplicity
 _atom_site_fract_x
 _atom_site_fract_y
 _atom_site_fract_z
 _atom_site_occupancy
  Tm  Tm0  1  0.666676  0.333324  0.569247  1
  Tm  Tm1  1  0.333324  0.666676  0.430753  1
  Tm  Tm2  1  0.333308  0.666692  0.064197  1
  Tm  Tm3  1  0.666692  0.333308  0.935803  1
  Al  Al4  1  0.000000  0.000000  0.500000  1
  Tc  Tc5  1  0.170611  0.341206  0.748367  1
  Tc  Tc6  1  0.170605  0.829395  0.748332  1
  Tc  Tc7  1  0.658794  0.829389  0.748367  1
  Tc  Tc8  1  0.829389  0.658794  0.251633  1
  Tc  Tc9  1  0.829395  0.170605  0.251668  1
  Tc  Tc10  1  0.341206  0.170611  0.251633  1
  Ru  Ru11  1  0.000000  0.000000  0.000000  1
