# generated using pymatgen
data_TbEr3(As4O9)2
_symmetry_space_group_name_H-M   'P 1'
_cell_length_a   6.71780602
_cell_length_b   7.51856249
_cell_length_c   9.79356703
_cell_angle_alpha   94.79573426
_cell_angle_beta   104.08076271
_cell_angle_gamma   104.79319436
_symmetry_Int_Tables_number   1
_chemical_formula_structural   TbEr3(As4O9)2
_chemical_formula_sum   'Tb1 Er3 As8 O18'
_cell_volume   458.25536595
_cell_formula_units_Z   1
loop_
 _symmetry_equiv_pos_site_id
 _symmetry_equiv_pos_as_xyz
  1  'x, y, z'
loop_
 _atom_site_type_symbol
 _atom_site_label
 _atom_site_symmetry_multiplicity
 _atom_site_fract_x
 _atom_site_fract_y
 _atom_site_fract_z
 _atom_site_occupancy
  Tb  Tb0  1  0.243111  0.939782  0.614863  1
  Er  Er1  1  0.756412  0.061381  0.384997  1
  Er  Er2  1  0.720928  0.529061  0.409684  1
  Er  Er3  1  0.278752  0.470490  0.589981  1
  As  As4  1  0.682975  0.774393  0.079340  1
  As  As5  1  0.317276  0.226866  0.921935  1
  As  As6  1  0.170059  0.751679  0.912988  1
  As  As7  1  0.829475  0.247630  0.087441  1
  As  As8  1  0.743735  0.914534  0.709253  1
  As  As9  1  0.257277  0.085286  0.289669  1
  As  As10  1  0.810198  0.351687  0.701286  1
  As  As11  1  0.190547  0.647837  0.298180  1
  O  O12  1  0.722667  0.748720  0.260236  1
  O  O13  1  0.277591  0.253397  0.741004  1
  O  O14  1  0.316056  0.978953  0.870617  1
  O  O15  1  0.684768  0.021632  0.132145  1
  O  O16  1  0.608225  0.325330  0.985397  1
  O  O17  1  0.391769  0.674637  0.014687  1
  O  O18  1  0.127013  0.644778  0.737624  1
  O  O19  1  0.872872  0.355131  0.262299  1
  O  O20  1  0.845071  0.875652  0.557502  1
  O  O21  1  0.150811  0.126209  0.438925  1
  O  O22  1  0.482822  0.766118  0.666589  1
  O  O23  1  0.519335  0.232156  0.334377  1
  O  O24  1  0.373360  0.532677  0.380390  1
  O  O25  1  0.626915  0.466569  0.619141  1
  O  O26  1  0.087902  0.667278  0.453336  1
  O  O27  1  0.910910  0.329777  0.545382  1
  O  O28  1  0.378172  0.899639  0.359350  1
  O  O29  1  0.622995  0.100719  0.641383  1
