# generated using pymatgen
data_Ho2Al9ZnCu12
_symmetry_space_group_name_H-M   'P 1'
_cell_length_a   10.34940631
_cell_length_b   8.18952943
_cell_length_c   7.84324100
_cell_angle_alpha   80.37707734
_cell_angle_beta   51.27614908
_cell_angle_gamma   48.34677491
_symmetry_Int_Tables_number   1
_chemical_formula_structural   Ho2Al9ZnCu12
_chemical_formula_sum   'Ho2 Al9 Zn1 Cu12'
_cell_volume   350.50505610
_cell_formula_units_Z   1
loop_
 _symmetry_equiv_pos_site_id
 _symmetry_equiv_pos_as_xyz
  1  'x, y, z'
loop_
 _atom_site_type_symbol
 _atom_site_label
 _atom_site_symmetry_multiplicity
 _atom_site_fract_x
 _atom_site_fract_y
 _atom_site_fract_z
 _atom_site_occupancy
  Ho  Ho0  1  0.000000  0.000000  0.000000  1
  Ho  Ho1  1  0.250000  0.250000  0.250000  1
  Al  Al2  1  0.750000  0.750000  0.750000  1
  Al  Al3  1  0.755063  0.071035  0.834889  1
  Al  Al4  1  0.834889  0.339013  0.755063  1
  Al  Al5  1  0.071035  0.755063  0.339013  1
  Al  Al6  1  0.339013  0.834889  0.071035  1
  Al  Al7  1  0.495091  0.179815  0.415521  1
  Al  Al8  1  0.415521  0.909573  0.495091  1
  Al  Al9  1  0.179815  0.495091  0.909573  1
  Al  Al10  1  0.909573  0.415521  0.179815  1
  Zn  Zn11  1  0.500000  0.500000  0.500000  1
  Cu  Cu12  1  0.625176  0.124669  0.625098  1
  Cu  Cu13  1  0.625098  0.625057  0.625176  1
  Cu  Cu14  1  0.124669  0.625176  0.625057  1
  Cu  Cu15  1  0.625057  0.625098  0.124669  1
  Cu  Cu16  1  0.491247  0.434922  0.183044  1
  Cu  Cu17  1  0.183044  0.890786  0.491247  1
  Cu  Cu18  1  0.434922  0.491247  0.890786  1
  Cu  Cu19  1  0.890786  0.183044  0.434922  1
  Cu  Cu20  1  0.758514  0.815378  0.066767  1
  Cu  Cu21  1  0.066767  0.359343  0.758514  1
  Cu  Cu22  1  0.815378  0.758514  0.359343  1
  Cu  Cu23  1  0.359343  0.066767  0.815378  1
