# generated using pymatgen
data_TbNb(NiAs)2
_symmetry_space_group_name_H-M   'P 1'
_cell_length_a   3.97843100
_cell_length_b   3.97843048
_cell_length_c   14.60621600
_cell_angle_alpha   90.00000000
_cell_angle_beta   90.00000000
_cell_angle_gamma   119.99999602
_symmetry_Int_Tables_number   1
_chemical_formula_structural   TbNb(NiAs)2
_chemical_formula_sum   'Tb2 Nb2 Ni4 As4'
_cell_volume   200.21286095
_cell_formula_units_Z   2
loop_
 _symmetry_equiv_pos_site_id
 _symmetry_equiv_pos_as_xyz
  1  'x, y, z'
loop_
 _atom_site_type_symbol
 _atom_site_label
 _atom_site_symmetry_multiplicity
 _atom_site_fract_x
 _atom_site_fract_y
 _atom_site_fract_z
 _atom_site_occupancy
  Tb  Tb0  1  0.000000  0.000000  0.000000  1
  Tb  Tb1  1  0.000000  0.000000  0.500000  1
  Nb  Nb2  1  0.000000  0.000000  0.250000  1
  Nb  Nb3  1  0.000000  0.000000  0.750000  1
  Ni  Ni4  1  0.333333  0.666667  0.163961  1
  Ni  Ni5  1  0.666667  0.333333  0.836039  1
  Ni  Ni6  1  0.666667  0.333333  0.663961  1
  Ni  Ni7  1  0.333333  0.666667  0.336039  1
  As  As8  1  0.333333  0.666667  0.624757  1
  As  As9  1  0.666667  0.333333  0.375243  1
  As  As10  1  0.666667  0.333333  0.124757  1
  As  As11  1  0.333333  0.666667  0.875243  1
