# generated using pymatgen
data_TlCu5F18
_symmetry_space_group_name_H-M   'P 1'
_cell_length_a   5.03534564
_cell_length_b   5.03573021
_cell_length_c   13.68434312
_cell_angle_alpha   90.00491403
_cell_angle_beta   89.99491370
_cell_angle_gamma   59.98816483
_symmetry_Int_Tables_number   1
_chemical_formula_structural   TlCu5F18
_chemical_formula_sum   'Tl1 Cu5 F18'
_cell_volume   300.46543335
_cell_formula_units_Z   1
loop_
 _symmetry_equiv_pos_site_id
 _symmetry_equiv_pos_as_xyz
  1  'x, y, z'
loop_
 _atom_site_type_symbol
 _atom_site_label
 _atom_site_symmetry_multiplicity
 _atom_site_fract_x
 _atom_site_fract_y
 _atom_site_fract_z
 _atom_site_occupancy
  Tl  Tl0  1  0.333408  0.333305  0.833395  1
  Cu  Cu1  1  0.999907  0.000006  0.013567  1
  Cu  Cu2  1  0.666530  0.666682  0.172455  1
  Cu  Cu3  1  0.333248  0.333365  0.333181  1
  Cu  Cu4  1  0.000066  0.000013  0.494001  1
  Cu  Cu5  1  0.666813  0.666626  0.653265  1
  F  F6  1  0.330924  0.957896  0.093510  1
  F  F7  1  0.710892  0.331040  0.093544  1
  F  F8  1  0.957827  0.710942  0.093477  1
  F  F9  1  0.999486  0.383304  0.253113  1
  F  F10  1  0.617029  0.999848  0.252998  1
  F  F11  1  0.382866  0.617404  0.253110  1
  F  F12  1  0.283697  0.049474  0.413469  1
  F  F13  1  0.666794  0.283491  0.413496  1
  F  F14  1  0.049635  0.666697  0.413591  1
  F  F15  1  0.335752  0.709013  0.573178  1
  F  F16  1  0.708961  0.955605  0.573235  1
  F  F17  1  0.955625  0.335662  0.573131  1
  F  F18  1  0.360235  0.972752  0.736823  1
  F  F19  1  0.667170  0.359968  0.736733  1
  F  F20  1  0.973090  0.666871  0.736747  1
  F  F21  1  0.999353  0.306768  0.929959  1
  F  F22  1  0.693790  0.999417  0.929962  1
  F  F23  1  0.306744  0.693874  0.929926  1
