# generated using pymatgen
data_Y2Lu2ReOsC4
_symmetry_space_group_name_H-M   'P 1'
_cell_length_a   5.05390800
_cell_length_b   6.52862803
_cell_length_c   9.69553834
_cell_angle_alpha   89.76514185
_cell_angle_beta   90.00000000
_cell_angle_gamma   90.00000000
_symmetry_Int_Tables_number   1
_chemical_formula_structural   Y2Lu2ReOsC4
_chemical_formula_sum   'Y4 Lu4 Re2 Os2 C8'
_cell_volume   319.90242800
_cell_formula_units_Z   2
loop_
 _symmetry_equiv_pos_site_id
 _symmetry_equiv_pos_as_xyz
  1  'x, y, z'
loop_
 _atom_site_type_symbol
 _atom_site_label
 _atom_site_symmetry_multiplicity
 _atom_site_fract_x
 _atom_site_fract_y
 _atom_site_fract_z
 _atom_site_occupancy
  Y  Y0  1  0.250000  0.534737  0.214218  1
  Y  Y1  1  0.750000  0.465263  0.785782  1
  Y  Y2  1  0.750000  0.967403  0.711688  1
  Y  Y3  1  0.250000  0.032597  0.288312  1
  Lu  Lu4  1  0.250000  0.672569  0.557182  1
  Lu  Lu5  1  0.750000  0.327431  0.442818  1
  Lu  Lu6  1  0.750000  0.826189  0.057715  1
  Lu  Lu7  1  0.250000  0.173811  0.942285  1
  Re  Re8  1  0.250000  0.722018  0.867269  1
  Re  Re9  1  0.750000  0.277982  0.132731  1
  Os  Os10  1  0.750000  0.776172  0.366489  1
  Os  Os11  1  0.250000  0.223828  0.633511  1
  C  C12  1  0.250000  0.454606  0.761371  1
  C  C13  1  0.750000  0.545394  0.238629  1
  C  C14  1  0.750000  0.045513  0.259464  1
  C  C15  1  0.250000  0.954487  0.740536  1
  C  C16  1  0.250000  0.830740  0.052846  1
  C  C17  1  0.750000  0.169260  0.947154  1
  C  C18  1  0.750000  0.667551  0.551998  1
  C  C19  1  0.250000  0.332449  0.448002  1
