# generated using pymatgen
data_Zr10Tl4CuPPb2
_symmetry_space_group_name_H-M   'P 1'
_cell_length_a   8.77232535
_cell_length_b   8.77232571
_cell_length_c   5.95436884
_cell_angle_alpha   89.96943876
_cell_angle_beta   89.96942793
_cell_angle_gamma   120.00984380
_symmetry_Int_Tables_number   1
_chemical_formula_structural   Zr10Tl4CuPPb2
_chemical_formula_sum   'Zr10 Tl4 Cu1 P1 Pb2'
_cell_volume   396.78249980
_cell_formula_units_Z   1
loop_
 _symmetry_equiv_pos_site_id
 _symmetry_equiv_pos_as_xyz
  1  'x, y, z'
loop_
 _atom_site_type_symbol
 _atom_site_label
 _atom_site_symmetry_multiplicity
 _atom_site_fract_x
 _atom_site_fract_y
 _atom_site_fract_z
 _atom_site_occupancy
  Zr  Zr0  1  0.666393  0.333891  0.498571  1
  Zr  Zr1  1  0.333891  0.666393  0.498571  1
  Zr  Zr2  1  0.334220  0.666678  0.001544  1
  Zr  Zr3  1  0.666678  0.334220  0.001544  1
  Zr  Zr4  1  0.748677  0.748677  0.256687  1
  Zr  Zr5  1  0.251361  0.000051  0.256474  1
  Zr  Zr6  1  0.000051  0.251361  0.256474  1
  Zr  Zr7  1  0.250363  0.250363  0.742625  1
  Zr  Zr8  1  0.748822  0.999489  0.743242  1
  Zr  Zr9  1  0.999489  0.748822  0.743242  1
  Tl  Tl10  1  0.391200  0.391200  0.246185  1
  Tl  Tl11  1  0.609898  0.000176  0.246550  1
  Tl  Tl12  1  0.000176  0.609898  0.246550  1
  Tl  Tl13  1  0.608751  0.608751  0.753768  1
  Cu  Cu14  1  0.999389  0.999389  0.001061  1
  P  P15  1  0.999579  0.999579  0.499104  1
  Pb  Pb16  1  0.391077  0.999985  0.753904  1
  Pb  Pb17  1  0.999985  0.391077  0.753904  1
