# generated using pymatgen
data_Er15Tm(ScBi3)4
_symmetry_space_group_name_H-M   'P 1'
_cell_length_a   8.07395511
_cell_length_b   9.37594701
_cell_length_c   11.87347500
_cell_angle_alpha   90.00095942
_cell_angle_beta   89.94972221
_cell_angle_gamma   89.99755036
_symmetry_Int_Tables_number   1
_chemical_formula_structural   Er15Tm(ScBi3)4
_chemical_formula_sum   'Er15 Tm1 Sc4 Bi12'
_cell_volume   898.83329019
_cell_formula_units_Z   1
loop_
 _symmetry_equiv_pos_site_id
 _symmetry_equiv_pos_as_xyz
  1  'x, y, z'
loop_
 _atom_site_type_symbol
 _atom_site_label
 _atom_site_symmetry_multiplicity
 _atom_site_fract_x
 _atom_site_fract_y
 _atom_site_fract_z
 _atom_site_occupancy
  Er  Er0  1  0.355224  0.249685  0.283901  1
  Er  Er1  1  0.644379  0.749298  0.715858  1
  Er  Er2  1  0.145374  0.749497  0.783729  1
  Er  Er3  1  0.855255  0.249965  0.216195  1
  Er  Er4  1  0.185426  0.249885  0.781202  1
  Er  Er5  1  0.814598  0.749928  0.218877  1
  Er  Er6  1  0.314572  0.749767  0.281417  1
  Er  Er7  1  0.685581  0.250018  0.718682  1
  Er  Er8  1  0.195049  0.065845  0.058511  1
  Er  Er9  1  0.805026  0.934141  0.941341  1
  Er  Er10  1  0.304874  0.934345  0.558435  1
  Er  Er11  1  0.804878  0.565773  0.941482  1
  Er  Er12  1  0.694800  0.065989  0.441565  1
  Er  Er13  1  0.195282  0.434274  0.058625  1
  Er  Er14  1  0.695714  0.434318  0.441466  1
  Tm  Tm15  1  0.304310  0.567541  0.558555  1
  Sc  Sc16  1  0.024302  0.249610  0.512623  1
  Sc  Sc17  1  0.976527  0.749873  0.487318  1
  Sc  Sc18  1  0.475884  0.750239  0.012777  1
  Sc  Sc19  1  0.523981  0.249533  0.987187  1
  Bi  Bi20  1  0.400647  0.251902  0.543309  1
  Bi  Bi21  1  0.598527  0.749723  0.457040  1
  Bi  Bi22  1  0.098713  0.750108  0.042927  1
  Bi  Bi23  1  0.901201  0.250040  0.957072  1
  Bi  Bi24  1  0.065856  0.003849  0.330419  1
  Bi  Bi25  1  0.934192  0.995705  0.669492  1
  Bi  Bi26  1  0.434177  0.995852  0.830201  1
  Bi  Bi27  1  0.934515  0.503969  0.669377  1
  Bi  Bi28  1  0.565681  0.003800  0.169695  1
  Bi  Bi29  1  0.065794  0.495694  0.330610  1
  Bi  Bi30  1  0.565645  0.495931  0.169841  1
  Bi  Bi31  1  0.434016  0.503905  0.830273  1
