# generated using pymatgen
data_Li2YbHoPd2
_symmetry_space_group_name_H-M   'P 1'
_cell_length_a   4.12779100
_cell_length_b   6.98565200
_cell_length_c   8.36556800
_cell_angle_alpha   90.00000000
_cell_angle_beta   90.00000000
_cell_angle_gamma   90.00000000
_symmetry_Int_Tables_number   1
_chemical_formula_structural   Li2YbHoPd2
_chemical_formula_sum   'Li4 Yb2 Ho2 Pd4'
_cell_volume   241.22375878
_cell_formula_units_Z   2
loop_
 _symmetry_equiv_pos_site_id
 _symmetry_equiv_pos_as_xyz
  1  'x, y, z'
loop_
 _atom_site_type_symbol
 _atom_site_label
 _atom_site_symmetry_multiplicity
 _atom_site_fract_x
 _atom_site_fract_y
 _atom_site_fract_z
 _atom_site_occupancy
  Li  Li0  1  0.250000  0.136369  0.938823  1
  Li  Li1  1  0.250000  0.636369  0.561177  1
  Li  Li2  1  0.750000  0.864770  0.056347  1
  Li  Li3  1  0.750000  0.364770  0.443653  1
  Yb  Yb4  1  0.750000  0.967329  0.680945  1
  Yb  Yb5  1  0.750000  0.467329  0.819055  1
  Ho  Ho6  1  0.250000  0.033763  0.317707  1
  Ho  Ho7  1  0.250000  0.533763  0.182293  1
  Pd  Pd8  1  0.250000  0.257142  0.615410  1
  Pd  Pd9  1  0.250000  0.757142  0.884590  1
  Pd  Pd10  1  0.750000  0.740630  0.369259  1
  Pd  Pd11  1  0.750000  0.240630  0.130741  1
