# generated using pymatgen
data_Lu4Zn4Ga3Sn
_symmetry_space_group_name_H-M   'P 1'
_cell_length_a   4.42797500
_cell_length_b   4.42797539
_cell_length_c   14.08747100
_cell_angle_alpha   90.00000000
_cell_angle_beta   90.00000000
_cell_angle_gamma   120.00000455
_symmetry_Int_Tables_number   1
_chemical_formula_structural   Lu4Zn4Ga3Sn
_chemical_formula_sum   'Lu4 Zn4 Ga3 Sn1'
_cell_volume   239.20706674
_cell_formula_units_Z   1
loop_
 _symmetry_equiv_pos_site_id
 _symmetry_equiv_pos_as_xyz
  1  'x, y, z'
loop_
 _atom_site_type_symbol
 _atom_site_label
 _atom_site_symmetry_multiplicity
 _atom_site_fract_x
 _atom_site_fract_y
 _atom_site_fract_z
 _atom_site_occupancy
  Lu  Lu0  1  0.000000  0.000000  0.254563  1
  Lu  Lu1  1  0.000000  0.000000  0.741030  1
  Lu  Lu2  1  0.000000  0.000000  0.013157  1
  Lu  Lu3  1  0.000000  0.000000  0.497790  1
  Zn  Zn4  1  0.333333  0.666667  0.120887  1
  Zn  Zn5  1  0.666667  0.333333  0.838379  1
  Zn  Zn6  1  0.666667  0.333333  0.638664  1
  Zn  Zn7  1  0.333333  0.666667  0.392720  1
  Ga  Ga8  1  0.333333  0.666667  0.602901  1
  Ga  Ga9  1  0.666667  0.333333  0.360557  1
  Ga  Ga10  1  0.666667  0.333333  0.146630  1
  Sn  Sn11  1  0.333333  0.666667  0.892721  1
