# generated using pymatgen
data_Dy11ScSi12IrOs3
_symmetry_space_group_name_H-M   'P 1'
_cell_length_a   4.19753600
_cell_length_b   10.70069694
_cell_length_c   12.27711699
_cell_angle_alpha   89.85674631
_cell_angle_beta   90.00000000
_cell_angle_gamma   90.00000000
_symmetry_Int_Tables_number   1
_chemical_formula_structural   Dy11ScSi12IrOs3
_chemical_formula_sum   'Dy11 Sc1 Si12 Ir1 Os3'
_cell_volume   551.44414606
_cell_formula_units_Z   1
loop_
 _symmetry_equiv_pos_site_id
 _symmetry_equiv_pos_as_xyz
  1  'x, y, z'
loop_
 _atom_site_type_symbol
 _atom_site_label
 _atom_site_symmetry_multiplicity
 _atom_site_fract_x
 _atom_site_fract_y
 _atom_site_fract_z
 _atom_site_occupancy
  Dy  Dy0  1  0.250000  0.880426  0.023202  1
  Dy  Dy1  1  0.250000  0.622894  0.518425  1
  Dy  Dy2  1  0.750000  0.118856  0.981331  1
  Dy  Dy3  1  0.750000  0.381575  0.479154  1
  Dy  Dy4  1  0.250000  0.920570  0.602853  1
  Dy  Dy5  1  0.250000  0.581578  0.106135  1
  Dy  Dy6  1  0.750000  0.077345  0.395105  1
  Dy  Dy7  1  0.750000  0.419820  0.895461  1
  Dy  Dy8  1  0.250000  0.661454  0.800045  1
  Dy  Dy9  1  0.750000  0.340227  0.200182  1
  Dy  Dy10  1  0.750000  0.158680  0.698804  1
  Sc  Sc11  1  0.250000  0.836586  0.297444  1
  Si  Si12  1  0.250000  0.009137  0.822038  1
  Si  Si13  1  0.250000  0.490990  0.320555  1
  Si  Si14  1  0.750000  0.987852  0.181370  1
  Si  Si15  1  0.750000  0.508799  0.679358  1
  Si  Si16  1  0.250000  0.247873  0.840282  1
  Si  Si17  1  0.250000  0.250951  0.341606  1
  Si  Si18  1  0.750000  0.754034  0.163380  1
  Si  Si19  1  0.750000  0.749147  0.656550  1
  Si  Si20  1  0.250000  0.204145  0.543850  1
  Si  Si21  1  0.250000  0.296068  0.045041  1
  Si  Si22  1  0.750000  0.800581  0.447310  1
  Si  Si23  1  0.750000  0.701988  0.957804  1
  Ir  Ir24  1  0.750000  0.888950  0.819305  1
  Os  Os25  1  0.250000  0.390037  0.680698  1
  Os  Os26  1  0.250000  0.107255  0.183392  1
  Os  Os27  1  0.750000  0.612182  0.319320  1
