# generated using pymatgen
data_La5Yb5Pd8
_symmetry_space_group_name_H-M   'P 1'
_cell_length_a   7.69584700
_cell_length_b   7.87069727
_cell_length_c   14.88609968
_cell_angle_alpha   89.92928789
_cell_angle_beta   90.00000000
_cell_angle_gamma   90.00000000
_symmetry_Int_Tables_number   1
_chemical_formula_structural   La5Yb5Pd8
_chemical_formula_sum   'La10 Yb10 Pd16'
_cell_volume   901.67540864
_cell_formula_units_Z   2
loop_
 _symmetry_equiv_pos_site_id
 _symmetry_equiv_pos_as_xyz
  1  'x, y, z'
loop_
 _atom_site_type_symbol
 _atom_site_label
 _atom_site_symmetry_multiplicity
 _atom_site_fract_x
 _atom_site_fract_y
 _atom_site_fract_z
 _atom_site_occupancy
  La  La0  1  0.333295  0.832938  0.123154  1
  La  La1  1  0.833295  0.667062  0.376846  1
  La  La2  1  0.993382  0.184451  0.094427  1
  La  La3  1  0.493382  0.315549  0.405573  1
  La  La4  1  0.506052  0.679399  0.898733  1
  La  La5  1  0.006052  0.820601  0.601267  1
  La  La6  1  0.003036  0.818399  0.900804  1
  La  La7  1  0.503036  0.681601  0.599196  1
  La  La8  1  0.497302  0.319184  0.094110  1
  La  La9  1  0.997302  0.180816  0.405890  1
  Yb  Yb10  1  0.833230  0.665026  0.122615  1
  Yb  Yb11  1  0.333230  0.834974  0.377385  1
  Yb  Yb12  1  0.668107  0.165145  0.875216  1
  Yb  Yb13  1  0.168107  0.334855  0.624784  1
  Yb  Yb14  1  0.165389  0.333765  0.874699  1
  Yb  Yb15  1  0.665389  0.166235  0.625301  1
  Yb  Yb16  1  0.673136  0.005369  0.249265  1
  Yb  Yb17  1  0.173136  0.494631  0.250735  1
  Yb  Yb18  1  0.827886  0.496741  0.749806  1
  Yb  Yb19  1  0.327886  0.003259  0.750194  1
  Pd  Pd20  1  0.036676  0.893046  0.250600  1
  Pd  Pd21  1  0.536676  0.606954  0.249400  1
  Pd  Pd22  1  0.462796  0.387831  0.751150  1
  Pd  Pd23  1  0.962796  0.112169  0.748850  1
  Pd  Pd24  1  0.798823  0.352203  0.250438  1
  Pd  Pd25  1  0.298823  0.147797  0.249562  1
  Pd  Pd26  1  0.703196  0.855987  0.749644  1
  Pd  Pd27  1  0.203196  0.644013  0.750356  1
  Pd  Pd28  1  0.821629  0.463355  0.959857  1
  Pd  Pd29  1  0.321629  0.036645  0.540143  1
  Pd  Pd30  1  0.680379  0.965878  0.037636  1
  Pd  Pd31  1  0.180379  0.534122  0.462364  1
  Pd  Pd32  1  0.174250  0.533217  0.036589  1
  Pd  Pd33  1  0.674250  0.966783  0.463411  1
  Pd  Pd34  1  0.321433  0.035399  0.959216  1
  Pd  Pd35  1  0.821433  0.464601  0.540784  1
