# generated using pymatgen
data_Sm3Y9(AlAu5)4
_symmetry_space_group_name_H-M   'P 1'
_cell_length_a   8.51460900
_cell_length_b   8.51460949
_cell_length_c   13.50236000
_cell_angle_alpha   90.00000000
_cell_angle_beta   90.00000000
_cell_angle_gamma   128.47801715
_symmetry_Int_Tables_number   1
_chemical_formula_structural   Sm3Y9(AlAu5)4
_chemical_formula_sum   'Sm3 Y9 Al4 Au20'
_cell_volume   766.33028020
_cell_formula_units_Z   1
loop_
 _symmetry_equiv_pos_site_id
 _symmetry_equiv_pos_as_xyz
  1  'x, y, z'
loop_
 _atom_site_type_symbol
 _atom_site_label
 _atom_site_symmetry_multiplicity
 _atom_site_fract_x
 _atom_site_fract_y
 _atom_site_fract_z
 _atom_site_occupancy
  Sm  Sm0  1  0.072768  0.927232  0.750000  1
  Sm  Sm1  1  0.321088  0.678912  0.250000  1
  Sm  Sm2  1  0.679197  0.320803  0.750000  1
  Y  Y3  1  0.926852  0.073148  0.250000  1
  Y  Y4  1  0.630877  0.369123  0.464447  1
  Y  Y5  1  0.369118  0.630882  0.535514  1
  Y  Y6  1  0.630877  0.369123  0.035553  1
  Y  Y7  1  0.369118  0.630882  0.964486  1
  Y  Y8  1  0.881816  0.118184  0.951449  1
  Y  Y9  1  0.118096  0.881904  0.049229  1
  Y  Y10  1  0.881816  0.118184  0.548551  1
  Y  Y11  1  0.118096  0.881904  0.450771  1
  Al  Al12  1  0.719777  0.280223  0.250000  1
  Al  Al13  1  0.280614  0.719386  0.750000  1
  Al  Al14  1  0.533062  0.466938  0.250000  1
  Al  Al15  1  0.466968  0.533032  0.750000  1
  Au  Au16  1  0.323690  0.070416  0.250000  1
  Au  Au17  1  0.070313  0.323930  0.750000  1
  Au  Au18  1  0.676070  0.929687  0.750000  1
  Au  Au19  1  0.929584  0.676310  0.250000  1
  Au  Au20  1  0.572641  0.006058  0.397317  1
  Au  Au21  1  0.006200  0.572240  0.602385  1
  Au  Au22  1  0.572641  0.006058  0.102683  1
  Au  Au23  1  0.006200  0.572240  0.897615  1
  Au  Au24  1  0.427760  0.993800  0.602385  1
  Au  Au25  1  0.993942  0.427359  0.397317  1
  Au  Au26  1  0.427760  0.993800  0.897615  1
  Au  Au27  1  0.993942  0.427359  0.102683  1
  Au  Au28  1  0.686162  0.740715  0.394923  1
  Au  Au29  1  0.739028  0.684918  0.604293  1
  Au  Au30  1  0.686162  0.740715  0.105077  1
  Au  Au31  1  0.739028  0.684918  0.895707  1
  Au  Au32  1  0.315082  0.260972  0.604293  1
  Au  Au33  1  0.259285  0.313838  0.394923  1
  Au  Au34  1  0.315082  0.260972  0.895707  1
  Au  Au35  1  0.259285  0.313838  0.105077  1
