# generated using pymatgen
data_Dy7Lu(AlRu)8
_symmetry_space_group_name_H-M   'P 1'
_cell_length_a   4.07766500
_cell_length_b   6.99616653
_cell_length_c   15.97426558
_cell_angle_alpha   90.25588749
_cell_angle_beta   90.00000000
_cell_angle_gamma   90.00000000
_symmetry_Int_Tables_number   1
_chemical_formula_structural   Dy7Lu(AlRu)8
_chemical_formula_sum   'Dy7 Lu1 Al8 Ru8'
_cell_volume   455.70967754
_cell_formula_units_Z   1
loop_
 _symmetry_equiv_pos_site_id
 _symmetry_equiv_pos_as_xyz
  1  'x, y, z'
loop_
 _atom_site_type_symbol
 _atom_site_label
 _atom_site_symmetry_multiplicity
 _atom_site_fract_x
 _atom_site_fract_y
 _atom_site_fract_z
 _atom_site_occupancy
  Dy  Dy0  1  0.750000  0.964094  0.219531  1
  Dy  Dy1  1  0.250000  0.161997  0.563385  1
  Dy  Dy2  1  0.750000  0.842006  0.437186  1
  Dy  Dy3  1  0.750000  0.464096  0.280860  1
  Dy  Dy4  1  0.750000  0.339464  0.062768  1
  Dy  Dy5  1  0.250000  0.657368  0.936182  1
  Dy  Dy6  1  0.250000  0.036382  0.780089  1
  Lu  Lu7  1  0.250000  0.538151  0.717815  1
  Al  Al8  1  0.750000  0.503911  0.566224  1
  Al  Al9  1  0.750000  0.364343  0.848585  1
  Al  Al10  1  0.750000  0.996845  0.933750  1
  Al  Al11  1  0.750000  0.867693  0.651547  1
  Al  Al12  1  0.250000  0.500921  0.434772  1
  Al  Al13  1  0.250000  0.997096  0.065634  1
  Al  Al14  1  0.250000  0.633550  0.151033  1
  Al  Al15  1  0.250000  0.135147  0.349044  1
  Ru  Ru16  1  0.750000  0.738735  0.810870  1
  Ru  Ru17  1  0.250000  0.231315  0.936739  1
  Ru  Ru18  1  0.750000  0.265795  0.436866  1
  Ru  Ru19  1  0.250000  0.753047  0.312185  1
  Ru  Ru20  1  0.750000  0.763280  0.063640  1
  Ru  Ru21  1  0.750000  0.254676  0.688857  1
  Ru  Ru22  1  0.250000  0.253050  0.187669  1
  Ru  Ru23  1  0.250000  0.737037  0.564772  1
