# generated using pymatgen
data_Al3B4Ir9
_symmetry_space_group_name_H-M   'P 1'
_cell_length_a   9.01501600
_cell_length_b   9.01501611
_cell_length_c   5.72285100
_cell_angle_alpha   90.00000000
_cell_angle_beta   90.00000000
_cell_angle_gamma   119.99999959
_symmetry_Int_Tables_number   1
_chemical_formula_structural   Al3B4Ir9
_chemical_formula_sum   'Al6 B8 Ir18'
_cell_volume   402.78758997
_cell_formula_units_Z   2
loop_
 _symmetry_equiv_pos_site_id
 _symmetry_equiv_pos_as_xyz
  1  'x, y, z'
loop_
 _atom_site_type_symbol
 _atom_site_label
 _atom_site_symmetry_multiplicity
 _atom_site_fract_x
 _atom_site_fract_y
 _atom_site_fract_z
 _atom_site_occupancy
  Al  Al0  1  0.460916  0.004615  0.750000  1
  Al  Al1  1  0.456300  0.995385  0.250000  1
  Al  Al2  1  0.539084  0.543700  0.250000  1
  Al  Al3  1  0.543700  0.539084  0.750000  1
  Al  Al4  1  0.995385  0.456300  0.750000  1
  Al  Al5  1  0.004615  0.460916  0.250000  1
  B  B6  1  0.807067  0.000000  0.500000  1
  B  B7  1  0.807067  0.000000  0.000000  1
  B  B8  1  0.000000  0.807067  0.500000  1
  B  B9  1  0.192933  0.192933  0.500000  1
  B  B10  1  0.192933  0.192933  0.000000  1
  B  B11  1  0.000000  0.807067  0.000000  1
  B  B12  1  0.666667  0.333333  0.250000  1
  B  B13  1  0.333333  0.666667  0.750000  1
  Ir  Ir14  1  0.809948  0.535865  0.505071  1
  Ir  Ir15  1  0.535865  0.809948  0.494929  1
  Ir  Ir16  1  0.995149  0.178999  0.750000  1
  Ir  Ir17  1  0.274082  0.464135  0.494929  1
  Ir  Ir18  1  0.004851  0.183851  0.250000  1
  Ir  Ir19  1  0.725918  0.190052  0.505071  1
  Ir  Ir20  1  0.816149  0.821001  0.250000  1
  Ir  Ir21  1  0.190052  0.725918  0.494929  1
  Ir  Ir22  1  0.464135  0.274082  0.505071  1
  Ir  Ir23  1  0.809948  0.535865  0.994929  1
  Ir  Ir24  1  0.464135  0.274082  0.994929  1
  Ir  Ir25  1  0.183851  0.004851  0.750000  1
  Ir  Ir26  1  0.178999  0.995149  0.250000  1
  Ir  Ir27  1  0.190052  0.725918  0.005071  1
  Ir  Ir28  1  0.821001  0.816149  0.750000  1
  Ir  Ir29  1  0.725918  0.190052  0.994929  1
  Ir  Ir30  1  0.274082  0.464135  0.005071  1
  Ir  Ir31  1  0.535865  0.809948  0.005071  1
