# generated using pymatgen
data_Ce3PuNiB16Ir3
_symmetry_space_group_name_H-M   'P 1'
_cell_length_a   7.01390433
_cell_length_b   7.01590785
_cell_length_c   7.01390572
_cell_angle_alpha   111.57844729
_cell_angle_beta   112.45601151
_cell_angle_gamma   104.48193005
_symmetry_Int_Tables_number   1
_chemical_formula_structural   Ce3PuNiB16Ir3
_chemical_formula_sum   'Ce3 Pu1 Ni1 B16 Ir3'
_cell_volume   264.22074699
_cell_formula_units_Z   1
loop_
 _symmetry_equiv_pos_site_id
 _symmetry_equiv_pos_as_xyz
  1  'x, y, z'
loop_
 _atom_site_type_symbol
 _atom_site_label
 _atom_site_symmetry_multiplicity
 _atom_site_fract_x
 _atom_site_fract_y
 _atom_site_fract_z
 _atom_site_occupancy
  Ce  Ce0  1  0.206781  0.208322  0.001541  1
  Ce  Ce1  1  0.752547  0.250962  0.498416  1
  Ce  Ce2  1  0.248024  0.746034  0.498010  1
  Pu  Pu3  1  0.796737  0.798287  0.001549  1
  Ni  Ni4  1  0.499031  0.257988  0.758956  1
  B  B5  1  0.269680  0.109054  0.378433  1
  B  B6  1  0.736419  0.894082  0.630690  1
  B  B7  1  0.263393  0.894082  0.157665  1
  B  B8  1  0.730621  0.109054  0.839373  1
  B  B9  1  0.108678  0.732440  0.840831  1
  B  B10  1  0.891649  0.264116  0.155384  1
  B  B11  1  0.108734  0.264116  0.372467  1
  B  B12  1  0.891608  0.732440  0.623762  1
  B  B13  1  0.116282  0.112243  0.529770  1
  B  B14  1  0.584532  0.585254  0.477296  1
  B  B15  1  0.107959  0.585254  0.000722  1
  B  B16  1  0.582472  0.112243  0.995961  1
  B  B17  1  0.889771  0.890727  0.474202  1
  B  B18  1  0.418944  0.414161  0.532734  1
  B  B19  1  0.881427  0.414161  0.995217  1
  B  B20  1  0.416526  0.890727  0.000957  1
  Ir  Ir21  1  0.267701  0.496914  0.765906  1
  Ir  Ir22  1  0.731008  0.496914  0.229214  1
  Ir  Ir23  1  0.499479  0.740423  0.240945  1
