# generated using pymatgen
data_TaZn6ReN8
_symmetry_space_group_name_H-M   'P 1'
_cell_length_a   6.61886600
_cell_length_b   5.72194132
_cell_length_c   5.38955830
_cell_angle_alpha   90.03808160
_cell_angle_beta   90.00000000
_cell_angle_gamma   90.00000000
_symmetry_Int_Tables_number   1
_chemical_formula_structural   TaZn6ReN8
_chemical_formula_sum   'Ta1 Zn6 Re1 N8'
_cell_volume   204.11741808
_cell_formula_units_Z   1
loop_
 _symmetry_equiv_pos_site_id
 _symmetry_equiv_pos_as_xyz
  1  'x, y, z'
loop_
 _atom_site_type_symbol
 _atom_site_label
 _atom_site_symmetry_multiplicity
 _atom_site_fract_x
 _atom_site_fract_y
 _atom_site_fract_z
 _atom_site_occupancy
  Ta  Ta0  1  0.000000  0.668655  0.231153  1
  Zn  Zn1  1  0.245586  0.830192  0.738269  1
  Zn  Zn2  1  0.242906  0.163129  0.223715  1
  Zn  Zn3  1  0.754414  0.830192  0.738269  1
  Zn  Zn4  1  0.757094  0.163129  0.223715  1
  Zn  Zn5  1  0.000000  0.344454  0.735968  1
  Zn  Zn6  1  0.500000  0.677996  0.225206  1
  Re  Re7  1  0.500000  0.328902  0.725762  1
  N  N8  1  0.755871  0.829263  0.113291  1
  N  N9  1  0.729800  0.176583  0.612971  1
  N  N10  1  0.244129  0.829263  0.113291  1
  N  N11  1  0.270200  0.176583  0.612971  1
  N  N12  1  0.000000  0.345559  0.111859  1
  N  N13  1  0.500000  0.633615  0.614071  1
  N  N14  1  0.000000  0.673040  0.592523  1
  N  N15  1  0.500000  0.329443  0.065482  1
