# generated using pymatgen
data_DyTm5Lu10(In3Co)2
_symmetry_space_group_name_H-M   'P 1'
_cell_length_a   10.16563006
_cell_length_b   10.16563049
_cell_length_c   6.93396500
_cell_angle_alpha   89.99657012
_cell_angle_beta   90.00343465
_cell_angle_gamma   119.98751238
_symmetry_Int_Tables_number   1
_chemical_formula_structural   DyTm5Lu10(In3Co)2
_chemical_formula_sum   'Dy1 Tm5 Lu10 In6 Co2'
_cell_volume   620.63395494
_cell_formula_units_Z   1
loop_
 _symmetry_equiv_pos_site_id
 _symmetry_equiv_pos_as_xyz
  1  'x, y, z'
loop_
 _atom_site_type_symbol
 _atom_site_label
 _atom_site_symmetry_multiplicity
 _atom_site_fract_x
 _atom_site_fract_y
 _atom_site_fract_z
 _atom_site_occupancy
  Dy  Dy0  1  0.999995  0.000005  0.000941  1
  Tm  Tm1  1  0.534090  0.068229  0.512760  1
  Tm  Tm2  1  0.931771  0.465910  0.512760  1
  Tm  Tm3  1  0.533926  0.466074  0.512973  1
  Tm  Tm4  1  0.465663  0.931247  0.013106  1
  Tm  Tm5  1  0.068753  0.534337  0.013106  1
  Lu  Lu6  1  0.465384  0.534616  0.013633  1
  Lu  Lu7  1  0.179925  0.359012  0.718475  1
  Lu  Lu8  1  0.640988  0.820075  0.718475  1
  Lu  Lu9  1  0.179304  0.820696  0.717900  1
  Lu  Lu10  1  0.820096  0.641153  0.218646  1
  Lu  Lu11  1  0.358847  0.179904  0.218646  1
  Lu  Lu12  1  0.820730  0.179270  0.219064  1
  Lu  Lu13  1  0.666400  0.333600  0.904268  1
  Lu  Lu14  1  0.333581  0.666419  0.405625  1
  Lu  Lu15  1  0.000023  0.999977  0.500566  1
  In  In16  1  0.836759  0.673450  0.759905  1
  In  In17  1  0.326550  0.163241  0.759905  1
  In  In18  1  0.836705  0.163295  0.759711  1
  In  In19  1  0.163436  0.326527  0.262881  1
  In  In20  1  0.673473  0.836564  0.262881  1
  In  In21  1  0.163067  0.836933  0.262995  1
  Co  Co22  1  0.666687  0.333313  0.286067  1
  Co  Co23  1  0.333844  0.666156  0.788910  1
