# generated using pymatgen
data_Y5Hg4PdRh
_symmetry_space_group_name_H-M   'P 1'
_cell_length_a   3.72724300
_cell_length_b   7.98466483
_cell_length_c   17.93009100
_cell_angle_alpha   90.38560498
_cell_angle_beta   90.00000000
_cell_angle_gamma   90.00000000
_symmetry_Int_Tables_number   1
_chemical_formula_structural   Y5Hg4PdRh
_chemical_formula_sum   'Y10 Hg8 Pd2 Rh2'
_cell_volume   533.60151808
_cell_formula_units_Z   2
loop_
 _symmetry_equiv_pos_site_id
 _symmetry_equiv_pos_as_xyz
  1  'x, y, z'
loop_
 _atom_site_type_symbol
 _atom_site_label
 _atom_site_symmetry_multiplicity
 _atom_site_fract_x
 _atom_site_fract_y
 _atom_site_fract_z
 _atom_site_occupancy
  Y  Y0  1  0.500000  0.221415  0.784466  1
  Y  Y1  1  0.500000  0.778585  0.215534  1
  Y  Y2  1  0.500000  0.254338  0.284815  1
  Y  Y3  1  0.500000  0.745662  0.715185  1
  Y  Y4  1  0.500000  0.110940  0.588258  1
  Y  Y5  1  0.500000  0.889060  0.411742  1
  Y  Y6  1  0.500000  0.389815  0.086231  1
  Y  Y7  1  0.500000  0.610185  0.913769  1
  Y  Y8  1  0.500000  0.000000  0.000000  1
  Y  Y9  1  0.500000  0.500000  0.500000  1
  Hg  Hg10  1  0.000000  0.089206  0.145375  1
  Hg  Hg11  1  0.000000  0.910794  0.854625  1
  Hg  Hg12  1  0.000000  0.414915  0.646384  1
  Hg  Hg13  1  0.000000  0.585085  0.353616  1
  Hg  Hg14  1  0.000000  0.209356  0.438514  1
  Hg  Hg15  1  0.000000  0.790644  0.561486  1
  Hg  Hg16  1  0.000000  0.289972  0.937941  1
  Hg  Hg17  1  0.000000  0.710028  0.062059  1
  Pd  Pd18  1  0.000000  0.479788  0.198520  1
  Pd  Pd19  1  0.000000  0.520212  0.801480  1
  Rh  Rh20  1  0.000000  0.023669  0.697097  1
  Rh  Rh21  1  0.000000  0.976331  0.302903  1
