# generated using pymatgen
data_Re2NF8
_symmetry_space_group_name_H-M   'P 1'
_cell_length_a   5.45195452
_cell_length_b   5.50157303
_cell_length_c   6.43641533
_cell_angle_alpha   88.11022185
_cell_angle_beta   99.89462187
_cell_angle_gamma   97.95339845
_symmetry_Int_Tables_number   1
_chemical_formula_structural   Re2NF8
_chemical_formula_sum   'Re2 N1 F8'
_cell_volume   188.34655154
_cell_formula_units_Z   1
loop_
 _symmetry_equiv_pos_site_id
 _symmetry_equiv_pos_as_xyz
  1  'x, y, z'
loop_
 _atom_site_type_symbol
 _atom_site_label
 _atom_site_symmetry_multiplicity
 _atom_site_fract_x
 _atom_site_fract_y
 _atom_site_fract_z
 _atom_site_occupancy
  Re  Re0  1  0.057300  0.399936  0.753686  1
  Re  Re1  1  0.942700  0.600064  0.246314  1
  N  N2  1  0.000000  0.500000  0.000000  1
  F  F3  1  0.639193  0.395138  0.244647  1
  F  F4  1  0.901440  0.670767  0.574807  1
  F  F5  1  0.256496  0.785781  0.324309  1
  F  F6  1  0.785865  0.872164  0.138910  1
  F  F7  1  0.214135  0.127836  0.861090  1
  F  F8  1  0.360807  0.604862  0.755353  1
  F  F9  1  0.098560  0.329233  0.425193  1
  F  F10  1  0.743504  0.214219  0.675691  1
