# generated using pymatgen
data_Ho3Zr4NpF28
_symmetry_space_group_name_H-M   'P 1'
_cell_length_a   5.73482370
_cell_length_b   9.19344657
_cell_length_c   12.35101087
_cell_angle_alpha   62.06244831
_cell_angle_beta   89.95980645
_cell_angle_gamma   90.02551833
_symmetry_Int_Tables_number   1
_chemical_formula_structural   Ho3Zr4NpF28
_chemical_formula_sum   'Ho3 Zr4 Np1 F28'
_cell_volume   575.29015103
_cell_formula_units_Z   1
loop_
 _symmetry_equiv_pos_site_id
 _symmetry_equiv_pos_as_xyz
  1  'x, y, z'
loop_
 _atom_site_type_symbol
 _atom_site_label
 _atom_site_symmetry_multiplicity
 _atom_site_fract_x
 _atom_site_fract_y
 _atom_site_fract_z
 _atom_site_occupancy
  Ho  Ho0  1  0.743681  0.820018  0.264410  1
  Ho  Ho1  1  0.243365  0.182496  0.235779  1
  Ho  Ho2  1  0.257946  0.189336  0.735253  1
  Zr  Zr3  1  0.742528  0.280695  0.452377  1
  Zr  Zr4  1  0.243765  0.722700  0.050066  1
  Zr  Zr5  1  0.255984  0.723912  0.539641  1
  Zr  Zr6  1  0.756279  0.271917  0.958013  1
  Np  Np7  1  0.759313  0.821180  0.764974  1
  F  F8  1  0.452583  0.710079  0.921526  1
  F  F9  1  0.961624  0.284575  0.581372  1
  F  F10  1  0.535403  0.283745  0.083068  1
  F  F11  1  0.035699  0.713747  0.413882  1
  F  F12  1  0.452791  0.281995  0.550885  1
  F  F13  1  0.949956  0.711213  0.959556  1
  F  F14  1  0.550598  0.718920  0.446113  1
  F  F15  1  0.047874  0.278902  0.053071  1
  F  F16  1  0.768252  0.519986  0.860261  1
  F  F17  1  0.265946  0.472739  0.639612  1
  F  F18  1  0.235882  0.471787  0.144613  1
  F  F19  1  0.732787  0.529670  0.356116  1
  F  F20  1  0.766670  0.022072  0.061034  1
  F  F21  1  0.266268  0.974484  0.438641  1
  F  F22  1  0.232355  0.972098  0.940573  1
  F  F23  1  0.729513  0.030081  0.552871  1
  F  F24  1  0.977616  0.733796  0.638025  1
  F  F25  1  0.479826  0.263496  0.855997  1
  F  F26  1  0.017228  0.263643  0.353023  1
  F  F27  1  0.520592  0.737436  0.148397  1
  F  F28  1  0.031484  0.744572  0.175572  1
  F  F29  1  0.529741  0.257733  0.326797  1
  F  F30  1  0.968106  0.253912  0.829348  1
  F  F31  1  0.460313  0.736837  0.670264  1
  F  F32  1  0.423888  0.973278  0.233387  1
  F  F33  1  0.924574  0.028647  0.266577  1
  F  F34  1  0.580644  0.042231  0.768454  1
  F  F35  1  0.098924  0.976072  0.730453  1
