# generated using pymatgen
data_Hf6Mn2CoIr3
_symmetry_space_group_name_H-M   'P 1'
_cell_length_a   4.56707400
_cell_length_b   6.43171900
_cell_length_c   13.73926000
_cell_angle_alpha   89.99996134
_cell_angle_beta   90.00252649
_cell_angle_gamma   89.99899041
_symmetry_Int_Tables_number   1
_chemical_formula_structural   Hf6Mn2CoIr3
_chemical_formula_sum   'Hf12 Mn4 Co2 Ir6'
_cell_volume   403.57890007
_cell_formula_units_Z   2
loop_
 _symmetry_equiv_pos_site_id
 _symmetry_equiv_pos_as_xyz
  1  'x, y, z'
loop_
 _atom_site_type_symbol
 _atom_site_label
 _atom_site_symmetry_multiplicity
 _atom_site_fract_x
 _atom_site_fract_y
 _atom_site_fract_z
 _atom_site_occupancy
  Hf  Hf0  1  0.500014  0.249036  0.998801  1
  Hf  Hf1  1  0.500002  0.750963  0.998801  1
  Hf  Hf2  1  0.999888  0.250981  0.167872  1
  Hf  Hf3  1  0.999900  0.749019  0.167872  1
  Hf  Hf4  1  0.499884  0.250187  0.334644  1
  Hf  Hf5  1  0.499913  0.749813  0.334644  1
  Hf  Hf6  1  0.000005  0.249933  0.500326  1
  Hf  Hf7  1  0.999994  0.750065  0.500326  1
  Hf  Hf8  1  0.500092  0.250075  0.666319  1
  Hf  Hf9  1  0.500104  0.749925  0.666319  1
  Hf  Hf10  1  0.000123  0.249837  0.832031  1
  Hf  Hf11  1  0.000094  0.750164  0.832031  1
  Mn  Mn12  1  0.999880  0.500000  0.332522  1
  Mn  Mn13  1  0.499998  0.999998  0.499763  1
  Mn  Mn14  1  0.000110  0.500002  0.666941  1
  Mn  Mn15  1  0.500121  0.000000  0.834129  1
  Co  Co16  1  0.000004  0.500000  0.000282  1
  Co  Co17  1  0.499854  0.000000  0.166392  1
  Ir  Ir18  1  0.000018  0.000000  0.999639  1
  Ir  Ir19  1  0.499873  0.500000  0.167045  1
  Ir  Ir20  1  0.999882  0.999999  0.333354  1
  Ir  Ir21  1  0.500000  0.499999  0.499824  1
  Ir  Ir22  1  0.000116  0.000000  0.666833  1
  Ir  Ir23  1  0.500129  0.500000  0.833292  1
