# generated using pymatgen
data_KRb2GdBr6
_symmetry_space_group_name_H-M   'P 1'
_cell_length_a   8.23283195
_cell_length_b   8.23283257
_cell_length_c   8.49170688
_cell_angle_alpha   119.38241485
_cell_angle_beta   119.38241565
_cell_angle_gamma   60.25145413
_symmetry_Int_Tables_number   1
_chemical_formula_structural   KRb2GdBr6
_chemical_formula_sum   'K1 Rb2 Gd1 Br6'
_cell_volume   411.53214011
_cell_formula_units_Z   1
loop_
 _symmetry_equiv_pos_site_id
 _symmetry_equiv_pos_as_xyz
  1  'x, y, z'
loop_
 _atom_site_type_symbol
 _atom_site_label
 _atom_site_symmetry_multiplicity
 _atom_site_fract_x
 _atom_site_fract_y
 _atom_site_fract_z
 _atom_site_occupancy
  K  K0  1  0.500000  0.500000  0.500001  1
  Rb  Rb1  1  0.749881  0.749881  0.235054  1
  Rb  Rb2  1  0.250119  0.250119  0.764948  1
  Gd  Gd3  1  0.000000  0.000000  0.000000  1
  Br  Br4  1  0.700385  0.184302  0.169284  1
  Br  Br5  1  0.184302  0.700385  0.169284  1
  Br  Br6  1  0.228913  0.228913  0.330138  1
  Br  Br7  1  0.771087  0.771087  0.669862  1
  Br  Br8  1  0.815698  0.299616  0.830715  1
  Br  Br9  1  0.299616  0.815698  0.830715  1
