# generated using pymatgen
data_Nb4Al3Zn5
_symmetry_space_group_name_H-M   'P 1'
_cell_length_a   5.06412902
_cell_length_b   5.06413004
_cell_length_c   8.34495900
_cell_angle_alpha   90.00000000
_cell_angle_beta   90.00000000
_cell_angle_gamma   120.38910519
_symmetry_Int_Tables_number   1
_chemical_formula_structural   Nb4Al3Zn5
_chemical_formula_sum   'Nb4 Al3 Zn5'
_cell_volume   184.60703386
_cell_formula_units_Z   1
loop_
 _symmetry_equiv_pos_site_id
 _symmetry_equiv_pos_as_xyz
  1  'x, y, z'
loop_
 _atom_site_type_symbol
 _atom_site_label
 _atom_site_symmetry_multiplicity
 _atom_site_fract_x
 _atom_site_fract_y
 _atom_site_fract_z
 _atom_site_occupancy
  Nb  Nb0  1  0.332461  0.667539  0.434614  1
  Nb  Nb1  1  0.669769  0.330231  0.562912  1
  Nb  Nb2  1  0.669769  0.330231  0.937088  1
  Nb  Nb3  1  0.332461  0.667539  0.065386  1
  Al  Al4  1  0.002294  0.997706  0.503354  1
  Al  Al5  1  0.002294  0.997706  0.996646  1
  Al  Al6  1  0.823549  0.176451  0.250000  1
  Zn  Zn7  1  0.826215  0.661563  0.250000  1
  Zn  Zn8  1  0.338437  0.173785  0.250000  1
  Zn  Zn9  1  0.173442  0.826558  0.750000  1
  Zn  Zn10  1  0.173667  0.344358  0.750000  1
  Zn  Zn11  1  0.655642  0.826333  0.750000  1
