# generated using pymatgen
data_Ho4Al5Ni9
_symmetry_space_group_name_H-M   'P 1'
_cell_length_a   5.16473125
_cell_length_b   5.16729554
_cell_length_c   12.14898253
_cell_angle_alpha   77.80584070
_cell_angle_beta   77.78583754
_cell_angle_gamma   60.00414789
_symmetry_Int_Tables_number   1
_chemical_formula_structural   Ho4Al5Ni9
_chemical_formula_sum   'Ho4 Al5 Ni9'
_cell_volume   272.30716507
_cell_formula_units_Z   1
loop_
 _symmetry_equiv_pos_site_id
 _symmetry_equiv_pos_as_xyz
  1  'x, y, z'
loop_
 _atom_site_type_symbol
 _atom_site_label
 _atom_site_symmetry_multiplicity
 _atom_site_fract_x
 _atom_site_fract_y
 _atom_site_fract_z
 _atom_site_occupancy
  Ho  Ho0  1  0.952420  0.952291  0.142739  1
  Ho  Ho1  1  0.047580  0.047709  0.857261  1
  Ho  Ho2  1  0.855507  0.856161  0.433077  1
  Ho  Ho3  1  0.144493  0.143839  0.566923  1
  Al  Al4  1  0.500000  0.500000  0.500000  1
  Al  Al5  1  0.722820  0.721371  0.833059  1
  Al  Al6  1  0.277180  0.278629  0.166941  1
  Al  Al7  1  0.610726  0.610598  0.168571  1
  Al  Al8  1  0.389274  0.389402  0.831429  1
  Ni  Ni9  1  0.000000  0.500000  0.000000  1
  Ni  Ni10  1  0.500000  0.000000  0.000000  1
  Ni  Ni11  1  0.500000  0.500000  0.000000  1
  Ni  Ni12  1  0.387602  0.389295  0.331796  1
  Ni  Ni13  1  0.893042  0.389851  0.332764  1
  Ni  Ni14  1  0.384325  0.897747  0.332770  1
  Ni  Ni15  1  0.612398  0.610705  0.668204  1
  Ni  Ni16  1  0.106958  0.610149  0.667236  1
  Ni  Ni17  1  0.615675  0.102253  0.667230  1
