# generated using pymatgen
data_CaNd3Os6O19
_symmetry_space_group_name_H-M   'P 1'
_cell_length_a   7.89295449
_cell_length_b   7.89295547
_cell_length_c   7.90572800
_cell_angle_alpha   109.50400696
_cell_angle_beta   109.50400948
_cell_angle_gamma   109.43841664
_symmetry_Int_Tables_number   1
_chemical_formula_structural   CaNd3Os6O19
_chemical_formula_sum   'Ca1 Nd3 Os6 O19'
_cell_volume   378.98613013
_cell_formula_units_Z   1
loop_
 _symmetry_equiv_pos_site_id
 _symmetry_equiv_pos_as_xyz
  1  'x, y, z'
loop_
 _atom_site_type_symbol
 _atom_site_label
 _atom_site_symmetry_multiplicity
 _atom_site_fract_x
 _atom_site_fract_y
 _atom_site_fract_z
 _atom_site_occupancy
  Ca  Ca0  1  0.000000  0.000000  0.294760  1
  Nd  Nd1  1  0.998392  0.302408  0.999809  1
  Nd  Nd2  1  0.697592  0.695984  0.697401  1
  Nd  Nd3  1  0.304016  0.001608  0.001417  1
  Os  Os4  1  0.364154  0.500368  0.863106  1
  Os  Os5  1  0.863391  0.360351  0.500469  1
  Os  Os6  1  0.496958  0.136609  0.637077  1
  Os  Os7  1  0.136215  0.635846  0.498952  1
  Os  Os8  1  0.499632  0.863785  0.362737  1
  Os  Os9  1  0.639649  0.503042  0.140119  1
  O  O10  1  0.323219  0.000729  0.322422  1
  O  O11  1  0.324723  0.324911  0.002462  1
  O  O12  1  0.000187  0.675277  0.677739  1
  O  O13  1  0.677511  0.676781  0.999202  1
  O  O14  1  0.999271  0.322489  0.321692  1
  O  O15  1  0.675089  0.999813  0.677551  1
  O  O16  1  0.000000  0.000000  0.986486  1
  O  O17  1  0.345264  0.284673  0.631131  1
  O  O18  1  0.061077  0.347558  0.720618  1
  O  O19  1  0.716661  0.371903  0.657928  1
  O  O20  1  0.373838  0.655800  0.714783  1
  O  O21  1  0.286481  0.938923  0.659540  1
  O  O22  1  0.628097  0.344756  0.286022  1
  O  O23  1  0.281961  0.626162  0.340945  1
  O  O24  1  0.715327  0.060590  0.346457  1
  O  O25  1  0.939410  0.654736  0.285867  1
  O  O26  1  0.652442  0.713519  0.373058  1
  O  O27  1  0.655244  0.283339  0.941267  1
  O  O28  1  0.344200  0.718039  0.058983  1
