# generated using pymatgen
data_Tm6Al18FeSi6Ru7
_symmetry_space_group_name_H-M   'P 1'
_cell_length_a   8.61738613
_cell_length_b   8.61738570
_cell_length_c   9.44353815
_cell_angle_alpha   89.98261125
_cell_angle_beta   90.01738999
_cell_angle_gamma   119.85167028
_symmetry_Int_Tables_number   1
_chemical_formula_structural   Tm6Al18FeSi6Ru7
_chemical_formula_sum   'Tm6 Al18 Fe1 Si6 Ru7'
_cell_volume   608.22408889
_cell_formula_units_Z   1
loop_
 _symmetry_equiv_pos_site_id
 _symmetry_equiv_pos_as_xyz
  1  'x, y, z'
loop_
 _atom_site_type_symbol
 _atom_site_label
 _atom_site_symmetry_multiplicity
 _atom_site_fract_x
 _atom_site_fract_y
 _atom_site_fract_z
 _atom_site_occupancy
  Tm  Tm0  1  0.806017  0.193983  0.750244  1
  Tm  Tm1  1  0.193983  0.806017  0.249756  1
  Tm  Tm2  1  0.391212  0.198666  0.750208  1
  Tm  Tm3  1  0.608788  0.801334  0.249792  1
  Tm  Tm4  1  0.801334  0.608788  0.750208  1
  Tm  Tm5  1  0.198666  0.391212  0.249792  1
  Al  Al6  1  0.835590  0.164410  0.419168  1
  Al  Al7  1  0.164410  0.835590  0.580832  1
  Al  Al8  1  0.329060  0.164081  0.420768  1
  Al  Al9  1  0.161706  0.838294  0.920894  1
  Al  Al10  1  0.670940  0.835919  0.579232  1
  Al  Al11  1  0.838294  0.161706  0.079106  1
  Al  Al12  1  0.835919  0.670940  0.420768  1
  Al  Al13  1  0.676489  0.838928  0.922534  1
  Al  Al14  1  0.164081  0.329060  0.579232  1
  Al  Al15  1  0.323511  0.161072  0.077466  1
  Al  Al16  1  0.161072  0.323511  0.922534  1
  Al  Al17  1  0.838928  0.676489  0.077466  1
  Al  Al18  1  0.126395  0.560147  0.750839  1
  Al  Al19  1  0.873605  0.439853  0.249161  1
  Al  Al20  1  0.439853  0.873605  0.750839  1
  Al  Al21  1  0.560147  0.126395  0.249161  1
  Al  Al22  1  0.000552  0.999448  0.756081  1
  Al  Al23  1  0.999448  0.000552  0.243919  1
  Fe  Fe24  1  0.000000  0.000000  0.000000  1
  Si  Si25  1  0.668047  0.331953  0.960952  1
  Si  Si26  1  0.331953  0.668047  0.039048  1
  Si  Si27  1  0.331921  0.668079  0.459358  1
  Si  Si28  1  0.668079  0.331921  0.540642  1
  Si  Si29  1  0.437143  0.562857  0.750576  1
  Si  Si30  1  0.562857  0.437143  0.249424  1
  Ru  Ru31  1  0.500000  0.500000  0.000000  1
  Ru  Ru32  1  0.000000  0.500000  0.000000  1
  Ru  Ru33  1  0.500000  0.500000  0.500000  1
  Ru  Ru34  1  0.500000  0.000000  0.000000  1
  Ru  Ru35  1  0.000000  0.500000  0.500000  1
  Ru  Ru36  1  0.500000  0.000000  0.500000  1
  Ru  Ru37  1  0.000000  0.000000  0.500000  1
