# generated using pymatgen
data_Yb4Eu4Pd3Pt
_symmetry_space_group_name_H-M   'P 1'
_cell_length_a   4.46194000
_cell_length_b   7.92422160
_cell_length_c   9.24577546
_cell_angle_alpha   89.59032814
_cell_angle_beta   90.00000000
_cell_angle_gamma   90.00000000
_symmetry_Int_Tables_number   1
_chemical_formula_structural   Yb4Eu4Pd3Pt
_chemical_formula_sum   'Yb4 Eu4 Pd3 Pt1'
_cell_volume   326.89823692
_cell_formula_units_Z   1
loop_
 _symmetry_equiv_pos_site_id
 _symmetry_equiv_pos_as_xyz
  1  'x, y, z'
loop_
 _atom_site_type_symbol
 _atom_site_label
 _atom_site_symmetry_multiplicity
 _atom_site_fract_x
 _atom_site_fract_y
 _atom_site_fract_z
 _atom_site_occupancy
  Yb  Yb0  1  0.250000  0.645593  0.565990  1
  Yb  Yb1  1  0.250000  0.146141  0.935088  1
  Yb  Yb2  1  0.750000  0.354430  0.432737  1
  Yb  Yb3  1  0.750000  0.856107  0.067165  1
  Eu  Eu4  1  0.750000  0.473182  0.831484  1
  Eu  Eu5  1  0.250000  0.029898  0.324964  1
  Eu  Eu6  1  0.750000  0.974582  0.670450  1
  Eu  Eu7  1  0.250000  0.519591  0.169881  1
  Pd  Pd8  1  0.250000  0.767889  0.878293  1
  Pd  Pd9  1  0.250000  0.267071  0.621453  1
  Pd  Pd10  1  0.750000  0.732480  0.378991  1
  Pt  Pt11  1  0.750000  0.233037  0.123503  1
