# generated using pymatgen
data_Eu3(GaPt)2
_symmetry_space_group_name_H-M   'P 1'
_cell_length_a   5.91930100
_cell_length_b   8.08022800
_cell_length_c   14.22979800
_cell_angle_alpha   90.00000000
_cell_angle_beta   90.00000000
_cell_angle_gamma   90.00000000
_symmetry_Int_Tables_number   1
_chemical_formula_structural   Eu3(GaPt)2
_chemical_formula_sum   'Eu12 Ga8 Pt8'
_cell_volume   680.60130140
_cell_formula_units_Z   4
loop_
 _symmetry_equiv_pos_site_id
 _symmetry_equiv_pos_as_xyz
  1  'x, y, z'
loop_
 _atom_site_type_symbol
 _atom_site_label
 _atom_site_symmetry_multiplicity
 _atom_site_fract_x
 _atom_site_fract_y
 _atom_site_fract_z
 _atom_site_occupancy
  Eu  Eu0  1  0.856050  0.394696  0.902178  1
  Eu  Eu1  1  0.856050  0.105306  0.402178  1
  Eu  Eu2  1  0.143950  0.894695  0.902178  1
  Eu  Eu3  1  0.856050  0.394696  0.597822  1
  Eu  Eu4  1  0.143950  0.605305  0.097822  1
  Eu  Eu5  1  0.630431  0.754038  0.250000  1
  Eu  Eu6  1  0.369570  0.245963  0.750000  1
  Eu  Eu7  1  0.630431  0.745962  0.750000  1
  Eu  Eu8  1  0.369570  0.254038  0.250000  1
  Eu  Eu9  1  0.143950  0.894695  0.597822  1
  Eu  Eu10  1  0.856050  0.105306  0.097822  1
  Eu  Eu11  1  0.143950  0.605305  0.402178  1
  Ga  Ga12  1  0.374562  0.250000  0.500000  1
  Ga  Ga13  1  0.625438  0.750000  0.000000  1
  Ga  Ga14  1  0.625438  0.750000  0.500000  1
  Ga  Ga15  1  0.374562  0.250000  0.000000  1
  Ga  Ga16  1  0.140773  0.903476  0.250000  1
  Ga  Ga17  1  0.859227  0.096525  0.750000  1
  Ga  Ga18  1  0.140773  0.596524  0.750000  1
  Ga  Ga19  1  0.859227  0.403476  0.250000  1
  Pt  Pt20  1  0.637572  0.033648  0.594857  1
  Pt  Pt21  1  0.362428  0.966352  0.094856  1
  Pt  Pt22  1  0.637572  0.466351  0.405143  1
  Pt  Pt23  1  0.362428  0.533648  0.905144  1
  Pt  Pt24  1  0.362428  0.966352  0.405143  1
  Pt  Pt25  1  0.637572  0.033648  0.905144  1
  Pt  Pt26  1  0.362428  0.533648  0.594857  1
  Pt  Pt27  1  0.637572  0.466351  0.094856  1
