# generated using pymatgen
data_Cs2LiV6F21
_symmetry_space_group_name_H-M   'P 1'
_cell_length_a   7.63553702
_cell_length_b   7.63553658
_cell_length_c   10.90433200
_cell_angle_alpha   69.65269110
_cell_angle_beta   69.65269234
_cell_angle_gamma   60.04554952
_symmetry_Int_Tables_number   1
_chemical_formula_structural   Cs2LiV6F21
_chemical_formula_sum   'Cs2 Li1 V6 F21'
_cell_volume   504.44902065
_cell_formula_units_Z   1
loop_
 _symmetry_equiv_pos_site_id
 _symmetry_equiv_pos_as_xyz
  1  'x, y, z'
loop_
 _atom_site_type_symbol
 _atom_site_label
 _atom_site_symmetry_multiplicity
 _atom_site_fract_x
 _atom_site_fract_y
 _atom_site_fract_z
 _atom_site_occupancy
  Cs  Cs0  1  0.143296  0.130303  0.600645  1
  Cs  Cs1  1  0.869697  0.856704  0.399355  1
  Li  Li2  1  0.579065  0.420935  0.500000  1
  V  V3  1  0.454102  0.913973  0.199740  1
  V  V4  1  0.086027  0.545898  0.800260  1
  V  V5  1  0.953103  0.417020  0.195136  1
  V  V6  1  0.456076  0.417600  0.197784  1
  V  V7  1  0.582400  0.543924  0.802216  1
  V  V8  1  0.582980  0.046897  0.804864  1
  F  F9  1  0.662984  0.556549  0.613770  1
  F  F10  1  0.443451  0.337016  0.386230  1
  F  F11  1  0.151868  0.484681  0.224669  1
  F  F12  1  0.515319  0.848132  0.775331  1
  F  F13  1  0.865992  0.460076  0.813434  1
  F  F14  1  0.514625  0.956001  0.001243  1
  F  F15  1  0.758677  0.343943  0.168483  1
  F  F16  1  0.149102  0.586096  0.612204  1
  F  F17  1  0.882241  0.836630  0.796884  1
  F  F18  1  0.747966  0.714474  0.189645  1
  F  F19  1  0.656057  0.241323  0.831517  1
  F  F20  1  0.484382  0.515618  0.000000  1
  F  F21  1  0.849843  0.354188  0.384669  1
  F  F22  1  0.297297  0.638585  0.790123  1
  F  F23  1  0.413904  0.850898  0.387796  1
  F  F24  1  0.285526  0.252034  0.810355  1
  F  F25  1  0.539924  0.134008  0.186566  1
  F  F26  1  0.361415  0.702703  0.209877  1
  F  F27  1  0.163370  0.117759  0.203116  1
  F  F28  1  0.043999  0.485375  0.998757  1
  F  F29  1  0.645812  0.150157  0.615331  1
