# generated using pymatgen
data_Yb3Sn3AsPd2
_symmetry_space_group_name_H-M   'P 1'
_cell_length_a   7.50809300
_cell_length_b   7.50809301
_cell_length_c   4.23400400
_cell_angle_alpha   90.00000000
_cell_angle_beta   90.00000000
_cell_angle_gamma   120.00000434
_symmetry_Int_Tables_number   1
_chemical_formula_structural   Yb3Sn3AsPd2
_chemical_formula_sum   'Yb3 Sn3 As1 Pd2'
_cell_volume   206.70032732
_cell_formula_units_Z   1
loop_
 _symmetry_equiv_pos_site_id
 _symmetry_equiv_pos_as_xyz
  1  'x, y, z'
loop_
 _atom_site_type_symbol
 _atom_site_label
 _atom_site_symmetry_multiplicity
 _atom_site_fract_x
 _atom_site_fract_y
 _atom_site_fract_z
 _atom_site_occupancy
  Yb  Yb0  1  0.999703  0.589333  0.000000  1
  Yb  Yb1  1  0.410667  0.410370  0.000000  1
  Yb  Yb2  1  0.589630  0.000297  0.000000  1
  Sn  Sn3  1  0.762934  0.743113  0.500000  1
  Sn  Sn4  1  0.980179  0.237066  0.500000  1
  Sn  Sn5  1  0.256887  0.019821  0.500000  1
  As  As6  1  0.333333  0.666667  0.500000  1
  Pd  Pd7  1  0.000000  0.000000  0.000000  1
  Pd  Pd8  1  0.666667  0.333333  0.500000  1
