# generated using pymatgen
data_Ce8Nb11Si16Ag
_symmetry_space_group_name_H-M   'P 1'
_cell_length_a   7.14507055
_cell_length_b   7.14507055
_cell_length_c   13.18853053
_cell_angle_alpha   89.88033840
_cell_angle_beta   90.11966160
_cell_angle_gamma   89.92134822
_symmetry_Int_Tables_number   1
_chemical_formula_structural   Ce8Nb11Si16Ag
_chemical_formula_sum   'Ce8 Nb11 Si16 Ag1'
_cell_volume   673.29772216
_cell_formula_units_Z   1
loop_
 _symmetry_equiv_pos_site_id
 _symmetry_equiv_pos_as_xyz
  1  'x, y, z'
loop_
 _atom_site_type_symbol
 _atom_site_label
 _atom_site_symmetry_multiplicity
 _atom_site_fract_x
 _atom_site_fract_y
 _atom_site_fract_z
 _atom_site_occupancy
  Ce  Ce0  1  0.995497  0.335964  0.216084  1
  Ce  Ce1  1  0.005139  0.665368  0.717318  1
  Ce  Ce2  1  0.164661  0.496568  0.466411  1
  Ce  Ce3  1  0.500724  0.838017  0.032493  1
  Ce  Ce4  1  0.838017  0.500724  0.967507  1
  Ce  Ce5  1  0.496568  0.164661  0.533589  1
  Ce  Ce6  1  0.335964  0.995497  0.783916  1
  Ce  Ce7  1  0.665368  0.005139  0.282682  1
  Nb  Nb8  1  0.829984  0.829984  0.500000  1
  Nb  Nb9  1  0.331805  0.670122  0.250733  1
  Nb  Nb10  1  0.670122  0.331805  0.749267  1
  Nb  Nb11  1  0.155783  0.995368  0.374592  1
  Nb  Nb12  1  0.845028  0.002371  0.874754  1
  Nb  Nb13  1  0.506182  0.656527  0.624817  1
  Nb  Nb14  1  0.343070  0.493761  0.877765  1
  Nb  Nb15  1  0.493761  0.343070  0.122235  1
  Nb  Nb16  1  0.656527  0.506182  0.375183  1
  Nb  Nb17  1  0.995368  0.155783  0.625408  1
  Nb  Nb18  1  0.002371  0.845028  0.125246  1
  Si  Si19  1  0.293135  0.039883  0.189457  1
  Si  Si20  1  0.707815  0.958185  0.686399  1
  Si  Si21  1  0.458300  0.793463  0.436177  1
  Si  Si22  1  0.211372  0.554765  0.065640  1
  Si  Si23  1  0.554765  0.211372  0.934360  1
  Si  Si24  1  0.793463  0.458300  0.563823  1
  Si  Si25  1  0.039883  0.293135  0.810543  1
  Si  Si26  1  0.958185  0.707815  0.313601  1
  Si  Si27  1  0.371084  0.296966  0.313762  1
  Si  Si28  1  0.627938  0.703617  0.815389  1
  Si  Si29  1  0.204282  0.871132  0.564274  1
  Si  Si30  1  0.123570  0.783636  0.934339  1
  Si  Si31  1  0.783636  0.123570  0.065661  1
  Si  Si32  1  0.871132  0.204282  0.435726  1
  Si  Si33  1  0.296966  0.371084  0.686238  1
  Si  Si34  1  0.703617  0.627938  0.184611  1
  Ag  Ag35  1  0.168918  0.168918  0.000000  1
