# generated using pymatgen
data_Dy8Nb(TcO8)3
_symmetry_space_group_name_H-M   'P 1'
_cell_length_a   9.91993787
_cell_length_b   9.97200272
_cell_length_c   5.41143046
_cell_angle_alpha   74.82170668
_cell_angle_beta   75.17098038
_cell_angle_gamma   68.28287760
_symmetry_Int_Tables_number   1
_chemical_formula_structural   Dy8Nb(TcO8)3
_chemical_formula_sum   'Dy8 Nb1 Tc3 O24'
_cell_volume   472.35188572
_cell_formula_units_Z   1
loop_
 _symmetry_equiv_pos_site_id
 _symmetry_equiv_pos_as_xyz
  1  'x, y, z'
loop_
 _atom_site_type_symbol
 _atom_site_label
 _atom_site_symmetry_multiplicity
 _atom_site_fract_x
 _atom_site_fract_y
 _atom_site_fract_z
 _atom_site_occupancy
  Dy  Dy0  1  0.942620  0.715156  0.373129  1
  Dy  Dy1  1  0.722566  0.938017  0.877171  1
  Dy  Dy2  1  0.371110  0.633122  0.237397  1
  Dy  Dy3  1  0.892418  0.108781  0.256098  1
  Dy  Dy4  1  0.107275  0.894624  0.752671  1
  Dy  Dy5  1  0.642367  0.368447  0.742244  1
  Dy  Dy6  1  0.279613  0.055977  0.130540  1
  Dy  Dy7  1  0.043457  0.287997  0.625852  1
  Nb  Nb8  1  0.797771  0.513235  0.061479  1
  Tc  Tc9  1  0.509199  0.797594  0.551696  1
  Tc  Tc10  1  0.489972  0.201539  0.450156  1
  Tc  Tc11  1  0.200757  0.489920  0.936849  1
  O  O12  1  0.890702  0.932914  0.073796  1
  O  O13  1  0.928700  0.886572  0.577894  1
  O  O14  1  0.523527  0.934461  0.258662  1
  O  O15  1  0.789734  0.694582  0.131012  1
  O  O16  1  0.939329  0.524446  0.743106  1
  O  O17  1  0.681019  0.787934  0.632691  1
  O  O18  1  0.828579  0.380756  0.389004  1
  O  O19  1  0.383010  0.823451  0.856231  1
  O  O20  1  0.606183  0.543685  0.010593  1
  O  O21  1  0.306334  0.837030  0.405819  1
  O  O22  1  0.542875  0.613019  0.507080  1
  O  O23  1  0.838373  0.301807  0.924139  1
  O  O24  1  0.161456  0.691642  0.083069  1
  O  O25  1  0.454680  0.385924  0.487592  1
  O  O26  1  0.691165  0.159732  0.591009  1
  O  O27  1  0.384122  0.452313  0.986016  1
  O  O28  1  0.609654  0.177769  0.143168  1
  O  O29  1  0.183634  0.612327  0.629882  1
  O  O30  1  0.316664  0.213232  0.374705  1
  O  O31  1  0.067777  0.474513  0.234123  1
  O  O32  1  0.213757  0.316694  0.867629  1
  O  O33  1  0.473251  0.067699  0.748593  1
  O  O34  1  0.074937  0.108267  0.425707  1
  O  O35  1  0.111414  0.074823  0.923197  1
