# generated using pymatgen
data_Lu12Fe2ReAu2
_symmetry_space_group_name_H-M   'P 1'
_cell_length_a   8.06522900
_cell_length_b   8.06522828
_cell_length_c   8.06522829
_cell_angle_alpha   108.93999973
_cell_angle_beta   108.93999713
_cell_angle_gamma   110.53896341
_symmetry_Int_Tables_number   1
_chemical_formula_structural   Lu12Fe2ReAu2
_chemical_formula_sum   'Lu12 Fe2 Re1 Au2'
_cell_volume   403.75210815
_cell_formula_units_Z   1
loop_
 _symmetry_equiv_pos_site_id
 _symmetry_equiv_pos_as_xyz
  1  'x, y, z'
loop_
 _atom_site_type_symbol
 _atom_site_label
 _atom_site_symmetry_multiplicity
 _atom_site_fract_x
 _atom_site_fract_y
 _atom_site_fract_z
 _atom_site_occupancy
  Lu  Lu0  1  0.309741  0.309741  0.619482  1
  Lu  Lu1  1  0.690259  0.690259  0.380518  1
  Lu  Lu2  1  0.690259  0.309741  0.000000  1
  Lu  Lu3  1  0.309741  0.690259  0.000000  1
  Lu  Lu4  1  0.190488  0.436219  0.245731  1
  Lu  Lu5  1  0.809512  0.563781  0.754269  1
  Lu  Lu6  1  0.190488  0.944757  0.754269  1
  Lu  Lu7  1  0.944757  0.190488  0.754269  1
  Lu  Lu8  1  0.809512  0.055243  0.245731  1
  Lu  Lu9  1  0.055243  0.809512  0.245731  1
  Lu  Lu10  1  0.436219  0.190488  0.245731  1
  Lu  Lu11  1  0.563781  0.809512  0.754269  1
  Fe  Fe12  1  0.380331  0.380331  0.000000  1
  Fe  Fe13  1  0.619669  0.619669  0.000000  1
  Re  Re14  1  0.000000  0.000000  0.000000  1
  Au  Au15  1  0.000000  0.500000  0.500000  1
  Au  Au16  1  0.500000  0.000000  0.500000  1
