# generated using pymatgen
data_Tb12IrPt3
_symmetry_space_group_name_H-M   'P 1'
_cell_length_a   6.49042400
_cell_length_b   7.10659400
_cell_length_c   9.62504300
_cell_angle_alpha   90.00000000
_cell_angle_beta   90.00000000
_cell_angle_gamma   89.99681813
_symmetry_Int_Tables_number   1
_chemical_formula_structural   Tb12IrPt3
_chemical_formula_sum   'Tb12 Ir1 Pt3'
_cell_volume   443.95326249
_cell_formula_units_Z   1
loop_
 _symmetry_equiv_pos_site_id
 _symmetry_equiv_pos_as_xyz
  1  'x, y, z'
loop_
 _atom_site_type_symbol
 _atom_site_label
 _atom_site_symmetry_multiplicity
 _atom_site_fract_x
 _atom_site_fract_y
 _atom_site_fract_z
 _atom_site_occupancy
  Tb  Tb0  1  0.326237  0.680384  0.059262  1
  Tb  Tb1  1  0.173304  0.179040  0.439285  1
  Tb  Tb2  1  0.673914  0.323764  0.563548  1
  Tb  Tb3  1  0.822163  0.818010  0.937230  1
  Tb  Tb4  1  0.673914  0.323764  0.936452  1
  Tb  Tb5  1  0.822163  0.818010  0.562770  1
  Tb  Tb6  1  0.326237  0.680384  0.440738  1
  Tb  Tb7  1  0.173304  0.179040  0.060715  1
  Tb  Tb8  1  0.865451  0.528007  0.250000  1
  Tb  Tb9  1  0.635259  0.029051  0.250000  1
  Tb  Tb10  1  0.138281  0.472339  0.750000  1
  Tb  Tb11  1  0.369140  0.965688  0.750000  1
  Ir  Ir12  1  0.554054  0.614815  0.750000  1
  Pt  Pt13  1  0.057047  0.886170  0.250000  1
  Pt  Pt14  1  0.442415  0.387575  0.250000  1
  Pt  Pt15  1  0.947116  0.113959  0.750000  1
