# generated using pymatgen
data_Ho8Cd2IrPd
_symmetry_space_group_name_H-M   'P 1'
_cell_length_a   9.62597868
_cell_length_b   9.62597874
_cell_length_c   9.60529000
_cell_angle_alpha   60.07107155
_cell_angle_beta   60.07107136
_cell_angle_gamma   60.26639698
_symmetry_Int_Tables_number   1
_chemical_formula_structural   Ho8Cd2IrPd
_chemical_formula_sum   'Ho16 Cd4 Ir2 Pd2'
_cell_volume   631.27647559
_cell_formula_units_Z   2
loop_
 _symmetry_equiv_pos_site_id
 _symmetry_equiv_pos_as_xyz
  1  'x, y, z'
loop_
 _atom_site_type_symbol
 _atom_site_label
 _atom_site_symmetry_multiplicity
 _atom_site_fract_x
 _atom_site_fract_y
 _atom_site_fract_z
 _atom_site_occupancy
  Ho  Ho0  1  0.602030  0.602030  0.595186  1
  Ho  Ho1  1  0.602030  0.602030  0.200755  1
  Ho  Ho2  1  0.608794  0.191626  0.599790  1
  Ho  Ho3  1  0.191626  0.608794  0.599790  1
  Ho  Ho4  1  0.055288  0.440032  0.440434  1
  Ho  Ho5  1  0.440032  0.055288  0.064247  1
  Ho  Ho6  1  0.440032  0.055288  0.440434  1
  Ho  Ho7  1  0.055288  0.440032  0.064247  1
  Ho  Ho8  1  0.441561  0.441561  0.058439  1
  Ho  Ho9  1  0.060980  0.060980  0.439020  1
  Ho  Ho10  1  0.186605  0.815927  0.812291  1
  Ho  Ho11  1  0.815927  0.186605  0.185176  1
  Ho  Ho12  1  0.815927  0.186605  0.812291  1
  Ho  Ho13  1  0.186605  0.815927  0.185176  1
  Ho  Ho14  1  0.813891  0.813891  0.186109  1
  Ho  Ho15  1  0.185564  0.185564  0.814436  1
  Cd  Cd16  1  0.831436  0.831436  0.831657  1
  Cd  Cd17  1  0.831436  0.831436  0.505470  1
  Cd  Cd18  1  0.831015  0.505404  0.831790  1
  Cd  Cd19  1  0.505404  0.831015  0.831790  1
  Ir  Ir20  1  0.391305  0.821901  0.393398  1
  Ir  Ir21  1  0.821901  0.391305  0.393398  1
  Pd  Pd22  1  0.392662  0.392662  0.395239  1
  Pd  Pd23  1  0.392662  0.392662  0.819437  1
