# generated using pymatgen
data_Cd4IrOs(RuO7)2
_symmetry_space_group_name_H-M   'P 1'
_cell_length_a   7.26072679
_cell_length_b   7.26072615
_cell_length_c   7.27539215
_cell_angle_alpha   60.06647116
_cell_angle_beta   60.06647334
_cell_angle_gamma   59.96333715
_symmetry_Int_Tables_number   1
_chemical_formula_structural   Cd4IrOs(RuO7)2
_chemical_formula_sum   'Cd4 Ir1 Os1 Ru2 O14'
_cell_volume   271.40413449
_cell_formula_units_Z   1
loop_
 _symmetry_equiv_pos_site_id
 _symmetry_equiv_pos_as_xyz
  1  'x, y, z'
loop_
 _atom_site_type_symbol
 _atom_site_label
 _atom_site_symmetry_multiplicity
 _atom_site_fract_x
 _atom_site_fract_y
 _atom_site_fract_z
 _atom_site_occupancy
  Cd  Cd0  1  0.125000  0.125000  0.125000  1
  Cd  Cd1  1  0.625000  0.125000  0.125000  1
  Cd  Cd2  1  0.125000  0.625000  0.125000  1
  Cd  Cd3  1  0.125000  0.125000  0.625000  1
  Ir  Ir4  1  0.625000  0.625000  0.625000  1
  Os  Os5  1  0.625000  0.625000  0.125000  1
  Ru  Ru6  1  0.125000  0.625000  0.625000  1
  Ru  Ru7  1  0.625000  0.125000  0.625000  1
  O  O8  1  0.249876  0.249876  0.247951  1
  O  O9  1  0.000124  0.000124  0.002049  1
  O  O10  1  0.556477  0.949220  0.544208  1
  O  O11  1  0.314271  0.691144  0.306715  1
  O  O12  1  0.555213  0.555213  0.948570  1
  O  O13  1  0.949220  0.556477  0.544208  1
  O  O14  1  0.558856  0.935729  0.943285  1
  O  O15  1  0.944844  0.944844  0.550685  1
  O  O16  1  0.935729  0.558856  0.943285  1
  O  O17  1  0.691144  0.314271  0.306715  1
  O  O18  1  0.300780  0.693523  0.705792  1
  O  O19  1  0.693523  0.300780  0.705792  1
  O  O20  1  0.305156  0.305156  0.699315  1
  O  O21  1  0.694787  0.694787  0.301430  1
