# generated using pymatgen
data_Ba2YAlS5
_symmetry_space_group_name_H-M   'P 1'
_cell_length_a   7.15444958
_cell_length_b   8.47954347
_cell_length_c   9.17796555
_cell_angle_alpha   103.66797080
_cell_angle_beta   102.84082413
_cell_angle_gamma   107.52883207
_symmetry_Int_Tables_number   1
_chemical_formula_structural   Ba2YAlS5
_chemical_formula_sum   'Ba4 Y2 Al2 S10'
_cell_volume   489.35456270
_cell_formula_units_Z   2
loop_
 _symmetry_equiv_pos_site_id
 _symmetry_equiv_pos_as_xyz
  1  'x, y, z'
loop_
 _atom_site_type_symbol
 _atom_site_label
 _atom_site_symmetry_multiplicity
 _atom_site_fract_x
 _atom_site_fract_y
 _atom_site_fract_z
 _atom_site_occupancy
  Ba  Ba0  1  0.629716  0.975196  0.288205  1
  Ba  Ba1  1  0.370284  0.024804  0.711795  1
  Ba  Ba2  1  0.333267  0.508378  0.702775  1
  Ba  Ba3  1  0.666733  0.491622  0.297225  1
  Y  Y4  1  0.996739  0.728085  0.997718  1
  Y  Y5  1  0.003261  0.271915  0.002282  1
  Al  Al6  1  0.807629  0.873372  0.692456  1
  Al  Al7  1  0.192371  0.126628  0.307544  1
  S  S8  1  0.988653  0.695186  0.690071  1
  S  S9  1  0.011347  0.304814  0.309929  1
  S  S10  1  0.984568  0.144732  0.693902  1
  S  S11  1  0.015432  0.855268  0.306098  1
  S  S12  1  0.717689  0.907562  0.920316  1
  S  S13  1  0.282311  0.092438  0.079684  1
  S  S14  1  0.712751  0.412861  0.949170  1
  S  S15  1  0.287249  0.587139  0.050830  1
  S  S16  1  0.506006  0.747068  0.499623  1
  S  S17  1  0.493994  0.252932  0.500377  1
