# generated using pymatgen
data_Zr5Nb5(Ga3N)2
_symmetry_space_group_name_H-M   'P 1'
_cell_length_a   7.95428204
_cell_length_b   7.95428294
_cell_length_c   5.49228100
_cell_angle_alpha   90.00000000
_cell_angle_beta   90.00000000
_cell_angle_gamma   120.22826779
_symmetry_Int_Tables_number   1
_chemical_formula_structural   Zr5Nb5(Ga3N)2
_chemical_formula_sum   'Zr5 Nb5 Ga6 N2'
_cell_volume   300.24918999
_cell_formula_units_Z   1
loop_
 _symmetry_equiv_pos_site_id
 _symmetry_equiv_pos_as_xyz
  1  'x, y, z'
loop_
 _atom_site_type_symbol
 _atom_site_label
 _atom_site_symmetry_multiplicity
 _atom_site_fract_x
 _atom_site_fract_y
 _atom_site_fract_z
 _atom_site_occupancy
  Zr  Zr0  1  0.233754  0.000058  0.750000  1
  Zr  Zr1  1  0.000058  0.233754  0.750000  1
  Zr  Zr2  1  0.231398  0.231398  0.250000  1
  Zr  Zr3  1  0.765559  0.997518  0.250000  1
  Zr  Zr4  1  0.997518  0.765559  0.250000  1
  Nb  Nb5  1  0.666960  0.333682  0.000328  1
  Nb  Nb6  1  0.333682  0.666960  0.000328  1
  Nb  Nb7  1  0.333682  0.666960  0.499672  1
  Nb  Nb8  1  0.666960  0.333682  0.499672  1
  Nb  Nb9  1  0.771302  0.771302  0.750000  1
  Ga  Ga10  1  0.415978  0.415978  0.750000  1
  Ga  Ga11  1  0.593434  0.998201  0.750000  1
  Ga  Ga12  1  0.998201  0.593434  0.750000  1
  Ga  Ga13  1  0.589059  0.589059  0.250000  1
  Ga  Ga14  1  0.408355  0.999732  0.250000  1
  Ga  Ga15  1  0.999732  0.408355  0.250000  1
  N  N16  1  0.997184  0.997184  0.997015  1
  N  N17  1  0.997184  0.997184  0.502985  1
