# generated using pymatgen
data_Y6Th2GaPd24
_symmetry_space_group_name_H-M   'P 1'
_cell_length_a   8.40815200
_cell_length_b   8.41570146
_cell_length_c   8.41570146
_cell_angle_alpha   90.03774466
_cell_angle_beta   90.00000000
_cell_angle_gamma   90.00000000
_symmetry_Int_Tables_number   1
_chemical_formula_structural   Y6Th2GaPd24
_chemical_formula_sum   'Y6 Th2 Ga1 Pd24'
_cell_volume   595.49908873
_cell_formula_units_Z   1
loop_
 _symmetry_equiv_pos_site_id
 _symmetry_equiv_pos_as_xyz
  1  'x, y, z'
loop_
 _atom_site_type_symbol
 _atom_site_label
 _atom_site_symmetry_multiplicity
 _atom_site_fract_x
 _atom_site_fract_y
 _atom_site_fract_z
 _atom_site_occupancy
  Y  Y0  1  0.747406  0.252559  0.252559  1
  Y  Y1  1  0.747406  0.747441  0.747441  1
  Y  Y2  1  0.747881  0.747569  0.252431  1
  Y  Y3  1  0.747881  0.252431  0.747569  1
  Y  Y4  1  0.252215  0.748045  0.748045  1
  Y  Y5  1  0.252215  0.251955  0.251955  1
  Th  Th6  1  0.253692  0.253601  0.746399  1
  Th  Th7  1  0.253692  0.746399  0.253601  1
  Ga  Ga8  1  0.998429  0.000000  0.000000  1
  Pd  Pd9  1  0.500358  0.500268  0.746985  1
  Pd  Pd10  1  0.500358  0.253015  0.499732  1
  Pd  Pd11  1  0.253165  0.500000  0.500000  1
  Pd  Pd12  1  0.500358  0.499732  0.253015  1
  Pd  Pd13  1  0.500358  0.746985  0.500268  1
  Pd  Pd14  1  0.747154  0.500000  0.500000  1
  Pd  Pd15  1  0.999181  0.999419  0.709167  1
  Pd  Pd16  1  0.999181  0.290833  0.000581  1
  Pd  Pd17  1  0.291000  0.000000  0.000000  1
  Pd  Pd18  1  0.999181  0.000581  0.290833  1
  Pd  Pd19  1  0.999181  0.709167  0.999419  1
  Pd  Pd20  1  0.709174  0.000000  0.000000  1
  Pd  Pd21  1  0.999975  0.499886  0.740218  1
  Pd  Pd22  1  0.500141  0.259823  0.000051  1
  Pd  Pd23  1  0.259829  0.000000  0.500000  1
  Pd  Pd24  1  0.999975  0.259782  0.500114  1
  Pd  Pd25  1  0.500141  0.999949  0.740177  1
  Pd  Pd26  1  0.259829  0.500000  0.000000  1
  Pd  Pd27  1  0.999975  0.500114  0.259782  1
  Pd  Pd28  1  0.500141  0.740177  0.999949  1
  Pd  Pd29  1  0.999975  0.740218  0.499886  1
  Pd  Pd30  1  0.500141  0.000051  0.259823  1
  Pd  Pd31  1  0.740204  0.000000  0.500000  1
  Pd  Pd32  1  0.740204  0.500000  0.000000  1
