# generated using pymatgen
data_Na2Er3P12Ir7Ru12
_symmetry_space_group_name_H-M   'P 1'
_cell_length_a   12.52921706
_cell_length_b   12.51248668
_cell_length_c   3.99693400
_cell_angle_alpha   90.00000000
_cell_angle_beta   90.00000000
_cell_angle_gamma   119.95584422
_symmetry_Int_Tables_number   1
_chemical_formula_structural   Na2Er3P12Ir7Ru12
_chemical_formula_sum   'Na2 Er3 P12 Ir7 Ru12'
_cell_volume   542.89799075
_cell_formula_units_Z   1
loop_
 _symmetry_equiv_pos_site_id
 _symmetry_equiv_pos_as_xyz
  1  'x, y, z'
loop_
 _atom_site_type_symbol
 _atom_site_label
 _atom_site_symmetry_multiplicity
 _atom_site_fract_x
 _atom_site_fract_y
 _atom_site_fract_z
 _atom_site_occupancy
  Na  Na0  1  0.817470  0.817533  0.500000  1
  Na  Na1  1  0.182530  0.000063  0.500000  1
  Er  Er2  1  0.667458  0.333829  0.000000  1
  Er  Er3  1  0.332542  0.666371  0.000000  1
  Er  Er4  1  0.000000  0.177779  0.500000  1
  P  P5  1  0.692949  0.168988  0.500000  1
  P  P6  1  0.830878  0.525577  0.500000  1
  P  P7  1  0.475212  0.306172  0.500000  1
  P  P8  1  0.169122  0.694699  0.500000  1
  P  P9  1  0.524788  0.830960  0.500000  1
  P  P10  1  0.307051  0.476038  0.500000  1
  P  P11  1  0.634625  0.635094  0.000000  1
  P  P12  1  0.365375  0.000468  0.000000  1
  P  P13  1  0.000000  0.362742  0.000000  1
  P  P14  1  0.184699  0.184093  0.000000  1
  P  P15  1  0.815301  0.999393  0.000000  1
  P  P16  1  0.000000  0.813742  0.000000  1
  Ir  Ir17  1  0.869230  0.364385  0.500000  1
  Ir  Ir18  1  0.634241  0.505416  0.500000  1
  Ir  Ir19  1  0.495019  0.130964  0.500000  1
  Ir  Ir20  1  0.365759  0.871174  0.500000  1
  Ir  Ir21  1  0.504981  0.635945  0.500000  1
  Ir  Ir22  1  0.130770  0.495154  0.500000  1
  Ir  Ir23  1  0.000000  0.002177  0.000000  1
  Ru  Ru24  1  0.807438  0.183987  0.000000  1
  Ru  Ru25  1  0.814149  0.619722  0.000000  1
  Ru  Ru26  1  0.379606  0.194918  0.000000  1
  Ru  Ru27  1  0.185851  0.805573  0.000000  1
  Ru  Ru28  1  0.620394  0.815311  0.000000  1
  Ru  Ru29  1  0.192562  0.376549  0.000000  1
  Ru  Ru30  1  0.450740  0.453282  0.000000  1
  Ru  Ru31  1  0.549260  0.002543  0.000000  1
  Ru  Ru32  1  0.000000  0.545637  0.000000  1
  Ru  Ru33  1  0.283054  0.284331  0.500000  1
  Ru  Ru34  1  0.716946  0.001278  0.500000  1
  Ru  Ru35  1  0.000000  0.718110  0.500000  1
