# generated using pymatgen
data_YbTaMn4P3
_symmetry_space_group_name_H-M   'P 1'
_cell_length_a   3.61368500
_cell_length_b   10.95523500
_cell_length_c   12.48625800
_cell_angle_alpha   90.00000000
_cell_angle_beta   90.00000000
_cell_angle_gamma   90.00000000
_symmetry_Int_Tables_number   1
_chemical_formula_structural   YbTaMn4P3
_chemical_formula_sum   'Yb4 Ta4 Mn16 P12'
_cell_volume   494.31557603
_cell_formula_units_Z   4
loop_
 _symmetry_equiv_pos_site_id
 _symmetry_equiv_pos_as_xyz
  1  'x, y, z'
loop_
 _atom_site_type_symbol
 _atom_site_label
 _atom_site_symmetry_multiplicity
 _atom_site_fract_x
 _atom_site_fract_y
 _atom_site_fract_z
 _atom_site_occupancy
  Yb  Yb0  1  0.250000  0.587598  0.707952  1
  Yb  Yb1  1  0.250000  0.912402  0.207952  1
  Yb  Yb2  1  0.750000  0.412402  0.292048  1
  Yb  Yb3  1  0.750000  0.087598  0.792048  1
  Ta  Ta4  1  0.250000  0.710635  0.984228  1
  Ta  Ta5  1  0.250000  0.789365  0.484228  1
  Ta  Ta6  1  0.750000  0.289365  0.015772  1
  Ta  Ta7  1  0.750000  0.210635  0.515772  1
  Mn  Mn8  1  0.250000  0.409253  0.493552  1
  Mn  Mn9  1  0.250000  0.090747  0.993552  1
  Mn  Mn10  1  0.750000  0.590747  0.506448  1
  Mn  Mn11  1  0.750000  0.909253  0.006448  1
  Mn  Mn12  1  0.250000  0.212079  0.178704  1
  Mn  Mn13  1  0.250000  0.287921  0.678704  1
  Mn  Mn14  1  0.750000  0.787921  0.821296  1
  Mn  Mn15  1  0.750000  0.712079  0.321296  1
  Mn  Mn16  1  0.250000  0.885312  0.695102  1
  Mn  Mn17  1  0.250000  0.614688  0.195102  1
  Mn  Mn18  1  0.750000  0.114688  0.304898  1
  Mn  Mn19  1  0.750000  0.385312  0.804898  1
  Mn  Mn20  1  0.250000  0.463800  0.935269  1
  Mn  Mn21  1  0.250000  0.036200  0.435269  1
  Mn  Mn22  1  0.750000  0.536200  0.064731  1
  Mn  Mn23  1  0.750000  0.963800  0.564731  1
  P  P24  1  0.250000  0.415574  0.119261  1
  P  P25  1  0.250000  0.084426  0.619261  1
  P  P26  1  0.750000  0.584426  0.880739  1
  P  P27  1  0.750000  0.915574  0.380739  1
  P  P28  1  0.250000  0.264980  0.866812  1
  P  P29  1  0.250000  0.235020  0.366812  1
  P  P30  1  0.750000  0.735020  0.133188  1
  P  P31  1  0.750000  0.764980  0.633188  1
  P  P32  1  0.250000  0.583896  0.381744  1
  P  P33  1  0.250000  0.916104  0.881744  1
  P  P34  1  0.750000  0.416104  0.618256  1
  P  P35  1  0.750000  0.083896  0.118256  1
