# generated using pymatgen
data_Er4InPt9Rh2
_symmetry_space_group_name_H-M   'P 1'
_cell_length_a   4.20696900
_cell_length_b   5.77309109
_cell_length_c   11.54467286
_cell_angle_alpha   87.59658380
_cell_angle_beta   90.00000000
_cell_angle_gamma   90.00000000
_symmetry_Int_Tables_number   1
_chemical_formula_structural   Er4InPt9Rh2
_chemical_formula_sum   'Er4 In1 Pt9 Rh2'
_cell_volume   280.14130639
_cell_formula_units_Z   1
loop_
 _symmetry_equiv_pos_site_id
 _symmetry_equiv_pos_as_xyz
  1  'x, y, z'
loop_
 _atom_site_type_symbol
 _atom_site_label
 _atom_site_symmetry_multiplicity
 _atom_site_fract_x
 _atom_site_fract_y
 _atom_site_fract_z
 _atom_site_occupancy
  Er  Er0  1  0.500000  0.757487  0.374152  1
  Er  Er1  1  0.500000  0.713093  0.863720  1
  Er  Er2  1  0.500000  0.283524  0.138153  1
  Er  Er3  1  0.500000  0.242480  0.625293  1
  In  In4  1  0.000000  0.003789  0.998225  1
  Pt  Pt5  1  0.000000  0.018564  0.250791  1
  Pt  Pt6  1  0.000000  0.982209  0.750237  1
  Pt  Pt7  1  0.000000  0.499315  0.000191  1
  Pt  Pt8  1  0.000000  0.499373  0.499538  1
  Pt  Pt9  1  0.000000  0.519406  0.250921  1
  Pt  Pt10  1  0.000000  0.478163  0.750168  1
  Pt  Pt11  1  0.500000  0.776181  0.118589  1
  Pt  Pt12  1  0.500000  0.744550  0.621644  1
  Pt  Pt13  1  0.000000  0.000937  0.499599  1
  Rh  Rh14  1  0.500000  0.256409  0.378037  1
  Rh  Rh15  1  0.500000  0.224518  0.880742  1
