# generated using pymatgen
data_GdTcN2
_symmetry_space_group_name_H-M   'P 1'
_cell_length_a   3.18270900
_cell_length_b   5.69449600
_cell_length_c   10.78581200
_cell_angle_alpha   90.00000000
_cell_angle_beta   90.00000000
_cell_angle_gamma   90.00000000
_symmetry_Int_Tables_number   1
_chemical_formula_structural   GdTcN2
_chemical_formula_sum   'Gd4 Tc4 N8'
_cell_volume   195.48123340
_cell_formula_units_Z   4
loop_
 _symmetry_equiv_pos_site_id
 _symmetry_equiv_pos_as_xyz
  1  'x, y, z'
loop_
 _atom_site_type_symbol
 _atom_site_label
 _atom_site_symmetry_multiplicity
 _atom_site_fract_x
 _atom_site_fract_y
 _atom_site_fract_z
 _atom_site_occupancy
  Gd  Gd0  1  0.250000  0.075406  0.853120  1
  Gd  Gd1  1  0.250000  0.575406  0.646880  1
  Gd  Gd2  1  0.750000  0.924594  0.146880  1
  Gd  Gd3  1  0.750000  0.424594  0.353120  1
  Tc  Tc4  1  0.250000  0.437727  0.097457  1
  Tc  Tc5  1  0.250000  0.937727  0.402543  1
  Tc  Tc6  1  0.750000  0.562273  0.902543  1
  Tc  Tc7  1  0.750000  0.062273  0.597457  1
  N  N8  1  0.250000  0.170535  0.245554  1
  N  N9  1  0.250000  0.670535  0.254446  1
  N  N10  1  0.750000  0.829465  0.754446  1
  N  N11  1  0.750000  0.329465  0.745554  1
  N  N12  1  0.250000  0.743591  0.995603  1
  N  N13  1  0.250000  0.243591  0.504397  1
  N  N14  1  0.750000  0.256409  0.004397  1
  N  N15  1  0.750000  0.756409  0.495603  1
