# generated using pymatgen
data_La2Co2GePH2
_symmetry_space_group_name_H-M   'P 1'
_cell_length_a   3.90365900
_cell_length_b   3.90365900
_cell_length_c   8.24716400
_cell_angle_alpha   90.00000000
_cell_angle_beta   90.00000000
_cell_angle_gamma   90.00000000
_symmetry_Int_Tables_number   1
_chemical_formula_structural   La2Co2GePH2
_chemical_formula_sum   'La2 Co2 Ge1 P1 H2'
_cell_volume   125.67485057
_cell_formula_units_Z   1
loop_
 _symmetry_equiv_pos_site_id
 _symmetry_equiv_pos_as_xyz
  1  'x, y, z'
loop_
 _atom_site_type_symbol
 _atom_site_label
 _atom_site_symmetry_multiplicity
 _atom_site_fract_x
 _atom_site_fract_y
 _atom_site_fract_z
 _atom_site_occupancy
  La  La0  1  0.500000  0.000000  0.326093  1
  La  La1  1  0.000000  0.500000  0.683575  1
  Co  Co2  1  0.500000  0.500000  0.987877  1
  Co  Co3  1  0.000000  0.000000  0.987877  1
  Ge  Ge4  1  0.000000  0.500000  0.153027  1
  P  P5  1  0.500000  0.000000  0.854769  1
  H  H6  1  0.000000  0.000000  0.503391  1
  H  H7  1  0.500000  0.500000  0.503391  1
