# generated using pymatgen
data_Lu5TlGa2
_symmetry_space_group_name_H-M   'P 1'
_cell_length_a   7.56227400
_cell_length_b   7.56227400
_cell_length_c   14.07691500
_cell_angle_alpha   90.00000000
_cell_angle_beta   90.00000000
_cell_angle_gamma   90.00000000
_symmetry_Int_Tables_number   1
_chemical_formula_structural   Lu5TlGa2
_chemical_formula_sum   'Lu20 Tl4 Ga8'
_cell_volume   805.03044682
_cell_formula_units_Z   4
loop_
 _symmetry_equiv_pos_site_id
 _symmetry_equiv_pos_as_xyz
  1  'x, y, z'
loop_
 _atom_site_type_symbol
 _atom_site_label
 _atom_site_symmetry_multiplicity
 _atom_site_fract_x
 _atom_site_fract_y
 _atom_site_fract_z
 _atom_site_occupancy
  Lu  Lu0  1  0.836064  0.833060  0.894265  1
  Lu  Lu1  1  0.166940  0.163936  0.605735  1
  Lu  Lu2  1  0.836064  0.166940  0.394265  1
  Lu  Lu3  1  0.163936  0.833060  0.394265  1
  Lu  Lu4  1  0.333060  0.336064  0.394265  1
  Lu  Lu5  1  0.833060  0.163936  0.105735  1
  Lu  Lu6  1  0.333060  0.663936  0.894265  1
  Lu  Lu7  1  0.166940  0.836064  0.105735  1
  Lu  Lu8  1  0.500000  0.000000  0.752038  1
  Lu  Lu9  1  0.000000  0.500000  0.247962  1
  Lu  Lu10  1  0.336064  0.666940  0.605735  1
  Lu  Lu11  1  0.663936  0.666940  0.105735  1
  Lu  Lu12  1  0.663936  0.333060  0.605735  1
  Lu  Lu13  1  0.000000  0.500000  0.747962  1
  Lu  Lu14  1  0.833060  0.836064  0.605735  1
  Lu  Lu15  1  0.666940  0.336064  0.894265  1
  Lu  Lu16  1  0.163936  0.166940  0.894265  1
  Lu  Lu17  1  0.500000  0.000000  0.252038  1
  Lu  Lu18  1  0.666940  0.663936  0.394265  1
  Lu  Lu19  1  0.336064  0.333060  0.105735  1
  Tl  Tl20  1  0.000000  0.500000  0.001203  1
  Tl  Tl21  1  0.500000  0.000000  0.998797  1
  Tl  Tl22  1  0.500000  0.000000  0.498797  1
  Tl  Tl23  1  0.000000  0.500000  0.501203  1
  Ga  Ga24  1  0.625177  0.374823  0.250000  1
  Ga  Ga25  1  0.374823  0.625177  0.250000  1
  Ga  Ga26  1  0.125177  0.125177  0.250000  1
  Ga  Ga27  1  0.374823  0.374823  0.750000  1
  Ga  Ga28  1  0.125177  0.874823  0.750000  1
  Ga  Ga29  1  0.874823  0.874823  0.250000  1
  Ga  Ga30  1  0.625177  0.625177  0.750000  1
  Ga  Ga31  1  0.874823  0.125177  0.750000  1
