# generated using pymatgen
data_Y5In4PdRu
_symmetry_space_group_name_H-M   'P 1'
_cell_length_a   3.60356000
_cell_length_b   8.14563001
_cell_length_c   18.48581502
_cell_angle_alpha   90.00554263
_cell_angle_beta   90.00000000
_cell_angle_gamma   90.00000000
_symmetry_Int_Tables_number   1
_chemical_formula_structural   Y5In4PdRu
_chemical_formula_sum   'Y10 In8 Pd2 Ru2'
_cell_volume   542.61905184
_cell_formula_units_Z   2
loop_
 _symmetry_equiv_pos_site_id
 _symmetry_equiv_pos_as_xyz
  1  'x, y, z'
loop_
 _atom_site_type_symbol
 _atom_site_label
 _atom_site_symmetry_multiplicity
 _atom_site_fract_x
 _atom_site_fract_y
 _atom_site_fract_z
 _atom_site_occupancy
  Y  Y0  1  0.500000  0.230840  0.778868  1
  Y  Y1  1  0.500000  0.769160  0.221132  1
  Y  Y2  1  0.500000  0.247561  0.279696  1
  Y  Y3  1  0.500000  0.752439  0.720304  1
  Y  Y4  1  0.500000  0.118701  0.586723  1
  Y  Y5  1  0.500000  0.881299  0.413277  1
  Y  Y6  1  0.500000  0.379084  0.085251  1
  Y  Y7  1  0.500000  0.620916  0.914749  1
  Y  Y8  1  0.500000  0.000000  0.000000  1
  Y  Y9  1  0.500000  0.500000  0.500000  1
  In  In10  1  0.000000  0.071782  0.150764  1
  In  In11  1  0.000000  0.928218  0.849236  1
  In  In12  1  0.000000  0.424820  0.650412  1
  In  In13  1  0.000000  0.575180  0.349588  1
  In  In14  1  0.000000  0.205716  0.430199  1
  In  In15  1  0.000000  0.794284  0.569801  1
  In  In16  1  0.000000  0.293190  0.932809  1
  In  In17  1  0.000000  0.706810  0.067191  1
  Pd  Pd18  1  0.000000  0.479757  0.196850  1
  Pd  Pd19  1  0.000000  0.520243  0.803150  1
  Ru  Ru20  1  0.000000  0.018218  0.695464  1
  Ru  Ru21  1  0.000000  0.981782  0.304536  1
