# generated using pymatgen
data_LaEu15(CdPd)4
_symmetry_space_group_name_H-M   'P 1'
_cell_length_a   10.24948390
_cell_length_b   10.24948489
_cell_length_c   10.24948396
_cell_angle_alpha   60.11656181
_cell_angle_beta   60.11655864
_cell_angle_gamma   60.11655824
_symmetry_Int_Tables_number   1
_chemical_formula_structural   LaEu15(CdPd)4
_chemical_formula_sum   'La1 Eu15 Cd4 Pd4'
_cell_volume   763.37228754
_cell_formula_units_Z   1
loop_
 _symmetry_equiv_pos_site_id
 _symmetry_equiv_pos_as_xyz
  1  'x, y, z'
loop_
 _atom_site_type_symbol
 _atom_site_label
 _atom_site_symmetry_multiplicity
 _atom_site_fract_x
 _atom_site_fract_y
 _atom_site_fract_z
 _atom_site_occupancy
  La  La0  1  0.348978  0.348978  0.348978  1
  Eu  Eu1  1  0.349499  0.349499  0.950287  1
  Eu  Eu2  1  0.349499  0.950287  0.349499  1
  Eu  Eu3  1  0.950287  0.349499  0.349499  1
  Eu  Eu4  1  0.806798  0.193753  0.193753  1
  Eu  Eu5  1  0.194491  0.805595  0.805595  1
  Eu  Eu6  1  0.193753  0.806798  0.193753  1
  Eu  Eu7  1  0.805595  0.194491  0.805595  1
  Eu  Eu8  1  0.193753  0.193753  0.806798  1
  Eu  Eu9  1  0.805595  0.805595  0.194491  1
  Eu  Eu10  1  0.937654  0.561575  0.561575  1
  Eu  Eu11  1  0.561519  0.938827  0.938827  1
  Eu  Eu12  1  0.561575  0.937654  0.561575  1
  Eu  Eu13  1  0.938827  0.561519  0.938827  1
  Eu  Eu14  1  0.561575  0.561575  0.937654  1
  Eu  Eu15  1  0.938827  0.938827  0.561519  1
  Cd  Cd16  1  0.578477  0.578477  0.578477  1
  Cd  Cd17  1  0.578862  0.578862  0.261706  1
  Cd  Cd18  1  0.578862  0.261706  0.578862  1
  Cd  Cd19  1  0.261706  0.578862  0.578862  1
  Pd  Pd20  1  0.141610  0.141610  0.141610  1
  Pd  Pd21  1  0.145261  0.145261  0.571737  1
  Pd  Pd22  1  0.145261  0.571737  0.145261  1
  Pd  Pd23  1  0.571737  0.145261  0.145261  1
