# generated using pymatgen
data_Ho10Si16Ag
_symmetry_space_group_name_H-M   'P 1'
_cell_length_a   11.07481276
_cell_length_b   11.07030668
_cell_length_c   11.07445033
_cell_angle_alpha   144.74376855
_cell_angle_beta   136.36754861
_cell_angle_gamma   57.29871666
_symmetry_Int_Tables_number   1
_chemical_formula_structural   Ho10Si16Ag
_chemical_formula_sum   'Ho10 Si16 Ag1'
_cell_volume   536.39108301
_cell_formula_units_Z   1
loop_
 _symmetry_equiv_pos_site_id
 _symmetry_equiv_pos_as_xyz
  1  'x, y, z'
loop_
 _atom_site_type_symbol
 _atom_site_label
 _atom_site_symmetry_multiplicity
 _atom_site_fract_x
 _atom_site_fract_y
 _atom_site_fract_z
 _atom_site_occupancy
  Ho  Ho0  1  0.053374  0.565796  0.021673  1
  Ho  Ho1  1  0.352659  0.370065  0.521121  1
  Ho  Ho2  1  0.154490  0.165408  0.521485  1
  Ho  Ho3  1  0.451122  0.963037  0.014442  1
  Ho  Ho4  1  0.643915  0.165395  0.010898  1
  Ho  Ho5  1  0.948602  0.963039  0.511922  1
  Ho  Ho6  1  0.848951  0.370066  0.017414  1
  Ho  Ho7  1  0.544111  0.565805  0.512425  1
  Ho  Ho8  1  0.251938  0.765302  0.013394  1
  Ho  Ho9  1  0.751902  0.765311  0.513359  1
  Si  Si10  1  0.118195  0.079027  0.960845  1
  Si  Si11  1  0.797190  0.170169  0.372993  1
  Si  Si12  1  0.300434  0.899323  0.598901  1
  Si  Si13  1  0.399905  0.501619  0.101723  1
  Si  Si14  1  0.880916  0.854823  0.973928  1
  Si  Si15  1  0.104578  0.710726  0.606166  1
  Si  Si16  1  0.199773  0.582594  0.382836  1
  Si  Si17  1  0.699324  0.295382  0.596070  1
  Si  Si18  1  0.002133  0.432178  0.430073  1
  Si  Si19  1  0.714351  0.668005  0.953669  1
  Si  Si20  1  0.600898  0.702487  0.101605  1
  Si  Si21  1  0.999526  0.081647  0.082138  1
  Si  Si22  1  0.501118  0.391661  0.890558  1
  Si  Si23  1  0.285040  0.240792  0.955768  1
  Si  Si24  1  0.583892  0.040784  0.456907  1
  Si  Si25  1  0.415901  0.872752  0.456866  1
  Ag  Ag26  1  0.895761  0.505726  0.609738  1
