# generated using pymatgen
data_TbEr3Al22Ga2Pt9
_symmetry_space_group_name_H-M   'P 1'
_cell_length_a   7.51070763
_cell_length_b   7.51692997
_cell_length_c   13.19148324
_cell_angle_alpha   84.60037798
_cell_angle_beta   100.82085697
_cell_angle_gamma   119.81650564
_symmetry_Int_Tables_number   1
_chemical_formula_structural   TbEr3Al22Ga2Pt9
_chemical_formula_sum   'Tb1 Er3 Al22 Ga2 Pt9'
_cell_volume   634.67855184
_cell_formula_units_Z   1
loop_
 _symmetry_equiv_pos_site_id
 _symmetry_equiv_pos_as_xyz
  1  'x, y, z'
loop_
 _atom_site_type_symbol
 _atom_site_label
 _atom_site_symmetry_multiplicity
 _atom_site_fract_x
 _atom_site_fract_y
 _atom_site_fract_z
 _atom_site_occupancy
  Tb  Tb0  1  0.734728  0.998494  0.191820  1
  Er  Er1  1  0.264927  0.001419  0.807602  1
  Er  Er2  1  0.061859  0.670671  0.192445  1
  Er  Er3  1  0.938243  0.329334  0.807627  1
  Al  Al4  1  0.981834  0.666030  0.944630  1
  Al  Al5  1  0.018702  0.334659  0.055071  1
  Al  Al6  1  0.397660  0.665525  0.816406  1
  Al  Al7  1  0.602231  0.335039  0.183603  1
  Al  Al8  1  0.882325  0.664906  0.670095  1
  Al  Al9  1  0.118247  0.335542  0.330252  1
  Al  Al10  1  0.604445  0.457543  0.815990  1
  Al  Al11  1  0.394854  0.541666  0.184019  1
  Al  Al12  1  0.230968  0.340481  0.669724  1
  Al  Al13  1  0.769185  0.658997  0.330679  1
  Al  Al14  1  0.853597  0.333435  0.558570  1
  Al  Al15  1  0.185834  0.999184  0.558904  1
  Al  Al16  1  0.814294  0.000830  0.441326  1
  Al  Al17  1  0.351734  0.999389  0.055233  1
  Al  Al18  1  0.647445  0.000630  0.944168  1
  Al  Al19  1  0.555708  0.993753  0.670245  1
  Al  Al20  1  0.443895  0.006275  0.330040  1
  Al  Al21  1  0.520960  0.668035  0.560997  1
  Al  Al22  1  0.479063  0.331942  0.439072  1
  Al  Al23  1  0.683406  0.666743  0.048290  1
  Al  Al24  1  0.316545  0.332692  0.951351  1
  Al  Al25  1  0.146420  0.666618  0.441489  1
  Ga  Ga26  1  0.802478  0.863862  0.815211  1
  Ga  Ga27  1  0.198212  0.136216  0.184797  1
  Pt  Pt28  1  0.328922  0.671144  0.999978  1
  Pt  Pt29  1  0.546267  0.324960  0.637693  1
  Pt  Pt30  1  0.453574  0.674796  0.362477  1
  Pt  Pt31  1  0.888658  0.009376  0.637296  1
  Pt  Pt32  1  0.111652  0.990650  0.362869  1
  Pt  Pt33  1  0.671029  0.328890  0.999914  1
  Pt  Pt34  1  0.204559  0.666850  0.639224  1
  Pt  Pt35  1  0.795491  0.333392  0.360953  1
  Pt  Pt36  1  0.000050  0.000033  0.999940  1
