# generated using pymatgen
data_ScCo4CuP3
_symmetry_space_group_name_H-M   'P 1'
_cell_length_a   3.62487600
_cell_length_b   10.13596000
_cell_length_c   11.80653900
_cell_angle_alpha   90.00000000
_cell_angle_beta   90.00000000
_cell_angle_gamma   90.00000000
_symmetry_Int_Tables_number   1
_chemical_formula_structural   ScCo4CuP3
_chemical_formula_sum   'Sc4 Co16 Cu4 P12'
_cell_volume   433.79111137
_cell_formula_units_Z   4
loop_
 _symmetry_equiv_pos_site_id
 _symmetry_equiv_pos_as_xyz
  1  'x, y, z'
loop_
 _atom_site_type_symbol
 _atom_site_label
 _atom_site_symmetry_multiplicity
 _atom_site_fract_x
 _atom_site_fract_y
 _atom_site_fract_z
 _atom_site_occupancy
  Sc  Sc0  1  0.250000  0.576148  0.702775  1
  Sc  Sc1  1  0.250000  0.923852  0.202775  1
  Sc  Sc2  1  0.750000  0.423852  0.297225  1
  Sc  Sc3  1  0.750000  0.076148  0.797225  1
  Co  Co4  1  0.250000  0.406329  0.481287  1
  Co  Co5  1  0.250000  0.093671  0.981287  1
  Co  Co6  1  0.750000  0.593671  0.518713  1
  Co  Co7  1  0.750000  0.906329  0.018713  1
  Co  Co8  1  0.250000  0.225303  0.173106  1
  Co  Co9  1  0.250000  0.274698  0.673106  1
  Co  Co10  1  0.750000  0.774698  0.826894  1
  Co  Co11  1  0.750000  0.725302  0.326894  1
  Co  Co12  1  0.250000  0.877690  0.701569  1
  Co  Co13  1  0.250000  0.622310  0.201569  1
  Co  Co14  1  0.750000  0.122310  0.298431  1
  Co  Co15  1  0.750000  0.377690  0.798431  1
  Co  Co16  1  0.250000  0.461826  0.932659  1
  Co  Co17  1  0.250000  0.038174  0.432659  1
  Co  Co18  1  0.750000  0.538174  0.067341  1
  Co  Co19  1  0.750000  0.961826  0.567341  1
  Cu  Cu20  1  0.250000  0.711953  0.991903  1
  Cu  Cu21  1  0.250000  0.788047  0.491903  1
  Cu  Cu22  1  0.750000  0.288047  0.008097  1
  Cu  Cu23  1  0.750000  0.211953  0.508097  1
  P  P24  1  0.250000  0.426996  0.118811  1
  P  P25  1  0.250000  0.073004  0.618811  1
  P  P26  1  0.750000  0.573004  0.881189  1
  P  P27  1  0.750000  0.926996  0.381189  1
  P  P28  1  0.250000  0.262300  0.858600  1
  P  P29  1  0.250000  0.237700  0.358600  1
  P  P30  1  0.750000  0.737700  0.141400  1
  P  P31  1  0.750000  0.762300  0.641400  1
  P  P32  1  0.250000  0.597594  0.390045  1
  P  P33  1  0.250000  0.902406  0.890045  1
  P  P34  1  0.750000  0.402406  0.609955  1
  P  P35  1  0.750000  0.097594  0.109955  1
