# generated using pymatgen
data_LaPr4(MoO6)2
_symmetry_space_group_name_H-M   'P 1'
_cell_length_a   7.16942292
_cell_length_b   7.16942259
_cell_length_c   7.70709060
_cell_angle_alpha   74.52273275
_cell_angle_beta   74.52273567
_cell_angle_gamma   51.37632989
_symmetry_Int_Tables_number   1
_chemical_formula_structural   LaPr4(MoO6)2
_chemical_formula_sum   'La1 Pr4 Mo2 O12'
_cell_volume   295.61565931
_cell_formula_units_Z   1
loop_
 _symmetry_equiv_pos_site_id
 _symmetry_equiv_pos_as_xyz
  1  'x, y, z'
loop_
 _atom_site_type_symbol
 _atom_site_label
 _atom_site_symmetry_multiplicity
 _atom_site_fract_x
 _atom_site_fract_y
 _atom_site_fract_z
 _atom_site_occupancy
  La  La0  1  0.000000  0.000000  0.500000  1
  Pr  Pr1  1  0.304541  0.304541  0.359704  1
  Pr  Pr2  1  0.695459  0.695459  0.640296  1
  Pr  Pr3  1  0.693890  0.693890  0.167845  1
  Pr  Pr4  1  0.306110  0.306110  0.832155  1
  Mo  Mo5  1  0.755584  0.244416  0.000000  1
  Mo  Mo6  1  0.244416  0.755584  0.000000  1
  O  O7  1  0.093885  0.595550  0.577941  1
  O  O8  1  0.999055  0.999055  0.176048  1
  O  O9  1  0.404450  0.906115  0.422059  1
  O  O10  1  0.501076  0.501076  0.179208  1
  O  O11  1  0.105621  0.573655  0.079425  1
  O  O12  1  0.906115  0.404450  0.422059  1
  O  O13  1  0.000945  0.000945  0.823952  1
  O  O14  1  0.595550  0.093884  0.577941  1
  O  O15  1  0.498924  0.498924  0.820792  1
  O  O16  1  0.573655  0.105621  0.079425  1
  O  O17  1  0.426345  0.894379  0.920575  1
  O  O18  1  0.894379  0.426345  0.920575  1
