# generated using pymatgen
data_Er8Sc12Si15Bi
_symmetry_space_group_name_H-M   'P 1'
_cell_length_a   7.13061232
_cell_length_b   7.37922768
_cell_length_c   14.00051626
_cell_angle_alpha   90.06955003
_cell_angle_beta   88.70507024
_cell_angle_gamma   90.15873984
_symmetry_Int_Tables_number   1
_chemical_formula_structural   Er8Sc12Si15Bi
_chemical_formula_sum   'Er8 Sc12 Si15 Bi1'
_cell_volume   736.49347629
_cell_formula_units_Z   1
loop_
 _symmetry_equiv_pos_site_id
 _symmetry_equiv_pos_as_xyz
  1  'x, y, z'
loop_
 _atom_site_type_symbol
 _atom_site_label
 _atom_site_symmetry_multiplicity
 _atom_site_fract_x
 _atom_site_fract_y
 _atom_site_fract_z
 _atom_site_occupancy
  Er  Er0  1  0.012681  0.177312  0.096412  1
  Er  Er1  1  0.987668  0.824036  0.904464  1
  Er  Er2  1  0.488485  0.676347  0.904286  1
  Er  Er3  1  0.991995  0.831440  0.598155  1
  Er  Er4  1  0.511891  0.323618  0.097164  1
  Er  Er5  1  0.999914  0.169993  0.399132  1
  Er  Er6  1  0.512098  0.316406  0.397605  1
  Er  Er7  1  0.512145  0.687245  0.601044  1
  Sc  Sc8  1  0.163819  0.501452  0.756194  1
  Sc  Sc9  1  0.835316  0.498031  0.251435  1
  Sc  Sc10  1  0.335361  0.002535  0.250120  1
  Sc  Sc11  1  0.666346  0.998184  0.751337  1
  Sc  Sc12  1  0.348263  0.155900  0.631982  1
  Sc  Sc13  1  0.659402  0.826992  0.372363  1
  Sc  Sc14  1  0.154786  0.683814  0.368900  1
  Sc  Sc15  1  0.667734  0.822526  0.123770  1
  Sc  Sc16  1  0.826261  0.325939  0.625819  1
  Sc  Sc17  1  0.330391  0.175808  0.875490  1
  Sc  Sc18  1  0.831045  0.323395  0.875774  1
  Sc  Sc19  1  0.168773  0.676807  0.124819  1
  Si  Si20  1  0.035730  0.117498  0.751374  1
  Si  Si21  1  0.961620  0.886990  0.245873  1
  Si  Si22  1  0.461896  0.614639  0.247503  1
  Si  Si23  1  0.535064  0.386272  0.752899  1
  Si  Si24  1  0.288480  0.865795  0.753116  1
  Si  Si25  1  0.711676  0.128069  0.246309  1
  Si  Si26  1  0.210389  0.371700  0.248863  1
  Si  Si27  1  0.792755  0.630185  0.751855  1
  Si  Si28  1  0.811617  0.540435  0.456874  1
  Si  Si29  1  0.329558  0.964108  0.459936  1
  Si  Si30  1  0.842873  0.533737  0.039869  1
  Si  Si31  1  0.671585  0.038293  0.538358  1
  Si  Si32  1  0.156356  0.465749  0.961478  1
  Si  Si33  1  0.656118  0.034134  0.960305  1
  Si  Si34  1  0.342445  0.966562  0.040090  1
  Bi  Bi35  1  0.187456  0.458053  0.539033  1
