# generated using pymatgen
data_Ho8In3Pd
_symmetry_space_group_name_H-M   'P 1'
_cell_length_a   10.49265500
_cell_length_b   10.49265544
_cell_length_c   6.92364700
_cell_angle_alpha   90.00000000
_cell_angle_beta   90.00000000
_cell_angle_gamma   120.00000177
_symmetry_Int_Tables_number   1
_chemical_formula_structural   Ho8In3Pd
_chemical_formula_sum   'Ho16 In6 Pd2'
_cell_volume   660.14045218
_cell_formula_units_Z   2
loop_
 _symmetry_equiv_pos_site_id
 _symmetry_equiv_pos_as_xyz
  1  'x, y, z'
loop_
 _atom_site_type_symbol
 _atom_site_label
 _atom_site_symmetry_multiplicity
 _atom_site_fract_x
 _atom_site_fract_y
 _atom_site_fract_z
 _atom_site_occupancy
  Ho  Ho0  1  0.529294  0.058588  0.509713  1
  Ho  Ho1  1  0.941412  0.470706  0.509713  1
  Ho  Ho2  1  0.529294  0.470706  0.509713  1
  Ho  Ho3  1  0.470706  0.941412  0.009713  1
  Ho  Ho4  1  0.058588  0.529294  0.009713  1
  Ho  Ho5  1  0.470706  0.529294  0.009713  1
  Ho  Ho6  1  0.174881  0.349761  0.715843  1
  Ho  Ho7  1  0.650239  0.825119  0.715843  1
  Ho  Ho8  1  0.174881  0.825119  0.715843  1
  Ho  Ho9  1  0.825119  0.650239  0.215843  1
  Ho  Ho10  1  0.349761  0.174881  0.215843  1
  Ho  Ho11  1  0.825119  0.174881  0.215843  1
  Ho  Ho12  1  0.666667  0.333333  0.880833  1
  Ho  Ho13  1  0.333333  0.666667  0.380833  1
  Ho  Ho14  1  0.000000  0.000000  0.488916  1
  Ho  Ho15  1  0.000000  0.000000  0.988916  1
  In  In16  1  0.837702  0.675403  0.750475  1
  In  In17  1  0.324597  0.162298  0.750475  1
  In  In18  1  0.837702  0.162298  0.750475  1
  In  In19  1  0.162298  0.324597  0.250475  1
  In  In20  1  0.675403  0.837702  0.250475  1
  In  In21  1  0.162298  0.837702  0.250475  1
  Pd  Pd22  1  0.666667  0.333333  0.281181  1
  Pd  Pd23  1  0.333333  0.666667  0.781181  1
