# generated using pymatgen
data_LaPr3Cd2(PdAu)2
_symmetry_space_group_name_H-M   'P 1'
_cell_length_a   8.03565747
_cell_length_b   8.08856391
_cell_length_c   3.95427800
_cell_angle_alpha   90.00000000
_cell_angle_beta   90.00000000
_cell_angle_gamma   90.43163101
_symmetry_Int_Tables_number   1
_chemical_formula_structural   LaPr3Cd2(PdAu)2
_chemical_formula_sum   'La1 Pr3 Cd2 Pd2 Au2'
_cell_volume   257.00863352
_cell_formula_units_Z   1
loop_
 _symmetry_equiv_pos_site_id
 _symmetry_equiv_pos_as_xyz
  1  'x, y, z'
loop_
 _atom_site_type_symbol
 _atom_site_label
 _atom_site_symmetry_multiplicity
 _atom_site_fract_x
 _atom_site_fract_y
 _atom_site_fract_z
 _atom_site_occupancy
  La  La0  1  0.326752  0.816502  0.500000  1
  Pr  Pr1  1  0.827490  0.681612  0.500000  1
  Pr  Pr2  1  0.174763  0.335305  0.500000  1
  Pr  Pr3  1  0.676050  0.164462  0.500000  1
  Cd  Cd4  1  0.997674  0.996363  0.000000  1
  Cd  Cd5  1  0.499702  0.502955  0.000000  1
  Pd  Pd6  1  0.127020  0.629923  0.000000  1
  Pd  Pd7  1  0.624487  0.871532  0.000000  1
  Au  Au8  1  0.372964  0.124056  0.000000  1
  Au  Au9  1  0.873099  0.377291  0.000000  1
