# generated using pymatgen
data_Dy4HoSi10P2Ir19
_symmetry_space_group_name_H-M   'P 1'
_cell_length_a   12.84341723
_cell_length_b   12.82351252
_cell_length_c   3.96091900
_cell_angle_alpha   90.00000000
_cell_angle_beta   90.00000000
_cell_angle_gamma   119.94874048
_symmetry_Int_Tables_number   1
_chemical_formula_structural   Dy4HoSi10P2Ir19
_chemical_formula_sum   'Dy4 Ho1 Si10 P2 Ir19'
_cell_volume   565.24701371
_cell_formula_units_Z   1
loop_
 _symmetry_equiv_pos_site_id
 _symmetry_equiv_pos_as_xyz
  1  'x, y, z'
loop_
 _atom_site_type_symbol
 _atom_site_label
 _atom_site_symmetry_multiplicity
 _atom_site_fract_x
 _atom_site_fract_y
 _atom_site_fract_z
 _atom_site_occupancy
  Dy  Dy0  1  0.333048  0.666534  0.500000  1
  Dy  Dy1  1  0.666952  0.333485  0.500000  1
  Dy  Dy2  1  0.185219  0.186463  0.000000  1
  Dy  Dy3  1  0.814781  0.001244  0.000000  1
  Ho  Ho4  1  0.000000  0.812781  0.000000  1
  Si  Si5  1  0.000000  0.633075  0.500000  1
  Si  Si6  1  0.367029  0.367325  0.500000  1
  Si  Si7  1  0.632971  0.000295  0.500000  1
  Si  Si8  1  0.518822  0.686582  0.000000  1
  Si  Si9  1  0.313608  0.832050  0.000000  1
  Si  Si10  1  0.168245  0.480992  0.000000  1
  Si  Si11  1  0.481178  0.167761  0.000000  1
  Si  Si12  1  0.686392  0.518441  0.000000  1
  Si  Si13  1  0.831755  0.312747  0.000000  1
  Si  Si14  1  0.000000  0.178726  0.500000  1
  P  P15  1  0.820056  0.820315  0.500000  1
  P  P16  1  0.179944  0.000259  0.500000  1
  Ir  Ir17  1  0.512796  0.872555  0.000000  1
  Ir  Ir18  1  0.127291  0.640270  0.000000  1
  Ir  Ir19  1  0.361112  0.487525  0.000000  1
  Ir  Ir20  1  0.487204  0.359757  0.000000  1
  Ir  Ir21  1  0.872709  0.512977  0.000000  1
  Ir  Ir22  1  0.638888  0.126412  0.000000  1
  Ir  Ir23  1  0.000000  0.447864  0.500000  1
  Ir  Ir24  1  0.553606  0.552567  0.500000  1
  Ir  Ir25  1  0.446394  0.998962  0.500000  1
  Ir  Ir26  1  0.000000  0.281952  0.000000  1
  Ir  Ir27  1  0.720797  0.720834  0.000000  1
  Ir  Ir28  1  0.279203  0.000036  0.000000  1
  Ir  Ir29  1  0.626666  0.806555  0.500000  1
  Ir  Ir30  1  0.193288  0.820276  0.500000  1
  Ir  Ir31  1  0.181736  0.375760  0.500000  1
  Ir  Ir32  1  0.373334  0.179889  0.500000  1
  Ir  Ir33  1  0.806712  0.626989  0.500000  1
  Ir  Ir34  1  0.818264  0.194025  0.500000  1
  Ir  Ir35  1  0.000000  0.995721  0.500000  1
