# generated using pymatgen
data_Cs12PaV3Se16
_symmetry_space_group_name_H-M   'P 1'
_cell_length_a   10.35030200
_cell_length_b   10.51979878
_cell_length_c   12.07572300
_cell_angle_alpha   90.00000000
_cell_angle_beta   90.00000000
_cell_angle_gamma   90.13167945
_symmetry_Int_Tables_number   1
_chemical_formula_structural   Cs12PaV3Se16
_chemical_formula_sum   'Cs12 Pa1 V3 Se16'
_cell_volume   1314.83861463
_cell_formula_units_Z   1
loop_
 _symmetry_equiv_pos_site_id
 _symmetry_equiv_pos_as_xyz
  1  'x, y, z'
loop_
 _atom_site_type_symbol
 _atom_site_label
 _atom_site_symmetry_multiplicity
 _atom_site_fract_x
 _atom_site_fract_y
 _atom_site_fract_z
 _atom_site_occupancy
  Cs  Cs0  1  0.640540  0.919552  0.250000  1
  Cs  Cs1  1  0.143166  0.580305  0.250000  1
  Cs  Cs2  1  0.850767  0.414792  0.750000  1
  Cs  Cs3  1  0.364667  0.084260  0.750000  1
  Cs  Cs4  1  0.045380  0.803561  0.963627  1
  Cs  Cs5  1  0.557498  0.708797  0.539276  1
  Cs  Cs6  1  0.452436  0.288267  0.050021  1
  Cs  Cs7  1  0.946082  0.203370  0.454833  1
  Cs  Cs8  1  0.946082  0.203370  0.045167  1
  Cs  Cs9  1  0.452436  0.288267  0.449979  1
  Cs  Cs10  1  0.557498  0.708797  0.960724  1
  Cs  Cs11  1  0.045380  0.803561  0.536373  1
  Pa  Pa12  1  0.270432  0.512243  0.750000  1
  V  V13  1  0.780633  0.980487  0.750000  1
  V  V14  1  0.220496  0.017645  0.250000  1
  V  V15  1  0.721532  0.482696  0.250000  1
  Se  Se16  1  0.330132  0.957036  0.093287  1
  Se  Se17  1  0.829728  0.544210  0.406257  1
  Se  Se18  1  0.155713  0.454831  0.938845  1
  Se  Se19  1  0.671168  0.039976  0.593133  1
  Se  Se20  1  0.015874  0.929121  0.250000  1
  Se  Se21  1  0.517564  0.571015  0.250000  1
  Se  Se22  1  0.506306  0.414878  0.750000  1
  Se  Se23  1  0.983458  0.072125  0.750000  1
  Se  Se24  1  0.671168  0.039976  0.906867  1
  Se  Se25  1  0.330132  0.957036  0.406713  1
  Se  Se26  1  0.829728  0.544210  0.093743  1
  Se  Se27  1  0.155713  0.454831  0.561155  1
  Se  Se28  1  0.800532  0.762202  0.750000  1
  Se  Se29  1  0.300702  0.760488  0.750000  1
  Se  Se30  1  0.704787  0.263473  0.250000  1
  Se  Se31  1  0.202271  0.234616  0.250000  1
