# generated using pymatgen
data_La6Pr10Mg3AlIr4
_symmetry_space_group_name_H-M   'P 1'
_cell_length_a   10.07479812
_cell_length_b   10.13371528
_cell_length_c   10.13371418
_cell_angle_alpha   59.41728914
_cell_angle_beta   60.15110964
_cell_angle_gamma   60.15111591
_symmetry_Int_Tables_number   1
_chemical_formula_structural   La6Pr10Mg3AlIr4
_chemical_formula_sum   'La6 Pr10 Mg3 Al1 Ir4'
_cell_volume   729.94339736
_cell_formula_units_Z   1
loop_
 _symmetry_equiv_pos_site_id
 _symmetry_equiv_pos_as_xyz
  1  'x, y, z'
loop_
 _atom_site_type_symbol
 _atom_site_label
 _atom_site_symmetry_multiplicity
 _atom_site_fract_x
 _atom_site_fract_y
 _atom_site_fract_z
 _atom_site_occupancy
  La  La0  1  0.342985  0.346703  0.346703  1
  La  La1  1  0.350231  0.345366  0.958677  1
  La  La2  1  0.350231  0.958677  0.345366  1
  La  La3  1  0.959493  0.349441  0.349441  1
  La  La4  1  0.814359  0.185554  0.185554  1
  La  La5  1  0.187048  0.810421  0.810421  1
  Pr  Pr6  1  0.188556  0.810813  0.188381  1
  Pr  Pr7  1  0.804554  0.193942  0.805254  1
  Pr  Pr8  1  0.188556  0.188381  0.810813  1
  Pr  Pr9  1  0.804554  0.805254  0.193942  1
  Pr  Pr10  1  0.935252  0.564781  0.564781  1
  Pr  Pr11  1  0.562336  0.934675  0.934675  1
  Pr  Pr12  1  0.561357  0.937355  0.561473  1
  Pr  Pr13  1  0.938324  0.560086  0.938147  1
  Pr  Pr14  1  0.561357  0.561473  0.937355  1
  Pr  Pr15  1  0.938324  0.938147  0.560086  1
  Mg  Mg16  1  0.577795  0.580225  0.267630  1
  Mg  Mg17  1  0.577795  0.267630  0.580225  1
  Mg  Mg18  1  0.267752  0.578242  0.578242  1
  Al  Al19  1  0.584843  0.580937  0.580937  1
  Ir  Ir20  1  0.135990  0.144847  0.144847  1
  Ir  Ir21  1  0.145806  0.135909  0.575575  1
  Ir  Ir22  1  0.145806  0.575575  0.135909  1
  Ir  Ir23  1  0.576695  0.145563  0.145563  1
