# generated using pymatgen
data_La3MgPtAu4
_symmetry_space_group_name_H-M   'P 1'
_cell_length_a   8.13289830
_cell_length_b   8.13289875
_cell_length_c   8.13289771
_cell_angle_alpha   66.43938429
_cell_angle_beta   66.43938505
_cell_angle_gamma   66.43937225
_symmetry_Int_Tables_number   1
_chemical_formula_structural   La3MgPtAu4
_chemical_formula_sum   'La6 Mg2 Pt2 Au8'
_cell_volume   433.17063542
_cell_formula_units_Z   2
loop_
 _symmetry_equiv_pos_site_id
 _symmetry_equiv_pos_as_xyz
  1  'x, y, z'
loop_
 _atom_site_type_symbol
 _atom_site_label
 _atom_site_symmetry_multiplicity
 _atom_site_fract_x
 _atom_site_fract_y
 _atom_site_fract_z
 _atom_site_occupancy
  La  La0  1  0.891214  0.171538  0.645245  1
  La  La1  1  0.645245  0.891214  0.171538  1
  La  La2  1  0.171538  0.645245  0.891214  1
  La  La3  1  0.102089  0.813401  0.371489  1
  La  La4  1  0.371489  0.102089  0.813401  1
  La  La5  1  0.813401  0.371489  0.102089  1
  Mg  Mg6  1  0.654213  0.654213  0.654213  1
  Mg  Mg7  1  0.348315  0.348315  0.348315  1
  Pt  Pt8  1  0.003835  0.003835  0.003835  1
  Pt  Pt9  1  0.799042  0.799042  0.799042  1
  Au  Au10  1  0.501085  0.501085  0.501085  1
  Au  Au11  1  0.202656  0.202656  0.202656  1
  Au  Au12  1  0.941049  0.534677  0.332463  1
  Au  Au13  1  0.332463  0.941049  0.534677  1
  Au  Au14  1  0.534677  0.332463  0.941049  1
  Au  Au15  1  0.057602  0.453470  0.676617  1
  Au  Au16  1  0.676617  0.057602  0.453470  1
  Au  Au17  1  0.453470  0.676617  0.057602  1
