# generated using pymatgen
data_Yb3CeIrRu7
_symmetry_space_group_name_H-M   'P 1'
_cell_length_a   5.22493344
_cell_length_b   5.22493430
_cell_length_c   8.93676701
_cell_angle_alpha   89.99612108
_cell_angle_beta   90.00387683
_cell_angle_gamma   119.99608124
_symmetry_Int_Tables_number   1
_chemical_formula_structural   Yb3CeIrRu7
_chemical_formula_sum   'Yb3 Ce1 Ir1 Ru7'
_cell_volume   211.29528685
_cell_formula_units_Z   1
loop_
 _symmetry_equiv_pos_site_id
 _symmetry_equiv_pos_as_xyz
  1  'x, y, z'
loop_
 _atom_site_type_symbol
 _atom_site_label
 _atom_site_symmetry_multiplicity
 _atom_site_fract_x
 _atom_site_fract_y
 _atom_site_fract_z
 _atom_site_occupancy
  Yb  Yb0  1  0.333354  0.666646  0.430392  1
  Yb  Yb1  1  0.333355  0.666645  0.066339  1
  Yb  Yb2  1  0.666673  0.333327  0.936582  1
  Ce  Ce3  1  0.666668  0.333332  0.570877  1
  Ir  Ir4  1  0.000013  0.999987  0.497265  1
  Ru  Ru5  1  0.000024  0.999976  0.998282  1
  Ru  Ru6  1  0.171061  0.342133  0.750959  1
  Ru  Ru7  1  0.171051  0.828949  0.750981  1
  Ru  Ru8  1  0.657867  0.828939  0.750959  1
  Ru  Ru9  1  0.829109  0.658097  0.249114  1
  Ru  Ru10  1  0.828922  0.171078  0.249134  1
  Ru  Ru11  1  0.341903  0.170891  0.249114  1
