# generated using pymatgen
data_CsAlSCl2
_symmetry_space_group_name_H-M   'P 1'
_cell_length_a   6.29034800
_cell_length_b   7.11783478
_cell_length_c   8.10197219
_cell_angle_alpha   108.86824305
_cell_angle_beta   90.00000000
_cell_angle_gamma   90.00000000
_symmetry_Int_Tables_number   1
_chemical_formula_structural   CsAlSCl2
_chemical_formula_sum   'Cs2 Al2 S2 Cl4'
_cell_volume   343.26220293
_cell_formula_units_Z   2
loop_
 _symmetry_equiv_pos_site_id
 _symmetry_equiv_pos_as_xyz
  1  'x, y, z'
loop_
 _atom_site_type_symbol
 _atom_site_label
 _atom_site_symmetry_multiplicity
 _atom_site_fract_x
 _atom_site_fract_y
 _atom_site_fract_z
 _atom_site_occupancy
  Cs  Cs0  1  0.562006  0.649063  0.793963  1
  Cs  Cs1  1  0.062006  0.350937  0.206037  1
  Al  Al2  1  0.462505  0.935498  0.375381  1
  Al  Al3  1  0.962505  0.064502  0.624619  1
  S  S4  1  0.105935  0.921014  0.364223  1
  S  S5  1  0.605935  0.078986  0.635777  1
  Cl  Cl6  1  0.055211  0.924539  0.820460  1
  Cl  Cl7  1  0.555211  0.075461  0.179540  1
  Cl  Cl8  1  0.064343  0.378784  0.739835  1
  Cl  Cl9  1  0.564343  0.621216  0.260165  1
