# generated using pymatgen
data_Er6Co14Re(NiP4)3
_symmetry_space_group_name_H-M   'P 1'
_cell_length_a   3.69961600
_cell_length_b   10.46289400
_cell_length_c   12.16661300
_cell_angle_alpha   90.00000000
_cell_angle_beta   90.00000000
_cell_angle_gamma   90.00000000
_symmetry_Int_Tables_number   1
_chemical_formula_structural   Er6Co14Re(NiP4)3
_chemical_formula_sum   'Er6 Co14 Re1 Ni3 P12'
_cell_volume   470.95365156
_cell_formula_units_Z   1
loop_
 _symmetry_equiv_pos_site_id
 _symmetry_equiv_pos_as_xyz
  1  'x, y, z'
loop_
 _atom_site_type_symbol
 _atom_site_label
 _atom_site_symmetry_multiplicity
 _atom_site_fract_x
 _atom_site_fract_y
 _atom_site_fract_z
 _atom_site_occupancy
  Er  Er0  1  0.750000  0.250000  0.476666  1
  Er  Er1  1  0.250000  0.750000  0.521439  1
  Er  Er2  1  0.250000  0.933715  0.792911  1
  Er  Er3  1  0.250000  0.566285  0.792911  1
  Er  Er4  1  0.750000  0.067008  0.204891  1
  Er  Er5  1  0.750000  0.432992  0.204891  1
  Co  Co6  1  0.750000  0.250000  0.011711  1
  Co  Co7  1  0.250000  0.750000  0.984451  1
  Co  Co8  1  0.250000  0.417162  0.008721  1
  Co  Co9  1  0.250000  0.082838  0.008721  1
  Co  Co10  1  0.750000  0.583020  0.994232  1
  Co  Co11  1  0.750000  0.916980  0.994232  1
  Co  Co12  1  0.250000  0.451770  0.568853  1
  Co  Co13  1  0.250000  0.048230  0.568853  1
  Co  Co14  1  0.750000  0.548189  0.431765  1
  Co  Co15  1  0.750000  0.951811  0.431765  1
  Co  Co16  1  0.250000  0.872520  0.290919  1
  Co  Co17  1  0.250000  0.627480  0.290919  1
  Co  Co18  1  0.750000  0.128925  0.708875  1
  Co  Co19  1  0.750000  0.371075  0.708875  1
  Re  Re20  1  0.250000  0.250000  0.842718  1
  Ni  Ni21  1  0.750000  0.750000  0.161167  1
  Ni  Ni22  1  0.250000  0.250000  0.298068  1
  Ni  Ni23  1  0.750000  0.750000  0.703287  1
  P  P24  1  0.250000  0.250000  0.119660  1
  P  P25  1  0.750000  0.750000  0.882461  1
  P  P26  1  0.250000  0.250000  0.649589  1
  P  P27  1  0.750000  0.750000  0.346149  1
  P  P28  1  0.250000  0.438975  0.383700  1
  P  P29  1  0.250000  0.061025  0.383700  1
  P  P30  1  0.750000  0.561307  0.615471  1
  P  P31  1  0.750000  0.938693  0.615471  1
  P  P32  1  0.250000  0.901776  0.107856  1
  P  P33  1  0.250000  0.598224  0.107856  1
  P  P34  1  0.750000  0.093496  0.893123  1
  P  P35  1  0.750000  0.406504  0.893123  1
