# generated using pymatgen
data_NdLuRe4(SiC)2
_symmetry_space_group_name_H-M   'P 1'
_cell_length_a   5.81532405
_cell_length_b   5.81532378
_cell_length_c   7.32855900
_cell_angle_alpha   90.00000000
_cell_angle_beta   90.00000000
_cell_angle_gamma   140.22786204
_symmetry_Int_Tables_number   1
_chemical_formula_structural   NdLuRe4(SiC)2
_chemical_formula_sum   'Nd1 Lu1 Re4 Si2 C2'
_cell_volume   158.55035264
_cell_formula_units_Z   1
loop_
 _symmetry_equiv_pos_site_id
 _symmetry_equiv_pos_as_xyz
  1  'x, y, z'
loop_
 _atom_site_type_symbol
 _atom_site_label
 _atom_site_symmetry_multiplicity
 _atom_site_fract_x
 _atom_site_fract_y
 _atom_site_fract_z
 _atom_site_occupancy
  Nd  Nd0  1  0.543100  0.456900  0.250000  1
  Lu  Lu1  1  0.457091  0.542909  0.750000  1
  Re  Re2  1  0.826752  0.173248  0.057613  1
  Re  Re3  1  0.173920  0.826080  0.935821  1
  Re  Re4  1  0.173920  0.826080  0.564179  1
  Re  Re5  1  0.826752  0.173248  0.442387  1
  Si  Si6  1  0.264349  0.735651  0.250000  1
  Si  Si7  1  0.736064  0.263936  0.750000  1
  C  C8  1  0.999026  0.000974  0.990554  1
  C  C9  1  0.999026  0.000974  0.509446  1
