# generated using pymatgen
data_La10Ga4IrOs5
_symmetry_space_group_name_H-M   'P 1'
_cell_length_a   8.63758681
_cell_length_b   8.63758706
_cell_length_c   8.64956435
_cell_angle_alpha   109.49512388
_cell_angle_beta   109.47347778
_cell_angle_gamma   109.38885507
_symmetry_Int_Tables_number   1
_chemical_formula_structural   La10Ga4IrOs5
_chemical_formula_sum   'La10 Ga4 Ir1 Os5'
_cell_volume   497.11603849
_cell_formula_units_Z   1
loop_
 _symmetry_equiv_pos_site_id
 _symmetry_equiv_pos_as_xyz
  1  'x, y, z'
loop_
 _atom_site_type_symbol
 _atom_site_label
 _atom_site_symmetry_multiplicity
 _atom_site_fract_x
 _atom_site_fract_y
 _atom_site_fract_z
 _atom_site_occupancy
  La  La0  1  0.248790  0.687701  0.433744  1
  La  La1  1  0.753957  0.815046  0.066257  1
  La  La2  1  0.436872  0.249490  0.686341  1
  La  La3  1  0.687209  0.437210  0.250000  1
  La  La4  1  0.063149  0.750531  0.813659  1
  La  La5  1  0.813807  0.063807  0.750000  1
  La  La6  1  0.217313  0.216759  0.217079  1
  La  La7  1  0.499680  0.000233  0.282921  1
  La  La8  1  0.282292  0.498387  0.001577  1
  La  La9  1  0.996808  0.280715  0.498424  1
  Ga  Ga10  1  0.500979  0.002203  0.907312  1
  Ga  Ga11  1  0.594892  0.593666  0.592688  1
  Ga  Ga12  1  0.906887  0.499833  0.999513  1
  Ga  Ga13  1  0.000319  0.907374  0.500488  1
  Ir  Ir14  1  0.380061  0.630061  0.750000  1
  Os  Os15  1  0.249717  0.117870  0.868392  1
  Os  Os16  1  0.749478  0.381322  0.631607  1
  Os  Os17  1  0.869218  0.249418  0.119794  1
  Os  Os18  1  0.118952  0.868952  0.250001  1
  Os  Os19  1  0.629622  0.749424  0.380205  1
