# generated using pymatgen
data_Ho2ErHf(Co4P3)2
_symmetry_space_group_name_H-M   'P 1'
_cell_length_a   3.70432100
_cell_length_b   10.65321300
_cell_length_c   12.34255300
_cell_angle_alpha   90.00000000
_cell_angle_beta   90.00000000
_cell_angle_gamma   90.00000000
_symmetry_Int_Tables_number   1
_chemical_formula_structural   Ho2ErHf(Co4P3)2
_chemical_formula_sum   'Ho4 Er2 Hf2 Co16 P12'
_cell_volume   487.07318945
_cell_formula_units_Z   2
loop_
 _symmetry_equiv_pos_site_id
 _symmetry_equiv_pos_as_xyz
  1  'x, y, z'
loop_
 _atom_site_type_symbol
 _atom_site_label
 _atom_site_symmetry_multiplicity
 _atom_site_fract_x
 _atom_site_fract_y
 _atom_site_fract_z
 _atom_site_occupancy
  Ho  Ho0  1  0.000000  0.500000  0.528959  1
  Ho  Ho1  1  0.500000  0.000000  0.470789  1
  Ho  Ho2  1  0.000000  0.677926  0.795549  1
  Ho  Ho3  1  0.000000  0.322074  0.795549  1
  Er  Er4  1  0.500000  0.822227  0.204441  1
  Er  Er5  1  0.500000  0.177773  0.204441  1
  Hf  Hf6  1  0.500000  0.500000  0.157789  1
  Hf  Hf7  1  0.000000  0.000000  0.842385  1
  Co  Co8  1  0.000000  0.500000  0.987185  1
  Co  Co9  1  0.500000  0.000000  0.013390  1
  Co  Co10  1  0.500000  0.295254  0.432810  1
  Co  Co11  1  0.500000  0.704746  0.432810  1
  Co  Co12  1  0.000000  0.204701  0.566592  1
  Co  Co13  1  0.000000  0.795299  0.566592  1
  Co  Co14  1  0.500000  0.877584  0.702655  1
  Co  Co15  1  0.500000  0.122416  0.702655  1
  Co  Co16  1  0.000000  0.622622  0.296991  1
  Co  Co17  1  0.000000  0.377378  0.296991  1
  Co  Co18  1  0.500000  0.331986  0.993848  1
  Co  Co19  1  0.500000  0.668014  0.993848  1
  Co  Co20  1  0.000000  0.167808  0.006834  1
  Co  Co21  1  0.000000  0.832192  0.006834  1
  Co  Co22  1  0.500000  0.500000  0.703128  1
  Co  Co23  1  0.000000  0.000000  0.296586  1
  P  P24  1  0.500000  0.310438  0.615699  1
  P  P25  1  0.500000  0.689562  0.615699  1
  P  P26  1  0.000000  0.189322  0.383649  1
  P  P27  1  0.000000  0.810678  0.383649  1
  P  P28  1  0.500000  0.500000  0.883616  1
  P  P29  1  0.000000  0.000000  0.116982  1
  P  P30  1  0.500000  0.838288  0.892770  1
  P  P31  1  0.500000  0.161712  0.892770  1
  P  P32  1  0.000000  0.662045  0.107800  1
  P  P33  1  0.000000  0.337955  0.107800  1
  P  P34  1  0.500000  0.500000  0.362447  1
  P  P35  1  0.000000  0.000000  0.637465  1
