# generated using pymatgen
data_Yb4Ga5Ru3
_symmetry_space_group_name_H-M   'P 1'
_cell_length_a   5.41341854
_cell_length_b   5.49640356
_cell_length_c   8.61103100
_cell_angle_alpha   90.00000000
_cell_angle_beta   90.00000000
_cell_angle_gamma   120.50682582
_symmetry_Int_Tables_number   1
_chemical_formula_structural   Yb4Ga5Ru3
_chemical_formula_sum   'Yb4 Ga5 Ru3'
_cell_volume   220.74723813
_cell_formula_units_Z   1
loop_
 _symmetry_equiv_pos_site_id
 _symmetry_equiv_pos_as_xyz
  1  'x, y, z'
loop_
 _atom_site_type_symbol
 _atom_site_label
 _atom_site_symmetry_multiplicity
 _atom_site_fract_x
 _atom_site_fract_y
 _atom_site_fract_z
 _atom_site_occupancy
  Yb  Yb0  1  0.663125  0.331738  0.557197  1
  Yb  Yb1  1  0.337034  0.668257  0.445953  1
  Yb  Yb2  1  0.337034  0.668257  0.054047  1
  Yb  Yb3  1  0.663125  0.331738  0.942803  1
  Ga  Ga4  1  0.159327  0.323238  0.750000  1
  Ga  Ga5  1  0.159629  0.836320  0.750000  1
  Ga  Ga6  1  0.671969  0.836108  0.750000  1
  Ga  Ga7  1  0.817812  0.660127  0.250000  1
  Ga  Ga8  1  0.817471  0.157285  0.250000  1
  Ru  Ru9  1  0.016818  0.008412  0.493723  1
  Ru  Ru10  1  0.016818  0.008412  0.006277  1
  Ru  Ru11  1  0.339838  0.170106  0.250000  1
