# generated using pymatgen
data_Sm4AlOs7
_symmetry_space_group_name_H-M   'P 1'
_cell_length_a   5.41409200
_cell_length_b   5.41409045
_cell_length_c   8.82781800
_cell_angle_alpha   90.00000000
_cell_angle_beta   90.00000000
_cell_angle_gamma   119.99999724
_symmetry_Int_Tables_number   1
_chemical_formula_structural   Sm4AlOs7
_chemical_formula_sum   'Sm4 Al1 Os7'
_cell_volume   224.09654101
_cell_formula_units_Z   1
loop_
 _symmetry_equiv_pos_site_id
 _symmetry_equiv_pos_as_xyz
  1  'x, y, z'
loop_
 _atom_site_type_symbol
 _atom_site_label
 _atom_site_symmetry_multiplicity
 _atom_site_fract_x
 _atom_site_fract_y
 _atom_site_fract_z
 _atom_site_occupancy
  Sm  Sm0  1  0.333333  0.666667  0.435436  1
  Sm  Sm1  1  0.666667  0.333333  0.564564  1
  Sm  Sm2  1  0.666667  0.333333  0.928576  1
  Sm  Sm3  1  0.333333  0.666667  0.071424  1
  Al  Al4  1  0.000000  0.000000  0.000000  1
  Os  Os5  1  0.171132  0.342263  0.750645  1
  Os  Os6  1  0.171132  0.828868  0.750645  1
  Os  Os7  1  0.342263  0.171132  0.249355  1
  Os  Os8  1  0.828868  0.657737  0.249355  1
  Os  Os9  1  0.657737  0.828868  0.750645  1
  Os  Os10  1  0.828868  0.171132  0.249355  1
  Os  Os11  1  0.000000  0.000000  0.500000  1
