# generated using pymatgen
data_Lu20AlZnBi10
_symmetry_space_group_name_H-M   'P 1'
_cell_length_a   8.05282655
_cell_length_b   9.31930700
_cell_length_c   11.72478110
_cell_angle_alpha   90.00000000
_cell_angle_beta   89.94051990
_cell_angle_gamma   90.00000000
_symmetry_Int_Tables_number   1
_chemical_formula_structural   Lu20AlZnBi10
_chemical_formula_sum   'Lu20 Al1 Zn1 Bi10'
_cell_volume   879.90639196
_cell_formula_units_Z   1
loop_
 _symmetry_equiv_pos_site_id
 _symmetry_equiv_pos_as_xyz
  1  'x, y, z'
loop_
 _atom_site_type_symbol
 _atom_site_label
 _atom_site_symmetry_multiplicity
 _atom_site_fract_x
 _atom_site_fract_y
 _atom_site_fract_z
 _atom_site_occupancy
  Lu  Lu0  1  0.035611  0.250000  0.507619  1
  Lu  Lu1  1  0.981934  0.750000  0.491260  1
  Lu  Lu2  1  0.478695  0.750000  0.010494  1
  Lu  Lu3  1  0.536256  0.250000  0.989724  1
  Lu  Lu4  1  0.353955  0.250000  0.295956  1
  Lu  Lu5  1  0.653972  0.750000  0.717463  1
  Lu  Lu6  1  0.151973  0.750000  0.780324  1
  Lu  Lu7  1  0.852198  0.250000  0.207863  1
  Lu  Lu8  1  0.186624  0.250000  0.784853  1
  Lu  Lu9  1  0.808248  0.750000  0.216543  1
  Lu  Lu10  1  0.310759  0.750000  0.283617  1
  Lu  Lu11  1  0.676468  0.250000  0.712947  1
  Lu  Lu12  1  0.185798  0.072728  0.057328  1
  Lu  Lu13  1  0.807504  0.945973  0.941731  1
  Lu  Lu14  1  0.309277  0.952666  0.557727  1
  Lu  Lu15  1  0.807504  0.554027  0.941731  1
  Lu  Lu16  1  0.683885  0.072932  0.445595  1
  Lu  Lu17  1  0.185798  0.427272  0.057328  1
  Lu  Lu18  1  0.683885  0.427068  0.445595  1
  Lu  Lu19  1  0.309277  0.547334  0.557727  1
  Al  Al20  1  0.909034  0.250000  0.955860  1
  Zn  Zn21  1  0.408286  0.250000  0.539892  1
  Bi  Bi22  1  0.596433  0.750000  0.457931  1
  Bi  Bi23  1  0.096928  0.750000  0.042189  1
  Bi  Bi24  1  0.058480  0.001400  0.323122  1
  Bi  Bi25  1  0.937970  0.999885  0.677679  1
  Bi  Bi26  1  0.438062  0.997110  0.822827  1
  Bi  Bi27  1  0.937970  0.500115  0.677679  1
  Bi  Bi28  1  0.560335  0.003191  0.176724  1
  Bi  Bi29  1  0.058480  0.498600  0.323122  1
  Bi  Bi30  1  0.560335  0.496809  0.176724  1
  Bi  Bi31  1  0.438062  0.502890  0.822827  1
