# generated using pymatgen
data_Ho6Co13Ni3(MoP6)2
_symmetry_space_group_name_H-M   'P 1'
_cell_length_a   3.74682300
_cell_length_b   10.56492375
_cell_length_c   12.26219135
_cell_angle_alpha   90.09655818
_cell_angle_beta   90.00000000
_cell_angle_gamma   90.00000000
_symmetry_Int_Tables_number   1
_chemical_formula_structural   Ho6Co13Ni3(MoP6)2
_chemical_formula_sum   'Ho6 Co13 Ni3 Mo2 P12'
_cell_volume   485.39692065
_cell_formula_units_Z   1
loop_
 _symmetry_equiv_pos_site_id
 _symmetry_equiv_pos_as_xyz
  1  'x, y, z'
loop_
 _atom_site_type_symbol
 _atom_site_label
 _atom_site_symmetry_multiplicity
 _atom_site_fract_x
 _atom_site_fract_y
 _atom_site_fract_z
 _atom_site_occupancy
  Ho  Ho0  1  0.000000  0.499904  0.522927  1
  Ho  Ho1  1  0.500000  0.999525  0.477461  1
  Ho  Ho2  1  0.500000  0.818215  0.204500  1
  Ho  Ho3  1  0.500000  0.182117  0.204476  1
  Ho  Ho4  1  0.000000  0.682263  0.795391  1
  Ho  Ho5  1  0.000000  0.317469  0.795758  1
  Co  Co6  1  0.000000  0.500095  0.987001  1
  Co  Co7  1  0.500000  0.999741  0.012827  1
  Co  Co8  1  0.500000  0.702831  0.432159  1
  Co  Co9  1  0.000000  0.201657  0.568287  1
  Co  Co10  1  0.000000  0.797464  0.567928  1
  Co  Co11  1  0.500000  0.877933  0.707689  1
  Co  Co12  1  0.500000  0.120902  0.708632  1
  Co  Co13  1  0.000000  0.622144  0.292481  1
  Co  Co14  1  0.000000  0.378776  0.291960  1
  Co  Co15  1  0.500000  0.332452  0.990116  1
  Co  Co16  1  0.500000  0.667734  0.989905  1
  Co  Co17  1  0.000000  0.167253  0.010021  1
  Co  Co18  1  0.000000  0.832367  0.009741  1
  Ni  Ni19  1  0.500000  0.299797  0.431627  1
  Ni  Ni20  1  0.500000  0.500642  0.701545  1
  Ni  Ni21  1  0.000000  0.998561  0.297676  1
  Mo  Mo22  1  0.500000  0.500408  0.155268  1
  Mo  Mo23  1  0.000000  0.999706  0.844490  1
  P  P24  1  0.500000  0.309785  0.617979  1
  P  P25  1  0.500000  0.690072  0.615802  1
  P  P26  1  0.000000  0.186018  0.383032  1
  P  P27  1  0.000000  0.810710  0.384110  1
  P  P28  1  0.500000  0.500095  0.882074  1
  P  P29  1  0.000000  0.999690  0.117977  1
  P  P30  1  0.500000  0.844655  0.892689  1
  P  P31  1  0.500000  0.155057  0.893121  1
  P  P32  1  0.000000  0.655610  0.106984  1
  P  P33  1  0.000000  0.344388  0.107099  1
  P  P34  1  0.500000  0.503625  0.348199  1
  P  P35  1  0.000000  0.000339  0.651068  1
