# generated using pymatgen
data_Er16Al4Ni3Ru
_symmetry_space_group_name_H-M   'P 1'
_cell_length_a   9.38619001
_cell_length_b   9.39010884
_cell_length_c   9.38619100
_cell_angle_alpha   60.01380443
_cell_angle_beta   60.00000005
_cell_angle_gamma   60.01380238
_symmetry_Int_Tables_number   1
_chemical_formula_structural   Er16Al4Ni3Ru
_chemical_formula_sum   'Er16 Al4 Ni3 Ru1'
_cell_volume   585.09304632
_cell_formula_units_Z   1
loop_
 _symmetry_equiv_pos_site_id
 _symmetry_equiv_pos_as_xyz
  1  'x, y, z'
loop_
 _atom_site_type_symbol
 _atom_site_label
 _atom_site_symmetry_multiplicity
 _atom_site_fract_x
 _atom_site_fract_y
 _atom_site_fract_z
 _atom_site_occupancy
  Er  Er0  1  0.064183  0.064126  0.435845  1
  Er  Er1  1  0.648846  0.053463  0.648846  1
  Er  Er2  1  0.191792  0.806878  0.191792  1
  Er  Er3  1  0.435845  0.064126  0.435845  1
  Er  Er4  1  0.192305  0.190941  0.808377  1
  Er  Er5  1  0.648008  0.651037  0.648008  1
  Er  Er6  1  0.052947  0.651037  0.648008  1
  Er  Er7  1  0.435845  0.064126  0.064183  1
  Er  Er8  1  0.648008  0.651037  0.052947  1
  Er  Er9  1  0.191792  0.806878  0.809538  1
  Er  Er10  1  0.808377  0.190941  0.808377  1
  Er  Er11  1  0.808377  0.190941  0.192305  1
  Er  Er12  1  0.809538  0.806878  0.191792  1
  Er  Er13  1  0.061982  0.435305  0.440732  1
  Er  Er14  1  0.440732  0.435305  0.061982  1
  Er  Er15  1  0.061982  0.435305  0.061982  1
  Al  Al16  1  0.733269  0.421558  0.422586  1
  Al  Al17  1  0.422586  0.421558  0.733269  1
  Al  Al18  1  0.422194  0.733417  0.422194  1
  Al  Al19  1  0.422586  0.421558  0.422586  1
  Ni  Ni20  1  0.857945  0.858432  0.857945  1
  Ni  Ni21  1  0.425678  0.858432  0.857945  1
  Ni  Ni22  1  0.857945  0.858432  0.425678  1
  Ru  Ru23  1  0.857237  0.428288  0.857237  1
