# generated using pymatgen
data_Y20Ir8Ru3Rh
_symmetry_space_group_name_H-M   'P 1'
_cell_length_a   10.88318800
_cell_length_b   10.88318800
_cell_length_c   6.44914000
_cell_angle_alpha   90.00000000
_cell_angle_beta   90.00000000
_cell_angle_gamma   90.00000000
_symmetry_Int_Tables_number   1
_chemical_formula_structural   Y20Ir8Ru3Rh
_chemical_formula_sum   'Y20 Ir8 Ru3 Rh1'
_cell_volume   763.86052608
_cell_formula_units_Z   1
loop_
 _symmetry_equiv_pos_site_id
 _symmetry_equiv_pos_as_xyz
  1  'x, y, z'
loop_
 _atom_site_type_symbol
 _atom_site_label
 _atom_site_symmetry_multiplicity
 _atom_site_fract_x
 _atom_site_fract_y
 _atom_site_fract_z
 _atom_site_occupancy
  Y  Y0  1  0.292170  0.087486  0.380709  1
  Y  Y1  1  0.291854  0.912520  0.876549  1
  Y  Y2  1  0.708146  0.087480  0.876549  1
  Y  Y3  1  0.707830  0.912514  0.380709  1
  Y  Y4  1  0.587480  0.791854  0.876549  1
  Y  Y5  1  0.587486  0.207830  0.380709  1
  Y  Y6  1  0.412514  0.792170  0.380709  1
  Y  Y7  1  0.412520  0.208146  0.876549  1
  Y  Y8  1  0.206248  0.413357  0.621636  1
  Y  Y9  1  0.206247  0.586789  0.121660  1
  Y  Y10  1  0.793753  0.413211  0.121660  1
  Y  Y11  1  0.793752  0.586643  0.621636  1
  Y  Y12  1  0.913211  0.706247  0.121660  1
  Y  Y13  1  0.913357  0.293752  0.621636  1
  Y  Y14  1  0.086643  0.706248  0.621636  1
  Y  Y15  1  0.086789  0.293753  0.121660  1
  Y  Y16  1  0.000000  0.000000  0.500084  1
  Y  Y17  1  0.000000  0.000000  0.000236  1
  Y  Y18  1  0.500000  0.500000  0.000236  1
  Y  Y19  1  0.500000  0.500000  0.500084  1
  Ir  Ir20  1  0.846559  0.152219  0.249551  1
  Ir  Ir21  1  0.846738  0.847523  0.750091  1
  Ir  Ir22  1  0.153262  0.152477  0.750091  1
  Ir  Ir23  1  0.153441  0.847781  0.249551  1
  Ir  Ir24  1  0.652477  0.346738  0.750091  1
  Ir  Ir25  1  0.652219  0.653441  0.249551  1
  Ir  Ir26  1  0.347781  0.346559  0.249551  1
  Ir  Ir27  1  0.347523  0.653262  0.750091  1
  Ru  Ru28  1  0.500000  0.000000  0.624031  1
  Ru  Ru29  1  0.000000  0.500000  0.875678  1
  Ru  Ru30  1  0.000000  0.500000  0.375560  1
  Rh  Rh31  1  0.500000  0.000000  0.123311  1
