# generated using pymatgen
data_Er4Tm6CuRuPb6
_symmetry_space_group_name_H-M   'P 1'
_cell_length_a   9.08645100
_cell_length_b   9.08645141
_cell_length_c   6.72516300
_cell_angle_alpha   90.00000000
_cell_angle_beta   90.00000000
_cell_angle_gamma   120.00000944
_symmetry_Int_Tables_number   1
_chemical_formula_structural   Er4Tm6CuRuPb6
_chemical_formula_sum   'Er4 Tm6 Cu1 Ru1 Pb6'
_cell_volume   480.86370980
_cell_formula_units_Z   1
loop_
 _symmetry_equiv_pos_site_id
 _symmetry_equiv_pos_as_xyz
  1  'x, y, z'
loop_
 _atom_site_type_symbol
 _atom_site_label
 _atom_site_symmetry_multiplicity
 _atom_site_fract_x
 _atom_site_fract_y
 _atom_site_fract_z
 _atom_site_occupancy
  Er  Er0  1  0.333333  0.666667  0.000000  1
  Er  Er1  1  0.666667  0.333333  0.000000  1
  Er  Er2  1  0.666667  0.333333  0.500000  1
  Er  Er3  1  0.333333  0.666667  0.500000  1
  Tm  Tm4  1  0.241922  0.000000  0.233669  1
  Tm  Tm5  1  0.758078  0.000000  0.766331  1
  Tm  Tm6  1  0.000000  0.241922  0.233669  1
  Tm  Tm7  1  0.000000  0.758078  0.766331  1
  Tm  Tm8  1  0.758078  0.758078  0.233669  1
  Tm  Tm9  1  0.241922  0.241922  0.766331  1
  Cu  Cu10  1  0.000000  0.000000  0.500000  1
  Ru  Ru11  1  0.000000  0.000000  0.000000  1
  Pb  Pb12  1  0.602043  0.000000  0.253172  1
  Pb  Pb13  1  0.397957  0.000000  0.746828  1
  Pb  Pb14  1  0.000000  0.602043  0.253172  1
  Pb  Pb15  1  0.000000  0.397957  0.746828  1
  Pb  Pb16  1  0.397957  0.397957  0.253172  1
  Pb  Pb17  1  0.602043  0.602043  0.746828  1
