# generated using pymatgen
data_Cd3HgIr3PbO14
_symmetry_space_group_name_H-M   'P 1'
_cell_length_a   7.48217858
_cell_length_b   7.29915795
_cell_length_c   7.29915900
_cell_angle_alpha   59.99999976
_cell_angle_beta   60.80591325
_cell_angle_gamma   60.80591134
_symmetry_Int_Tables_number   1
_chemical_formula_structural   Cd3HgIr3PbO14
_chemical_formula_sum   'Cd3 Hg1 Ir3 Pb1 O14'
_cell_volume   285.26133873
_cell_formula_units_Z   1
loop_
 _symmetry_equiv_pos_site_id
 _symmetry_equiv_pos_as_xyz
  1  'x, y, z'
loop_
 _atom_site_type_symbol
 _atom_site_label
 _atom_site_symmetry_multiplicity
 _atom_site_fract_x
 _atom_site_fract_y
 _atom_site_fract_z
 _atom_site_occupancy
  Cd  Cd0  1  0.125000  0.625000  0.125000  1
  Cd  Cd1  1  0.125000  0.125000  0.625000  1
  Cd  Cd2  1  0.125000  0.125000  0.125000  1
  Hg  Hg3  1  0.125000  0.625000  0.625000  1
  Ir  Ir4  1  0.625000  0.125000  0.625000  1
  Ir  Ir5  1  0.625000  0.625000  0.125000  1
  Ir  Ir6  1  0.625000  0.625000  0.625000  1
  Pb  Pb7  1  0.625000  0.125000  0.125000  1
  O  O8  1  0.632654  0.732963  0.317191  1
  O  O9  1  0.310709  0.235924  0.726683  1
  O  O10  1  0.632654  0.317191  0.732963  1
  O  O11  1  0.310709  0.726683  0.235924  1
  O  O12  1  0.310709  0.726683  0.726683  1
  O  O13  1  0.632654  0.317191  0.317191  1
  O  O14  1  0.617346  0.517037  0.932809  1
  O  O15  1  0.939291  0.014076  0.523317  1
  O  O16  1  0.617346  0.932809  0.517037  1
  O  O17  1  0.939291  0.523317  0.014076  1
  O  O18  1  0.939291  0.523317  0.523317  1
  O  O19  1  0.617346  0.932809  0.932809  1
  O  O20  1  0.271878  0.242708  0.242708  1
  O  O21  1  0.978122  0.007292  0.007292  1
