# generated using pymatgen
data_TbEr11Co4
_symmetry_space_group_name_H-M   'P 1'
_cell_length_a   6.17547151
_cell_length_b   6.91600651
_cell_length_c   9.35284300
_cell_angle_alpha   90.00000000
_cell_angle_beta   90.00000000
_cell_angle_gamma   89.95479049
_symmetry_Int_Tables_number   1
_chemical_formula_structural   TbEr11Co4
_chemical_formula_sum   'Tb1 Er11 Co4'
_cell_volume   399.45606973
_cell_formula_units_Z   1
loop_
 _symmetry_equiv_pos_site_id
 _symmetry_equiv_pos_as_xyz
  1  'x, y, z'
loop_
 _atom_site_type_symbol
 _atom_site_label
 _atom_site_symmetry_multiplicity
 _atom_site_fract_x
 _atom_site_fract_y
 _atom_site_fract_z
 _atom_site_occupancy
  Tb  Tb0  1  0.362278  0.958159  0.750000  1
  Er  Er1  1  0.323693  0.675345  0.067828  1
  Er  Er2  1  0.176020  0.176765  0.432081  1
  Er  Er3  1  0.676286  0.324248  0.567259  1
  Er  Er4  1  0.824751  0.823468  0.933348  1
  Er  Er5  1  0.676286  0.324248  0.932741  1
  Er  Er6  1  0.824751  0.823468  0.566652  1
  Er  Er7  1  0.323693  0.675345  0.432172  1
  Er  Er8  1  0.176020  0.176765  0.067919  1
  Er  Er9  1  0.860560  0.541910  0.250000  1
  Er  Er10  1  0.638759  0.042442  0.250000  1
  Er  Er11  1  0.138094  0.458357  0.750000  1
  Co  Co12  1  0.047591  0.887346  0.250000  1
  Co  Co13  1  0.452042  0.387332  0.250000  1
  Co  Co14  1  0.950053  0.113056  0.750000  1
  Co  Co15  1  0.549121  0.611746  0.750000  1
