# generated using pymatgen
data_Ho6Lu10In6FeCo
_symmetry_space_group_name_H-M   'P 1'
_cell_length_a   10.18235101
_cell_length_b   10.18225510
_cell_length_c   6.93056102
_cell_angle_alpha   90.00777666
_cell_angle_beta   89.99511340
_cell_angle_gamma   120.00285368
_symmetry_Int_Tables_number   1
_chemical_formula_structural   Ho6Lu10In6FeCo
_chemical_formula_sum   'Ho6 Lu10 In6 Fe1 Co1'
_cell_volume   622.26957542
_cell_formula_units_Z   1
loop_
 _symmetry_equiv_pos_site_id
 _symmetry_equiv_pos_as_xyz
  1  'x, y, z'
loop_
 _atom_site_type_symbol
 _atom_site_label
 _atom_site_symmetry_multiplicity
 _atom_site_fract_x
 _atom_site_fract_y
 _atom_site_fract_z
 _atom_site_occupancy
  Ho  Ho0  1  0.534602  0.069227  0.522128  1
  Ho  Ho1  1  0.930743  0.465367  0.522100  1
  Ho  Ho2  1  0.534625  0.465387  0.522117  1
  Ho  Ho3  1  0.466279  0.932546  0.022146  1
  Ho  Ho4  1  0.067432  0.533713  0.022148  1
  Ho  Ho5  1  0.466286  0.533725  0.022162  1
  Lu  Lu6  1  0.179151  0.358295  0.726593  1
  Lu  Lu7  1  0.641717  0.820855  0.726599  1
  Lu  Lu8  1  0.179132  0.820861  0.726603  1
  Lu  Lu9  1  0.820852  0.641710  0.227490  1
  Lu  Lu10  1  0.358277  0.179132  0.227510  1
  Lu  Lu11  1  0.820864  0.179132  0.227526  1
  Lu  Lu12  1  0.666679  0.333357  0.912200  1
  Lu  Lu13  1  0.333344  0.666663  0.412700  1
  Lu  Lu14  1  0.999999  0.999994  0.508543  1
  Lu  Lu15  1  0.999996  0.999998  0.008216  1
  In  In16  1  0.837687  0.675387  0.770934  1
  In  In17  1  0.324630  0.162316  0.770934  1
  In  In18  1  0.837692  0.162318  0.770937  1
  In  In19  1  0.162760  0.325511  0.270344  1
  In  In20  1  0.674495  0.837243  0.270385  1
  In  In21  1  0.162758  0.837256  0.270377  1
  Fe  Fe22  1  0.666667  0.333333  0.297873  1
  Co  Co23  1  0.333333  0.666680  0.797116  1
