# generated using pymatgen
data_KNb8OsS16
_symmetry_space_group_name_H-M   'P 1'
_cell_length_a   6.66331010
_cell_length_b   6.66192892
_cell_length_c   14.25784900
_cell_angle_alpha   90.06239649
_cell_angle_beta   89.98987933
_cell_angle_gamma   120.00255994
_symmetry_Int_Tables_number   1
_chemical_formula_structural   KNb8OsS16
_chemical_formula_sum   'K1 Nb8 Os1 S16'
_cell_volume   548.10424096
_cell_formula_units_Z   1
loop_
 _symmetry_equiv_pos_site_id
 _symmetry_equiv_pos_as_xyz
  1  'x, y, z'
loop_
 _atom_site_type_symbol
 _atom_site_label
 _atom_site_symmetry_multiplicity
 _atom_site_fract_x
 _atom_site_fract_y
 _atom_site_fract_z
 _atom_site_occupancy
  K  K0  1  0.000000  0.000000  0.500000  1
  Nb  Nb1  1  0.000121  0.000275  0.212003  1
  Nb  Nb2  1  0.999879  0.999725  0.787997  1
  Nb  Nb3  1  0.504659  0.009259  0.207276  1
  Nb  Nb4  1  0.991013  0.495765  0.207284  1
  Nb  Nb5  1  0.504788  0.495795  0.207293  1
  Nb  Nb6  1  0.495341  0.990741  0.792724  1
  Nb  Nb7  1  0.008987  0.504235  0.792716  1
  Nb  Nb8  1  0.495212  0.504205  0.792707  1
  Os  Os9  1  0.000000  0.000000  0.000000  1
  S  S10  1  0.333336  0.666764  0.904698  1
  S  S11  1  0.666664  0.333236  0.095302  1
  S  S12  1  0.666907  0.333856  0.320674  1
  S  S13  1  0.333093  0.666144  0.679326  1
  S  S14  1  0.168968  0.831849  0.318873  1
  S  S15  1  0.168963  0.337969  0.318910  1
  S  S16  1  0.662848  0.831858  0.318873  1
  S  S17  1  0.831032  0.168151  0.681127  1
  S  S18  1  0.831037  0.662031  0.681090  1
  S  S19  1  0.337152  0.168142  0.681127  1
  S  S20  1  0.834987  0.164855  0.900466  1
  S  S21  1  0.834950  0.670000  0.900410  1
  S  S22  1  0.329824  0.164883  0.900435  1
  S  S23  1  0.165013  0.835145  0.099534  1
  S  S24  1  0.165050  0.330000  0.099590  1
  S  S25  1  0.670176  0.835117  0.099565  1
