# generated using pymatgen
data_YHo3(MgRh)4
_symmetry_space_group_name_H-M   'P 1'
_cell_length_a   4.10659300
_cell_length_b   7.09023007
_cell_length_c   8.49346665
_cell_angle_alpha   89.84186836
_cell_angle_beta   90.00000000
_cell_angle_gamma   90.00000000
_symmetry_Int_Tables_number   1
_chemical_formula_structural   YHo3(MgRh)4
_chemical_formula_sum   'Y1 Ho3 Mg4 Rh4'
_cell_volume   247.30068643
_cell_formula_units_Z   1
loop_
 _symmetry_equiv_pos_site_id
 _symmetry_equiv_pos_as_xyz
  1  'x, y, z'
loop_
 _atom_site_type_symbol
 _atom_site_label
 _atom_site_symmetry_multiplicity
 _atom_site_fract_x
 _atom_site_fract_y
 _atom_site_fract_z
 _atom_site_occupancy
  Y  Y0  1  0.250000  0.535239  0.176245  1
  Ho  Ho1  1  0.750000  0.463648  0.822916  1
  Ho  Ho2  1  0.250000  0.036302  0.324467  1
  Ho  Ho3  1  0.750000  0.964499  0.676548  1
  Mg  Mg4  1  0.250000  0.136947  0.938468  1
  Mg  Mg5  1  0.750000  0.861630  0.061490  1
  Mg  Mg6  1  0.250000  0.637843  0.561367  1
  Mg  Mg7  1  0.750000  0.363112  0.438242  1
  Rh  Rh8  1  0.750000  0.751112  0.375376  1
  Rh  Rh9  1  0.250000  0.252790  0.626520  1
  Rh  Rh10  1  0.750000  0.244685  0.126340  1
  Rh  Rh11  1  0.250000  0.752193  0.872020  1
