# generated using pymatgen
data_Yb5Sb3Br
_symmetry_space_group_name_H-M   'P 1'
_cell_length_a   9.15215500
_cell_length_b   9.15215548
_cell_length_c   7.06395400
_cell_angle_alpha   90.00000000
_cell_angle_beta   90.00000000
_cell_angle_gamma   120.00000186
_symmetry_Int_Tables_number   1
_chemical_formula_structural   Yb5Sb3Br
_chemical_formula_sum   'Yb10 Sb6 Br2'
_cell_volume   512.41902097
_cell_formula_units_Z   2
loop_
 _symmetry_equiv_pos_site_id
 _symmetry_equiv_pos_as_xyz
  1  'x, y, z'
loop_
 _atom_site_type_symbol
 _atom_site_label
 _atom_site_symmetry_multiplicity
 _atom_site_fract_x
 _atom_site_fract_y
 _atom_site_fract_z
 _atom_site_occupancy
  Yb  Yb0  1  0.262558  0.000000  0.250000  1
  Yb  Yb1  1  0.000000  0.737442  0.750000  1
  Yb  Yb2  1  0.737442  0.737442  0.250000  1
  Yb  Yb3  1  0.262558  0.262558  0.750000  1
  Yb  Yb4  1  0.737442  0.000000  0.750000  1
  Yb  Yb5  1  0.000000  0.262558  0.250000  1
  Yb  Yb6  1  0.666667  0.333333  0.500000  1
  Yb  Yb7  1  0.333333  0.666667  0.000000  1
  Yb  Yb8  1  0.333333  0.666667  0.500000  1
  Yb  Yb9  1  0.666667  0.333333  0.000000  1
  Sb  Sb10  1  0.608465  0.608465  0.750000  1
  Sb  Sb11  1  0.000000  0.608465  0.250000  1
  Sb  Sb12  1  0.608465  0.000000  0.250000  1
  Sb  Sb13  1  0.391535  0.000000  0.750000  1
  Sb  Sb14  1  0.000000  0.391535  0.750000  1
  Sb  Sb15  1  0.391535  0.391535  0.250000  1
  Br  Br16  1  0.000000  0.000000  0.500000  1
  Br  Br17  1  0.000000  0.000000  0.000000  1
