# generated using pymatgen
data_Sc2Al2GaTc
_symmetry_space_group_name_H-M   'P 1'
_cell_length_a   5.28374220
_cell_length_b   5.27954635
_cell_length_c   8.68965100
_cell_angle_alpha   90.00000000
_cell_angle_beta   90.00000000
_cell_angle_gamma   119.97372783
_symmetry_Int_Tables_number   1
_chemical_formula_structural   Sc2Al2GaTc
_chemical_formula_sum   'Sc4 Al4 Ga2 Tc2'
_cell_volume   209.98395202
_cell_formula_units_Z   2
loop_
 _symmetry_equiv_pos_site_id
 _symmetry_equiv_pos_as_xyz
  1  'x, y, z'
loop_
 _atom_site_type_symbol
 _atom_site_label
 _atom_site_symmetry_multiplicity
 _atom_site_fract_x
 _atom_site_fract_y
 _atom_site_fract_z
 _atom_site_occupancy
  Sc  Sc0  1  0.332593  0.666293  0.049090  1
  Sc  Sc1  1  0.667407  0.333699  0.549090  1
  Sc  Sc2  1  0.332593  0.666293  0.450910  1
  Sc  Sc3  1  0.667407  0.333699  0.950910  1
  Al  Al4  1  0.673826  0.835264  0.750000  1
  Al  Al5  1  0.326174  0.161438  0.250000  1
  Al  Al6  1  0.831651  0.161943  0.250000  1
  Al  Al7  1  0.168349  0.330293  0.750000  1
  Ga  Ga8  1  0.829751  0.662870  0.250000  1
  Ga  Ga9  1  0.170249  0.833120  0.750000  1
  Tc  Tc10  1  0.000000  0.007543  0.500000  1
  Tc  Tc11  1  0.000000  0.007543  0.000000  1
