# generated using pymatgen
data_TmCoMo(PIr)3
_symmetry_space_group_name_H-M   'P 1'
_cell_length_a   3.91093000
_cell_length_b   10.70672400
_cell_length_c   12.36126000
_cell_angle_alpha   90.00000000
_cell_angle_beta   90.00000000
_cell_angle_gamma   90.00000000
_symmetry_Int_Tables_number   1
_chemical_formula_structural   TmCoMo(PIr)3
_chemical_formula_sum   'Tm4 Co4 Mo4 P12 Ir12'
_cell_volume   517.60610673
_cell_formula_units_Z   4
loop_
 _symmetry_equiv_pos_site_id
 _symmetry_equiv_pos_as_xyz
  1  'x, y, z'
loop_
 _atom_site_type_symbol
 _atom_site_label
 _atom_site_symmetry_multiplicity
 _atom_site_fract_x
 _atom_site_fract_y
 _atom_site_fract_z
 _atom_site_occupancy
  Tm  Tm0  1  0.250000  0.583274  0.708607  1
  Tm  Tm1  1  0.250000  0.916726  0.208607  1
  Tm  Tm2  1  0.750000  0.416726  0.291393  1
  Tm  Tm3  1  0.750000  0.083274  0.791393  1
  Co  Co4  1  0.250000  0.461277  0.935600  1
  Co  Co5  1  0.250000  0.038723  0.435600  1
  Co  Co6  1  0.750000  0.538723  0.064400  1
  Co  Co7  1  0.750000  0.961277  0.564400  1
  Mo  Mo8  1  0.250000  0.708576  0.983223  1
  Mo  Mo9  1  0.250000  0.791424  0.483223  1
  Mo  Mo10  1  0.750000  0.291424  0.016777  1
  Mo  Mo11  1  0.750000  0.208576  0.516777  1
  P  P12  1  0.250000  0.425275  0.107860  1
  P  P13  1  0.250000  0.074725  0.607860  1
  P  P14  1  0.750000  0.574725  0.892140  1
  P  P15  1  0.750000  0.925275  0.392140  1
  P  P16  1  0.250000  0.268535  0.871045  1
  P  P17  1  0.250000  0.231465  0.371045  1
  P  P18  1  0.750000  0.731465  0.128955  1
  P  P19  1  0.750000  0.768535  0.628955  1
  P  P20  1  0.250000  0.597273  0.389916  1
  P  P21  1  0.250000  0.902727  0.889916  1
  P  P22  1  0.750000  0.402727  0.610084  1
  P  P23  1  0.750000  0.097273  0.110084  1
  Ir  Ir24  1  0.250000  0.404853  0.482776  1
  Ir  Ir25  1  0.250000  0.095147  0.982776  1
  Ir  Ir26  1  0.750000  0.595147  0.517224  1
  Ir  Ir27  1  0.750000  0.904853  0.017224  1
  Ir  Ir28  1  0.250000  0.233114  0.181484  1
  Ir  Ir29  1  0.250000  0.266886  0.681484  1
  Ir  Ir30  1  0.750000  0.766886  0.818516  1
  Ir  Ir31  1  0.750000  0.733114  0.318516  1
  Ir  Ir32  1  0.250000  0.889637  0.700374  1
  Ir  Ir33  1  0.250000  0.610363  0.200374  1
  Ir  Ir34  1  0.750000  0.110363  0.299626  1
  Ir  Ir35  1  0.750000  0.389637  0.799626  1
