# generated using pymatgen
data_YbYTm2(SiPt2)4
_symmetry_space_group_name_H-M   'P 1'
_cell_length_a   5.51808078
_cell_length_b   6.96200700
_cell_length_c   7.29407684
_cell_angle_alpha   90.00000000
_cell_angle_beta   89.91499944
_cell_angle_gamma   90.00000000
_symmetry_Int_Tables_number   1
_chemical_formula_structural   YbYTm2(SiPt2)4
_chemical_formula_sum   'Yb1 Y1 Tm2 Si4 Pt8'
_cell_volume   280.21563632
_cell_formula_units_Z   1
loop_
 _symmetry_equiv_pos_site_id
 _symmetry_equiv_pos_as_xyz
  1  'x, y, z'
loop_
 _atom_site_type_symbol
 _atom_site_label
 _atom_site_symmetry_multiplicity
 _atom_site_fract_x
 _atom_site_fract_y
 _atom_site_fract_z
 _atom_site_occupancy
  Yb  Yb0  1  0.364376  0.750000  0.023431  1
  Y  Y1  1  0.633758  0.250000  0.974842  1
  Tm  Tm2  1  0.136526  0.750000  0.524908  1
  Tm  Tm3  1  0.864274  0.250000  0.476164  1
  Si  Si4  1  0.635456  0.750000  0.378050  1
  Si  Si5  1  0.865727  0.750000  0.880340  1
  Si  Si6  1  0.364994  0.250000  0.620015  1
  Si  Si7  1  0.133472  0.250000  0.121848  1
  Pt  Pt8  1  0.908739  0.550478  0.182537  1
  Pt  Pt9  1  0.596590  0.948943  0.678721  1
  Pt  Pt10  1  0.090273  0.050287  0.815766  1
  Pt  Pt11  1  0.405107  0.449033  0.323176  1
  Pt  Pt12  1  0.090273  0.449713  0.815766  1
  Pt  Pt13  1  0.405107  0.050967  0.323176  1
  Pt  Pt14  1  0.908739  0.949522  0.182537  1
  Pt  Pt15  1  0.596590  0.551057  0.678721  1
