# generated using pymatgen
data_Tb2Ga5Co3
_symmetry_space_group_name_H-M   'P 1'
_cell_length_a   8.34401032
_cell_length_b   8.34401083
_cell_length_c   5.53684430
_cell_angle_alpha   70.55865923
_cell_angle_beta   70.55865928
_cell_angle_gamma   96.09092001
_symmetry_Int_Tables_number   1
_chemical_formula_structural   Tb2Ga5Co3
_chemical_formula_sum   'Tb4 Ga10 Co6'
_cell_volume   332.43027327
_cell_formula_units_Z   2
loop_
 _symmetry_equiv_pos_site_id
 _symmetry_equiv_pos_as_xyz
  1  'x, y, z'
loop_
 _atom_site_type_symbol
 _atom_site_label
 _atom_site_symmetry_multiplicity
 _atom_site_fract_x
 _atom_site_fract_y
 _atom_site_fract_z
 _atom_site_occupancy
  Tb  Tb0  1  0.582030  0.867099  0.776823  1
  Tb  Tb1  1  0.132901  0.417970  0.723177  1
  Tb  Tb2  1  0.417970  0.132901  0.223177  1
  Tb  Tb3  1  0.867099  0.582030  0.276823  1
  Ga  Ga4  1  0.499498  0.500502  0.750000  1
  Ga  Ga5  1  0.500502  0.499498  0.250000  1
  Ga  Ga6  1  0.262303  0.092760  0.821360  1
  Ga  Ga7  1  0.907240  0.737697  0.678640  1
  Ga  Ga8  1  0.737697  0.907240  0.178640  1
  Ga  Ga9  1  0.092760  0.262303  0.321360  1
  Ga  Ga10  1  0.794420  0.205580  0.750000  1
  Ga  Ga11  1  0.205580  0.794420  0.250000  1
  Ga  Ga12  1  0.206324  0.793676  0.750000  1
  Ga  Ga13  1  0.793676  0.206324  0.250000  1
  Co  Co14  1  0.561562  0.264289  0.588439  1
  Co  Co15  1  0.735711  0.438438  0.911561  1
  Co  Co16  1  0.438438  0.735711  0.411561  1
  Co  Co17  1  0.264289  0.561562  0.088439  1
  Co  Co18  1  0.000066  0.999934  0.750000  1
  Co  Co19  1  0.999934  0.000066  0.250000  1
