# generated using pymatgen
data_Tm3Lu5(ZnCo)2
_symmetry_space_group_name_H-M   'P 1'
_cell_length_a   9.16391595
_cell_length_b   9.16391521
_cell_length_c   9.16391500
_cell_angle_alpha   59.99999714
_cell_angle_beta   59.99999983
_cell_angle_gamma   59.99999511
_symmetry_Int_Tables_number   1
_chemical_formula_structural   Tm3Lu5(ZnCo)2
_chemical_formula_sum   'Tm6 Lu10 Zn4 Co4'
_cell_volume   544.16197131
_cell_formula_units_Z   2
loop_
 _symmetry_equiv_pos_site_id
 _symmetry_equiv_pos_as_xyz
  1  'x, y, z'
loop_
 _atom_site_type_symbol
 _atom_site_label
 _atom_site_symmetry_multiplicity
 _atom_site_fract_x
 _atom_site_fract_y
 _atom_site_fract_z
 _atom_site_occupancy
  Tm  Tm0  1  0.938007  0.561993  0.561993  1
  Tm  Tm1  1  0.561993  0.938007  0.938007  1
  Tm  Tm2  1  0.561993  0.938007  0.561993  1
  Tm  Tm3  1  0.938007  0.561993  0.938007  1
  Tm  Tm4  1  0.561993  0.561993  0.938007  1
  Tm  Tm5  1  0.938007  0.938007  0.561993  1
  Lu  Lu6  1  0.350372  0.350372  0.350372  1
  Lu  Lu7  1  0.350372  0.350372  0.948885  1
  Lu  Lu8  1  0.350372  0.948885  0.350372  1
  Lu  Lu9  1  0.948885  0.350372  0.350372  1
  Lu  Lu10  1  0.809998  0.190002  0.190002  1
  Lu  Lu11  1  0.190002  0.809998  0.809998  1
  Lu  Lu12  1  0.190002  0.809998  0.190002  1
  Lu  Lu13  1  0.809998  0.190002  0.809998  1
  Lu  Lu14  1  0.190002  0.190002  0.809998  1
  Lu  Lu15  1  0.809998  0.809998  0.190002  1
  Zn  Zn16  1  0.577477  0.577477  0.577477  1
  Zn  Zn17  1  0.577477  0.577477  0.267568  1
  Zn  Zn18  1  0.577477  0.267568  0.577477  1
  Zn  Zn19  1  0.267568  0.577477  0.577477  1
  Co  Co20  1  0.142157  0.142157  0.142157  1
  Co  Co21  1  0.142157  0.142157  0.573532  1
  Co  Co22  1  0.142157  0.573532  0.142157  1
  Co  Co23  1  0.573532  0.142157  0.142157  1
