# generated using pymatgen
data_Dy8Ho12Si15Ru
_symmetry_space_group_name_H-M   'P 1'
_cell_length_a   7.32713980
_cell_length_b   7.73575450
_cell_length_c   14.54223500
_cell_angle_alpha   90.00000000
_cell_angle_beta   90.00000000
_cell_angle_gamma   90.07863993
_symmetry_Int_Tables_number   1
_chemical_formula_structural   Dy8Ho12Si15Ru
_chemical_formula_sum   'Dy8 Ho12 Si15 Ru1'
_cell_volume   824.26698575
_cell_formula_units_Z   1
loop_
 _symmetry_equiv_pos_site_id
 _symmetry_equiv_pos_as_xyz
  1  'x, y, z'
loop_
 _atom_site_type_symbol
 _atom_site_label
 _atom_site_symmetry_multiplicity
 _atom_site_fract_x
 _atom_site_fract_y
 _atom_site_fract_z
 _atom_site_occupancy
  Dy  Dy0  1  0.017779  0.183778  0.096363  1
  Dy  Dy1  1  0.985722  0.825188  0.905105  1
  Dy  Dy2  1  0.484072  0.681093  0.904704  1
  Dy  Dy3  1  0.985722  0.825188  0.594895  1
  Dy  Dy4  1  0.516880  0.318263  0.096168  1
  Dy  Dy5  1  0.017779  0.183778  0.403637  1
  Dy  Dy6  1  0.516880  0.318263  0.403832  1
  Dy  Dy7  1  0.484072  0.681093  0.595296  1
  Ho  Ho8  1  0.157238  0.516370  0.750000  1
  Ho  Ho9  1  0.838776  0.486660  0.250000  1
  Ho  Ho10  1  0.339926  0.015036  0.250000  1
  Ho  Ho11  1  0.669559  0.987850  0.750000  1
  Ho  Ho12  1  0.314237  0.174197  0.627425  1
  Ho  Ho13  1  0.675281  0.822909  0.375929  1
  Ho  Ho14  1  0.174037  0.680591  0.376216  1
  Ho  Ho15  1  0.675281  0.822909  0.124071  1
  Ho  Ho16  1  0.836126  0.315832  0.625913  1
  Ho  Ho17  1  0.314237  0.174197  0.872575  1
  Ho  Ho18  1  0.836126  0.315832  0.874087  1
  Ho  Ho19  1  0.174037  0.680591  0.123784  1
  Si  Si20  1  0.968558  0.895477  0.250000  1
  Si  Si21  1  0.469571  0.606752  0.250000  1
  Si  Si22  1  0.530158  0.396959  0.750000  1
  Si  Si23  1  0.280023  0.866036  0.750000  1
  Si  Si24  1  0.720406  0.129873  0.250000  1
  Si  Si25  1  0.221928  0.371521  0.250000  1
  Si  Si26  1  0.769824  0.624381  0.750000  1
  Si  Si27  1  0.158510  0.471682  0.537446  1
  Si  Si28  1  0.845160  0.531574  0.462346  1
  Si  Si29  1  0.345358  0.970132  0.461652  1
  Si  Si30  1  0.845160  0.531574  0.037654  1
  Si  Si31  1  0.651184  0.031499  0.537962  1
  Si  Si32  1  0.158510  0.471682  0.962554  1
  Si  Si33  1  0.651184  0.031499  0.962038  1
  Si  Si34  1  0.345358  0.970132  0.038348  1
  Ru  Ru35  1  0.025340  0.089616  0.750000  1
