# generated using pymatgen
data_Ta2CoSi2Pd
_symmetry_space_group_name_H-M   'P 1'
_cell_length_a   3.72375500
_cell_length_b   6.33702366
_cell_length_c   7.25820500
_cell_angle_alpha   91.31028560
_cell_angle_beta   90.00000000
_cell_angle_gamma   90.00000000
_symmetry_Int_Tables_number   1
_chemical_formula_structural   Ta2CoSi2Pd
_chemical_formula_sum   'Ta4 Co2 Si4 Pd2'
_cell_volume   171.23087839
_cell_formula_units_Z   2
loop_
 _symmetry_equiv_pos_site_id
 _symmetry_equiv_pos_as_xyz
  1  'x, y, z'
loop_
 _atom_site_type_symbol
 _atom_site_label
 _atom_site_symmetry_multiplicity
 _atom_site_fract_x
 _atom_site_fract_y
 _atom_site_fract_z
 _atom_site_occupancy
  Ta  Ta0  1  0.250000  0.525970  0.662112  1
  Ta  Ta1  1  0.750000  0.474030  0.337888  1
  Ta  Ta2  1  0.250000  0.023411  0.813464  1
  Ta  Ta3  1  0.750000  0.976589  0.186536  1
  Co  Co4  1  0.750000  0.861660  0.558552  1
  Co  Co5  1  0.250000  0.138340  0.441448  1
  Si  Si6  1  0.250000  0.259690  0.138074  1
  Si  Si7  1  0.750000  0.740310  0.861926  1
  Si  Si8  1  0.250000  0.779071  0.389268  1
  Si  Si9  1  0.750000  0.220929  0.610732  1
  Pd  Pd10  1  0.750000  0.348788  0.933948  1
  Pd  Pd11  1  0.250000  0.651212  0.066052  1
