# generated using pymatgen
data_Ba6NaCu(AgTe7)2
_symmetry_space_group_name_H-M   'P 1'
_cell_length_a   9.19055000
_cell_length_b   14.56069222
_cell_length_c   14.55334162
_cell_angle_alpha   120.01670337
_cell_angle_beta   90.00000000
_cell_angle_gamma   90.00000000
_symmetry_Int_Tables_number   1
_chemical_formula_structural   Ba6NaCu(AgTe7)2
_chemical_formula_sum   'Ba12 Na2 Cu2 Ag4 Te28'
_cell_volume   1686.33462413
_cell_formula_units_Z   2
loop_
 _symmetry_equiv_pos_site_id
 _symmetry_equiv_pos_as_xyz
  1  'x, y, z'
loop_
 _atom_site_type_symbol
 _atom_site_label
 _atom_site_symmetry_multiplicity
 _atom_site_fract_x
 _atom_site_fract_y
 _atom_site_fract_z
 _atom_site_occupancy
  Ba  Ba0  1  0.250000  0.243269  0.790432  1
  Ba  Ba1  1  0.750000  0.450691  0.244251  1
  Ba  Ba2  1  0.750000  0.547163  0.790432  1
  Ba  Ba3  1  0.750000  0.787563  0.544998  1
  Ba  Ba4  1  0.250000  0.757434  0.544998  1
  Ba  Ba5  1  0.750000  0.244037  0.452385  1
  Ba  Ba6  1  0.250000  0.793559  0.244251  1
  Ba  Ba7  1  0.750000  0.756640  0.211260  1
  Ba  Ba8  1  0.250000  0.208349  0.452385  1
  Ba  Ba9  1  0.750000  0.212097  0.757106  1
  Ba  Ba10  1  0.250000  0.545009  0.757106  1
  Ba  Ba11  1  0.250000  0.454619  0.211260  1
  Na  Na12  1  0.500000  0.001337  0.002674  1
  Na  Na13  1  0.000000  0.001337  0.002674  1
  Cu  Cu14  1  0.250000  0.196383  0.195955  1
  Cu  Cu15  1  0.750000  0.999572  0.195955  1
  Ag  Ag16  1  0.250000  0.810347  0.002830  1
  Ag  Ag17  1  0.750000  0.806905  0.810588  1
  Ag  Ag18  1  0.250000  0.003682  0.810588  1
  Ag  Ag19  1  0.750000  0.192483  0.002830  1
  Te  Te20  1  0.250000  0.183504  0.010800  1
  Te  Te21  1  0.000000  0.333252  0.666505  1
  Te  Te22  1  0.526145  0.001443  0.319576  1
  Te  Te23  1  0.750000  0.827297  0.010800  1
  Te  Te24  1  0.981369  0.671169  0.671591  1
  Te  Te25  1  0.980854  0.327835  0.002113  1
  Te  Te26  1  0.250000  0.011061  0.179884  1
  Te  Te27  1  0.481369  0.000422  0.671591  1
  Te  Te28  1  0.018631  0.000422  0.671591  1
  Te  Te29  1  0.750000  0.999794  0.463339  1
  Te  Te30  1  0.026145  0.318132  0.319576  1
  Te  Te31  1  0.250000  0.815498  0.815175  1
  Te  Te32  1  0.750000  0.467095  0.000481  1
  Te  Te33  1  0.019146  0.674279  0.002113  1
  Te  Te34  1  0.500000  0.666524  0.333046  1
  Te  Te35  1  0.000000  0.666524  0.333046  1
  Te  Te36  1  0.480854  0.674279  0.002113  1
  Te  Te37  1  0.750000  0.530980  0.531730  1
  Te  Te38  1  0.250000  0.463544  0.463339  1
  Te  Te39  1  0.519146  0.327835  0.002113  1
  Te  Te40  1  0.518631  0.671169  0.671591  1
  Te  Te41  1  0.973855  0.001443  0.319576  1
  Te  Te42  1  0.500000  0.333252  0.666505  1
  Te  Te43  1  0.473855  0.318132  0.319576  1
  Te  Te44  1  0.250000  0.000750  0.531730  1
  Te  Te45  1  0.250000  0.533386  0.000481  1
  Te  Te46  1  0.750000  0.999677  0.815175  1
  Te  Te47  1  0.750000  0.168823  0.179884  1
