# generated using pymatgen
data_LiNb6RhS12
_symmetry_space_group_name_H-M   'P 1'
_cell_length_a   5.82148400
_cell_length_b   5.82148397
_cell_length_c   12.65412400
_cell_angle_alpha   90.00000000
_cell_angle_beta   90.00000000
_cell_angle_gamma   120.00000016
_symmetry_Int_Tables_number   1
_chemical_formula_structural   LiNb6RhS12
_chemical_formula_sum   'Li1 Nb6 Rh1 S12'
_cell_volume   371.38993617
_cell_formula_units_Z   1
loop_
 _symmetry_equiv_pos_site_id
 _symmetry_equiv_pos_as_xyz
  1  'x, y, z'
loop_
 _atom_site_type_symbol
 _atom_site_label
 _atom_site_symmetry_multiplicity
 _atom_site_fract_x
 _atom_site_fract_y
 _atom_site_fract_z
 _atom_site_occupancy
  Li  Li0  1  0.666667  0.333333  0.750000  1
  Nb  Nb1  1  0.333333  0.666667  0.011678  1
  Nb  Nb2  1  0.666667  0.333333  0.484171  1
  Nb  Nb3  1  0.333333  0.666667  0.488322  1
  Nb  Nb4  1  0.000000  0.000000  0.015074  1
  Nb  Nb5  1  0.666667  0.333333  0.015829  1
  Nb  Nb6  1  0.000000  0.000000  0.484926  1
  Rh  Rh7  1  0.333333  0.666667  0.250000  1
  S  S8  1  0.998572  0.666949  0.136559  1
  S  S9  1  0.669527  0.667420  0.611014  1
  S  S10  1  0.998572  0.331623  0.363441  1
  S  S11  1  0.333051  0.331623  0.136559  1
  S  S12  1  0.332580  0.002106  0.611014  1
  S  S13  1  0.332580  0.330473  0.888986  1
  S  S14  1  0.668377  0.666949  0.363441  1
  S  S15  1  0.997894  0.667420  0.888986  1
  S  S16  1  0.669527  0.002106  0.888986  1
  S  S17  1  0.333051  0.001428  0.363441  1
  S  S18  1  0.668377  0.001428  0.136559  1
  S  S19  1  0.997894  0.330473  0.611014  1
