# generated using pymatgen
data_Tm2Si5Ru3
_symmetry_space_group_name_H-M   'P 1'
_cell_length_a   8.21461875
_cell_length_b   8.21461850
_cell_length_c   8.21461818
_cell_angle_alpha   140.38362911
_cell_angle_beta   108.72786923
_cell_angle_gamma   84.75557359
_symmetry_Int_Tables_number   1
_chemical_formula_structural   Tm2Si5Ru3
_chemical_formula_sum   'Tm4 Si10 Ru6'
_cell_volume   323.39443576
_cell_formula_units_Z   2
loop_
 _symmetry_equiv_pos_site_id
 _symmetry_equiv_pos_as_xyz
  1  'x, y, z'
loop_
 _atom_site_type_symbol
 _atom_site_label
 _atom_site_symmetry_multiplicity
 _atom_site_fract_x
 _atom_site_fract_y
 _atom_site_fract_z
 _atom_site_occupancy
  Tm  Tm0  1  0.904578  0.136513  0.768065  1
  Tm  Tm1  1  0.095422  0.863487  0.231935  1
  Tm  Tm2  1  0.631551  0.363487  0.268065  1
  Tm  Tm3  1  0.368449  0.636513  0.731935  1
  Si  Si4  1  0.000000  0.750000  0.750000  1
  Si  Si5  1  0.000000  0.250000  0.250000  1
  Si  Si6  1  0.707004  0.457004  0.750000  1
  Si  Si7  1  0.292996  0.042996  0.750000  1
  Si  Si8  1  0.292996  0.542996  0.250000  1
  Si  Si9  1  0.707004  0.957004  0.250000  1
  Si  Si10  1  0.234817  0.404641  0.830176  1
  Si  Si11  1  0.574464  0.904641  0.669824  1
  Si  Si12  1  0.425536  0.095359  0.330176  1
  Si  Si13  1  0.765183  0.595359  0.169824  1
  Ru  Ru14  1  0.760862  0.853393  0.907470  1
  Ru  Ru15  1  0.500000  0.250000  0.750000  1
  Ru  Ru16  1  0.945924  0.353393  0.592530  1
  Ru  Ru17  1  0.054076  0.646607  0.407470  1
  Ru  Ru18  1  0.239138  0.146607  0.092530  1
  Ru  Ru19  1  0.500000  0.750000  0.250000  1
