# generated using pymatgen
data_Ce2CdAgP2(RuRh)2
_symmetry_space_group_name_H-M   'P 1'
_cell_length_a   4.00983700
_cell_length_b   4.00983700
_cell_length_c   11.15618100
_cell_angle_alpha   90.00000000
_cell_angle_beta   90.00000000
_cell_angle_gamma   90.00000000
_symmetry_Int_Tables_number   1
_chemical_formula_structural   Ce2CdAgP2(RuRh)2
_chemical_formula_sum   'Ce2 Cd1 Ag1 P2 Ru2 Rh2'
_cell_volume   179.37792237
_cell_formula_units_Z   1
loop_
 _symmetry_equiv_pos_site_id
 _symmetry_equiv_pos_as_xyz
  1  'x, y, z'
loop_
 _atom_site_type_symbol
 _atom_site_label
 _atom_site_symmetry_multiplicity
 _atom_site_fract_x
 _atom_site_fract_y
 _atom_site_fract_z
 _atom_site_occupancy
  Ce  Ce0  1  0.500000  0.000000  0.760116  1
  Ce  Ce1  1  0.000000  0.500000  0.239884  1
  Cd  Cd2  1  0.500000  0.500000  0.500000  1
  Ag  Ag3  1  0.000000  0.000000  0.500000  1
  P  P4  1  0.500000  0.000000  0.107123  1
  P  P5  1  0.000000  0.500000  0.892877  1
  Ru  Ru6  1  0.000000  0.000000  0.000000  1
  Ru  Ru7  1  0.500000  0.500000  0.000000  1
  Rh  Rh8  1  0.000000  0.500000  0.688110  1
  Rh  Rh9  1  0.500000  0.000000  0.311890  1
