# generated using pymatgen
data_Rb7Na(UBr5)4
_symmetry_space_group_name_H-M   'P 1'
_cell_length_a   8.88372341
_cell_length_b   9.33597413
_cell_length_c   14.08500014
_cell_angle_alpha   89.92717608
_cell_angle_beta   90.16018014
_cell_angle_gamma   90.53386236
_symmetry_Int_Tables_number   1
_chemical_formula_structural   Rb7Na(UBr5)4
_chemical_formula_sum   'Rb7 Na1 U4 Br20'
_cell_volume   1168.12854695
_cell_formula_units_Z   1
loop_
 _symmetry_equiv_pos_site_id
 _symmetry_equiv_pos_as_xyz
  1  'x, y, z'
loop_
 _atom_site_type_symbol
 _atom_site_label
 _atom_site_symmetry_multiplicity
 _atom_site_fract_x
 _atom_site_fract_y
 _atom_site_fract_z
 _atom_site_occupancy
  Rb  Rb0  1  0.459690  0.499895  0.172518  1
  Rb  Rb1  1  0.040657  0.499872  0.673758  1
  Rb  Rb2  1  0.460047  0.999776  0.171605  1
  Rb  Rb3  1  0.959322  0.500172  0.326785  1
  Rb  Rb4  1  0.541078  0.000604  0.827132  1
  Rb  Rb5  1  0.959608  0.999670  0.326417  1
  Rb  Rb6  1  0.040298  0.999988  0.674389  1
  Na  Na7  1  0.532261  0.501032  0.825351  1
  U  U8  1  0.569059  0.749564  0.503216  1
  U  U9  1  0.431724  0.251296  0.499505  1
  U  U10  1  0.069799  0.251545  0.996538  1
  U  U11  1  0.928946  0.746559  0.000759  1
  Br  Br12  1  0.826178  0.740853  0.801099  1
  Br  Br13  1  0.168681  0.249981  0.197147  1
  Br  Br14  1  0.339796  0.260264  0.701823  1
  Br  Br15  1  0.666199  0.749939  0.301861  1
  Br  Br16  1  0.372714  0.743732  0.673971  1
  Br  Br17  1  0.631394  0.249861  0.331318  1
  Br  Br18  1  0.865432  0.251094  0.830583  1
  Br  Br19  1  0.131277  0.751174  0.169628  1
  Br  Br20  1  0.908559  0.750275  0.512007  1
  Br  Br21  1  0.092892  0.249090  0.489263  1
  Br  Br22  1  0.411957  0.260583  0.982281  1
  Br  Br23  1  0.589615  0.742272  0.007463  1
  Br  Br24  1  0.654956  0.041538  0.580979  1
  Br  Br25  1  0.345369  0.957477  0.420513  1
  Br  Br26  1  0.154272  0.960276  0.919092  1
  Br  Br27  1  0.344395  0.540598  0.420596  1
  Br  Br28  1  0.845197  0.039861  0.079431  1
  Br  Br29  1  0.655242  0.459843  0.583322  1
  Br  Br30  1  0.845707  0.457180  0.079862  1
  Br  Br31  1  0.157680  0.544136  0.919787  1
