# generated using pymatgen
data_Nb3AlCu2C
_symmetry_space_group_name_H-M   'P 1'
_cell_length_a   8.27205681
_cell_length_b   8.27205699
_cell_length_c   8.27205600
_cell_angle_alpha   59.99999597
_cell_angle_beta   59.99999526
_cell_angle_gamma   59.99999755
_symmetry_Int_Tables_number   1
_chemical_formula_structural   Nb3AlCu2C
_chemical_formula_sum   'Nb12 Al4 Cu8 C4'
_cell_volume   400.24457820
_cell_formula_units_Z   4
loop_
 _symmetry_equiv_pos_site_id
 _symmetry_equiv_pos_as_xyz
  1  'x, y, z'
loop_
 _atom_site_type_symbol
 _atom_site_label
 _atom_site_symmetry_multiplicity
 _atom_site_fract_x
 _atom_site_fract_y
 _atom_site_fract_z
 _atom_site_occupancy
  Nb  Nb0  1  0.816855  0.816855  0.183145  1
  Nb  Nb1  1  0.183145  0.183145  0.816855  1
  Nb  Nb2  1  0.816855  0.183145  0.816855  1
  Nb  Nb3  1  0.183145  0.816855  0.183145  1
  Nb  Nb4  1  0.183145  0.816855  0.816855  1
  Nb  Nb5  1  0.816855  0.183145  0.183145  1
  Nb  Nb6  1  0.433145  0.433145  0.066855  1
  Nb  Nb7  1  0.066855  0.066855  0.433145  1
  Nb  Nb8  1  0.433145  0.066855  0.433145  1
  Nb  Nb9  1  0.066855  0.433145  0.066855  1
  Nb  Nb10  1  0.066855  0.433145  0.433145  1
  Nb  Nb11  1  0.433145  0.066855  0.066855  1
  Al  Al12  1  0.125000  0.625000  0.625000  1
  Al  Al13  1  0.625000  0.125000  0.625000  1
  Al  Al14  1  0.625000  0.625000  0.125000  1
  Al  Al15  1  0.625000  0.625000  0.625000  1
  Cu  Cu16  1  0.745359  0.418214  0.418214  1
  Cu  Cu17  1  0.418214  0.745359  0.418214  1
  Cu  Cu18  1  0.418214  0.418214  0.745359  1
  Cu  Cu19  1  0.418214  0.418214  0.418214  1
  Cu  Cu20  1  0.504641  0.831786  0.831786  1
  Cu  Cu21  1  0.831786  0.504641  0.831786  1
  Cu  Cu22  1  0.831786  0.831786  0.504641  1
  Cu  Cu23  1  0.831786  0.831786  0.831786  1
  C  C24  1  0.625000  0.125000  0.125000  1
  C  C25  1  0.125000  0.625000  0.125000  1
  C  C26  1  0.125000  0.125000  0.625000  1
  C  C27  1  0.125000  0.125000  0.125000  1
