# generated using pymatgen
data_Dy8Tm12Si15Te
_symmetry_space_group_name_H-M   'P 1'
_cell_length_a   7.43342602
_cell_length_b   7.62751368
_cell_length_c   14.51061300
_cell_angle_alpha   90.08984026
_cell_angle_beta   86.87410081
_cell_angle_gamma   90.10338875
_symmetry_Int_Tables_number   1
_chemical_formula_structural   Dy8Tm12Si15Te
_chemical_formula_sum   'Dy8 Tm12 Si15 Te1'
_cell_volume   821.50449313
_cell_formula_units_Z   1
loop_
 _symmetry_equiv_pos_site_id
 _symmetry_equiv_pos_as_xyz
  1  'x, y, z'
loop_
 _atom_site_type_symbol
 _atom_site_label
 _atom_site_symmetry_multiplicity
 _atom_site_fract_x
 _atom_site_fract_y
 _atom_site_fract_z
 _atom_site_occupancy
  Dy  Dy0  1  0.019964  0.182493  0.098968  1
  Dy  Dy1  1  0.980175  0.819416  0.901032  1
  Dy  Dy2  1  0.480083  0.681782  0.901114  1
  Dy  Dy3  1  0.003639  0.827473  0.600700  1
  Dy  Dy4  1  0.520547  0.317988  0.100525  1
  Dy  Dy5  1  0.990978  0.173762  0.398179  1
  Dy  Dy6  1  0.504366  0.313318  0.395904  1
  Dy  Dy7  1  0.519552  0.687402  0.603664  1
  Tm  Tm8  1  0.168041  0.504875  0.754732  1
  Tm  Tm9  1  0.830020  0.493899  0.253573  1
  Tm  Tm10  1  0.328724  0.007448  0.252618  1
  Tm  Tm11  1  0.673855  0.993018  0.749748  1
  Tm  Tm12  1  0.360820  0.151535  0.624396  1
  Tm  Tm13  1  0.643785  0.832171  0.378355  1
  Tm  Tm14  1  0.138999  0.677868  0.372807  1
  Tm  Tm15  1  0.670840  0.822122  0.122324  1
  Tm  Tm16  1  0.842893  0.331049  0.622279  1
  Tm  Tm17  1  0.327544  0.177597  0.877054  1
  Tm  Tm18  1  0.826778  0.323470  0.876465  1
  Tm  Tm19  1  0.171751  0.677522  0.123342  1
  Si  Si20  1  0.044112  0.113845  0.750281  1
  Si  Si21  1  0.954244  0.891335  0.246235  1
  Si  Si22  1  0.455842  0.610341  0.248796  1
  Si  Si23  1  0.540063  0.389865  0.750316  1
  Si  Si24  1  0.291102  0.865643  0.752657  1
  Si  Si25  1  0.711679  0.128346  0.246474  1
  Si  Si26  1  0.210774  0.371764  0.248323  1
  Si  Si27  1  0.792749  0.630828  0.751589  1
  Si  Si28  1  0.792448  0.535356  0.457251  1
  Si  Si29  1  0.297674  0.966121  0.457155  1
  Si  Si30  1  0.849689  0.530221  0.040446  1
  Si  Si31  1  0.702233  0.033520  0.542727  1
  Si  Si32  1  0.147629  0.471185  0.959617  1
  Si  Si33  1  0.648736  0.030913  0.959407  1
  Si  Si34  1  0.349457  0.970757  0.041000  1
  Te  Te35  1  0.208223  0.463751  0.539944  1
