# generated using pymatgen
data_LaPr4U5O19
_symmetry_space_group_name_H-M   'P 1'
_cell_length_a   6.86026808
_cell_length_b   7.76727800
_cell_length_c   8.70749923
_cell_angle_alpha   101.33152697
_cell_angle_beta   97.62174862
_cell_angle_gamma   107.15532815
_symmetry_Int_Tables_number   1
_chemical_formula_structural   LaPr4U5O19
_chemical_formula_sum   'La1 Pr4 U5 O19'
_cell_volume   425.60927018
_cell_formula_units_Z   1
loop_
 _symmetry_equiv_pos_site_id
 _symmetry_equiv_pos_as_xyz
  1  'x, y, z'
loop_
 _atom_site_type_symbol
 _atom_site_label
 _atom_site_symmetry_multiplicity
 _atom_site_fract_x
 _atom_site_fract_y
 _atom_site_fract_z
 _atom_site_occupancy
  La  La0  1  0.800633  0.100568  0.602850  1
  Pr  Pr1  1  0.387885  0.296793  0.800115  1
  Pr  Pr2  1  0.605976  0.701789  0.202492  1
  Pr  Pr3  1  0.999288  0.499771  0.998260  1
  Pr  Pr4  1  0.207983  0.912245  0.387604  1
  U  U5  1  0.778207  0.597417  0.600645  1
  U  U6  1  0.605817  0.204481  0.196288  1
  U  U7  1  0.999032  0.003364  0.998274  1
  U  U8  1  0.409909  0.809482  0.815928  1
  U  U9  1  0.199621  0.387949  0.389744  1
  O  O10  1  0.343181  0.058146  0.954346  1
  O  O11  1  0.427640  0.987445  0.652937  1
  O  O12  1  0.041792  0.214462  0.859501  1
  O  O13  1  0.726748  0.387784  0.735322  1
  O  O14  1  0.150225  0.184287  0.533249  1
  O  O15  1  0.358292  0.595186  0.951735  1
  O  O16  1  0.952586  0.267085  0.160948  1
  O  O17  1  0.903125  0.395377  0.463336  1
  O  O18  1  0.747529  0.860196  0.763200  1
  O  O19  1  0.546368  0.455646  0.362467  1
  O  O20  1  0.406777  0.554379  0.632419  1
  O  O21  1  0.255931  0.134493  0.234862  1
  O  O22  1  0.062823  0.716525  0.794893  1
  O  O23  1  0.645571  0.409402  0.059446  1
  O  O24  1  0.865732  0.799516  0.464567  1
  O  O25  1  0.247959  0.616300  0.275052  1
  O  O26  1  0.955523  0.787433  0.127175  1
  O  O27  1  0.571599  0.004724  0.344102  1
  O  O28  1  0.660168  0.945396  0.046482  1
