# generated using pymatgen
data_Y3HoTi(ReN4)3
_symmetry_space_group_name_H-M   'P 1'
_cell_length_a   7.33895808
_cell_length_b   7.42697129
_cell_length_c   6.28756448
_cell_angle_alpha   72.69126385
_cell_angle_beta   73.95597319
_cell_angle_gamma   82.21655300
_symmetry_Int_Tables_number   1
_chemical_formula_structural   Y3HoTi(ReN4)3
_chemical_formula_sum   'Y3 Ho1 Ti1 Re3 N12'
_cell_volume   313.91860288
_cell_formula_units_Z   1
loop_
 _symmetry_equiv_pos_site_id
 _symmetry_equiv_pos_as_xyz
  1  'x, y, z'
loop_
 _atom_site_type_symbol
 _atom_site_label
 _atom_site_symmetry_multiplicity
 _atom_site_fract_x
 _atom_site_fract_y
 _atom_site_fract_z
 _atom_site_occupancy
  Y  Y0  1  0.091334  0.904215  0.261968  1
  Y  Y1  1  0.706974  0.277782  0.242065  1
  Y  Y2  1  0.301740  0.719914  0.738480  1
  Ho  Ho3  1  0.905982  0.085069  0.766611  1
  Ti  Ti4  1  0.619548  0.800768  0.273839  1
  Re  Re5  1  0.200345  0.377994  0.216687  1
  Re  Re6  1  0.378773  0.205895  0.720346  1
  Re  Re7  1  0.794336  0.617803  0.782847  1
  N  N8  1  0.658272  0.622041  0.071960  1
  N  N9  1  0.370967  0.878353  0.354014  1
  N  N10  1  0.360070  0.331948  0.421090  1
  N  N11  1  0.125671  0.621432  0.161229  1
  N  N12  1  0.003407  0.224432  0.337637  1
  N  N13  1  0.790882  0.999922  0.147292  1
  N  N14  1  0.225299  0.008645  0.841682  1
  N  N15  1  0.625487  0.132101  0.660649  1
  N  N16  1  0.333892  0.366380  0.916867  1
  N  N17  1  0.884001  0.376910  0.828336  1
  N  N18  1  0.634324  0.665304  0.588920  1
  N  N19  1  0.988698  0.783093  0.667480  1
