# generated using pymatgen
data_ZnMo6Rh3N2
_symmetry_space_group_name_H-M   'P 1'
_cell_length_a   6.82692000
_cell_length_b   6.83610932
_cell_length_c   6.82854726
_cell_angle_alpha   89.34421109
_cell_angle_beta   90.00000000
_cell_angle_gamma   90.00000000
_symmetry_Int_Tables_number   1
_chemical_formula_structural   ZnMo6Rh3N2
_chemical_formula_sum   'Zn2 Mo12 Rh6 N4'
_cell_volume   318.66449985
_cell_formula_units_Z   2
loop_
 _symmetry_equiv_pos_site_id
 _symmetry_equiv_pos_as_xyz
  1  'x, y, z'
loop_
 _atom_site_type_symbol
 _atom_site_label
 _atom_site_symmetry_multiplicity
 _atom_site_fract_x
 _atom_site_fract_y
 _atom_site_fract_z
 _atom_site_occupancy
  Zn  Zn0  1  0.686930  0.182715  0.935283  1
  Zn  Zn1  1  0.186930  0.817285  0.064717  1
  Mo  Mo2  1  0.624105  0.046332  0.548455  1
  Mo  Mo3  1  0.124105  0.953668  0.451545  1
  Mo  Mo4  1  0.872040  0.547793  0.949294  1
  Mo  Mo5  1  0.372040  0.452207  0.050706  1
  Mo  Mo6  1  0.199116  0.625743  0.698947  1
  Mo  Mo7  1  0.299350  0.121022  0.791441  1
  Mo  Mo8  1  0.799350  0.878978  0.208559  1
  Mo  Mo9  1  0.699116  0.374257  0.301053  1
  Mo  Mo10  1  0.049992  0.208198  0.130356  1
  Mo  Mo11  1  0.956563  0.305861  0.623841  1
  Mo  Mo12  1  0.549992  0.791802  0.869644  1
  Mo  Mo13  1  0.456563  0.694139  0.376159  1
  Rh  Rh14  1  0.811577  0.690435  0.564269  1
  Rh  Rh15  1  0.311577  0.309565  0.435731  1
  Rh  Rh16  1  0.060283  0.565969  0.306273  1
  Rh  Rh17  1  0.437992  0.061099  0.180535  1
  Rh  Rh18  1  0.560283  0.434031  0.693727  1
  Rh  Rh19  1  0.937992  0.938901  0.819465  1
  N  N20  1  0.376039  0.873242  0.621031  1
  N  N21  1  0.876039  0.126758  0.378969  1
  N  N22  1  0.126014  0.375139  0.873058  1
  N  N23  1  0.626014  0.624861  0.126942  1
