# generated using pymatgen
data_Tb2Nd10InGaCo4
_symmetry_space_group_name_H-M   'P 1'
_cell_length_a   8.57768399
_cell_length_b   8.58654390
_cell_length_c   8.57768432
_cell_angle_alpha   112.39533893
_cell_angle_beta   108.82530981
_cell_angle_gamma   107.19485640
_symmetry_Int_Tables_number   1
_chemical_formula_structural   Tb2Nd10InGaCo4
_chemical_formula_sum   'Tb2 Nd10 In1 Ga1 Co4'
_cell_volume   485.53311749
_cell_formula_units_Z   1
loop_
 _symmetry_equiv_pos_site_id
 _symmetry_equiv_pos_as_xyz
  1  'x, y, z'
loop_
 _atom_site_type_symbol
 _atom_site_label
 _atom_site_symmetry_multiplicity
 _atom_site_fract_x
 _atom_site_fract_y
 _atom_site_fract_z
 _atom_site_occupancy
  Tb  Tb0  1  0.324232  0.008943  0.684710  1
  Tb  Tb1  1  0.675768  0.991057  0.315290  1
  Nd  Nd2  1  0.429401  0.227722  0.198699  1
  Nd  Nd3  1  0.570599  0.772278  0.801301  1
  Nd  Nd4  1  0.029022  0.227722  0.798321  1
  Nd  Nd5  1  0.970978  0.772278  0.201679  1
  Nd  Nd6  1  0.178637  0.282317  0.466414  1
  Nd  Nd7  1  0.821363  0.717683  0.533586  1
  Nd  Nd8  1  0.184097  0.717683  0.896319  1
  Nd  Nd9  1  0.815903  0.282317  0.103681  1
  Nd  Nd10  1  0.324866  0.640325  0.315459  1
  Nd  Nd11  1  0.675134  0.359675  0.684541  1
  In  In12  1  0.500000  0.500000  0.000000  1
  Ga  Ga13  1  0.000000  0.000000  0.000000  1
  Co  Co14  1  0.347609  0.000000  0.347609  1
  Co  Co15  1  0.652391  0.000000  0.652391  1
  Co  Co16  1  0.111703  0.615037  0.503335  1
  Co  Co17  1  0.888297  0.384963  0.496665  1
