# generated using pymatgen
data_Ce3Y(GaIr)4
_symmetry_space_group_name_H-M   'P 1'
_cell_length_a   4.38652600
_cell_length_b   6.87198113
_cell_length_c   7.86295183
_cell_angle_alpha   89.48786013
_cell_angle_beta   90.00000000
_cell_angle_gamma   90.00000000
_symmetry_Int_Tables_number   1
_chemical_formula_structural   Ce3Y(GaIr)4
_chemical_formula_sum   'Ce3 Y1 Ga4 Ir4'
_cell_volume   237.01232560
_cell_formula_units_Z   1
loop_
 _symmetry_equiv_pos_site_id
 _symmetry_equiv_pos_as_xyz
  1  'x, y, z'
loop_
 _atom_site_type_symbol
 _atom_site_label
 _atom_site_symmetry_multiplicity
 _atom_site_fract_x
 _atom_site_fract_y
 _atom_site_fract_z
 _atom_site_occupancy
  Ce  Ce0  1  0.250000  0.970704  0.308488  1
  Ce  Ce1  1  0.250000  0.471137  0.185749  1
  Ce  Ce2  1  0.750000  0.030407  0.691179  1
  Y  Y3  1  0.750000  0.528542  0.807118  1
  Ga  Ga4  1  0.250000  0.352191  0.571313  1
  Ga  Ga5  1  0.250000  0.840994  0.928738  1
  Ga  Ga6  1  0.750000  0.651996  0.434839  1
  Ga  Ga7  1  0.750000  0.155175  0.067219  1
  Ir  Ir8  1  0.250000  0.232335  0.892804  1
  Ir  Ir9  1  0.250000  0.741483  0.606435  1
  Ir  Ir10  1  0.750000  0.761981  0.114628  1
  Ir  Ir11  1  0.750000  0.263056  0.391489  1
