# generated using pymatgen
data_TbDy(Er3Sb10)2
_symmetry_space_group_name_H-M   'P 1'
_cell_length_a   4.21083900
_cell_length_b   13.18733034
_cell_length_c   14.61897602
_cell_angle_alpha   78.31679781
_cell_angle_beta   90.00000000
_cell_angle_gamma   90.00000000
_symmetry_Int_Tables_number   1
_chemical_formula_structural   TbDy(Er3Sb10)2
_chemical_formula_sum   'Tb1 Dy1 Er6 Sb20'
_cell_volume   794.96927797
_cell_formula_units_Z   1
loop_
 _symmetry_equiv_pos_site_id
 _symmetry_equiv_pos_as_xyz
  1  'x, y, z'
loop_
 _atom_site_type_symbol
 _atom_site_label
 _atom_site_symmetry_multiplicity
 _atom_site_fract_x
 _atom_site_fract_y
 _atom_site_fract_z
 _atom_site_occupancy
  Tb  Tb0  1  0.250000  0.953493  0.359006  1
  Dy  Dy1  1  0.750000  0.046527  0.640758  1
  Er  Er2  1  0.250000  0.394849  0.770585  1
  Er  Er3  1  0.750000  0.605088  0.229409  1
  Er  Er4  1  0.250000  0.661923  0.856074  1
  Er  Er5  1  0.750000  0.338138  0.143897  1
  Er  Er6  1  0.250000  0.668596  0.576376  1
  Er  Er7  1  0.750000  0.331427  0.423686  1
  Sb  Sb8  1  0.250000  0.144259  0.778888  1
  Sb  Sb9  1  0.750000  0.855477  0.220901  1
  Sb  Sb10  1  0.250000  0.144671  0.482431  1
  Sb  Sb11  1  0.750000  0.855204  0.518107  1
  Sb  Sb12  1  0.250000  0.153111  0.171033  1
  Sb  Sb13  1  0.750000  0.847045  0.828906  1
  Sb  Sb14  1  0.250000  0.420624  0.975334  1
  Sb  Sb15  1  0.750000  0.579399  0.024671  1
  Sb  Sb16  1  0.750000  0.029012  0.909107  1
  Sb  Sb17  1  0.250000  0.970973  0.090898  1
  Sb  Sb18  1  0.750000  0.140825  0.322178  1
  Sb  Sb19  1  0.250000  0.859748  0.677760  1
  Sb  Sb20  1  0.750000  0.279517  0.936914  1
  Sb  Sb21  1  0.250000  0.720474  0.063109  1
  Sb  Sb22  1  0.750000  0.285651  0.652816  1
  Sb  Sb23  1  0.250000  0.714024  0.347156  1
  Sb  Sb24  1  0.750000  0.576461  0.734241  1
  Sb  Sb25  1  0.250000  0.423542  0.265750  1
  Sb  Sb26  1  0.750000  0.572278  0.447325  1
  Sb  Sb27  1  0.250000  0.427660  0.552684  1
