# generated using pymatgen
data_Nd9Dy11Si16
_symmetry_space_group_name_H-M   'P 1'
_cell_length_a   7.77345203
_cell_length_b   7.77957208
_cell_length_c   14.46637502
_cell_angle_alpha   89.90065215
_cell_angle_beta   90.21135915
_cell_angle_gamma   90.01234531
_symmetry_Int_Tables_number   1
_chemical_formula_structural   Nd9Dy11Si16
_chemical_formula_sum   'Nd9 Dy11 Si16'
_cell_volume   874.83416189
_cell_formula_units_Z   1
loop_
 _symmetry_equiv_pos_site_id
 _symmetry_equiv_pos_as_xyz
  1  'x, y, z'
loop_
 _atom_site_type_symbol
 _atom_site_label
 _atom_site_symmetry_multiplicity
 _atom_site_fract_x
 _atom_site_fract_y
 _atom_site_fract_z
 _atom_site_occupancy
  Nd  Nd0  1  0.013362  0.862848  0.125675  1
  Nd  Nd1  1  0.637682  0.992183  0.458500  1
  Nd  Nd2  1  0.364004  0.006693  0.953832  1
  Nd  Nd3  1  0.990079  0.639206  0.542761  1
  Nd  Nd4  1  0.492156  0.862576  0.206801  1
  Nd  Nd5  1  0.508593  0.137804  0.706832  1
  Nd  Nd6  1  0.861435  0.490020  0.791448  1
  Nd  Nd7  1  0.135548  0.510048  0.295321  1
  Nd  Nd8  1  0.009673  0.362474  0.043399  1
  Dy  Dy9  1  0.488074  0.361627  0.124027  1
  Dy  Dy10  1  0.990228  0.136512  0.625082  1
  Dy  Dy11  1  0.863440  0.008800  0.873817  1
  Dy  Dy12  1  0.136560  0.991389  0.376031  1
  Dy  Dy13  1  0.509250  0.637117  0.624831  1
  Dy  Dy14  1  0.364915  0.488729  0.873163  1
  Dy  Dy15  1  0.636306  0.510195  0.377121  1
  Dy  Dy16  1  0.315292  0.316458  0.500827  1
  Dy  Dy17  1  0.183745  0.815168  0.748647  1
  Dy  Dy18  1  0.814503  0.185155  0.250523  1
  Dy  Dy19  1  0.686458  0.683146  0.000028  1
  Si  Si20  1  0.289202  0.933587  0.561170  1
  Si  Si21  1  0.709132  0.068295  0.059703  1
  Si  Si22  1  0.932427  0.290499  0.439693  1
  Si  Si23  1  0.433548  0.212709  0.312380  1
  Si  Si24  1  0.568088  0.787849  0.810523  1
  Si  Si25  1  0.210322  0.432775  0.688122  1
  Si  Si26  1  0.785619  0.564544  0.190813  1
  Si  Si27  1  0.068203  0.706340  0.935615  1
  Si  Si28  1  0.797324  0.843885  0.690146  1
  Si  Si29  1  0.201769  0.162375  0.195787  1
  Si  Si30  1  0.841253  0.798111  0.312637  1
  Si  Si31  1  0.343022  0.703446  0.441879  1
  Si  Si32  1  0.656940  0.296686  0.940092  1
  Si  Si33  1  0.702272  0.344656  0.560571  1
  Si  Si34  1  0.303393  0.654660  0.054381  1
  Si  Si35  1  0.156184  0.201431  0.807825  1
