# generated using pymatgen
data_Ac4YEr5Sn8
_symmetry_space_group_name_H-M   'P 1'
_cell_length_a   8.24012600
_cell_length_b   8.49908000
_cell_length_c   15.97454900
_cell_angle_alpha   90.00000000
_cell_angle_beta   90.00000000
_cell_angle_gamma   90.00000000
_symmetry_Int_Tables_number   1
_chemical_formula_structural   Ac4YEr5Sn8
_chemical_formula_sum   'Ac8 Y2 Er10 Sn16'
_cell_volume   1118.75341899
_cell_formula_units_Z   2
loop_
 _symmetry_equiv_pos_site_id
 _symmetry_equiv_pos_as_xyz
  1  'x, y, z'
loop_
 _atom_site_type_symbol
 _atom_site_label
 _atom_site_symmetry_multiplicity
 _atom_site_fract_x
 _atom_site_fract_y
 _atom_site_fract_z
 _atom_site_occupancy
  Ac  Ac0  1  0.499678  0.671709  0.595851  1
  Ac  Ac1  1  0.999678  0.828291  0.904149  1
  Ac  Ac2  1  0.498657  0.326483  0.094992  1
  Ac  Ac3  1  0.998657  0.173517  0.405008  1
  Ac  Ac4  1  0.498657  0.326483  0.405008  1
  Ac  Ac5  1  0.998657  0.173517  0.094992  1
  Ac  Ac6  1  0.499678  0.671709  0.904149  1
  Ac  Ac7  1  0.999678  0.828291  0.595851  1
  Y  Y8  1  0.165923  0.503544  0.250000  1
  Y  Y9  1  0.665923  0.996456  0.250000  1
  Er  Er10  1  0.667788  0.163820  0.626526  1
  Er  Er11  1  0.167788  0.336180  0.873474  1
  Er  Er12  1  0.333516  0.834747  0.124883  1
  Er  Er13  1  0.833516  0.665253  0.375117  1
  Er  Er14  1  0.333516  0.834747  0.375117  1
  Er  Er15  1  0.833516  0.665253  0.124883  1
  Er  Er16  1  0.667788  0.163820  0.873474  1
  Er  Er17  1  0.167788  0.336180  0.626526  1
  Er  Er18  1  0.834752  0.496100  0.750000  1
  Er  Er19  1  0.334752  0.003900  0.750000  1
  Sn  Sn20  1  0.671231  0.956749  0.457701  1
  Sn  Sn21  1  0.171231  0.543251  0.042299  1
  Sn  Sn22  1  0.328725  0.042926  0.955680  1
  Sn  Sn23  1  0.828725  0.457074  0.544320  1
  Sn  Sn24  1  0.328725  0.042926  0.544320  1
  Sn  Sn25  1  0.828725  0.457074  0.955680  1
  Sn  Sn26  1  0.671231  0.956749  0.042299  1
  Sn  Sn27  1  0.171231  0.543251  0.457701  1
  Sn  Sn28  1  0.474141  0.365388  0.750000  1
  Sn  Sn29  1  0.974141  0.134612  0.750000  1
  Sn  Sn30  1  0.528819  0.635057  0.250000  1
  Sn  Sn31  1  0.028819  0.864943  0.250000  1
  Sn  Sn32  1  0.695684  0.862102  0.750000  1
  Sn  Sn33  1  0.195684  0.637898  0.750000  1
  Sn  Sn34  1  0.301490  0.134032  0.250000  1
  Sn  Sn35  1  0.801490  0.365968  0.250000  1
