# generated using pymatgen
data_Dy4OsRu7
_symmetry_space_group_name_H-M   'P 1'
_cell_length_a   5.33926278
_cell_length_b   5.22207560
_cell_length_c   8.95118100
_cell_angle_alpha   90.00000000
_cell_angle_beta   90.00000000
_cell_angle_gamma   120.28912232
_symmetry_Int_Tables_number   1
_chemical_formula_structural   Dy4OsRu7
_chemical_formula_sum   'Dy4 Os1 Ru7'
_cell_volume   215.50768730
_cell_formula_units_Z   1
loop_
 _symmetry_equiv_pos_site_id
 _symmetry_equiv_pos_as_xyz
  1  'x, y, z'
loop_
 _atom_site_type_symbol
 _atom_site_label
 _atom_site_symmetry_multiplicity
 _atom_site_fract_x
 _atom_site_fract_y
 _atom_site_fract_z
 _atom_site_occupancy
  Dy  Dy0  1  0.669076  0.336485  0.566545  1
  Dy  Dy1  1  0.332663  0.666401  0.432886  1
  Dy  Dy2  1  0.332663  0.666401  0.067114  1
  Dy  Dy3  1  0.669076  0.336485  0.933455  1
  Os  Os4  1  0.164177  0.328756  0.750000  1
  Ru  Ru5  1  0.004686  0.008214  0.499962  1
  Ru  Ru6  1  0.004686  0.008214  0.000038  1
  Ru  Ru7  1  0.168851  0.822340  0.750000  1
  Ru  Ru8  1  0.650176  0.820637  0.750000  1
  Ru  Ru9  1  0.831786  0.662776  0.250000  1
  Ru  Ru10  1  0.827653  0.170428  0.250000  1
  Ru  Ru11  1  0.344506  0.172864  0.250000  1
