# generated using pymatgen
data_HoTm4(NiHg2)2
_symmetry_space_group_name_H-M   'P 1'
_cell_length_a   3.54127400
_cell_length_b   7.70277900
_cell_length_c   17.84429700
_cell_angle_alpha   90.00000000
_cell_angle_beta   90.00000000
_cell_angle_gamma   90.00000000
_symmetry_Int_Tables_number   1
_chemical_formula_structural   HoTm4(NiHg2)2
_chemical_formula_sum   'Ho2 Tm8 Ni4 Hg8'
_cell_volume   486.75050591
_cell_formula_units_Z   2
loop_
 _symmetry_equiv_pos_site_id
 _symmetry_equiv_pos_as_xyz
  1  'x, y, z'
loop_
 _atom_site_type_symbol
 _atom_site_label
 _atom_site_symmetry_multiplicity
 _atom_site_fract_x
 _atom_site_fract_y
 _atom_site_fract_z
 _atom_site_occupancy
  Ho  Ho0  1  0.000000  0.500000  0.500000  1
  Ho  Ho1  1  0.000000  0.000000  0.000000  1
  Tm  Tm2  1  0.000000  0.745489  0.282042  1
  Tm  Tm3  1  0.000000  0.254511  0.717958  1
  Tm  Tm4  1  0.000000  0.754511  0.782042  1
  Tm  Tm5  1  0.000000  0.245489  0.217958  1
  Tm  Tm6  1  0.000000  0.615610  0.088254  1
  Tm  Tm7  1  0.000000  0.384390  0.911746  1
  Tm  Tm8  1  0.000000  0.884390  0.588254  1
  Tm  Tm9  1  0.000000  0.115610  0.411746  1
  Ni  Ni10  1  0.500000  0.530832  0.195666  1
  Ni  Ni11  1  0.500000  0.469168  0.804334  1
  Ni  Ni12  1  0.500000  0.969168  0.695666  1
  Ni  Ni13  1  0.500000  0.030832  0.304334  1
  Hg  Hg14  1  0.500000  0.706432  0.932659  1
  Hg  Hg15  1  0.500000  0.293568  0.067341  1
  Hg  Hg16  1  0.500000  0.793568  0.432659  1
  Hg  Hg17  1  0.500000  0.206432  0.567341  1
  Hg  Hg18  1  0.500000  0.577878  0.653221  1
  Hg  Hg19  1  0.500000  0.422122  0.346779  1
  Hg  Hg20  1  0.500000  0.922122  0.153221  1
  Hg  Hg21  1  0.500000  0.077878  0.846779  1
