# generated using pymatgen
data_Yb2YEr5(B6Ru)4
_symmetry_space_group_name_H-M   'P 1'
_cell_length_a   3.63736500
_cell_length_b   9.11347718
_cell_length_c   11.50402310
_cell_angle_alpha   89.83736222
_cell_angle_beta   90.00000000
_cell_angle_gamma   90.00000000
_symmetry_Int_Tables_number   1
_chemical_formula_structural   Yb2YEr5(B6Ru)4
_chemical_formula_sum   'Yb2 Y1 Er5 B24 Ru4'
_cell_volume   381.34581925
_cell_formula_units_Z   1
loop_
 _symmetry_equiv_pos_site_id
 _symmetry_equiv_pos_as_xyz
  1  'x, y, z'
loop_
 _atom_site_type_symbol
 _atom_site_label
 _atom_site_symmetry_multiplicity
 _atom_site_fract_x
 _atom_site_fract_y
 _atom_site_fract_z
 _atom_site_occupancy
  Yb  Yb0  1  0.000000  0.324996  0.414908  1
  Yb  Yb1  1  0.000000  0.674987  0.585150  1
  Y  Y2  1  0.000000  0.822157  0.086033  1
  Er  Er3  1  0.000000  0.177753  0.913886  1
  Er  Er4  1  0.000000  0.941887  0.369746  1
  Er  Er5  1  0.000000  0.058274  0.630297  1
  Er  Er6  1  0.000000  0.442500  0.130769  1
  Er  Er7  1  0.000000  0.557176  0.869079  1
  B  B8  1  0.500000  0.554154  0.432502  1
  B  B9  1  0.500000  0.445667  0.567686  1
  B  B10  1  0.500000  0.054277  0.066608  1
  B  B11  1  0.500000  0.946694  0.932849  1
  B  B12  1  0.500000  0.748266  0.418030  1
  B  B13  1  0.500000  0.251760  0.582213  1
  B  B14  1  0.500000  0.248707  0.080975  1
  B  B15  1  0.500000  0.751409  0.918242  1
  B  B16  1  0.500000  0.791163  0.264924  1
  B  B17  1  0.500000  0.208565  0.735641  1
  B  B18  1  0.500000  0.290319  0.234453  1
  B  B19  1  0.500000  0.709760  0.765366  1
  B  B20  1  0.500000  0.630928  0.185262  1
  B  B21  1  0.500000  0.368479  0.815160  1
  B  B22  1  0.500000  0.130776  0.314180  1
  B  B23  1  0.500000  0.869510  0.685827  1
  B  B24  1  0.500000  0.983506  0.211780  1
  B  B25  1  0.500000  0.017350  0.788376  1
  B  B26  1  0.500000  0.483685  0.288262  1
  B  B27  1  0.500000  0.515989  0.711815  1
  B  B28  1  0.500000  0.602660  0.028175  1
  B  B29  1  0.500000  0.396433  0.971554  1
  B  B30  1  0.500000  0.099187  0.472703  1
  B  B31  1  0.500000  0.900929  0.527381  1
  Ru  Ru32  1  0.000000  0.640123  0.319212  1
  Ru  Ru33  1  0.000000  0.359393  0.681267  1
  Ru  Ru34  1  0.000000  0.137462  0.178527  1
  Ru  Ru35  1  0.000000  0.863119  0.821159  1
