# generated using pymatgen
data_TbY3Ga18(PdRh2)2
_symmetry_space_group_name_H-M   'P 1'
_cell_length_a   7.61752107
_cell_length_b   7.61721631
_cell_length_c   9.52967400
_cell_angle_alpha   90.00147408
_cell_angle_beta   90.00051440
_cell_angle_gamma   119.84402360
_symmetry_Int_Tables_number   1
_chemical_formula_structural   TbY3Ga18(PdRh2)2
_chemical_formula_sum   'Tb1 Y3 Ga18 Pd2 Rh4'
_cell_volume   479.62197745
_cell_formula_units_Z   1
loop_
 _symmetry_equiv_pos_site_id
 _symmetry_equiv_pos_as_xyz
  1  'x, y, z'
loop_
 _atom_site_type_symbol
 _atom_site_label
 _atom_site_symmetry_multiplicity
 _atom_site_fract_x
 _atom_site_fract_y
 _atom_site_fract_z
 _atom_site_occupancy
  Tb  Tb0  1  0.330699  0.003325  0.749994  1
  Y  Y1  1  0.996620  0.669290  0.250004  1
  Y  Y2  1  0.003338  0.330699  0.749996  1
  Y  Y3  1  0.669269  0.996621  0.250009  1
  Ga  Ga4  1  0.129097  0.129101  0.250005  1
  Ga  Ga5  1  0.870881  0.870840  0.749996  1
  Ga  Ga6  1  0.999485  0.337359  0.079752  1
  Ga  Ga7  1  0.000464  0.662593  0.920270  1
  Ga  Ga8  1  0.000457  0.662576  0.579728  1
  Ga  Ga9  1  0.337374  0.999528  0.420231  1
  Ga  Ga10  1  0.999492  0.337374  0.420250  1
  Ga  Ga11  1  0.662664  0.000501  0.579731  1
  Ga  Ga12  1  0.662670  0.000519  0.920267  1
  Ga  Ga13  1  0.337368  0.999511  0.079772  1
  Ga  Ga14  1  0.336499  0.336515  0.565477  1
  Ga  Ga15  1  0.663491  0.663495  0.434499  1
  Ga  Ga16  1  0.663485  0.663477  0.065504  1
  Ga  Ga17  1  0.336505  0.336532  0.934521  1
  Ga  Ga18  1  0.336894  0.546635  0.249999  1
  Ga  Ga19  1  0.663108  0.453405  0.750002  1
  Ga  Ga20  1  0.546652  0.336888  0.250001  1
  Ga  Ga21  1  0.453441  0.663186  0.749999  1
  Pd  Pd22  1  0.000012  0.999998  0.000024  1
  Pd  Pd23  1  0.000012  0.999999  0.499976  1
  Rh  Rh24  1  0.671270  0.328731  0.000033  1
  Rh  Rh25  1  0.328743  0.671281  0.000026  1
  Rh  Rh26  1  0.328734  0.671282  0.499966  1
  Rh  Rh27  1  0.671275  0.328739  0.499969  1
