# generated using pymatgen
data_Y6Al21Si3Ru8
_symmetry_space_group_name_H-M   'P 1'
_cell_length_a   8.69637300
_cell_length_b   8.69637417
_cell_length_c   9.62908700
_cell_angle_alpha   90.00000000
_cell_angle_beta   90.00000000
_cell_angle_gamma   119.99999936
_symmetry_Int_Tables_number   1
_chemical_formula_structural   Y6Al21Si3Ru8
_chemical_formula_sum   'Y6 Al21 Si3 Ru8'
_cell_volume   630.65540402
_cell_formula_units_Z   1
loop_
 _symmetry_equiv_pos_site_id
 _symmetry_equiv_pos_as_xyz
  1  'x, y, z'
loop_
 _atom_site_type_symbol
 _atom_site_label
 _atom_site_symmetry_multiplicity
 _atom_site_fract_x
 _atom_site_fract_y
 _atom_site_fract_z
 _atom_site_occupancy
  Y  Y0  1  0.194274  0.388548  0.247901  1
  Y  Y1  1  0.805040  0.610079  0.752417  1
  Y  Y2  1  0.611452  0.805726  0.247901  1
  Y  Y3  1  0.389921  0.194960  0.752417  1
  Y  Y4  1  0.194274  0.805726  0.247901  1
  Y  Y5  1  0.805040  0.194960  0.752417  1
  Al  Al6  1  0.333333  0.666667  0.479821  1
  Al  Al7  1  0.163538  0.327077  0.575078  1
  Al  Al8  1  0.835148  0.670296  0.422666  1
  Al  Al9  1  0.672923  0.836462  0.575078  1
  Al  Al10  1  0.834945  0.669892  0.076869  1
  Al  Al11  1  0.329704  0.164852  0.422666  1
  Al  Al12  1  0.165535  0.331069  0.922711  1
  Al  Al13  1  0.163538  0.836462  0.575078  1
  Al  Al14  1  0.330108  0.165055  0.076869  1
  Al  Al15  1  0.835148  0.164852  0.422666  1
  Al  Al16  1  0.668931  0.834465  0.922711  1
  Al  Al17  1  0.834945  0.165055  0.076869  1
  Al  Al18  1  0.165535  0.834465  0.922711  1
  Al  Al19  1  0.563443  0.126888  0.248558  1
  Al  Al20  1  0.436952  0.873904  0.748494  1
  Al  Al21  1  0.873112  0.436557  0.248558  1
  Al  Al22  1  0.126096  0.563048  0.748494  1
  Al  Al23  1  0.563443  0.436557  0.248558  1
  Al  Al24  1  0.436952  0.563048  0.748494  1
  Al  Al25  1  0.000000  0.000000  0.249019  1
  Al  Al26  1  0.000000  0.000000  0.749541  1
  Si  Si27  1  0.333333  0.666667  0.038578  1
  Si  Si28  1  0.666667  0.333333  0.963221  1
  Si  Si29  1  0.666667  0.333333  0.538328  1
  Ru  Ru30  1  0.499916  0.999831  0.998433  1
  Ru  Ru31  1  0.000169  0.500084  0.998433  1
  Ru  Ru32  1  0.504561  0.009123  0.501189  1
  Ru  Ru33  1  0.499916  0.500084  0.998433  1
  Ru  Ru34  1  0.990877  0.495439  0.501189  1
  Ru  Ru35  1  0.504561  0.495439  0.501189  1
  Ru  Ru36  1  0.000000  0.000000  0.999111  1
  Ru  Ru37  1  0.000000  0.000000  0.499434  1
