# generated using pymatgen
data_Ce5Th(Ni3Bi4)2
_symmetry_space_group_name_H-M   'P 1'
_cell_length_a   8.45409673
_cell_length_b   8.46436824
_cell_length_c   8.46436833
_cell_angle_alpha   109.46778425
_cell_angle_beta   109.46314312
_cell_angle_gamma   109.53197188
_symmetry_Int_Tables_number   1
_chemical_formula_structural   Ce5Th(Ni3Bi4)2
_chemical_formula_sum   'Ce5 Th1 Ni6 Bi8'
_cell_volume   465.98302385
_cell_formula_units_Z   1
loop_
 _symmetry_equiv_pos_site_id
 _symmetry_equiv_pos_as_xyz
  1  'x, y, z'
loop_
 _atom_site_type_symbol
 _atom_site_label
 _atom_site_symmetry_multiplicity
 _atom_site_fract_x
 _atom_site_fract_y
 _atom_site_fract_z
 _atom_site_occupancy
  Ce  Ce0  1  0.125776  0.875502  0.249870  1
  Ce  Ce1  1  0.374224  0.624094  0.749726  1
  Ce  Ce2  1  0.874580  0.250211  0.124593  1
  Ce  Ce3  1  0.625420  0.750013  0.375631  1
  Ce  Ce4  1  0.250000  0.124945  0.874945  1
  Th  Th5  1  0.750000  0.375118  0.625118  1
  Ni  Ni6  1  0.623290  0.374782  0.250014  1
  Ni  Ni7  1  0.876710  0.126724  0.751491  1
  Ni  Ni8  1  0.375202  0.248479  0.625403  1
  Ni  Ni9  1  0.124798  0.750201  0.873277  1
  Ni  Ni10  1  0.250000  0.624823  0.374823  1
  Ni  Ni11  1  0.750000  0.875310  0.125310  1
  Bi  Bi12  1  0.334747  0.336823  0.336096  1
  Bi  Bi13  1  0.165253  0.501349  0.002076  1
  Bi  Bi14  1  0.000537  0.161021  0.499114  1
  Bi  Bi15  1  0.837991  0.839465  0.838980  1
  Bi  Bi16  1  0.499463  0.998577  0.160484  1
  Bi  Bi17  1  0.662009  0.500989  0.001474  1
  Bi  Bi18  1  0.499241  0.997731  0.663084  1
  Bi  Bi19  1  0.000759  0.663843  0.498490  1
