# generated using pymatgen
data_Sm3ThNp4N12
_symmetry_space_group_name_H-M   'P 1'
_cell_length_a   5.80946702
_cell_length_b   6.00533801
_cell_length_c   8.36873100
_cell_angle_alpha   90.00000000
_cell_angle_beta   90.00000000
_cell_angle_gamma   90.11576435
_symmetry_Int_Tables_number   1
_chemical_formula_structural   Sm3ThNp4N12
_chemical_formula_sum   'Sm3 Th1 Np4 N12'
_cell_volume   291.96612705
_cell_formula_units_Z   1
loop_
 _symmetry_equiv_pos_site_id
 _symmetry_equiv_pos_as_xyz
  1  'x, y, z'
loop_
 _atom_site_type_symbol
 _atom_site_label
 _atom_site_symmetry_multiplicity
 _atom_site_fract_x
 _atom_site_fract_y
 _atom_site_fract_z
 _atom_site_occupancy
  Sm  Sm0  1  0.512840  0.552451  0.250000  1
  Sm  Sm1  1  0.988285  0.052261  0.250000  1
  Sm  Sm2  1  0.488583  0.448067  0.750000  1
  Th  Th3  1  0.010717  0.946131  0.750000  1
  Np  Np4  1  0.000087  0.498758  0.001687  1
  Np  Np5  1  0.500571  0.000911  0.497801  1
  Np  Np6  1  0.000087  0.498758  0.498313  1
  Np  Np7  1  0.500571  0.000911  0.002199  1
  N  N8  1  0.392037  0.957424  0.250000  1
  N  N9  1  0.111310  0.456701  0.250000  1
  N  N10  1  0.612659  0.038876  0.750000  1
  N  N11  1  0.890998  0.542760  0.750000  1
  N  N12  1  0.788867  0.810741  0.054194  1
  N  N13  1  0.712938  0.308913  0.442517  1
  N  N14  1  0.210770  0.188563  0.558939  1
  N  N15  1  0.283054  0.694777  0.939934  1
  N  N16  1  0.210770  0.188563  0.941061  1
  N  N17  1  0.283054  0.694777  0.560066  1
  N  N18  1  0.788867  0.810741  0.445806  1
  N  N19  1  0.712938  0.308913  0.057483  1
