# generated using pymatgen
data_Dy4Ho3Lu13Bi12
_symmetry_space_group_name_H-M   'P 1'
_cell_length_a   8.17982483
_cell_length_b   9.39333100
_cell_length_c   11.91218065
_cell_angle_alpha   90.00000000
_cell_angle_beta   90.07658765
_cell_angle_gamma   90.00000000
_symmetry_Int_Tables_number   1
_chemical_formula_structural   Dy4Ho3Lu13Bi12
_chemical_formula_sum   'Dy4 Ho3 Lu13 Bi12'
_cell_volume   915.28113837
_cell_formula_units_Z   1
loop_
 _symmetry_equiv_pos_site_id
 _symmetry_equiv_pos_as_xyz
  1  'x, y, z'
loop_
 _atom_site_type_symbol
 _atom_site_label
 _atom_site_symmetry_multiplicity
 _atom_site_fract_x
 _atom_site_fract_y
 _atom_site_fract_z
 _atom_site_occupancy
  Dy  Dy0  1  0.312861  0.250000  0.217709  1
  Dy  Dy1  1  0.813170  0.250000  0.282437  1
  Dy  Dy2  1  0.686847  0.750000  0.782019  1
  Dy  Dy3  1  0.187474  0.750000  0.717474  1
  Ho  Ho4  1  0.352021  0.750000  0.217318  1
  Ho  Ho5  1  0.852276  0.750000  0.282381  1
  Ho  Ho6  1  0.647324  0.250000  0.782377  1
  Lu  Lu7  1  0.148014  0.250000  0.718052  1
  Lu  Lu8  1  0.692398  0.567192  0.059307  1
  Lu  Lu9  1  0.192234  0.932836  0.440818  1
  Lu  Lu10  1  0.307540  0.067400  0.940223  1
  Lu  Lu11  1  0.807769  0.432926  0.559337  1
  Lu  Lu12  1  0.307540  0.432600  0.940223  1
  Lu  Lu13  1  0.807769  0.067074  0.559337  1
  Lu  Lu14  1  0.692398  0.932808  0.059307  1
  Lu  Lu15  1  0.192234  0.567164  0.440818  1
  Lu  Lu16  1  0.476689  0.250000  0.489009  1
  Lu  Lu17  1  0.977114  0.250000  0.010641  1
  Lu  Lu18  1  0.522914  0.750000  0.511286  1
  Lu  Lu19  1  0.023574  0.750000  0.988924  1
  Bi  Bi20  1  0.403618  0.750000  0.957670  1
  Bi  Bi21  1  0.903311  0.750000  0.541976  1
  Bi  Bi22  1  0.596514  0.250000  0.042322  1
  Bi  Bi23  1  0.096893  0.250000  0.459591  1
  Bi  Bi24  1  0.565216  0.995562  0.326661  1
  Bi  Bi25  1  0.065327  0.504682  0.173265  1
  Bi  Bi26  1  0.434009  0.495168  0.673452  1
  Bi  Bi27  1  0.935200  0.005413  0.826344  1
  Bi  Bi28  1  0.434009  0.004832  0.673452  1
  Bi  Bi29  1  0.935200  0.494587  0.826344  1
  Bi  Bi30  1  0.565216  0.504438  0.326661  1
  Bi  Bi31  1  0.065327  0.995318  0.173265  1
