# generated using pymatgen
data_Tm12Co4HgRu
_symmetry_space_group_name_H-M   'P 1'
_cell_length_a   8.14815418
_cell_length_b   8.14815371
_cell_length_c   8.14815254
_cell_angle_alpha   111.35233059
_cell_angle_beta   110.82347843
_cell_angle_gamma   106.28455824
_symmetry_Int_Tables_number   1
_chemical_formula_structural   Tm12Co4HgRu
_chemical_formula_sum   'Tm12 Co4 Hg1 Ru1'
_cell_volume   415.47443393
_cell_formula_units_Z   1
loop_
 _symmetry_equiv_pos_site_id
 _symmetry_equiv_pos_as_xyz
  1  'x, y, z'
loop_
 _atom_site_type_symbol
 _atom_site_label
 _atom_site_symmetry_multiplicity
 _atom_site_fract_x
 _atom_site_fract_y
 _atom_site_fract_z
 _atom_site_occupancy
  Tm  Tm0  1  0.583162  0.276743  0.306421  1
  Tm  Tm1  1  0.182440  0.220483  0.402923  1
  Tm  Tm2  1  0.182440  0.779517  0.961958  1
  Tm  Tm3  1  0.685415  0.491688  0.806272  1
  Tm  Tm4  1  0.685415  0.879143  0.193728  1
  Tm  Tm5  1  0.970322  0.276743  0.693579  1
  Tm  Tm6  1  0.029678  0.723257  0.306421  1
  Tm  Tm7  1  0.314585  0.120857  0.806272  1
  Tm  Tm8  1  0.314585  0.508312  0.193728  1
  Tm  Tm9  1  0.817560  0.220483  0.038042  1
  Tm  Tm10  1  0.817560  0.779517  0.597077  1
  Tm  Tm11  1  0.416838  0.723257  0.693579  1
  Co  Co12  1  0.887259  0.887259  0.000000  1
  Co  Co13  1  0.372898  0.500000  0.872898  1
  Co  Co14  1  0.627102  0.500000  0.127102  1
  Co  Co15  1  0.112741  0.112741  0.000000  1
  Hg  Hg16  1  0.500000  0.000000  0.500000  1
  Ru  Ru17  1  0.000000  0.500000  0.500000  1
