# generated using pymatgen
data_Tb12Er4ZnIn3Rh4
_symmetry_space_group_name_H-M   'P 1'
_cell_length_a   9.62598878
_cell_length_b   9.62853169
_cell_length_c   9.62205341
_cell_angle_alpha   60.21216802
_cell_angle_beta   60.01819468
_cell_angle_gamma   60.01212939
_symmetry_Int_Tables_number   1
_chemical_formula_structural   Tb12Er4ZnIn3Rh4
_chemical_formula_sum   'Tb12 Er4 Zn1 In3 Rh4'
_cell_volume   631.75622166
_cell_formula_units_Z   1
loop_
 _symmetry_equiv_pos_site_id
 _symmetry_equiv_pos_as_xyz
  1  'x, y, z'
loop_
 _atom_site_type_symbol
 _atom_site_label
 _atom_site_symmetry_multiplicity
 _atom_site_fract_x
 _atom_site_fract_y
 _atom_site_fract_z
 _atom_site_occupancy
  Tb  Tb0  1  0.061064  0.061812  0.439403  1
  Tb  Tb1  1  0.436528  0.435584  0.068142  1
  Tb  Tb2  1  0.651286  0.650946  0.651262  1
  Tb  Tb3  1  0.812781  0.188781  0.188636  1
  Tb  Tb4  1  0.189809  0.811459  0.810049  1
  Tb  Tb5  1  0.052683  0.647102  0.648129  1
  Tb  Tb6  1  0.439724  0.061425  0.060724  1
  Tb  Tb7  1  0.436503  0.067446  0.437174  1
  Tb  Tb8  1  0.062007  0.438156  0.061992  1
  Tb  Tb9  1  0.647889  0.647205  0.053403  1
  Tb  Tb10  1  0.188930  0.812872  0.188559  1
  Tb  Tb11  1  0.068043  0.435490  0.437190  1
  Er  Er12  1  0.809670  0.810043  0.190344  1
  Er  Er13  1  0.810273  0.190586  0.809368  1
  Er  Er14  1  0.189854  0.189542  0.811487  1
  Er  Er15  1  0.647222  0.053219  0.647893  1
  Zn  Zn16  1  0.417202  0.416541  0.417297  1
  In  In17  1  0.418376  0.417074  0.743781  1
  In  In18  1  0.418137  0.743322  0.418282  1
  In  In19  1  0.743466  0.417519  0.418486  1
  Rh  Rh20  1  0.859578  0.424799  0.857603  1
  Rh  Rh21  1  0.854634  0.858964  0.857108  1
  Rh  Rh22  1  0.856856  0.859085  0.426978  1
  Rh  Rh23  1  0.427486  0.861026  0.856712  1
