# generated using pymatgen
data_Ag2HgO4
_symmetry_space_group_name_H-M   'P 1'
_cell_length_a   6.68326822
_cell_length_b   6.68326859
_cell_length_c   6.68326856
_cell_angle_alpha   125.86836193
_cell_angle_beta   125.86836851
_cell_angle_gamma   80.10459958
_symmetry_Int_Tables_number   1
_chemical_formula_structural   Ag2HgO4
_chemical_formula_sum   'Ag4 Hg2 O8'
_cell_volume   189.23293453
_cell_formula_units_Z   2
loop_
 _symmetry_equiv_pos_site_id
 _symmetry_equiv_pos_as_xyz
  1  'x, y, z'
loop_
 _atom_site_type_symbol
 _atom_site_label
 _atom_site_symmetry_multiplicity
 _atom_site_fract_x
 _atom_site_fract_y
 _atom_site_fract_z
 _atom_site_occupancy
  Ag  Ag0  1  0.375000  0.125000  0.750000  1
  Ag  Ag1  1  0.375000  0.625000  0.250000  1
  Ag  Ag2  1  0.875000  0.625000  0.250000  1
  Ag  Ag3  1  0.375000  0.625000  0.750000  1
  Hg  Hg4  1  0.750000  0.250000  0.500000  1
  Hg  Hg5  1  0.000000  0.000000  0.000000  1
  O  O6  1  0.047519  0.994211  0.641965  1
  O  O7  1  0.594446  0.952481  0.946692  1
  O  O8  1  0.005789  0.647754  0.053308  1
  O  O9  1  0.397754  0.844446  0.141965  1
  O  O10  1  0.744211  0.602246  0.446692  1
  O  O11  1  0.155554  0.297519  0.553308  1
  O  O12  1  0.352246  0.405554  0.358035  1
  O  O13  1  0.702481  0.255789  0.858035  1
