# generated using pymatgen
data_CaDyLu2(B6Ru)2
_symmetry_space_group_name_H-M   'P 1'
_cell_length_a   3.61622000
_cell_length_b   9.08769364
_cell_length_c   11.49428908
_cell_angle_alpha   89.84205461
_cell_angle_beta   90.00000000
_cell_angle_gamma   90.00000000
_symmetry_Int_Tables_number   1
_chemical_formula_structural   CaDyLu2(B6Ru)2
_chemical_formula_sum   'Ca2 Dy2 Lu4 B24 Ru4'
_cell_volume   377.73653055
_cell_formula_units_Z   2
loop_
 _symmetry_equiv_pos_site_id
 _symmetry_equiv_pos_as_xyz
  1  'x, y, z'
loop_
 _atom_site_type_symbol
 _atom_site_label
 _atom_site_symmetry_multiplicity
 _atom_site_fract_x
 _atom_site_fract_y
 _atom_site_fract_z
 _atom_site_occupancy
  Ca  Ca0  1  0.000000  0.323521  0.414849  1
  Ca  Ca1  1  0.000000  0.676479  0.585151  1
  Dy  Dy2  1  0.000000  0.822031  0.086099  1
  Dy  Dy3  1  0.000000  0.177969  0.913901  1
  Lu  Lu4  1  0.000000  0.942290  0.369872  1
  Lu  Lu5  1  0.000000  0.057710  0.630128  1
  Lu  Lu6  1  0.000000  0.442889  0.130186  1
  Lu  Lu7  1  0.000000  0.557111  0.869814  1
  B  B8  1  0.500000  0.554677  0.431688  1
  B  B9  1  0.500000  0.445323  0.568312  1
  B  B10  1  0.500000  0.054096  0.066712  1
  B  B11  1  0.500000  0.945904  0.933288  1
  B  B12  1  0.500000  0.749589  0.417005  1
  B  B13  1  0.500000  0.250411  0.582995  1
  B  B14  1  0.500000  0.249504  0.080986  1
  B  B15  1  0.500000  0.750496  0.919014  1
  B  B16  1  0.500000  0.792209  0.264125  1
  B  B17  1  0.500000  0.207791  0.735875  1
  B  B18  1  0.500000  0.290773  0.233573  1
  B  B19  1  0.500000  0.709227  0.766427  1
  B  B20  1  0.500000  0.630877  0.184050  1
  B  B21  1  0.500000  0.369123  0.815950  1
  B  B22  1  0.500000  0.129823  0.313843  1
  B  B23  1  0.500000  0.870177  0.686157  1
  B  B24  1  0.500000  0.982791  0.211761  1
  B  B25  1  0.500000  0.017209  0.788239  1
  B  B26  1  0.500000  0.483517  0.286716  1
  B  B27  1  0.500000  0.516483  0.713284  1
  B  B28  1  0.500000  0.601494  0.027739  1
  B  B29  1  0.500000  0.398506  0.972261  1
  B  B30  1  0.500000  0.097998  0.473062  1
  B  B31  1  0.500000  0.902002  0.526938  1
  Ru  Ru32  1  0.000000  0.641114  0.317095  1
  Ru  Ru33  1  0.000000  0.358886  0.682905  1
  Ru  Ru34  1  0.000000  0.137490  0.178270  1
  Ru  Ru35  1  0.000000  0.862510  0.821730  1
