# generated using pymatgen
data_Hf4Ta5WN12
_symmetry_space_group_name_H-M   'P 1'
_cell_length_a   5.27314093
_cell_length_b   5.27314194
_cell_length_c   10.59169100
_cell_angle_alpha   90.00000000
_cell_angle_beta   90.00000000
_cell_angle_gamma   119.87919297
_symmetry_Int_Tables_number   1
_chemical_formula_structural   Hf4Ta5WN12
_chemical_formula_sum   'Hf4 Ta5 W1 N12'
_cell_volume   255.36546778
_cell_formula_units_Z   1
loop_
 _symmetry_equiv_pos_site_id
 _symmetry_equiv_pos_as_xyz
  1  'x, y, z'
loop_
 _atom_site_type_symbol
 _atom_site_label
 _atom_site_symmetry_multiplicity
 _atom_site_fract_x
 _atom_site_fract_y
 _atom_site_fract_z
 _atom_site_occupancy
  Hf  Hf0  1  0.666757  0.333013  0.001036  1
  Hf  Hf1  1  0.333013  0.666757  0.001036  1
  Hf  Hf2  1  0.333013  0.666757  0.498964  1
  Hf  Hf3  1  0.666757  0.333013  0.498964  1
  Ta  Ta4  1  0.322944  0.999121  0.750000  1
  Ta  Ta5  1  0.999121  0.322944  0.750000  1
  Ta  Ta6  1  0.319714  0.319714  0.250000  1
  Ta  Ta7  1  0.680367  0.000171  0.250000  1
  Ta  Ta8  1  0.000171  0.680367  0.250000  1
  W  W9  1  0.676311  0.676311  0.750000  1
  N  N10  1  0.655451  0.655451  0.374201  1
  N  N11  1  0.344426  0.000265  0.373822  1
  N  N12  1  0.000265  0.344426  0.373822  1
  N  N13  1  0.345206  0.345206  0.627052  1
  N  N14  1  0.656289  0.999279  0.627017  1
  N  N15  1  0.999279  0.656289  0.627017  1
  N  N16  1  0.345206  0.345206  0.872948  1
  N  N17  1  0.656289  0.999279  0.872983  1
  N  N18  1  0.999279  0.656289  0.872983  1
  N  N19  1  0.655451  0.655451  0.125799  1
  N  N20  1  0.344426  0.000265  0.126178  1
  N  N21  1  0.000265  0.344426  0.126178  1
