# generated using pymatgen
data_LuPa3(GeIr)4
_symmetry_space_group_name_H-M   'P 1'
_cell_length_a   4.33267200
_cell_length_b   6.91320186
_cell_length_c   7.66345264
_cell_angle_alpha   89.48920064
_cell_angle_beta   90.00000000
_cell_angle_gamma   90.00000000
_symmetry_Int_Tables_number   1
_chemical_formula_structural   LuPa3(GeIr)4
_chemical_formula_sum   'Lu1 Pa3 Ge4 Ir4'
_cell_volume   229.53148662
_cell_formula_units_Z   1
loop_
 _symmetry_equiv_pos_site_id
 _symmetry_equiv_pos_as_xyz
  1  'x, y, z'
loop_
 _atom_site_type_symbol
 _atom_site_label
 _atom_site_symmetry_multiplicity
 _atom_site_fract_x
 _atom_site_fract_y
 _atom_site_fract_z
 _atom_site_occupancy
  Lu  Lu0  1  0.250000  0.507807  0.201557  1
  Pa  Pa1  1  0.750000  0.493219  0.798540  1
  Pa  Pa2  1  0.250000  0.008959  0.299046  1
  Pa  Pa3  1  0.750000  0.992906  0.701159  1
  Ge  Ge4  1  0.250000  0.678014  0.580410  1
  Ge  Ge5  1  0.250000  0.181086  0.920610  1
  Ge  Ge6  1  0.750000  0.325901  0.409796  1
  Ge  Ge7  1  0.750000  0.813575  0.086478  1
  Ir  Ir8  1  0.250000  0.773892  0.908358  1
  Ir  Ir9  1  0.250000  0.272824  0.590648  1
  Ir  Ir10  1  0.750000  0.731740  0.415858  1
  Ir  Ir11  1  0.750000  0.220075  0.087541  1
