# generated using pymatgen
data_Hf3Zr4ScOs8
_symmetry_space_group_name_H-M   'P 1'
_cell_length_a   6.52258000
_cell_length_b   4.63305400
_cell_length_c   9.25598700
_cell_angle_alpha   90.00000000
_cell_angle_beta   89.99980952
_cell_angle_gamma   90.00000000
_symmetry_Int_Tables_number   1
_chemical_formula_structural   Hf3Zr4ScOs8
_chemical_formula_sum   'Hf3 Zr4 Sc1 Os8'
_cell_volume   279.71097851
_cell_formula_units_Z   1
loop_
 _symmetry_equiv_pos_site_id
 _symmetry_equiv_pos_as_xyz
  1  'x, y, z'
loop_
 _atom_site_type_symbol
 _atom_site_label
 _atom_site_symmetry_multiplicity
 _atom_site_fract_x
 _atom_site_fract_y
 _atom_site_fract_z
 _atom_site_occupancy
  Hf  Hf0  1  0.249928  0.250000  0.124230  1
  Hf  Hf1  1  0.749928  0.750000  0.374999  1
  Hf  Hf2  1  0.250068  0.250000  0.625771  1
  Zr  Zr3  1  0.749928  0.250000  0.122361  1
  Zr  Zr4  1  0.249923  0.750000  0.374991  1
  Zr  Zr5  1  0.750073  0.250000  0.627656  1
  Zr  Zr6  1  0.250078  0.750000  0.874992  1
  Sc  Sc7  1  0.750079  0.750000  0.874995  1
  Os  Os8  1  0.000840  0.750000  0.126471  1
  Os  Os9  1  0.499064  0.750000  0.126474  1
  Os  Os10  1  0.999349  0.250000  0.374988  1
  Os  Os11  1  0.500543  0.250000  0.374990  1
  Os  Os12  1  0.499161  0.750000  0.623541  1
  Os  Os13  1  0.000933  0.750000  0.623540  1
  Os  Os14  1  0.497914  0.250000  0.875001  1
  Os  Os15  1  0.002191  0.250000  0.875002  1
