# generated using pymatgen
data_Pr12Si2GeAsBr12
_symmetry_space_group_name_H-M   'P 1'
_cell_length_a   10.52051738
_cell_length_b   10.52475605
_cell_length_c   10.55141958
_cell_angle_alpha   109.48395642
_cell_angle_beta   109.46770183
_cell_angle_gamma   109.35120941
_symmetry_Int_Tables_number   1
_chemical_formula_structural   Pr12Si2GeAsBr12
_chemical_formula_sum   'Pr12 Si2 Ge1 As1 Br12'
_cell_volume   900.59604050
_cell_formula_units_Z   1
loop_
 _symmetry_equiv_pos_site_id
 _symmetry_equiv_pos_as_xyz
  1  'x, y, z'
loop_
 _atom_site_type_symbol
 _atom_site_label
 _atom_site_symmetry_multiplicity
 _atom_site_fract_x
 _atom_site_fract_y
 _atom_site_fract_z
 _atom_site_occupancy
  Pr  Pr0  1  0.476447  0.486058  0.240051  1
  Pr  Pr1  1  0.746219  0.236796  0.259610  1
  Pr  Pr2  1  0.746333  0.009807  0.486420  1
  Pr  Pr3  1  0.240088  0.476612  0.486420  1
  Pr  Pr4  1  0.263603  0.753994  0.240051  1
  Pr  Pr5  1  0.024149  0.260157  0.014149  1
  Pr  Pr6  1  0.013391  0.022815  0.259610  1
  Pr  Pr7  1  0.490001  0.753992  0.014149  1
  Pr  Pr8  1  0.488023  0.238023  0.476047  1
  Pr  Pr9  1  0.011328  0.488354  0.749710  1
  Pr  Pr10  1  0.261936  0.011936  0.023871  1
  Pr  Pr11  1  0.238381  0.261356  0.749710  1
  Si  Si12  1  0.250476  0.249682  0.249816  1
  Si  Si13  1  0.499340  0.000133  0.249816  1
  Ge  Ge14  1  0.999659  0.249659  0.499318  1
  As  As15  1  0.250570  0.500570  0.001141  1
  Br  Br16  1  0.249604  0.752567  0.746275  1
  Br  Br17  1  0.506479  0.503418  0.753946  1
  Br  Br18  1  0.991844  0.745191  0.995567  1
  Br  Br19  1  0.747466  0.250528  0.753946  1
  Br  Br20  1  0.996671  0.993710  0.746275  1
  Br  Br21  1  0.249774  0.996236  0.504550  1
  Br  Br22  1  0.754776  0.508314  0.504550  1
  Br  Br23  1  0.503723  0.250375  0.995567  1
  Br  Br24  1  0.753276  0.746478  0.249877  1
  Br  Br25  1  0.746071  0.996071  0.992143  1
  Br  Br26  1  0.996601  0.503400  0.249877  1
  Br  Br27  1  0.503769  0.753769  0.507537  1
