# generated using pymatgen
data_Sm3Hg5
_symmetry_space_group_name_H-M   'P 1'
_cell_length_a   6.45295001
_cell_length_b   6.45294946
_cell_length_c   10.48614700
_cell_angle_alpha   90.00000000
_cell_angle_beta   90.00000000
_cell_angle_gamma   105.42959633
_symmetry_Int_Tables_number   1
_chemical_formula_structural   Sm3Hg5
_chemical_formula_sum   'Sm6 Hg10'
_cell_volume   420.91137572
_cell_formula_units_Z   2
loop_
 _symmetry_equiv_pos_site_id
 _symmetry_equiv_pos_as_xyz
  1  'x, y, z'
loop_
 _atom_site_type_symbol
 _atom_site_label
 _atom_site_symmetry_multiplicity
 _atom_site_fract_x
 _atom_site_fract_y
 _atom_site_fract_z
 _atom_site_occupancy
  Sm  Sm0  1  0.578749  0.578749  0.250000  1
  Sm  Sm1  1  0.421251  0.421251  0.750000  1
  Sm  Sm2  1  0.208612  0.791388  0.500000  1
  Sm  Sm3  1  0.208612  0.791388  0.000000  1
  Sm  Sm4  1  0.791388  0.208612  0.500000  1
  Sm  Sm5  1  0.791388  0.208612  0.000000  1
  Hg  Hg6  1  0.985652  0.985652  0.250000  1
  Hg  Hg7  1  0.014348  0.014348  0.750000  1
  Hg  Hg8  1  0.297506  0.297506  0.030573  1
  Hg  Hg9  1  0.702494  0.702494  0.969427  1
  Hg  Hg10  1  0.297506  0.297506  0.469427  1
  Hg  Hg11  1  0.702494  0.702494  0.530573  1
  Hg  Hg12  1  0.483352  0.043145  0.250000  1
  Hg  Hg13  1  0.956855  0.516648  0.750000  1
  Hg  Hg14  1  0.516648  0.956855  0.750000  1
  Hg  Hg15  1  0.043145  0.483352  0.250000  1
