# generated using pymatgen
data_Sr2HgIr4PbO14
_symmetry_space_group_name_H-M   'P 1'
_cell_length_a   7.44682654
_cell_length_b   7.44682601
_cell_length_c   7.30837198
_cell_angle_alpha   59.55615912
_cell_angle_beta   59.55616129
_cell_angle_gamma   60.14674880
_symmetry_Int_Tables_number   1
_chemical_formula_structural   Sr2HgIr4PbO14
_chemical_formula_sum   'Sr2 Hg1 Ir4 Pb1 O14'
_cell_volume   284.95382971
_cell_formula_units_Z   1
loop_
 _symmetry_equiv_pos_site_id
 _symmetry_equiv_pos_as_xyz
  1  'x, y, z'
loop_
 _atom_site_type_symbol
 _atom_site_label
 _atom_site_symmetry_multiplicity
 _atom_site_fract_x
 _atom_site_fract_y
 _atom_site_fract_z
 _atom_site_occupancy
  Sr  Sr0  1  0.625000  0.125000  0.125000  1
  Sr  Sr1  1  0.125000  0.625000  0.125000  1
  Hg  Hg2  1  0.125000  0.125000  0.625000  1
  Ir  Ir3  1  0.125000  0.625000  0.625000  1
  Ir  Ir4  1  0.625000  0.125000  0.625000  1
  Ir  Ir5  1  0.625000  0.625000  0.125000  1
  Ir  Ir6  1  0.625000  0.625000  0.625000  1
  Pb  Pb7  1  0.125000  0.125000  0.125000  1
  O  O8  1  0.699818  0.699818  0.297821  1
  O  O9  1  0.304070  0.304070  0.710120  1
  O  O10  1  0.692876  0.306403  0.691336  1
  O  O11  1  0.301368  0.710437  0.298994  1
  O  O12  1  0.306403  0.692876  0.691336  1
  O  O13  1  0.710437  0.301368  0.298994  1
  O  O14  1  0.550182  0.550182  0.952179  1
  O  O15  1  0.945930  0.945930  0.539880  1
  O  O16  1  0.557124  0.943597  0.558664  1
  O  O17  1  0.948632  0.539563  0.951006  1
  O  O18  1  0.943597  0.557124  0.558664  1
  O  O19  1  0.539563  0.948632  0.951006  1
  O  O20  1  0.231859  0.231859  0.277005  1
  O  O21  1  0.018141  0.018141  0.972995  1
