# generated using pymatgen
data_Co3Ni5RhSe8
_symmetry_space_group_name_H-M   'P 1'
_cell_length_a   7.47686442
_cell_length_b   7.47649453
_cell_length_c   7.47287000
_cell_angle_alpha   60.01603541
_cell_angle_beta   60.01767083
_cell_angle_gamma   60.03348905
_symmetry_Int_Tables_number   1
_chemical_formula_structural   Co3Ni5RhSe8
_chemical_formula_sum   'Co3 Ni5 Rh1 Se8'
_cell_volume   295.53599913
_cell_formula_units_Z   1
loop_
 _symmetry_equiv_pos_site_id
 _symmetry_equiv_pos_as_xyz
  1  'x, y, z'
loop_
 _atom_site_type_symbol
 _atom_site_label
 _atom_site_symmetry_multiplicity
 _atom_site_fract_x
 _atom_site_fract_y
 _atom_site_fract_z
 _atom_site_occupancy
  Co  Co0  1  0.877139  0.877499  0.878310  1
  Co  Co1  1  0.877139  0.877499  0.367049  1
  Co  Co2  1  0.122431  0.633237  0.122167  1
  Ni  Ni3  1  0.874924  0.372749  0.876162  1
  Ni  Ni4  1  0.124622  0.123516  0.628320  1
  Ni  Ni5  1  0.630450  0.123375  0.123088  1
  Ni  Ni6  1  0.124622  0.123516  0.123544  1
  Ni  Ni7  1  0.369819  0.877116  0.876531  1
  Rh  Rh8  1  0.499593  0.496073  0.502167  1
  Se  Se9  1  0.754368  0.756860  0.744386  1
  Se  Se10  1  0.248580  0.258306  0.246557  1
  Se  Se11  1  0.258265  0.259609  0.741063  1
  Se  Se12  1  0.254033  0.737428  0.745861  1
  Se  Se13  1  0.741984  0.254136  0.263026  1
  Se  Se14  1  0.254033  0.737428  0.262678  1
  Se  Se15  1  0.741984  0.254136  0.740854  1
  Se  Se16  1  0.746014  0.737514  0.258236  1
