# generated using pymatgen
data_Ce2Dy3Y3(Si3Rh)4
_symmetry_space_group_name_H-M   'P 1'
_cell_length_a   8.17539400
_cell_length_b   8.17539446
_cell_length_c   8.00138300
_cell_angle_alpha   90.00000000
_cell_angle_beta   90.00000000
_cell_angle_gamma   119.99999004
_symmetry_Int_Tables_number   1
_chemical_formula_structural   Ce2Dy3Y3(Si3Rh)4
_chemical_formula_sum   'Ce2 Dy3 Y3 Si12 Rh4'
_cell_volume   463.14090812
_cell_formula_units_Z   1
loop_
 _symmetry_equiv_pos_site_id
 _symmetry_equiv_pos_as_xyz
  1  'x, y, z'
loop_
 _atom_site_type_symbol
 _atom_site_label
 _atom_site_symmetry_multiplicity
 _atom_site_fract_x
 _atom_site_fract_y
 _atom_site_fract_z
 _atom_site_occupancy
  Ce  Ce0  1  0.000000  0.000000  0.250000  1
  Ce  Ce1  1  0.000000  0.000000  0.750000  1
  Dy  Dy2  1  0.491428  0.508572  0.750000  1
  Dy  Dy3  1  0.491428  0.982855  0.750000  1
  Dy  Dy4  1  0.017145  0.508572  0.750000  1
  Y  Y5  1  0.508684  0.491316  0.250000  1
  Y  Y6  1  0.508684  0.017369  0.250000  1
  Y  Y7  1  0.982631  0.491316  0.250000  1
  Si  Si8  1  0.167256  0.832744  0.500482  1
  Si  Si9  1  0.167256  0.334513  0.500482  1
  Si  Si10  1  0.665487  0.832744  0.500482  1
  Si  Si11  1  0.832733  0.167267  0.500263  1
  Si  Si12  1  0.832733  0.665464  0.500263  1
  Si  Si13  1  0.334536  0.167267  0.500263  1
  Si  Si14  1  0.832733  0.167267  0.999737  1
  Si  Si15  1  0.832733  0.665464  0.999737  1
  Si  Si16  1  0.334536  0.167267  0.999737  1
  Si  Si17  1  0.167256  0.832744  0.999518  1
  Si  Si18  1  0.167256  0.334513  0.999518  1
  Si  Si19  1  0.665487  0.832744  0.999518  1
  Rh  Rh20  1  0.333333  0.666667  0.468507  1
  Rh  Rh21  1  0.666667  0.333333  0.532928  1
  Rh  Rh22  1  0.666667  0.333333  0.967072  1
  Rh  Rh23  1  0.333333  0.666667  0.031493  1
