# generated using pymatgen
data_Pr2TiOs5O18
_symmetry_space_group_name_H-M   'P 1'
_cell_length_a   7.49564550
_cell_length_b   5.38225187
_cell_length_c   8.17054117
_cell_angle_alpha   85.84482263
_cell_angle_beta   89.93641803
_cell_angle_gamma   89.96093085
_symmetry_Int_Tables_number   1
_chemical_formula_structural   Pr2TiOs5O18
_chemical_formula_sum   'Pr2 Ti1 Os5 O18'
_cell_volume   328.76113521
_cell_formula_units_Z   1
loop_
 _symmetry_equiv_pos_site_id
 _symmetry_equiv_pos_as_xyz
  1  'x, y, z'
loop_
 _atom_site_type_symbol
 _atom_site_label
 _atom_site_symmetry_multiplicity
 _atom_site_fract_x
 _atom_site_fract_y
 _atom_site_fract_z
 _atom_site_occupancy
  Pr  Pr0  1  0.255181  0.963781  0.434012  1
  Pr  Pr1  1  0.744211  0.031042  0.573068  1
  Ti  Ti2  1  0.494156  0.528963  0.702133  1
  Os  Os3  1  0.002063  0.533844  0.694175  1
  Os  Os4  1  0.997386  0.465554  0.305869  1
  Os  Os5  1  0.002490  0.001553  0.999991  1
  Os  Os6  1  0.504954  0.468532  0.308138  1
  Os  Os7  1  0.502866  0.993583  0.000558  1
  O  O8  1  0.963266  0.694102  0.123995  1
  O  O9  1  0.030825  0.306376  0.874646  1
  O  O10  1  0.057746  0.154198  0.211685  1
  O  O11  1  0.751032  0.366279  0.323629  1
  O  O12  1  0.036068  0.272661  0.527319  1
  O  O13  1  0.445411  0.161875  0.207621  1
  O  O14  1  0.534822  0.694360  0.128961  1
  O  O15  1  0.538042  0.738170  0.467204  1
  O  O16  1  0.748231  0.062488  0.013548  1
  O  O17  1  0.948014  0.840818  0.790863  1
  O  O18  1  0.750334  0.442022  0.687397  1
  O  O19  1  0.550361  0.841474  0.789597  1
  O  O20  1  0.249935  0.565980  0.305964  1
  O  O21  1  0.463610  0.304745  0.875105  1
  O  O22  1  0.963602  0.729807  0.473985  1
  O  O23  1  0.465126  0.270437  0.523582  1
  O  O24  1  0.247469  0.632768  0.668880  1
  O  O25  1  0.252797  0.934587  0.988075  1
