# generated using pymatgen
data_La9Ce3(Si7Br3)2
_symmetry_space_group_name_H-M   'P 1'
_cell_length_a   4.10850900
_cell_length_b   11.93185190
_cell_length_c   16.74116000
_cell_angle_alpha   89.62402149
_cell_angle_beta   90.00000000
_cell_angle_gamma   90.00000000
_symmetry_Int_Tables_number   1
_chemical_formula_structural   La9Ce3(Si7Br3)2
_chemical_formula_sum   'La9 Ce3 Si14 Br6'
_cell_volume   820.66949993
_cell_formula_units_Z   1
loop_
 _symmetry_equiv_pos_site_id
 _symmetry_equiv_pos_as_xyz
  1  'x, y, z'
loop_
 _atom_site_type_symbol
 _atom_site_label
 _atom_site_symmetry_multiplicity
 _atom_site_fract_x
 _atom_site_fract_y
 _atom_site_fract_z
 _atom_site_occupancy
  La  La0  1  0.500000  0.339698  0.504771  1
  La  La1  1  0.000000  0.659285  0.998947  1
  La  La2  1  0.000000  0.642023  0.745171  1
  La  La3  1  0.500000  0.357341  0.245098  1
  La  La4  1  0.000000  0.640223  0.256436  1
  La  La5  1  0.500000  0.068776  0.877641  1
  La  La6  1  0.000000  0.935571  0.620220  1
  La  La7  1  0.500000  0.066157  0.118342  1
  La  La8  1  0.000000  0.932240  0.378886  1
  Ce  Ce9  1  0.500000  0.362664  0.757439  1
  Ce  Ce10  1  0.500000  0.358006  0.999192  1
  Ce  Ce11  1  0.000000  0.640836  0.501841  1
  Si  Si12  1  0.000000  0.156824  0.997750  1
  Si  Si13  1  0.500000  0.844577  0.500557  1
  Si  Si14  1  0.500000  0.563113  0.876931  1
  Si  Si15  1  0.000000  0.432885  0.627759  1
  Si  Si16  1  0.500000  0.563546  0.121701  1
  Si  Si17  1  0.000000  0.434143  0.380430  1
  Si  Si18  1  0.000000  0.257990  0.873064  1
  Si  Si19  1  0.500000  0.743775  0.623641  1
  Si  Si20  1  0.000000  0.256519  0.121827  1
  Si  Si21  1  0.500000  0.741635  0.378514  1
  Si  Si22  1  0.000000  0.457862  0.878428  1
  Si  Si23  1  0.500000  0.540309  0.623277  1
  Si  Si24  1  0.500000  0.540308  0.380704  1
  Si  Si25  1  0.000000  0.457539  0.120805  1
  Br  Br26  1  0.500000  0.117183  0.690228  1
  Br  Br27  1  0.000000  0.892565  0.806826  1
  Br  Br28  1  0.000000  0.136256  0.497698  1
  Br  Br29  1  0.500000  0.863590  0.998422  1
  Br  Br30  1  0.500000  0.107323  0.306274  1
  Br  Br31  1  0.000000  0.889240  0.191177  1
