# generated using pymatgen
data_YHo3Fe12(P3Rh2)4
_symmetry_space_group_name_H-M   'P 1'
_cell_length_a   3.76498800
_cell_length_b   10.31884642
_cell_length_c   12.18796149
_cell_angle_alpha   90.03259297
_cell_angle_beta   90.00000000
_cell_angle_gamma   90.00000000
_symmetry_Int_Tables_number   1
_chemical_formula_structural   YHo3Fe12(P3Rh2)4
_chemical_formula_sum   'Y1 Ho3 Fe12 P12 Rh8'
_cell_volume   473.50628519
_cell_formula_units_Z   1
loop_
 _symmetry_equiv_pos_site_id
 _symmetry_equiv_pos_as_xyz
  1  'x, y, z'
loop_
 _atom_site_type_symbol
 _atom_site_label
 _atom_site_symmetry_multiplicity
 _atom_site_fract_x
 _atom_site_fract_y
 _atom_site_fract_z
 _atom_site_occupancy
  Y  Y0  1  0.250000  0.580798  0.711491  1
  Ho  Ho1  1  0.250000  0.919194  0.211548  1
  Ho  Ho2  1  0.750000  0.419437  0.288493  1
  Ho  Ho3  1  0.750000  0.080647  0.788510  1
  Fe  Fe4  1  0.250000  0.224109  0.170716  1
  Fe  Fe5  1  0.250000  0.275721  0.670674  1
  Fe  Fe6  1  0.750000  0.776259  0.829421  1
  Fe  Fe7  1  0.750000  0.724084  0.329226  1
  Fe  Fe8  1  0.250000  0.877714  0.697043  1
  Fe  Fe9  1  0.250000  0.622615  0.197078  1
  Fe  Fe10  1  0.750000  0.122547  0.302960  1
  Fe  Fe11  1  0.750000  0.376993  0.803099  1
  Fe  Fe12  1  0.250000  0.459052  0.935546  1
  Fe  Fe13  1  0.250000  0.040803  0.435259  1
  Fe  Fe14  1  0.750000  0.540890  0.064960  1
  Fe  Fe15  1  0.750000  0.959269  0.564748  1
  P  P16  1  0.250000  0.429742  0.112943  1
  P  P17  1  0.250000  0.070295  0.612925  1
  P  P18  1  0.750000  0.570274  0.887630  1
  P  P19  1  0.750000  0.929698  0.387085  1
  P  P20  1  0.250000  0.273308  0.852717  1
  P  P21  1  0.250000  0.226616  0.352726  1
  P  P22  1  0.750000  0.726537  0.147284  1
  P  P23  1  0.750000  0.773983  0.647132  1
  P  P24  1  0.250000  0.605808  0.377517  1
  P  P25  1  0.250000  0.894183  0.877535  1
  P  P26  1  0.750000  0.393668  0.622229  1
  P  P27  1  0.750000  0.105800  0.122409  1
  Rh  Rh28  1  0.250000  0.707621  0.985194  1
  Rh  Rh29  1  0.250000  0.792491  0.484991  1
  Rh  Rh30  1  0.750000  0.292343  0.014842  1
  Rh  Rh31  1  0.750000  0.207590  0.514856  1
  Rh  Rh32  1  0.250000  0.404786  0.478441  1
  Rh  Rh33  1  0.250000  0.095062  0.978508  1
  Rh  Rh34  1  0.750000  0.595131  0.520791  1
  Rh  Rh35  1  0.750000  0.904932  0.021475  1
