# generated using pymatgen
data_Tm3Sn4IrRu
_symmetry_space_group_name_H-M   'P 1'
_cell_length_a   7.52322000
_cell_length_b   7.52321995
_cell_length_c   4.11484300
_cell_angle_alpha   90.00000000
_cell_angle_beta   90.00000000
_cell_angle_gamma   120.00000903
_symmetry_Int_Tables_number   1
_chemical_formula_structural   Tm3Sn4IrRu
_chemical_formula_sum   'Tm3 Sn4 Ir1 Ru1'
_cell_volume   201.69325865
_cell_formula_units_Z   1
loop_
 _symmetry_equiv_pos_site_id
 _symmetry_equiv_pos_as_xyz
  1  'x, y, z'
loop_
 _atom_site_type_symbol
 _atom_site_label
 _atom_site_symmetry_multiplicity
 _atom_site_fract_x
 _atom_site_fract_y
 _atom_site_fract_z
 _atom_site_occupancy
  Tm  Tm0  1  0.976136  0.391637  0.500000  1
  Tm  Tm1  1  0.608363  0.584499  0.500000  1
  Tm  Tm2  1  0.415501  0.023864  0.500000  1
  Sn  Sn3  1  0.982397  0.744521  0.000000  1
  Sn  Sn4  1  0.255479  0.237875  0.000000  1
  Sn  Sn5  1  0.762125  0.017603  0.000000  1
  Sn  Sn6  1  0.333333  0.666667  0.000000  1
  Ir  Ir7  1  0.666667  0.333333  0.000000  1
  Ru  Ru8  1  0.000000  0.000000  0.500000  1
