# generated using pymatgen
data_Ag3Hg(Ru2O7)2
_symmetry_space_group_name_H-M   'P 1'
_cell_length_a   7.26347623
_cell_length_b   7.23764233
_cell_length_c   7.26347700
_cell_angle_alpha   59.88185651
_cell_angle_beta   60.00000104
_cell_angle_gamma   59.88184823
_symmetry_Int_Tables_number   1
_chemical_formula_structural   Ag3Hg(Ru2O7)2
_chemical_formula_sum   'Ag3 Hg1 Ru4 O14'
_cell_volume   269.52144861
_cell_formula_units_Z   1
loop_
 _symmetry_equiv_pos_site_id
 _symmetry_equiv_pos_as_xyz
  1  'x, y, z'
loop_
 _atom_site_type_symbol
 _atom_site_label
 _atom_site_symmetry_multiplicity
 _atom_site_fract_x
 _atom_site_fract_y
 _atom_site_fract_z
 _atom_site_occupancy
  Ag  Ag0  1  0.625000  0.625000  0.125000  1
  Ag  Ag1  1  0.125000  0.625000  0.625000  1
  Ag  Ag2  1  0.625000  0.625000  0.625000  1
  Hg  Hg3  1  0.625000  0.125000  0.625000  1
  Ru  Ru4  1  0.625000  0.125000  0.125000  1
  Ru  Ru5  1  0.125000  0.625000  0.125000  1
  Ru  Ru6  1  0.125000  0.125000  0.625000  1
  Ru  Ru7  1  0.125000  0.125000  0.125000  1
  O  O8  1  0.190291  0.190867  0.809421  1
  O  O9  1  0.192726  0.807055  0.192726  1
  O  O10  1  0.440579  0.059133  0.059709  1
  O  O11  1  0.192726  0.807055  0.807495  1
  O  O12  1  0.057274  0.442945  0.442505  1
  O  O13  1  0.807495  0.807055  0.192726  1
  O  O14  1  0.442505  0.442945  0.057274  1
  O  O15  1  0.500670  0.497989  0.500670  1
  O  O16  1  0.059709  0.059133  0.440579  1
  O  O17  1  0.440579  0.059133  0.440579  1
  O  O18  1  0.057274  0.442945  0.057274  1
  O  O19  1  0.749330  0.752011  0.749330  1
  O  O20  1  0.809421  0.190867  0.809421  1
  O  O21  1  0.809421  0.190867  0.190291  1
