# generated using pymatgen
data_Lu6InNiOs
_symmetry_space_group_name_H-M   'P 1'
_cell_length_a   8.26763490
_cell_length_b   8.26763579
_cell_length_c   8.26763527
_cell_angle_alpha   113.44309766
_cell_angle_beta   110.70367563
_cell_angle_gamma   104.39626860
_symmetry_Int_Tables_number   1
_chemical_formula_structural   Lu6InNiOs
_chemical_formula_sum   'Lu12 In2 Ni2 Os2'
_cell_volume   432.23106036
_cell_formula_units_Z   2
loop_
 _symmetry_equiv_pos_site_id
 _symmetry_equiv_pos_as_xyz
  1  'x, y, z'
loop_
 _atom_site_type_symbol
 _atom_site_label
 _atom_site_symmetry_multiplicity
 _atom_site_fract_x
 _atom_site_fract_y
 _atom_site_fract_z
 _atom_site_occupancy
  Lu  Lu0  1  0.442635  0.242524  0.200111  1
  Lu  Lu1  1  0.557365  0.757476  0.799889  1
  Lu  Lu2  1  0.042413  0.242524  0.799889  1
  Lu  Lu3  1  0.957587  0.757476  0.200111  1
  Lu  Lu4  1  0.184087  0.284593  0.468680  1
  Lu  Lu5  1  0.815913  0.715407  0.531320  1
  Lu  Lu6  1  0.184087  0.715407  0.899495  1
  Lu  Lu7  1  0.815913  0.284593  0.100505  1
  Lu  Lu8  1  0.329667  0.644579  0.314912  1
  Lu  Lu9  1  0.670333  0.355421  0.685088  1
  Lu  Lu10  1  0.329667  0.014753  0.685088  1
  Lu  Lu11  1  0.670333  0.985247  0.314912  1
  In  In12  1  0.500000  0.500000  0.000000  1
  In  In13  1  0.000000  0.000000  0.000000  1
  Ni  Ni14  1  0.118496  0.618496  0.500000  1
  Ni  Ni15  1  0.881504  0.381504  0.500000  1
  Os  Os16  1  0.328832  0.000000  0.328832  1
  Os  Os17  1  0.671168  0.000000  0.671168  1
