# generated using pymatgen
data_Sm8BiPd5Pt19
_symmetry_space_group_name_H-M   'P 1'
_cell_length_a   8.50445300
_cell_length_b   8.50924500
_cell_length_c   8.51806900
_cell_angle_alpha   90.00000000
_cell_angle_beta   90.00000000
_cell_angle_gamma   90.00000000
_symmetry_Int_Tables_number   1
_chemical_formula_structural   Sm8BiPd5Pt19
_chemical_formula_sum   'Sm8 Bi1 Pd5 Pt19'
_cell_volume   616.42262025
_cell_formula_units_Z   1
loop_
 _symmetry_equiv_pos_site_id
 _symmetry_equiv_pos_as_xyz
  1  'x, y, z'
loop_
 _atom_site_type_symbol
 _atom_site_label
 _atom_site_symmetry_multiplicity
 _atom_site_fract_x
 _atom_site_fract_y
 _atom_site_fract_z
 _atom_site_occupancy
  Sm  Sm0  1  0.251140  0.251395  0.252411  1
  Sm  Sm1  1  0.747674  0.747450  0.747601  1
  Sm  Sm2  1  0.748860  0.748605  0.252411  1
  Sm  Sm3  1  0.747674  0.252550  0.747601  1
  Sm  Sm4  1  0.252326  0.252550  0.747601  1
  Sm  Sm5  1  0.251140  0.748605  0.252411  1
  Sm  Sm6  1  0.252326  0.747450  0.747601  1
  Sm  Sm7  1  0.748860  0.251395  0.252411  1
  Bi  Bi8  1  0.000000  0.000000  0.004965  1
  Pd  Pd9  1  0.500000  0.256894  0.499450  1
  Pd  Pd10  1  0.500000  0.743106  0.499450  1
  Pd  Pd11  1  0.500000  0.500000  0.257347  1
  Pd  Pd12  1  0.500000  0.500000  0.742726  1
  Pd  Pd13  1  0.000000  0.000000  0.680530  1
  Pt  Pt14  1  0.271061  0.500000  0.000367  1
  Pt  Pt15  1  0.728939  0.500000  0.000367  1
  Pt  Pt16  1  0.000000  0.269057  0.500377  1
  Pt  Pt17  1  0.500000  0.270681  0.000319  1
  Pt  Pt18  1  0.000000  0.730943  0.500377  1
  Pt  Pt19  1  0.500000  0.729319  0.000319  1
  Pt  Pt20  1  0.500000  0.000000  0.269659  1
  Pt  Pt21  1  0.269532  0.000000  0.500390  1
  Pt  Pt22  1  0.500000  0.000000  0.728267  1
  Pt  Pt23  1  0.730468  0.000000  0.500390  1
  Pt  Pt24  1  0.000000  0.500000  0.269539  1
  Pt  Pt25  1  0.000000  0.500000  0.728547  1
  Pt  Pt26  1  0.255982  0.500000  0.499385  1
  Pt  Pt27  1  0.744018  0.500000  0.499385  1
  Pt  Pt28  1  0.324574  0.000000  0.998275  1
  Pt  Pt29  1  0.675426  0.000000  0.998275  1
  Pt  Pt30  1  0.000000  0.324369  0.998154  1
  Pt  Pt31  1  0.000000  0.675631  0.998154  1
  Pt  Pt32  1  0.000000  0.000000  0.324934  1
