# generated using pymatgen
data_Th3GaGe2Rh3
_symmetry_space_group_name_H-M   'P 1'
_cell_length_a   7.30223500
_cell_length_b   7.31293239
_cell_length_c   4.01524300
_cell_angle_alpha   90.00000000
_cell_angle_beta   90.00000000
_cell_angle_gamma   119.95162712
_symmetry_Int_Tables_number   1
_chemical_formula_structural   Th3GaGe2Rh3
_chemical_formula_sum   'Th3 Ga1 Ge2 Rh3'
_cell_volume   185.78100759
_cell_formula_units_Z   1
loop_
 _symmetry_equiv_pos_site_id
 _symmetry_equiv_pos_as_xyz
  1  'x, y, z'
loop_
 _atom_site_type_symbol
 _atom_site_label
 _atom_site_symmetry_multiplicity
 _atom_site_fract_x
 _atom_site_fract_y
 _atom_site_fract_z
 _atom_site_occupancy
  Th  Th0  1  0.998885  0.412541  0.500000  1
  Th  Th1  1  0.586343  0.587459  0.500000  1
  Th  Th2  1  0.412943  0.000000  0.500000  1
  Ga  Ga3  1  0.754581  0.000000  0.000000  1
  Ge  Ge4  1  0.996138  0.753903  0.000000  1
  Ge  Ge5  1  0.242235  0.246097  0.000000  1
  Rh  Rh6  1  0.333496  0.664255  0.000000  1
  Rh  Rh7  1  0.669242  0.335745  0.000000  1
  Rh  Rh8  1  0.006137  0.000000  0.500000  1
