# generated using pymatgen
data_Ho4Mg4Ir3Pt
_symmetry_space_group_name_H-M   'P 1'
_cell_length_a   4.12103800
_cell_length_b   7.04139131
_cell_length_c   8.54993047
_cell_angle_alpha   89.20021990
_cell_angle_beta   90.00000000
_cell_angle_gamma   90.00000000
_symmetry_Int_Tables_number   1
_chemical_formula_structural   Ho4Mg4Ir3Pt
_chemical_formula_sum   'Ho4 Mg4 Ir3 Pt1'
_cell_volume   248.07635381
_cell_formula_units_Z   1
loop_
 _symmetry_equiv_pos_site_id
 _symmetry_equiv_pos_as_xyz
  1  'x, y, z'
loop_
 _atom_site_type_symbol
 _atom_site_label
 _atom_site_symmetry_multiplicity
 _atom_site_fract_x
 _atom_site_fract_y
 _atom_site_fract_z
 _atom_site_occupancy
  Ho  Ho0  1  0.250000  0.033213  0.669270  1
  Ho  Ho1  1  0.250000  0.546685  0.823102  1
  Ho  Ho2  1  0.750000  0.961233  0.324991  1
  Ho  Ho3  1  0.750000  0.465235  0.180388  1
  Mg  Mg4  1  0.250000  0.136497  0.063050  1
  Mg  Mg5  1  0.250000  0.636525  0.439148  1
  Mg  Mg6  1  0.750000  0.862330  0.939365  1
  Mg  Mg7  1  0.750000  0.362738  0.559906  1
  Ir  Ir8  1  0.250000  0.249533  0.372182  1
  Ir  Ir9  1  0.250000  0.749181  0.125230  1
  Ir  Ir10  1  0.750000  0.748272  0.629216  1
  Pt  Pt11  1  0.750000  0.248558  0.874152  1
