# generated using pymatgen
data_Y2Ho2Ga20Pt11
_symmetry_space_group_name_H-M   'P 1'
_cell_length_a   4.22148616
_cell_length_b   10.89075174
_cell_length_c   13.75479600
_cell_angle_alpha   81.70619144
_cell_angle_beta   81.05799768
_cell_angle_gamma   78.44969789
_symmetry_Int_Tables_number   1
_chemical_formula_structural   Y2Ho2Ga20Pt11
_chemical_formula_sum   'Y2 Ho2 Ga20 Pt11'
_cell_volume   607.84729702
_cell_formula_units_Z   1
loop_
 _symmetry_equiv_pos_site_id
 _symmetry_equiv_pos_as_xyz
  1  'x, y, z'
loop_
 _atom_site_type_symbol
 _atom_site_label
 _atom_site_symmetry_multiplicity
 _atom_site_fract_x
 _atom_site_fract_y
 _atom_site_fract_z
 _atom_site_occupancy
  Y  Y0  1  0.772765  0.629078  0.822192  1
  Y  Y1  1  0.227235  0.370922  0.177808  1
  Ho  Ho2  1  0.124947  0.087962  0.664152  1
  Ho  Ho3  1  0.875053  0.912038  0.335848  1
  Ga  Ga4  1  0.011299  0.068530  0.910186  1
  Ga  Ga5  1  0.988701  0.931470  0.089814  1
  Ga  Ga6  1  0.064019  0.677848  0.193632  1
  Ga  Ga7  1  0.935981  0.322152  0.806368  1
  Ga  Ga8  1  0.104330  0.341338  0.454435  1
  Ga  Ga9  1  0.895670  0.658662  0.545565  1
  Ga  Ga10  1  0.198493  0.605320  0.993028  1
  Ga  Ga11  1  0.801507  0.394680  0.006972  1
  Ga  Ga12  1  0.257531  0.781252  0.699199  1
  Ga  Ga13  1  0.742469  0.218748  0.300801  1
  Ga  Ga14  1  0.301633  0.899462  0.495437  1
  Ga  Ga15  1  0.698367  0.100538  0.504563  1
  Ga  Ga16  1  0.383692  0.526008  0.699323  1
  Ga  Ga17  1  0.616308  0.473992  0.300677  1
  Ga  Ga18  1  0.395596  0.202719  0.001387  1
  Ga  Ga19  1  0.604404  0.797281  0.998613  1
  Ga  Ga20  1  0.544831  0.282337  0.628929  1
  Ga  Ga21  1  0.455169  0.717663  0.371071  1
  Ga  Ga22  1  0.641258  0.932001  0.791282  1
  Ga  Ga23  1  0.358742  0.067999  0.208718  1
  Pt  Pt24  1  0.500000  0.500000  0.500000  1
  Pt  Pt25  1  0.030038  0.576769  0.369785  1
  Pt  Pt26  1  0.969962  0.423231  0.630215  1
  Pt  Pt27  1  0.144911  0.831932  0.886534  1
  Pt  Pt28  1  0.855089  0.168068  0.113466  1
  Pt  Pt29  1  0.243101  0.126865  0.391942  1
  Pt  Pt30  1  0.756899  0.873135  0.608058  1
  Pt  Pt31  1  0.346406  0.419835  0.890953  1
  Pt  Pt32  1  0.653594  0.580165  0.109047  1
  Pt  Pt33  1  0.507273  0.166801  0.817234  1
  Pt  Pt34  1  0.492727  0.833199  0.182766  1
