# generated using pymatgen
data_Dy9Ho(RuPb3)2
_symmetry_space_group_name_H-M   'P 1'
_cell_length_a   9.33775101
_cell_length_b   9.33710687
_cell_length_c   6.57921600
_cell_angle_alpha   90.00000000
_cell_angle_beta   90.00000000
_cell_angle_gamma   119.99771435
_symmetry_Int_Tables_number   1
_chemical_formula_structural   Dy9Ho(RuPb3)2
_chemical_formula_sum   'Dy9 Ho1 Ru2 Pb6'
_cell_volume   496.78605618
_cell_formula_units_Z   1
loop_
 _symmetry_equiv_pos_site_id
 _symmetry_equiv_pos_as_xyz
  1  'x, y, z'
loop_
 _atom_site_type_symbol
 _atom_site_label
 _atom_site_symmetry_multiplicity
 _atom_site_fract_x
 _atom_site_fract_y
 _atom_site_fract_z
 _atom_site_occupancy
  Dy  Dy0  1  0.000000  0.763271  0.750000  1
  Dy  Dy1  1  0.333290  0.666594  0.499817  1
  Dy  Dy2  1  0.763393  0.763421  0.250000  1
  Dy  Dy3  1  0.763313  0.000047  0.750000  1
  Dy  Dy4  1  0.236607  0.000029  0.250000  1
  Dy  Dy5  1  0.666710  0.333302  0.499817  1
  Dy  Dy6  1  0.236687  0.236733  0.750000  1
  Dy  Dy7  1  0.333290  0.666594  0.000183  1
  Dy  Dy8  1  0.666710  0.333302  0.000183  1
  Ho  Ho9  1  0.000000  0.236360  0.250000  1
  Ru  Ru10  1  0.000000  0.000251  0.000288  1
  Ru  Ru11  1  0.000000  0.000251  0.499712  1
  Pb  Pb12  1  0.402268  0.402426  0.250000  1
  Pb  Pb13  1  0.597540  0.597568  0.750000  1
  Pb  Pb14  1  0.597732  0.000158  0.250000  1
  Pb  Pb15  1  0.402460  0.000029  0.750000  1
  Pb  Pb16  1  0.000000  0.597236  0.250000  1
  Pb  Pb17  1  0.000000  0.402428  0.750000  1
