# generated using pymatgen
data_CaAc3(SbPd)4
_symmetry_space_group_name_H-M   'P 1'
_cell_length_a   4.66577500
_cell_length_b   8.66300391
_cell_length_c   8.05926765
_cell_angle_alpha   90.08401134
_cell_angle_beta   90.00000000
_cell_angle_gamma   90.00000000
_symmetry_Int_Tables_number   1
_chemical_formula_structural   CaAc3(SbPd)4
_chemical_formula_sum   'Ca1 Ac3 Sb4 Pd4'
_cell_volume   325.75224271
_cell_formula_units_Z   1
loop_
 _symmetry_equiv_pos_site_id
 _symmetry_equiv_pos_as_xyz
  1  'x, y, z'
loop_
 _atom_site_type_symbol
 _atom_site_label
 _atom_site_symmetry_multiplicity
 _atom_site_fract_x
 _atom_site_fract_y
 _atom_site_fract_z
 _atom_site_occupancy
  Ca  Ca0  1  0.250000  0.995784  0.251763  1
  Ac  Ac1  1  0.250000  0.497975  0.248823  1
  Ac  Ac2  1  0.750000  0.500065  0.751955  1
  Ac  Ac3  1  0.750000  0.997820  0.746669  1
  Sb  Sb4  1  0.250000  0.746436  0.919825  1
  Sb  Sb5  1  0.750000  0.234159  0.086660  1
  Sb  Sb6  1  0.750000  0.747999  0.413447  1
  Sb  Sb7  1  0.250000  0.245724  0.579918  1
  Pd  Pd8  1  0.250000  0.761541  0.584166  1
  Pd  Pd9  1  0.750000  0.252196  0.417883  1
  Pd  Pd10  1  0.750000  0.763601  0.081733  1
  Pd  Pd11  1  0.250000  0.256699  0.917158  1
