# generated using pymatgen
data_Sm3Ho7In8(PdRh)2
_symmetry_space_group_name_H-M   'P 1'
_cell_length_a   3.64329500
_cell_length_b   8.12869483
_cell_length_c   18.33644008
_cell_angle_alpha   89.86615047
_cell_angle_beta   90.00000000
_cell_angle_gamma   90.00000000
_symmetry_Int_Tables_number   1
_chemical_formula_structural   Sm3Ho7In8(PdRh)2
_chemical_formula_sum   'Sm3 Ho7 In8 Pd2 Rh2'
_cell_volume   543.03646806
_cell_formula_units_Z   1
loop_
 _symmetry_equiv_pos_site_id
 _symmetry_equiv_pos_as_xyz
  1  'x, y, z'
loop_
 _atom_site_type_symbol
 _atom_site_label
 _atom_site_symmetry_multiplicity
 _atom_site_fract_x
 _atom_site_fract_y
 _atom_site_fract_z
 _atom_site_occupancy
  Sm  Sm0  1  0.000000  0.501033  0.499782  1
  Sm  Sm1  1  0.000000  0.999026  0.999377  1
  Sm  Sm2  1  0.000000  0.732989  0.279919  1
  Ho  Ho3  1  0.000000  0.267681  0.721122  1
  Ho  Ho4  1  0.000000  0.745723  0.780735  1
  Ho  Ho5  1  0.000000  0.252103  0.218450  1
  Ho  Ho6  1  0.000000  0.615629  0.087303  1
  Ho  Ho7  1  0.000000  0.382501  0.911634  1
  Ho  Ho8  1  0.000000  0.882327  0.586092  1
  Ho  Ho9  1  0.000000  0.119692  0.415993  1
  In  In10  1  0.500000  0.702793  0.931066  1
  In  In11  1  0.500000  0.295290  0.067516  1
  In  In12  1  0.500000  0.799265  0.434315  1
  In  In13  1  0.500000  0.204362  0.568656  1
  In  In14  1  0.500000  0.576694  0.651046  1
  In  In15  1  0.500000  0.418802  0.348821  1
  In  In16  1  0.500000  0.925179  0.150870  1
  In  In17  1  0.500000  0.076363  0.848046  1
  Pd  Pd18  1  0.500000  0.978019  0.696382  1
  Pd  Pd19  1  0.500000  0.029546  0.304549  1
  Rh  Rh20  1  0.500000  0.517697  0.193614  1
  Rh  Rh21  1  0.500000  0.477285  0.804712  1
