# generated using pymatgen
data_Ba4P4PtRh3
_symmetry_space_group_name_H-M   'P 1'
_cell_length_a   6.56237786
_cell_length_b   6.56237786
_cell_length_c   6.56237786
_cell_angle_alpha   89.79549641
_cell_angle_beta   90.20450359
_cell_angle_gamma   90.20450359
_symmetry_Int_Tables_number   1
_chemical_formula_structural   Ba4P4PtRh3
_chemical_formula_sum   'Ba4 P4 Pt1 Rh3'
_cell_volume   282.60212371
_cell_formula_units_Z   1
loop_
 _symmetry_equiv_pos_site_id
 _symmetry_equiv_pos_as_xyz
  1  'x, y, z'
loop_
 _atom_site_type_symbol
 _atom_site_label
 _atom_site_symmetry_multiplicity
 _atom_site_fract_x
 _atom_site_fract_y
 _atom_site_fract_z
 _atom_site_occupancy
  Ba  Ba0  1  0.627704  0.372296  0.872296  1
  Ba  Ba1  1  0.375378  0.874498  0.627576  1
  Ba  Ba2  1  0.125502  0.127576  0.124622  1
  Ba  Ba3  1  0.872424  0.624622  0.374498  1
  P  P4  1  0.596949  0.912966  0.091942  1
  P  P5  1  0.087034  0.591942  0.903051  1
  P  P6  1  0.907024  0.092976  0.592976  1
  P  P7  1  0.408058  0.403051  0.412966  1
  Pt  Pt8  1  0.347159  0.652841  0.152841  1
  Rh  Rh9  1  0.152745  0.345651  0.654326  1
  Rh  Rh10  1  0.654349  0.154326  0.347255  1
  Rh  Rh11  1  0.845674  0.847255  0.845651  1
