# generated using pymatgen
data_CeThCuSb4
_symmetry_space_group_name_H-M   'P 1'
_cell_length_a   4.41595300
_cell_length_b   4.42733300
_cell_length_c   9.49919800
_cell_angle_alpha   90.00000000
_cell_angle_beta   90.00000000
_cell_angle_gamma   90.00000000
_symmetry_Int_Tables_number   1
_chemical_formula_structural   CeThCuSb4
_chemical_formula_sum   'Ce1 Th1 Cu1 Sb4'
_cell_volume   185.71781739
_cell_formula_units_Z   1
loop_
 _symmetry_equiv_pos_site_id
 _symmetry_equiv_pos_as_xyz
  1  'x, y, z'
loop_
 _atom_site_type_symbol
 _atom_site_label
 _atom_site_symmetry_multiplicity
 _atom_site_fract_x
 _atom_site_fract_y
 _atom_site_fract_z
 _atom_site_occupancy
  Ce  Ce0  1  0.000000  0.500000  0.263860  1
  Th  Th1  1  0.500000  0.000000  0.737545  1
  Cu  Cu2  1  0.500000  0.500000  0.498587  1
  Sb  Sb3  1  0.500000  0.500000  0.001153  1
  Sb  Sb4  1  0.000000  0.000000  0.001070  1
  Sb  Sb5  1  0.500000  0.000000  0.351826  1
  Sb  Sb6  1  0.000000  0.500000  0.645959  1
