# generated using pymatgen
data_Pr2Mn2MoRhO10
_symmetry_space_group_name_H-M   'P 1'
_cell_length_a   5.81371000
_cell_length_b   7.91416500
_cell_length_c   8.94315900
_cell_angle_alpha   90.00000000
_cell_angle_beta   90.00000000
_cell_angle_gamma   90.00000000
_symmetry_Int_Tables_number   1
_chemical_formula_structural   Pr2Mn2MoRhO10
_chemical_formula_sum   'Pr4 Mn4 Mo2 Rh2 O20'
_cell_volume   411.48064988
_cell_formula_units_Z   2
loop_
 _symmetry_equiv_pos_site_id
 _symmetry_equiv_pos_as_xyz
  1  'x, y, z'
loop_
 _atom_site_type_symbol
 _atom_site_label
 _atom_site_symmetry_multiplicity
 _atom_site_fract_x
 _atom_site_fract_y
 _atom_site_fract_z
 _atom_site_occupancy
  Pr  Pr0  1  0.002595  0.354387  0.671544  1
  Pr  Pr1  1  0.002595  0.645613  0.328456  1
  Pr  Pr2  1  0.997405  0.854387  0.828456  1
  Pr  Pr3  1  0.997405  0.145613  0.171544  1
  Mn  Mn4  1  0.495791  0.081824  0.853379  1
  Mn  Mn5  1  0.495791  0.918176  0.146621  1
  Mn  Mn6  1  0.504209  0.581824  0.646621  1
  Mn  Mn7  1  0.504209  0.418176  0.353379  1
  Mo  Mo8  1  0.285317  0.500000  0.000000  1
  Mo  Mo9  1  0.714683  0.000000  0.500000  1
  Rh  Rh10  1  0.739130  0.500000  0.000000  1
  Rh  Rh11  1  0.260870  0.000000  0.500000  1
  O  O12  1  0.242552  0.904462  0.285698  1
  O  O13  1  0.242552  0.095538  0.714302  1
  O  O14  1  0.757448  0.404462  0.214302  1
  O  O15  1  0.757448  0.595538  0.785698  1
  O  O16  1  0.744729  0.097658  0.709797  1
  O  O17  1  0.744729  0.902342  0.290203  1
  O  O18  1  0.255271  0.597658  0.790203  1
  O  O19  1  0.255271  0.402342  0.209797  1
  O  O20  1  0.493467  0.329537  0.926483  1
  O  O21  1  0.493467  0.670463  0.073517  1
  O  O22  1  0.506533  0.829537  0.573517  1
  O  O23  1  0.506533  0.170463  0.426483  1
  O  O24  1  0.269632  0.000000  0.000000  1
  O  O25  1  0.730368  0.500000  0.500000  1
  O  O26  1  0.726320  0.000000  0.000000  1
  O  O27  1  0.273680  0.500000  0.500000  1
  O  O28  1  0.990924  0.157429  0.446506  1
  O  O29  1  0.990924  0.842571  0.553494  1
  O  O30  1  0.009076  0.657429  0.053494  1
  O  O31  1  0.009076  0.342571  0.946506  1
