# generated using pymatgen
data_Dy2Ho4Al16Os7
_symmetry_space_group_name_H-M   'P 1'
_cell_length_a   8.94965065
_cell_length_b   8.94421198
_cell_length_c   8.94421065
_cell_angle_alpha   60.04023330
_cell_angle_beta   59.97988551
_cell_angle_gamma   59.97988140
_symmetry_Int_Tables_number   1
_chemical_formula_structural   Dy2Ho4Al16Os7
_chemical_formula_sum   'Dy2 Ho4 Al16 Os7'
_cell_volume   506.26145960
_cell_formula_units_Z   1
loop_
 _symmetry_equiv_pos_site_id
 _symmetry_equiv_pos_as_xyz
  1  'x, y, z'
loop_
 _atom_site_type_symbol
 _atom_site_label
 _atom_site_symmetry_multiplicity
 _atom_site_fract_x
 _atom_site_fract_y
 _atom_site_fract_z
 _atom_site_occupancy
  Dy  Dy0  1  0.211575  0.788425  0.788425  1
  Dy  Dy1  1  0.788425  0.211575  0.211575  1
  Ho  Ho2  1  0.788085  0.211915  0.788085  1
  Ho  Ho3  1  0.788085  0.788085  0.211915  1
  Ho  Ho4  1  0.211915  0.788085  0.211915  1
  Ho  Ho5  1  0.211915  0.211915  0.788085  1
  Al  Al6  1  0.832295  0.832434  0.832434  1
  Al  Al7  1  0.832434  0.832295  0.502837  1
  Al  Al8  1  0.502837  0.832434  0.832434  1
  Al  Al9  1  0.832434  0.502837  0.832295  1
  Al  Al10  1  0.167705  0.167566  0.167566  1
  Al  Al11  1  0.167566  0.167705  0.497163  1
  Al  Al12  1  0.167566  0.497163  0.167705  1
  Al  Al13  1  0.497163  0.167566  0.167566  1
  Al  Al14  1  0.620933  0.620755  0.620755  1
  Al  Al15  1  0.620755  0.620933  0.137558  1
  Al  Al16  1  0.137558  0.620755  0.620755  1
  Al  Al17  1  0.620755  0.137558  0.620933  1
  Al  Al18  1  0.379067  0.379245  0.379245  1
  Al  Al19  1  0.379245  0.379067  0.862442  1
  Al  Al20  1  0.379245  0.862442  0.379067  1
  Al  Al21  1  0.862442  0.379245  0.379245  1
  Os  Os22  1  0.500000  0.500000  0.500000  1
  Os  Os23  1  0.000000  0.500000  0.500000  1
  Os  Os24  1  0.500000  0.000000  0.000000  1
  Os  Os25  1  0.500000  0.000000  0.500000  1
  Os  Os26  1  0.500000  0.500000  0.000000  1
  Os  Os27  1  0.000000  0.500000  0.000000  1
  Os  Os28  1  0.000000  0.000000  0.500000  1
