# generated using pymatgen
data_Y2Sc4(WO6)3
_symmetry_space_group_name_H-M   'P 1'
_cell_length_a   8.94722928
_cell_length_b   8.94204067
_cell_length_c   4.98811155
_cell_angle_alpha   90.00000062
_cell_angle_beta   89.95261552
_cell_angle_gamma   119.98082920
_symmetry_Int_Tables_number   1
_chemical_formula_structural   Y2Sc4(WO6)3
_chemical_formula_sum   'Y2 Sc4 W3 O18'
_cell_volume   345.68112173
_cell_formula_units_Z   1
loop_
 _symmetry_equiv_pos_site_id
 _symmetry_equiv_pos_as_xyz
  1  'x, y, z'
loop_
 _atom_site_type_symbol
 _atom_site_label
 _atom_site_symmetry_multiplicity
 _atom_site_fract_x
 _atom_site_fract_y
 _atom_site_fract_z
 _atom_site_occupancy
  Y  Y0  1  0.626544  0.999232  0.999611  1
  Y  Y1  1  0.373457  0.372689  0.000389  1
  Sc  Sc2  1  0.000000  0.633260  0.000000  1
  Sc  Sc3  1  0.294682  0.000480  0.500114  1
  Sc  Sc4  1  0.000000  0.294932  0.500001  1
  Sc  Sc5  1  0.705318  0.705798  0.499888  1
  W  W6  1  0.000000  0.995604  0.000000  1
  W  W7  1  0.672082  0.338149  0.500826  1
  W  W8  1  0.327919  0.666067  0.499173  1
  O  O9  1  0.888175  0.090425  0.224436  1
  O  O10  1  0.206245  0.110496  0.220928  1
  O  O11  1  0.906524  0.785282  0.215772  1
  O  O12  1  0.225426  0.454752  0.287787  1
  O  O13  1  0.222189  0.766521  0.271325  1
  O  O14  1  0.539884  0.768827  0.281102  1
  O  O15  1  0.539415  0.131804  0.283759  1
  O  O16  1  0.876135  0.420629  0.273361  1
  O  O17  1  0.590856  0.465584  0.292159  1
  O  O18  1  0.123865  0.544494  0.726638  1
  O  O19  1  0.460585  0.592389  0.716240  1
  O  O20  1  0.409144  0.874728  0.707840  1
  O  O21  1  0.774575  0.229327  0.712212  1
  O  O22  1  0.460115  0.228942  0.718897  1
  O  O23  1  0.777811  0.544333  0.728674  1
  O  O24  1  0.111824  0.202251  0.775564  1
  O  O25  1  0.093477  0.878759  0.784228  1
  O  O26  1  0.793755  0.904252  0.779072  1
