# generated using pymatgen
data_CaYBe2(Os2C)2
_symmetry_space_group_name_H-M   'P 1'
_cell_length_a   5.60245868
_cell_length_b   5.60245770
_cell_length_c   7.07425800
_cell_angle_alpha   90.00000000
_cell_angle_beta   90.00000000
_cell_angle_gamma   139.50152273
_symmetry_Int_Tables_number   1
_chemical_formula_structural   CaYBe2(Os2C)2
_chemical_formula_sum   'Ca1 Y1 Be2 Os4 C2'
_cell_volume   144.20125671
_cell_formula_units_Z   1
loop_
 _symmetry_equiv_pos_site_id
 _symmetry_equiv_pos_as_xyz
  1  'x, y, z'
loop_
 _atom_site_type_symbol
 _atom_site_label
 _atom_site_symmetry_multiplicity
 _atom_site_fract_x
 _atom_site_fract_y
 _atom_site_fract_z
 _atom_site_occupancy
  Ca  Ca0  1  0.542307  0.457693  0.250000  1
  Y  Y1  1  0.457948  0.542052  0.750000  1
  Be  Be2  1  0.269605  0.730395  0.250000  1
  Be  Be3  1  0.729793  0.270207  0.750000  1
  Os  Os4  1  0.823379  0.176621  0.059133  1
  Os  Os5  1  0.176730  0.823270  0.940569  1
  Os  Os6  1  0.176730  0.823270  0.559431  1
  Os  Os7  1  0.823379  0.176621  0.440867  1
  C  C8  1  0.000064  0.999936  0.998021  1
  C  C9  1  0.000064  0.999936  0.501979  1
