# generated using pymatgen
data_ErU3(Ir2Pb)2
_symmetry_space_group_name_H-M   'P 1'
_cell_length_a   7.80785221
_cell_length_b   7.80785176
_cell_length_c   3.49976400
_cell_angle_alpha   90.00000000
_cell_angle_beta   90.00000000
_cell_angle_gamma   88.81086372
_symmetry_Int_Tables_number   1
_chemical_formula_structural   ErU3(Ir2Pb)2
_chemical_formula_sum   'Er1 U3 Ir4 Pb2'
_cell_volume   213.30859803
_cell_formula_units_Z   1
loop_
 _symmetry_equiv_pos_site_id
 _symmetry_equiv_pos_as_xyz
  1  'x, y, z'
loop_
 _atom_site_type_symbol
 _atom_site_label
 _atom_site_symmetry_multiplicity
 _atom_site_fract_x
 _atom_site_fract_y
 _atom_site_fract_z
 _atom_site_occupancy
  Er  Er0  1  0.667859  0.167859  0.500000  1
  U  U1  1  0.334186  0.834186  0.500000  1
  U  U2  1  0.167873  0.329540  0.500000  1
  U  U3  1  0.829540  0.667873  0.500000  1
  Ir  Ir4  1  0.142101  0.642101  0.000000  1
  Ir  Ir5  1  0.888351  0.388351  0.000000  1
  Ir  Ir6  1  0.623634  0.853979  0.000000  1
  Ir  Ir7  1  0.353979  0.123634  0.000000  1
  Pb  Pb8  1  0.503613  0.488863  0.000000  1
  Pb  Pb9  1  0.988863  0.003613  0.000000  1
