# generated using pymatgen
data_DyTm2LuSb10
_symmetry_space_group_name_H-M   'P 1'
_cell_length_a   4.20358400
_cell_length_b   13.14769458
_cell_length_c   14.53015231
_cell_angle_alpha   78.50415801
_cell_angle_beta   90.00000000
_cell_angle_gamma   90.00000000
_symmetry_Int_Tables_number   1
_chemical_formula_structural   DyTm2LuSb10
_chemical_formula_sum   'Dy2 Tm4 Lu2 Sb20'
_cell_volume   786.93456528
_cell_formula_units_Z   2
loop_
 _symmetry_equiv_pos_site_id
 _symmetry_equiv_pos_as_xyz
  1  'x, y, z'
loop_
 _atom_site_type_symbol
 _atom_site_label
 _atom_site_symmetry_multiplicity
 _atom_site_fract_x
 _atom_site_fract_y
 _atom_site_fract_z
 _atom_site_occupancy
  Dy  Dy0  1  0.250000  0.953732  0.358885  1
  Dy  Dy1  1  0.750000  0.046268  0.641115  1
  Tm  Tm2  1  0.250000  0.661384  0.856185  1
  Tm  Tm3  1  0.750000  0.338616  0.143815  1
  Tm  Tm4  1  0.250000  0.668215  0.576280  1
  Tm  Tm5  1  0.750000  0.331785  0.423720  1
  Lu  Lu6  1  0.250000  0.395616  0.770590  1
  Lu  Lu7  1  0.750000  0.604384  0.229410  1
  Sb  Sb8  1  0.250000  0.145024  0.778539  1
  Sb  Sb9  1  0.750000  0.854976  0.221461  1
  Sb  Sb10  1  0.250000  0.145585  0.482436  1
  Sb  Sb11  1  0.750000  0.854415  0.517564  1
  Sb  Sb12  1  0.250000  0.153990  0.170131  1
  Sb  Sb13  1  0.750000  0.846010  0.829869  1
  Sb  Sb14  1  0.250000  0.420772  0.975155  1
  Sb  Sb15  1  0.750000  0.579228  0.024845  1
  Sb  Sb16  1  0.750000  0.028776  0.910473  1
  Sb  Sb17  1  0.250000  0.971224  0.089527  1
  Sb  Sb18  1  0.750000  0.140906  0.321976  1
  Sb  Sb19  1  0.250000  0.859094  0.678024  1
  Sb  Sb20  1  0.750000  0.279340  0.936521  1
  Sb  Sb21  1  0.250000  0.720660  0.063479  1
  Sb  Sb22  1  0.750000  0.285931  0.653138  1
  Sb  Sb23  1  0.250000  0.714069  0.346862  1
  Sb  Sb24  1  0.750000  0.575977  0.734469  1
  Sb  Sb25  1  0.250000  0.424023  0.265531  1
  Sb  Sb26  1  0.750000  0.571587  0.446889  1
  Sb  Sb27  1  0.250000  0.428413  0.553111  1
