# generated using pymatgen
data_Er7Sc(Ga3Pt)4
_symmetry_space_group_name_H-M   'P 1'
_cell_length_a   8.80863900
_cell_length_b   8.82281805
_cell_length_c   7.05250200
_cell_angle_alpha   90.00000000
_cell_angle_beta   90.00000000
_cell_angle_gamma   120.05339726
_symmetry_Int_Tables_number   1
_chemical_formula_structural   Er7Sc(Ga3Pt)4
_chemical_formula_sum   'Er7 Sc1 Ga12 Pt4'
_cell_volume   474.41242401
_cell_formula_units_Z   1
loop_
 _symmetry_equiv_pos_site_id
 _symmetry_equiv_pos_as_xyz
  1  'x, y, z'
loop_
 _atom_site_type_symbol
 _atom_site_label
 _atom_site_symmetry_multiplicity
 _atom_site_fract_x
 _atom_site_fract_y
 _atom_site_fract_z
 _atom_site_occupancy
  Er  Er0  1  0.000086  0.000076  0.250000  1
  Er  Er1  1  0.000293  0.000143  0.750000  1
  Er  Er2  1  0.519805  0.039522  0.250000  1
  Er  Er3  1  0.519803  0.480349  0.250000  1
  Er  Er4  1  0.961739  0.480893  0.250000  1
  Er  Er5  1  0.479550  0.959776  0.750000  1
  Er  Er6  1  0.479612  0.519666  0.750000  1
  Sc  Sc7  1  0.038687  0.519315  0.750000  1
  Ga  Ga8  1  0.166200  0.333798  0.044419  1
  Ga  Ga9  1  0.166265  0.832376  0.455605  1
  Ga  Ga10  1  0.665374  0.832708  0.453793  1
  Ga  Ga11  1  0.665374  0.832708  0.046207  1
  Ga  Ga12  1  0.166265  0.832376  0.044395  1
  Ga  Ga13  1  0.834679  0.665601  0.951829  1
  Ga  Ga14  1  0.834613  0.169129  0.951806  1
  Ga  Ga15  1  0.334300  0.167129  0.953986  1
  Ga  Ga16  1  0.166200  0.333798  0.455581  1
  Ga  Ga17  1  0.334300  0.167129  0.546014  1
  Ga  Ga18  1  0.834679  0.665601  0.548171  1
  Ga  Ga19  1  0.834613  0.169129  0.548194  1
  Pt  Pt20  1  0.330721  0.665317  0.025990  1
  Pt  Pt21  1  0.330721  0.665317  0.474010  1
  Pt  Pt22  1  0.668059  0.334073  0.968926  1
  Pt  Pt23  1  0.668059  0.334073  0.531074  1
