# generated using pymatgen
data_Lu5CoRu
_symmetry_space_group_name_H-M   'P 1'
_cell_length_a   6.14479941
_cell_length_b   7.05022665
_cell_length_c   8.27255553
_cell_angle_alpha   96.79891398
_cell_angle_beta   112.35962158
_cell_angle_gamma   89.62284665
_symmetry_Int_Tables_number   1
_chemical_formula_structural   Lu5CoRu
_chemical_formula_sum   'Lu10 Co2 Ru2'
_cell_volume   328.82066290
_cell_formula_units_Z   2
loop_
 _symmetry_equiv_pos_site_id
 _symmetry_equiv_pos_as_xyz
  1  'x, y, z'
loop_
 _atom_site_type_symbol
 _atom_site_label
 _atom_site_symmetry_multiplicity
 _atom_site_fract_x
 _atom_site_fract_y
 _atom_site_fract_z
 _atom_site_occupancy
  Lu  Lu0  1  0.525500  0.088681  0.815798  1
  Lu  Lu1  1  0.474500  0.911319  0.184202  1
  Lu  Lu2  1  0.699592  0.417664  0.188319  1
  Lu  Lu3  1  0.300408  0.582336  0.811681  1
  Lu  Lu4  1  0.289587  0.320370  0.433257  1
  Lu  Lu5  1  0.710413  0.679630  0.566743  1
  Lu  Lu6  1  0.856657  0.186602  0.564438  1
  Lu  Lu7  1  0.143343  0.813398  0.435562  1
  Lu  Lu8  1  0.078618  0.258768  0.000180  1
  Lu  Lu9  1  0.921382  0.741232  0.999820  1
  Co  Co10  1  0.326274  0.577622  0.226233  1
  Co  Co11  1  0.673726  0.422378  0.773767  1
  Ru  Ru12  1  0.104252  0.924551  0.783723  1
  Ru  Ru13  1  0.895748  0.075449  0.216277  1
