# generated using pymatgen
data_RbZnSiAs2
_symmetry_space_group_name_H-M   'P 1'
_cell_length_a   8.41661232
_cell_length_b   8.26554299
_cell_length_c   8.46337912
_cell_angle_alpha   71.37334646
_cell_angle_beta   75.84395494
_cell_angle_gamma   73.35330105
_symmetry_Int_Tables_number   1
_chemical_formula_structural   RbZnSiAs2
_chemical_formula_sum   'Rb4 Zn4 Si4 As8'
_cell_volume   526.90376820
_cell_formula_units_Z   4
loop_
 _symmetry_equiv_pos_site_id
 _symmetry_equiv_pos_as_xyz
  1  'x, y, z'
loop_
 _atom_site_type_symbol
 _atom_site_label
 _atom_site_symmetry_multiplicity
 _atom_site_fract_x
 _atom_site_fract_y
 _atom_site_fract_z
 _atom_site_occupancy
  Rb  Rb0  1  0.453283  0.768467  0.319254  1
  Rb  Rb1  1  0.546717  0.231533  0.680746  1
  Rb  Rb2  1  0.439588  0.801828  0.814231  1
  Rb  Rb3  1  0.560412  0.198172  0.185769  1
  Zn  Zn4  1  0.996130  0.894395  0.685763  1
  Zn  Zn5  1  0.003870  0.105605  0.314237  1
  Zn  Zn6  1  0.964375  0.813508  0.173497  1
  Zn  Zn7  1  0.035625  0.186492  0.826503  1
  Si  Si8  1  0.961559  0.587605  0.594971  1
  Si  Si9  1  0.038441  0.412395  0.405029  1
  Si  Si10  1  0.144224  0.448463  0.977756  1
  Si  Si11  1  0.855776  0.551537  0.022244  1
  As  As12  1  0.821485  0.877069  0.454962  1
  As  As13  1  0.178515  0.122931  0.545038  1
  As  As14  1  0.790723  0.401969  0.315521  1
  As  As15  1  0.209277  0.598031  0.684479  1
  As  As16  1  0.787194  0.866552  0.957575  1
  As  As17  1  0.212806  0.133448  0.042425  1
  As  As18  1  0.778859  0.441064  0.826443  1
  As  As19  1  0.221141  0.558936  0.173557  1
