# generated using pymatgen
data_Ni9Sn8Ir3
_symmetry_space_group_name_H-M   'P 1'
_cell_length_a   5.34044841
_cell_length_b   7.23927444
_cell_length_c   8.30869332
_cell_angle_alpha   90.12725953
_cell_angle_beta   90.23202214
_cell_angle_gamma   90.08589085
_symmetry_Int_Tables_number   1
_chemical_formula_structural   Ni9Sn8Ir3
_chemical_formula_sum   'Ni9 Sn8 Ir3'
_cell_volume   321.21836573
_cell_formula_units_Z   1
loop_
 _symmetry_equiv_pos_site_id
 _symmetry_equiv_pos_as_xyz
  1  'x, y, z'
loop_
 _atom_site_type_symbol
 _atom_site_label
 _atom_site_symmetry_multiplicity
 _atom_site_fract_x
 _atom_site_fract_y
 _atom_site_fract_z
 _atom_site_occupancy
  Ni  Ni0  1  0.253454  0.907518  0.369756  1
  Ni  Ni1  1  0.756066  0.089097  0.627058  1
  Ni  Ni2  1  0.993237  0.265228  0.877188  1
  Ni  Ni3  1  0.505890  0.766395  0.623066  1
  Ni  Ni4  1  0.003778  0.232878  0.375239  1
  Ni  Ni5  1  0.493382  0.733978  0.124900  1
  Ni  Ni6  1  0.237588  0.410622  0.126187  1
  Ni  Ni7  1  0.004592  0.739757  0.122940  1
  Ni  Ni8  1  0.747861  0.593800  0.875786  1
  Sn  Sn9  1  0.250826  0.563174  0.398854  1
  Sn  Sn10  1  0.246057  0.096637  0.640343  1
  Sn  Sn11  1  0.749750  0.900277  0.355102  1
  Sn  Sn12  1  0.753661  0.409802  0.142172  1
  Sn  Sn13  1  0.254368  0.599453  0.862374  1
  Sn  Sn14  1  0.247621  0.059831  0.097807  1
  Sn  Sn15  1  0.748244  0.435514  0.601481  1
  Sn  Sn16  1  0.756161  0.936764  0.904330  1
  Ir  Ir17  1  0.496662  0.238758  0.374717  1
  Ir  Ir18  1  0.997786  0.758831  0.622712  1
  Ir  Ir19  1  0.503015  0.261685  0.877987  1
