# generated using pymatgen
data_Np(O2F3)2
_symmetry_space_group_name_H-M   'P 1'
_cell_length_a   6.66615655
_cell_length_b   6.68422832
_cell_length_c   6.68154900
_cell_angle_alpha   119.96053366
_cell_angle_beta   119.59937913
_cell_angle_gamma   90.45147565
_symmetry_Int_Tables_number   1
_chemical_formula_structural   Np(O2F3)2
_chemical_formula_sum   'Np1 O4 F6'
_cell_volume   211.08078355
_cell_formula_units_Z   1
loop_
 _symmetry_equiv_pos_site_id
 _symmetry_equiv_pos_as_xyz
  1  'x, y, z'
loop_
 _atom_site_type_symbol
 _atom_site_label
 _atom_site_symmetry_multiplicity
 _atom_site_fract_x
 _atom_site_fract_y
 _atom_site_fract_z
 _atom_site_occupancy
  Np  Np0  1  0.007690  0.007642  0.000020  1
  O  O1  1  0.278776  0.687165  0.407480  1
  O  O2  1  0.278767  0.871252  0.591551  1
  O  O3  1  0.688232  0.279573  0.408741  1
  O  O4  1  0.871354  0.279291  0.592112  1
  F  F5  1  0.220895  0.220543  0.000333  1
  F  F6  1  0.219424  0.220139  0.424059  1
  F  F7  1  0.219396  0.795409  0.999262  1
  F  F8  1  0.793266  0.793779  0.999606  1
  F  F9  1  0.795699  0.794839  0.575999  1
  F  F10  1  0.795703  0.219568  0.000836  1
