# generated using pymatgen
data_HoLu2Ga5Ni
_symmetry_space_group_name_H-M   'P 1'
_cell_length_a   6.78295300
_cell_length_b   6.82872729
_cell_length_c   4.19221500
_cell_angle_alpha   90.00000000
_cell_angle_beta   90.00000000
_cell_angle_gamma   119.77851157
_symmetry_Int_Tables_number   1
_chemical_formula_structural   HoLu2Ga5Ni
_chemical_formula_sum   'Ho1 Lu2 Ga5 Ni1'
_cell_volume   168.53795588
_cell_formula_units_Z   1
loop_
 _symmetry_equiv_pos_site_id
 _symmetry_equiv_pos_as_xyz
  1  'x, y, z'
loop_
 _atom_site_type_symbol
 _atom_site_label
 _atom_site_symmetry_multiplicity
 _atom_site_fract_x
 _atom_site_fract_y
 _atom_site_fract_z
 _atom_site_occupancy
  Ho  Ho0  1  0.591313  0.000000  0.500000  1
  Lu  Lu1  1  0.404700  0.405609  0.500000  1
  Lu  Lu2  1  0.999091  0.594391  0.500000  1
  Ga  Ga3  1  0.236376  0.000000  0.000000  1
  Ga  Ga4  1  0.000420  0.236409  0.000000  1
  Ga  Ga5  1  0.667876  0.336594  0.000000  1
  Ga  Ga6  1  0.331281  0.663406  0.000000  1
  Ga  Ga7  1  0.764012  0.763591  0.000000  1
  Ni  Ni8  1  0.004932  0.000000  0.500000  1
