# generated using pymatgen
data_Eu3AlHg2Pt3
_symmetry_space_group_name_H-M   'P 1'
_cell_length_a   7.68235595
_cell_length_b   7.48792919
_cell_length_c   4.13380701
_cell_angle_alpha   90.00612891
_cell_angle_beta   89.99923283
_cell_angle_gamma   119.17367657
_symmetry_Int_Tables_number   1
_chemical_formula_structural   Eu3AlHg2Pt3
_chemical_formula_sum   'Eu3 Al1 Hg2 Pt3'
_cell_volume   207.63151789
_cell_formula_units_Z   1
loop_
 _symmetry_equiv_pos_site_id
 _symmetry_equiv_pos_as_xyz
  1  'x, y, z'
loop_
 _atom_site_type_symbol
 _atom_site_label
 _atom_site_symmetry_multiplicity
 _atom_site_fract_x
 _atom_site_fract_y
 _atom_site_fract_z
 _atom_site_occupancy
  Eu  Eu0  1  0.412549  0.405067  0.499964  1
  Eu  Eu1  1  0.587553  0.992693  0.499947  1
  Eu  Eu2  1  0.999531  0.596628  0.500103  1
  Al  Al3  1  0.000441  0.252454  0.000027  1
  Hg  Hg4  1  0.745780  0.745817  0.000371  1
  Hg  Hg5  1  0.254186  0.000936  0.999565  1
  Pt  Pt6  1  0.698767  0.325936  0.000000  1
  Pt  Pt7  1  0.301603  0.628561  0.000043  1
  Pt  Pt8  1  0.999591  0.051910  0.499980  1
