# generated using pymatgen
data_MgZr3Fe8
_symmetry_space_group_name_H-M   'P 1'
_cell_length_a   8.58665797
_cell_length_b   8.58665813
_cell_length_c   8.58665780
_cell_angle_alpha   33.49855405
_cell_angle_beta   33.49855484
_cell_angle_gamma   33.49856107
_symmetry_Int_Tables_number   1
_chemical_formula_structural   MgZr3Fe8
_chemical_formula_sum   'Mg1 Zr3 Fe8'
_cell_volume   171.75897153
_cell_formula_units_Z   1
loop_
 _symmetry_equiv_pos_site_id
 _symmetry_equiv_pos_as_xyz
  1  'x, y, z'
loop_
 _atom_site_type_symbol
 _atom_site_label
 _atom_site_symmetry_multiplicity
 _atom_site_fract_x
 _atom_site_fract_y
 _atom_site_fract_z
 _atom_site_occupancy
  Mg  Mg0  1  0.874518  0.874518  0.874518  1
  Zr  Zr1  1  0.375458  0.375458  0.375458  1
  Zr  Zr2  1  0.997342  0.997342  0.997342  1
  Zr  Zr3  1  0.502313  0.502313  0.502313  1
  Fe  Fe4  1  0.436586  0.938662  0.436586  1
  Fe  Fe5  1  0.937398  0.438686  0.937398  1
  Fe  Fe6  1  0.436586  0.436586  0.938662  1
  Fe  Fe7  1  0.937398  0.937398  0.438686  1
  Fe  Fe8  1  0.187533  0.187533  0.187533  1
  Fe  Fe9  1  0.687521  0.687521  0.687521  1
  Fe  Fe10  1  0.938662  0.436586  0.436586  1
  Fe  Fe11  1  0.438686  0.937398  0.937398  1
