# generated using pymatgen
data_Dy3Be2Ir5
_symmetry_space_group_name_H-M   'P 1'
_cell_length_a   9.84130800
_cell_length_b   9.84130800
_cell_length_c   3.38534600
_cell_angle_alpha   90.00000000
_cell_angle_beta   90.00000000
_cell_angle_gamma   90.00000000
_symmetry_Int_Tables_number   1
_chemical_formula_structural   Dy3Be2Ir5
_chemical_formula_sum   'Dy6 Be4 Ir10'
_cell_volume   327.87530713
_cell_formula_units_Z   2
loop_
 _symmetry_equiv_pos_site_id
 _symmetry_equiv_pos_as_xyz
  1  'x, y, z'
loop_
 _atom_site_type_symbol
 _atom_site_label
 _atom_site_symmetry_multiplicity
 _atom_site_fract_x
 _atom_site_fract_y
 _atom_site_fract_z
 _atom_site_occupancy
  Dy  Dy0  1  0.175626  0.675626  0.000000  1
  Dy  Dy1  1  0.324374  0.175626  0.000000  1
  Dy  Dy2  1  0.824374  0.324374  0.000000  1
  Dy  Dy3  1  0.500000  0.500000  0.000000  1
  Dy  Dy4  1  0.675626  0.824374  0.000000  1
  Dy  Dy5  1  0.000000  0.000000  0.000000  1
  Be  Be6  1  0.379471  0.879471  0.000000  1
  Be  Be7  1  0.120529  0.379471  0.000000  1
  Be  Be8  1  0.879471  0.620529  0.000000  1
  Be  Be9  1  0.620529  0.120529  0.000000  1
  Ir  Ir10  1  0.223472  0.929651  0.500000  1
  Ir  Ir11  1  0.929651  0.776528  0.500000  1
  Ir  Ir12  1  0.429651  0.723472  0.500000  1
  Ir  Ir13  1  0.570349  0.276528  0.500000  1
  Ir  Ir14  1  0.723472  0.570349  0.500000  1
  Ir  Ir15  1  0.276528  0.429651  0.500000  1
  Ir  Ir16  1  0.070349  0.223472  0.500000  1
  Ir  Ir17  1  0.000000  0.500000  0.500000  1
  Ir  Ir18  1  0.500000  0.000000  0.500000  1
  Ir  Ir19  1  0.776528  0.070349  0.500000  1
