# generated using pymatgen
data_CaLaAl20(RuRh)2
_symmetry_space_group_name_H-M   'P 1'
_cell_length_a   6.88905941
_cell_length_b   6.89858362
_cell_length_c   9.19536400
_cell_angle_alpha   90.00000000
_cell_angle_beta   90.00000000
_cell_angle_gamma   97.03077806
_symmetry_Int_Tables_number   1
_chemical_formula_structural   CaLaAl20(RuRh)2
_chemical_formula_sum   'Ca1 La1 Al20 Ru2 Rh2'
_cell_volume   433.72133871
_cell_formula_units_Z   1
loop_
 _symmetry_equiv_pos_site_id
 _symmetry_equiv_pos_as_xyz
  1  'x, y, z'
loop_
 _atom_site_type_symbol
 _atom_site_label
 _atom_site_symmetry_multiplicity
 _atom_site_fract_x
 _atom_site_fract_y
 _atom_site_fract_z
 _atom_site_occupancy
  Ca  Ca0  1  0.873715  0.122490  0.750000  1
  La  La1  1  0.124751  0.878891  0.250000  1
  Al  Al2  1  0.620374  0.375968  0.550499  1
  Al  Al3  1  0.381153  0.622455  0.448304  1
  Al  Al4  1  0.381153  0.622455  0.051696  1
  Al  Al5  1  0.620374  0.375968  0.949501  1
  Al  Al6  1  0.226883  0.226250  0.500356  1
  Al  Al7  1  0.771900  0.775733  0.502679  1
  Al  Al8  1  0.771900  0.775733  0.997321  1
  Al  Al9  1  0.226883  0.226250  0.999644  1
  Al  Al10  1  0.839262  0.159107  0.100809  1
  Al  Al11  1  0.160567  0.840506  0.897231  1
  Al  Al12  1  0.160567  0.840506  0.602769  1
  Al  Al13  1  0.839262  0.159107  0.399191  1
  Al  Al14  1  0.857870  0.587849  0.750000  1
  Al  Al15  1  0.140787  0.409030  0.250000  1
  Al  Al16  1  0.412104  0.140217  0.750000  1
  Al  Al17  1  0.591863  0.861231  0.250000  1
  Al  Al18  1  0.223883  0.478318  0.750000  1
  Al  Al19  1  0.774104  0.517795  0.250000  1
  Al  Al20  1  0.521265  0.779908  0.750000  1
  Al  Al21  1  0.482936  0.222686  0.250000  1
  Ru  Ru22  1  0.498630  0.999734  0.999356  1
  Ru  Ru23  1  0.498630  0.999734  0.500644  1
  Rh  Rh24  1  0.999593  0.501041  0.500595  1
  Rh  Rh25  1  0.999593  0.501041  0.999405  1
