# generated using pymatgen
data_Lu4Al4Ir3Au
_symmetry_space_group_name_H-M   'P 1'
_cell_length_a   4.28001100
_cell_length_b   6.74952980
_cell_length_c   7.87863173
_cell_angle_alpha   90.05244080
_cell_angle_beta   90.00000000
_cell_angle_gamma   90.00000000
_symmetry_Int_Tables_number   1
_chemical_formula_structural   Lu4Al4Ir3Au
_chemical_formula_sum   'Lu4 Al4 Ir3 Au1'
_cell_volume   227.59830468
_cell_formula_units_Z   1
loop_
 _symmetry_equiv_pos_site_id
 _symmetry_equiv_pos_as_xyz
  1  'x, y, z'
loop_
 _atom_site_type_symbol
 _atom_site_label
 _atom_site_symmetry_multiplicity
 _atom_site_fract_x
 _atom_site_fract_y
 _atom_site_fract_z
 _atom_site_occupancy
  Lu  Lu0  1  0.250000  0.025183  0.329567  1
  Lu  Lu1  1  0.250000  0.543918  0.180225  1
  Lu  Lu2  1  0.750000  0.968193  0.675748  1
  Lu  Lu3  1  0.750000  0.475235  0.815539  1
  Al  Al4  1  0.250000  0.135035  0.933656  1
  Al  Al5  1  0.250000  0.639733  0.560154  1
  Al  Al6  1  0.750000  0.849341  0.057574  1
  Al  Al7  1  0.750000  0.365250  0.446943  1
  Ir  Ir8  1  0.250000  0.264404  0.623189  1
  Ir  Ir9  1  0.250000  0.761874  0.877338  1
  Ir  Ir10  1  0.750000  0.737206  0.374154  1
  Au  Au11  1  0.750000  0.234629  0.125914  1
