# generated using pymatgen
data_NaAlZnF6
_symmetry_space_group_name_H-M   'P 1'
_cell_length_a   8.79213800
_cell_length_b   8.79213862
_cell_length_c   4.97225700
_cell_angle_alpha   90.00000000
_cell_angle_beta   90.00000000
_cell_angle_gamma   120.00000519
_symmetry_Int_Tables_number   1
_chemical_formula_structural   NaAlZnF6
_chemical_formula_sum   'Na3 Al3 Zn3 F18'
_cell_volume   332.86888372
_cell_formula_units_Z   3
loop_
 _symmetry_equiv_pos_site_id
 _symmetry_equiv_pos_as_xyz
  1  'x, y, z'
loop_
 _atom_site_type_symbol
 _atom_site_label
 _atom_site_symmetry_multiplicity
 _atom_site_fract_x
 _atom_site_fract_y
 _atom_site_fract_z
 _atom_site_occupancy
  Na  Na0  1  0.372193  0.000000  0.000000  1
  Na  Na1  1  0.000000  0.372193  0.000000  1
  Na  Na2  1  0.627807  0.627807  0.000000  1
  Al  Al3  1  0.333333  0.666667  0.494315  1
  Al  Al4  1  0.666667  0.333333  0.505685  1
  Al  Al5  1  0.000000  0.000000  0.000000  1
  Zn  Zn6  1  0.700575  0.000000  0.500000  1
  Zn  Zn7  1  0.299425  0.299425  0.500000  1
  Zn  Zn8  1  0.000000  0.700575  0.500000  1
  F  F9  1  0.768503  0.233691  0.299075  1
  F  F10  1  0.766309  0.534812  0.299075  1
  F  F11  1  0.465188  0.231497  0.299075  1
  F  F12  1  0.534812  0.766309  0.700925  1
  F  F13  1  0.231497  0.465188  0.700925  1
  F  F14  1  0.233691  0.768503  0.700925  1
  F  F15  1  0.402956  0.539726  0.289086  1
  F  F16  1  0.460274  0.863231  0.289086  1
  F  F17  1  0.136769  0.597044  0.289086  1
  F  F18  1  0.898505  0.094078  0.782797  1
  F  F19  1  0.905922  0.804428  0.782797  1
  F  F20  1  0.195572  0.101495  0.782797  1
  F  F21  1  0.804428  0.905922  0.217203  1
  F  F22  1  0.101495  0.195572  0.217203  1
  F  F23  1  0.094078  0.898505  0.217203  1
  F  F24  1  0.539726  0.402956  0.710914  1
  F  F25  1  0.597044  0.136769  0.710914  1
  F  F26  1  0.863231  0.460274  0.710914  1
