# generated using pymatgen
data_Pr12GeB2AsBr12
_symmetry_space_group_name_H-M   'P 1'
_cell_length_a   10.50395718
_cell_length_b   10.50395805
_cell_length_c   10.27993671
_cell_angle_alpha   109.42783508
_cell_angle_beta   109.42783746
_cell_angle_gamma   110.31064848
_symmetry_Int_Tables_number   1
_chemical_formula_structural   Pr12GeB2AsBr12
_chemical_formula_sum   'Pr12 Ge1 B2 As1 Br12'
_cell_volume   864.86447247
_cell_formula_units_Z   1
loop_
 _symmetry_equiv_pos_site_id
 _symmetry_equiv_pos_as_xyz
  1  'x, y, z'
loop_
 _atom_site_type_symbol
 _atom_site_label
 _atom_site_symmetry_multiplicity
 _atom_site_fract_x
 _atom_site_fract_y
 _atom_site_fract_z
 _atom_site_occupancy
  Pr  Pr0  1  0.467351  0.494457  0.222644  1
  Pr  Pr1  1  0.773568  0.245229  0.278152  1
  Pr  Pr2  1  0.770602  0.026879  0.498892  1
  Pr  Pr3  1  0.229132  0.472185  0.498433  1
  Pr  Pr4  1  0.254771  0.726432  0.221848  1
  Pr  Pr5  1  0.027815  0.270868  0.001567  1
  Pr  Pr6  1  0.005543  0.032649  0.277356  1
  Pr  Pr7  1  0.473121  0.729398  0.001108  1
  Pr  Pr8  1  0.491062  0.242920  0.483936  1
  Pr  Pr9  1  0.019637  0.480363  0.750000  1
  Pr  Pr10  1  0.257080  0.008938  0.016064  1
  Pr  Pr11  1  0.230245  0.269755  0.750000  1
  Ge  Ge12  1  0.250025  0.249975  0.250000  1
  B  B13  1  0.998476  0.249031  0.498447  1
  B  B14  1  0.250969  0.501524  0.001553  1
  As  As15  1  0.500187  0.999813  0.250000  1
  Br  Br16  1  0.248480  0.755411  0.742357  1
  Br  Br17  1  0.513283  0.506238  0.758274  1
  Br  Br18  1  0.992869  0.745100  0.995594  1
  Br  Br19  1  0.744589  0.251520  0.757643  1
  Br  Br20  1  0.993762  0.986717  0.741726  1
  Br  Br21  1  0.249944  0.996738  0.504619  1
  Br  Br22  1  0.754900  0.507131  0.504406  1
  Br  Br23  1  0.503262  0.250056  0.995381  1
  Br  Br24  1  0.755174  0.744826  0.250000  1
  Br  Br25  1  0.745764  0.996149  0.992476  1
  Br  Br26  1  0.994540  0.505460  0.250000  1
  Br  Br27  1  0.503851  0.754236  0.507524  1
