# generated using pymatgen
data_Eu2HoAl3Si2Pt
_symmetry_space_group_name_H-M   'P 1'
_cell_length_a   7.03481239
_cell_length_b   7.03481190
_cell_length_c   4.31511300
_cell_angle_alpha   90.00000000
_cell_angle_beta   90.00000000
_cell_angle_gamma   120.12800085
_symmetry_Int_Tables_number   1
_chemical_formula_structural   Eu2HoAl3Si2Pt
_chemical_formula_sum   'Eu2 Ho1 Al3 Si2 Pt1'
_cell_volume   184.69970644
_cell_formula_units_Z   1
loop_
 _symmetry_equiv_pos_site_id
 _symmetry_equiv_pos_as_xyz
  1  'x, y, z'
loop_
 _atom_site_type_symbol
 _atom_site_label
 _atom_site_symmetry_multiplicity
 _atom_site_fract_x
 _atom_site_fract_y
 _atom_site_fract_z
 _atom_site_occupancy
  Eu  Eu0  1  0.424196  0.001563  0.000000  1
  Eu  Eu1  1  0.001563  0.424197  0.000000  1
  Ho  Ho2  1  0.581325  0.581326  0.000000  1
  Al  Al3  1  0.765147  0.996842  0.500001  1
  Al  Al4  1  0.236266  0.236266  0.500001  1
  Al  Al5  1  0.996842  0.765147  0.500001  1
  Si  Si6  1  0.663229  0.341959  0.500001  1
  Si  Si7  1  0.341958  0.663229  0.500001  1
  Pt  Pt8  1  0.989476  0.989476  0.000000  1
