# generated using pymatgen
data_NaSr2B2Pd7
_symmetry_space_group_name_H-M   'P 1'
_cell_length_a   8.33809156
_cell_length_b   8.33809068
_cell_length_c   8.33809100
_cell_angle_alpha   39.13344078
_cell_angle_beta   39.13343732
_cell_angle_gamma   39.13343474
_symmetry_Int_Tables_number   1
_chemical_formula_structural   NaSr2B2Pd7
_chemical_formula_sum   'Na1 Sr2 B2 Pd7'
_cell_volume   207.70976951
_cell_formula_units_Z   1
loop_
 _symmetry_equiv_pos_site_id
 _symmetry_equiv_pos_as_xyz
  1  'x, y, z'
loop_
 _atom_site_type_symbol
 _atom_site_label
 _atom_site_symmetry_multiplicity
 _atom_site_fract_x
 _atom_site_fract_y
 _atom_site_fract_z
 _atom_site_occupancy
  Na  Na0  1  0.000000  0.000000  0.000000  1
  Sr  Sr1  1  0.862250  0.862250  0.862250  1
  Sr  Sr2  1  0.137750  0.137750  0.137750  1
  B  B3  1  0.667944  0.667944  0.667944  1
  B  B4  1  0.332056  0.332056  0.332056  1
  Pd  Pd5  1  0.438152  0.935867  0.438152  1
  Pd  Pd6  1  0.438152  0.438152  0.935867  1
  Pd  Pd7  1  0.935867  0.438152  0.438152  1
  Pd  Pd8  1  0.561848  0.064133  0.561848  1
  Pd  Pd9  1  0.561848  0.561848  0.064133  1
  Pd  Pd10  1  0.064133  0.561848  0.561848  1
  Pd  Pd11  1  0.500000  0.500000  0.500000  1
