# generated using pymatgen
data_Th8Si12Tc3Pd
_symmetry_space_group_name_H-M   'P 1'
_cell_length_a   8.34254400
_cell_length_b   8.34254433
_cell_length_c   8.28251200
_cell_angle_alpha   90.00000000
_cell_angle_beta   90.00000000
_cell_angle_gamma   119.99999074
_symmetry_Int_Tables_number   1
_chemical_formula_structural   Th8Si12Tc3Pd
_chemical_formula_sum   'Th8 Si12 Tc3 Pd1'
_cell_volume   499.21747021
_cell_formula_units_Z   1
loop_
 _symmetry_equiv_pos_site_id
 _symmetry_equiv_pos_as_xyz
  1  'x, y, z'
loop_
 _atom_site_type_symbol
 _atom_site_label
 _atom_site_symmetry_multiplicity
 _atom_site_fract_x
 _atom_site_fract_y
 _atom_site_fract_z
 _atom_site_occupancy
  Th  Th0  1  0.496755  0.503245  0.755328  1
  Th  Th1  1  0.497071  0.502929  0.244619  1
  Th  Th2  1  0.006490  0.503245  0.755328  1
  Th  Th3  1  0.005858  0.502929  0.244619  1
  Th  Th4  1  0.496755  0.993510  0.755328  1
  Th  Th5  1  0.497071  0.994142  0.244619  1
  Th  Th6  1  0.000000  0.000000  0.749096  1
  Th  Th7  1  0.000000  0.000000  0.250931  1
  Si  Si8  1  0.834138  0.165862  0.999737  1
  Si  Si9  1  0.164911  0.835089  0.000248  1
  Si  Si10  1  0.331725  0.165862  0.999737  1
  Si  Si11  1  0.166416  0.833584  0.499754  1
  Si  Si12  1  0.670178  0.835089  0.000248  1
  Si  Si13  1  0.836218  0.163782  0.500196  1
  Si  Si14  1  0.834138  0.668275  0.999737  1
  Si  Si15  1  0.667167  0.833584  0.499754  1
  Si  Si16  1  0.164911  0.329822  0.000248  1
  Si  Si17  1  0.327566  0.163782  0.500196  1
  Si  Si18  1  0.166416  0.332833  0.499754  1
  Si  Si19  1  0.836218  0.672434  0.500196  1
  Tc  Tc20  1  0.666667  0.333333  0.999965  1
  Tc  Tc21  1  0.333333  0.666667  0.000185  1
  Tc  Tc22  1  0.333333  0.666667  0.499780  1
  Pd  Pd23  1  0.666667  0.333333  0.500395  1
