# generated using pymatgen
data_Dy6CoCl10
_symmetry_space_group_name_H-M   'P 1'
_cell_length_a   7.09907993
_cell_length_b   8.75067451
_cell_length_c   8.92163263
_cell_angle_alpha   108.70055710
_cell_angle_beta   97.09911060
_cell_angle_gamma   105.40174442
_symmetry_Int_Tables_number   1
_chemical_formula_structural   Dy6CoCl10
_chemical_formula_sum   'Dy6 Co1 Cl10'
_cell_volume   492.71553764
_cell_formula_units_Z   1
loop_
 _symmetry_equiv_pos_site_id
 _symmetry_equiv_pos_as_xyz
  1  'x, y, z'
loop_
 _atom_site_type_symbol
 _atom_site_label
 _atom_site_symmetry_multiplicity
 _atom_site_fract_x
 _atom_site_fract_y
 _atom_site_fract_z
 _atom_site_occupancy
  Dy  Dy0  1  0.862718  0.137109  0.187523  1
  Dy  Dy1  1  0.137282  0.862891  0.812477  1
  Dy  Dy2  1  0.532422  0.706528  0.907639  1
  Dy  Dy3  1  0.467578  0.293472  0.092361  1
  Dy  Dy4  1  0.632927  0.054760  0.756132  1
  Dy  Dy5  1  0.367073  0.945240  0.243868  1
  Co  Co6  1  0.500000  0.000000  0.000000  1
  Cl  Cl7  1  0.739170  0.083163  0.453584  1
  Cl  Cl8  1  0.260830  0.916837  0.546416  1
  Cl  Cl9  1  0.952861  0.825120  0.076506  1
  Cl  Cl10  1  0.047139  0.174880  0.923494  1
  Cl  Cl11  1  0.286069  0.248988  0.339703  1
  Cl  Cl12  1  0.713931  0.751012  0.660297  1
  Cl  Cl13  1  0.589179  0.373050  0.837789  1
  Cl  Cl14  1  0.410821  0.626950  0.162211  1
  Cl  Cl15  1  0.843536  0.448984  0.274366  1
  Cl  Cl16  1  0.156464  0.551016  0.725634  1
