# generated using pymatgen
data_Tb2ThSnRh3Pb2
_symmetry_space_group_name_H-M   'P 1'
_cell_length_a   7.79690852
_cell_length_b   7.68506998
_cell_length_c   3.95084400
_cell_angle_alpha   90.00000000
_cell_angle_beta   90.00000000
_cell_angle_gamma   120.62065947
_symmetry_Int_Tables_number   1
_chemical_formula_structural   Tb2ThSnRh3Pb2
_chemical_formula_sum   'Tb2 Th1 Sn1 Rh3 Pb2'
_cell_volume   203.72320825
_cell_formula_units_Z   1
loop_
 _symmetry_equiv_pos_site_id
 _symmetry_equiv_pos_as_xyz
  1  'x, y, z'
loop_
 _atom_site_type_symbol
 _atom_site_label
 _atom_site_symmetry_multiplicity
 _atom_site_fract_x
 _atom_site_fract_y
 _atom_site_fract_z
 _atom_site_occupancy
  Tb  Tb0  1  0.005766  0.406118  0.500000  1
  Tb  Tb1  1  0.589167  0.591618  0.500000  1
  Th  Th2  1  0.411734  0.002237  0.500000  1
  Sn  Sn3  1  0.260461  0.271626  0.000000  1
  Rh  Rh4  1  0.331047  0.674543  0.000000  1
  Rh  Rh5  1  0.639931  0.313716  0.000000  1
  Rh  Rh6  1  0.022143  0.012015  0.500000  1
  Pb  Pb7  1  0.752684  0.001218  0.000000  1
  Pb  Pb8  1  0.987066  0.726908  0.000000  1
