# generated using pymatgen
data_Dy2Er3Sc3(P3Ir4)4
_symmetry_space_group_name_H-M   'P 1'
_cell_length_a   12.85021200
_cell_length_b   12.85021197
_cell_length_c   3.96063400
_cell_angle_alpha   90.00000000
_cell_angle_beta   90.00000000
_cell_angle_gamma   120.00000008
_symmetry_Int_Tables_number   1
_chemical_formula_structural   Dy2Er3Sc3(P3Ir4)4
_chemical_formula_sum   'Dy2 Er3 Sc3 P12 Ir16'
_cell_volume   566.39045632
_cell_formula_units_Z   1
loop_
 _symmetry_equiv_pos_site_id
 _symmetry_equiv_pos_as_xyz
  1  'x, y, z'
loop_
 _atom_site_type_symbol
 _atom_site_label
 _atom_site_symmetry_multiplicity
 _atom_site_fract_x
 _atom_site_fract_y
 _atom_site_fract_z
 _atom_site_occupancy
  Dy  Dy0  1  0.333333  0.666667  0.500000  1
  Dy  Dy1  1  0.666667  0.333333  0.500000  1
  Er  Er2  1  0.000000  0.811905  0.000000  1
  Er  Er3  1  0.188095  0.188095  0.000000  1
  Er  Er4  1  0.811905  0.000000  0.000000  1
  Sc  Sc5  1  0.000000  0.444932  0.500000  1
  Sc  Sc6  1  0.555068  0.555068  0.500000  1
  Sc  Sc7  1  0.444932  0.000000  0.500000  1
  P  P8  1  0.000000  0.645998  0.500000  1
  P  P9  1  0.354002  0.354002  0.500000  1
  P  P10  1  0.645998  0.000000  0.500000  1
  P  P11  1  0.516869  0.686522  0.000000  1
  P  P12  1  0.313478  0.830347  0.000000  1
  P  P13  1  0.169653  0.483131  0.000000  1
  P  P14  1  0.483131  0.169653  0.000000  1
  P  P15  1  0.686522  0.516869  0.000000  1
  P  P16  1  0.830347  0.313478  0.000000  1
  P  P17  1  0.000000  0.176505  0.500000  1
  P  P18  1  0.823495  0.823495  0.500000  1
  P  P19  1  0.176505  0.000000  0.500000  1
  Ir  Ir20  1  0.510108  0.867837  0.000000  1
  Ir  Ir21  1  0.132163  0.642272  0.000000  1
  Ir  Ir22  1  0.357728  0.489892  0.000000  1
  Ir  Ir23  1  0.489892  0.357728  0.000000  1
  Ir  Ir24  1  0.867837  0.510108  0.000000  1
  Ir  Ir25  1  0.642272  0.132163  0.000000  1
  Ir  Ir26  1  0.000000  0.277744  0.000000  1
  Ir  Ir27  1  0.722256  0.722256  0.000000  1
  Ir  Ir28  1  0.277744  0.000000  0.000000  1
  Ir  Ir29  1  0.628255  0.807154  0.500000  1
  Ir  Ir30  1  0.192846  0.821101  0.500000  1
  Ir  Ir31  1  0.178899  0.371745  0.500000  1
  Ir  Ir32  1  0.371745  0.178899  0.500000  1
  Ir  Ir33  1  0.807154  0.628255  0.500000  1
  Ir  Ir34  1  0.821101  0.192846  0.500000  1
  Ir  Ir35  1  0.000000  0.000000  0.500000  1
