# generated using pymatgen
data_Hf18BeRe6RhW2
_symmetry_space_group_name_H-M   'P 1'
_cell_length_a   8.65480000
_cell_length_b   8.65480029
_cell_length_c   8.50274400
_cell_angle_alpha   90.00000000
_cell_angle_beta   90.00000000
_cell_angle_gamma   119.99999889
_symmetry_Int_Tables_number   1
_chemical_formula_structural   Hf18BeRe6RhW2
_chemical_formula_sum   'Hf18 Be1 Re6 Rh1 W2'
_cell_volume   551.57405235
_cell_formula_units_Z   1
loop_
 _symmetry_equiv_pos_site_id
 _symmetry_equiv_pos_as_xyz
  1  'x, y, z'
loop_
 _atom_site_type_symbol
 _atom_site_label
 _atom_site_symmetry_multiplicity
 _atom_site_fract_x
 _atom_site_fract_y
 _atom_site_fract_z
 _atom_site_occupancy
  Hf  Hf0  1  0.196891  0.803109  0.446312  1
  Hf  Hf1  1  0.196891  0.393782  0.446312  1
  Hf  Hf2  1  0.606218  0.803109  0.446312  1
  Hf  Hf3  1  0.802867  0.197133  0.554950  1
  Hf  Hf4  1  0.802867  0.605733  0.554950  1
  Hf  Hf5  1  0.394267  0.197133  0.554950  1
  Hf  Hf6  1  0.802867  0.197133  0.945050  1
  Hf  Hf7  1  0.802867  0.605733  0.945050  1
  Hf  Hf8  1  0.394267  0.197133  0.945050  1
  Hf  Hf9  1  0.196891  0.803109  0.053688  1
  Hf  Hf10  1  0.196891  0.393782  0.053688  1
  Hf  Hf11  1  0.606218  0.803109  0.053688  1
  Hf  Hf12  1  0.542191  0.457809  0.250000  1
  Hf  Hf13  1  0.542191  0.084380  0.250000  1
  Hf  Hf14  1  0.915620  0.457809  0.250000  1
  Hf  Hf15  1  0.460349  0.539651  0.750000  1
  Hf  Hf16  1  0.460349  0.920700  0.750000  1
  Hf  Hf17  1  0.079300  0.539651  0.750000  1
  Be  Be18  1  0.666667  0.333333  0.750000  1
  Re  Re19  1  0.888370  0.111630  0.250000  1
  Re  Re20  1  0.888370  0.776737  0.250000  1
  Re  Re21  1  0.223263  0.111630  0.250000  1
  Re  Re22  1  0.111143  0.888857  0.750000  1
  Re  Re23  1  0.111143  0.222287  0.750000  1
  Re  Re24  1  0.777713  0.888857  0.750000  1
  Rh  Rh25  1  0.333333  0.666667  0.250000  1
  W  W26  1  0.000000  0.000000  0.500585  1
  W  W27  1  0.000000  0.000000  0.999415  1
