# generated using pymatgen
data_Ce3Er9(SiOs)8
_symmetry_space_group_name_H-M   'P 1'
_cell_length_a   5.51951111
_cell_length_b   7.75739963
_cell_length_c   13.26964319
_cell_angle_alpha   90.09448305
_cell_angle_beta   90.03575384
_cell_angle_gamma   89.78286621
_symmetry_Int_Tables_number   1
_chemical_formula_structural   Ce3Er9(SiOs)8
_chemical_formula_sum   'Ce3 Er9 Si8 Os8'
_cell_volume   568.16206058
_cell_formula_units_Z   1
loop_
 _symmetry_equiv_pos_site_id
 _symmetry_equiv_pos_as_xyz
  1  'x, y, z'
loop_
 _atom_site_type_symbol
 _atom_site_label
 _atom_site_symmetry_multiplicity
 _atom_site_fract_x
 _atom_site_fract_y
 _atom_site_fract_z
 _atom_site_occupancy
  Ce  Ce0  1  0.652530  0.408468  0.903322  1
  Ce  Ce1  1  0.350609  0.903932  0.595383  1
  Ce  Ce2  1  0.651266  0.092834  0.098775  1
  Er  Er3  1  0.128158  0.253877  0.748947  1
  Er  Er4  1  0.872445  0.742564  0.251847  1
  Er  Er5  1  0.127022  0.249905  0.251448  1
  Er  Er6  1  0.870344  0.752679  0.749635  1
  Er  Er7  1  0.641881  0.392602  0.602102  1
  Er  Er8  1  0.352093  0.610343  0.105602  1
  Er  Er9  1  0.649765  0.110029  0.394735  1
  Er  Er10  1  0.351153  0.890444  0.895245  1
  Er  Er11  1  0.353845  0.600525  0.397260  1
  Si  Si12  1  0.089970  0.251852  0.499932  1
  Si  Si13  1  0.912378  0.750129  0.001032  1
  Si  Si14  1  0.901439  0.746823  0.496138  1
  Si  Si15  1  0.104340  0.249221  0.000924  1
  Si  Si16  1  0.639562  0.103723  0.752647  1
  Si  Si17  1  0.361546  0.897284  0.253831  1
  Si  Si18  1  0.634170  0.397548  0.248564  1
  Si  Si19  1  0.357054  0.601766  0.747289  1
  Os  Os20  1  0.845616  0.019655  0.592561  1
  Os  Os21  1  0.155696  0.977671  0.093474  1
  Os  Os22  1  0.846426  0.473075  0.408032  1
  Os  Os23  1  0.156971  0.521618  0.908614  1
  Os  Os24  1  0.154317  0.976163  0.411635  1
  Os  Os25  1  0.845646  0.024801  0.912063  1
  Os  Os26  1  0.148131  0.525558  0.589551  1
  Os  Os27  1  0.845627  0.474910  0.089411  1
