# generated using pymatgen
data_TmLu5Al24Ru3Rh5
_symmetry_space_group_name_H-M   'P 1'
_cell_length_a   8.74751400
_cell_length_b   8.76978420
_cell_length_c   9.49859903
_cell_angle_alpha   90.17521487
_cell_angle_beta   90.00000000
_cell_angle_gamma   119.91603957
_symmetry_Int_Tables_number   1
_chemical_formula_structural   TmLu5Al24Ru3Rh5
_chemical_formula_sum   'Tm1 Lu5 Al24 Ru3 Rh5'
_cell_volume   631.57923927
_cell_formula_units_Z   1
loop_
 _symmetry_equiv_pos_site_id
 _symmetry_equiv_pos_as_xyz
  1  'x, y, z'
loop_
 _atom_site_type_symbol
 _atom_site_label
 _atom_site_symmetry_multiplicity
 _atom_site_fract_x
 _atom_site_fract_y
 _atom_site_fract_z
 _atom_site_occupancy
  Tm  Tm0  1  0.192826  0.385652  0.250212  1
  Lu  Lu1  1  0.803246  0.191374  0.749635  1
  Lu  Lu2  1  0.196812  0.808831  0.250373  1
  Lu  Lu3  1  0.388128  0.191374  0.749635  1
  Lu  Lu4  1  0.612018  0.808831  0.250373  1
  Lu  Lu5  1  0.806590  0.613181  0.749799  1
  Al  Al6  1  0.666561  0.333121  0.969986  1
  Al  Al7  1  0.333631  0.667262  0.029755  1
  Al  Al8  1  0.334236  0.668472  0.471383  1
  Al  Al9  1  0.665963  0.331925  0.528872  1
  Al  Al10  1  0.835315  0.162008  0.421452  1
  Al  Al11  1  0.164443  0.837923  0.578758  1
  Al  Al12  1  0.326693  0.162008  0.421452  1
  Al  Al13  1  0.162518  0.835463  0.921454  1
  Al  Al14  1  0.673481  0.837923  0.578758  1
  Al  Al15  1  0.837185  0.164449  0.078321  1
  Al  Al16  1  0.837175  0.674351  0.421507  1
  Al  Al17  1  0.672946  0.835463  0.921454  1
  Al  Al18  1  0.162846  0.325691  0.578898  1
  Al  Al19  1  0.327264  0.164449  0.078321  1
  Al  Al20  1  0.162788  0.325575  0.920674  1
  Al  Al21  1  0.837239  0.674480  0.078928  1
  Al  Al22  1  0.438070  0.560689  0.750852  1
  Al  Al23  1  0.562432  0.439459  0.249142  1
  Al  Al24  1  0.122617  0.560689  0.750852  1
  Al  Al25  1  0.877030  0.439459  0.249142  1
  Al  Al26  1  0.437600  0.875200  0.749906  1
  Al  Al27  1  0.562381  0.124762  0.250125  1
  Al  Al28  1  0.999432  0.998864  0.750034  1
  Al  Al29  1  0.000210  0.000420  0.249975  1
  Ru  Ru30  1  0.500072  0.000144  0.500064  1
  Ru  Ru31  1  0.000014  0.000028  0.000011  1
  Ru  Ru32  1  0.000017  0.000035  0.499991  1
  Rh  Rh33  1  0.500169  0.500079  0.999863  1
  Rh  Rh34  1  0.999910  0.500079  0.999863  1
  Rh  Rh35  1  0.500160  0.500083  0.500120  1
  Rh  Rh36  1  0.500059  0.000119  0.999944  1
  Rh  Rh37  1  0.999923  0.500083  0.500120  1
