# generated using pymatgen
data_YbY(ThB8)2
_symmetry_space_group_name_H-M   'P 1'
_cell_length_a   7.18452744
_cell_length_b   7.18452816
_cell_length_c   4.07989400
_cell_angle_alpha   90.00000000
_cell_angle_beta   90.00000000
_cell_angle_gamma   91.22914476
_symmetry_Int_Tables_number   1
_chemical_formula_structural   YbY(ThB8)2
_chemical_formula_sum   'Yb1 Y1 Th2 B16'
_cell_volume   210.54522498
_cell_formula_units_Z   1
loop_
 _symmetry_equiv_pos_site_id
 _symmetry_equiv_pos_as_xyz
  1  'x, y, z'
loop_
 _atom_site_type_symbol
 _atom_site_label
 _atom_site_symmetry_multiplicity
 _atom_site_fract_x
 _atom_site_fract_y
 _atom_site_fract_z
 _atom_site_occupancy
  Yb  Yb0  1  0.682334  0.817666  0.000000  1
  Y  Y1  1  0.317788  0.182212  0.000000  1
  Th  Th2  1  0.813223  0.313194  0.000000  1
  Th  Th3  1  0.186806  0.686777  0.000000  1
  B  B4  1  0.500806  0.501761  0.797322  1
  B  B5  1  0.998239  0.999194  0.797322  1
  B  B6  1  0.500806  0.501761  0.202678  1
  B  B7  1  0.998239  0.999194  0.202678  1
  B  B8  1  0.913245  0.586755  0.500000  1
  B  B9  1  0.087309  0.412691  0.500000  1
  B  B10  1  0.410823  0.911584  0.500000  1
  B  B11  1  0.588416  0.089177  0.500000  1
  B  B12  1  0.675692  0.539992  0.500000  1
  B  B13  1  0.324827  0.459016  0.500000  1
  B  B14  1  0.176176  0.962912  0.500000  1
  B  B15  1  0.824165  0.036975  0.500000  1
  B  B16  1  0.463025  0.675835  0.500000  1
  B  B17  1  0.537088  0.323824  0.500000  1
  B  B18  1  0.040984  0.175173  0.500000  1
  B  B19  1  0.960008  0.824308  0.500000  1
