# generated using pymatgen
data_Nb2SnRu5
_symmetry_space_group_name_H-M   'P 1'
_cell_length_a   4.12711500
_cell_length_b   5.50035500
_cell_length_c   11.05607200
_cell_angle_alpha   90.00000000
_cell_angle_beta   90.00000000
_cell_angle_gamma   90.00000000
_symmetry_Int_Tables_number   1
_chemical_formula_structural   Nb2SnRu5
_chemical_formula_sum   'Nb4 Sn2 Ru10'
_cell_volume   250.97944179
_cell_formula_units_Z   2
loop_
 _symmetry_equiv_pos_site_id
 _symmetry_equiv_pos_as_xyz
  1  'x, y, z'
loop_
 _atom_site_type_symbol
 _atom_site_label
 _atom_site_symmetry_multiplicity
 _atom_site_fract_x
 _atom_site_fract_y
 _atom_site_fract_z
 _atom_site_occupancy
  Nb  Nb0  1  0.500000  0.812983  0.359301  1
  Nb  Nb1  1  0.500000  0.187017  0.640699  1
  Nb  Nb2  1  0.500000  0.312983  0.140699  1
  Nb  Nb3  1  0.500000  0.687017  0.859301  1
  Sn  Sn4  1  0.000000  0.500000  0.500000  1
  Sn  Sn5  1  0.000000  0.000000  0.000000  1
  Ru  Ru6  1  0.000000  0.500000  0.000000  1
  Ru  Ru7  1  0.000000  0.000000  0.500000  1
  Ru  Ru8  1  0.000000  0.552632  0.241593  1
  Ru  Ru9  1  0.000000  0.447368  0.758407  1
  Ru  Ru10  1  0.000000  0.052632  0.258407  1
  Ru  Ru11  1  0.000000  0.947368  0.741593  1
  Ru  Ru12  1  0.500000  0.789297  0.117548  1
  Ru  Ru13  1  0.500000  0.210703  0.882452  1
  Ru  Ru14  1  0.500000  0.289297  0.382452  1
  Ru  Ru15  1  0.500000  0.710703  0.617548  1
