# generated using pymatgen
data_Th4Re11Si8Mo5
_symmetry_space_group_name_H-M   'P 1'
_cell_length_a   7.14064844
_cell_length_b   16.11853919
_cell_length_c   4.22048600
_cell_angle_alpha   90.00000000
_cell_angle_beta   90.00000000
_cell_angle_gamma   90.07250198
_symmetry_Int_Tables_number   1
_chemical_formula_structural   Th4Re11Si8Mo5
_chemical_formula_sum   'Th4 Re11 Si8 Mo5'
_cell_volume   485.76413617
_cell_formula_units_Z   1
loop_
 _symmetry_equiv_pos_site_id
 _symmetry_equiv_pos_as_xyz
  1  'x, y, z'
loop_
 _atom_site_type_symbol
 _atom_site_label
 _atom_site_symmetry_multiplicity
 _atom_site_fract_x
 _atom_site_fract_y
 _atom_site_fract_z
 _atom_site_occupancy
  Th  Th0  1  0.589144  0.117396  0.000000  1
  Th  Th1  1  0.411048  0.881995  0.000000  1
  Th  Th2  1  0.088947  0.381440  0.500001  1
  Th  Th3  1  0.909079  0.617799  0.500001  1
  Re  Re4  1  0.565642  0.579842  0.000000  1
  Re  Re5  1  0.933080  0.077237  0.500001  1
  Re  Re6  1  0.068600  0.922057  0.500001  1
  Re  Re7  1  0.142140  0.049228  0.000000  1
  Re  Re8  1  0.858875  0.950179  0.000000  1
  Re  Re9  1  0.640933  0.451035  0.500001  1
  Re  Re10  1  0.358548  0.551958  0.500001  1
  Re  Re11  1  0.007328  0.203571  0.000000  1
  Re  Re12  1  0.992382  0.795886  0.000000  1
  Re  Re13  1  0.509501  0.293759  0.500001  1
  Re  Re14  1  0.493120  0.705848  0.500001  1
  Si  Si15  1  0.312424  0.276053  0.000000  1
  Si  Si16  1  0.686967  0.723891  0.000000  1
  Si  Si17  1  0.815795  0.222194  0.500001  1
  Si  Si18  1  0.186314  0.776878  0.500001  1
  Si  Si19  1  0.827372  0.474447  0.000000  1
  Si  Si20  1  0.166354  0.526589  0.000000  1
  Si  Si21  1  0.332086  0.025399  0.500001  1
  Si  Si22  1  0.669029  0.973953  0.500001  1
  Mo  Mo23  1  0.737205  0.318988  0.000000  1
  Mo  Mo24  1  0.260023  0.680320  0.000000  1
  Mo  Mo25  1  0.237419  0.179498  0.500001  1
  Mo  Mo26  1  0.764133  0.819996  0.500001  1
  Mo  Mo27  1  0.436514  0.422567  0.000000  1
