# generated using pymatgen
data_La12FePd(AuI6)2
_symmetry_space_group_name_H-M   'P 1'
_cell_length_a   10.97018817
_cell_length_b   10.97019003
_cell_length_c   11.09273160
_cell_angle_alpha   109.13449842
_cell_angle_beta   109.13450405
_cell_angle_gamma   108.73952322
_symmetry_Int_Tables_number   1
_chemical_formula_structural   La12FePd(AuI6)2
_chemical_formula_sum   'La12 Fe1 Pd1 Au2 I12'
_cell_volume   1045.07743674
_cell_formula_units_Z   1
loop_
 _symmetry_equiv_pos_site_id
 _symmetry_equiv_pos_as_xyz
  1  'x, y, z'
loop_
 _atom_site_type_symbol
 _atom_site_label
 _atom_site_symmetry_multiplicity
 _atom_site_fract_x
 _atom_site_fract_y
 _atom_site_fract_z
 _atom_site_occupancy
  La  La0  1  0.452788  0.460375  0.239700  1
  La  La1  1  0.744914  0.230771  0.264778  1
  La  La2  1  0.745831  0.014175  0.479567  1
  La  La3  1  0.237154  0.458533  0.467714  1
  La  La4  1  0.269229  0.755086  0.235222  1
  La  La5  1  0.041467  0.262846  0.032286  1
  La  La6  1  0.039625  0.047212  0.260300  1
  La  La7  1  0.485825  0.754169  0.020433  1
  La  La8  1  0.471313  0.236480  0.459297  1
  La  La9  1  0.014890  0.485110  0.750000  1
  La  La10  1  0.263520  0.028687  0.040703  1
  La  La11  1  0.233297  0.266703  0.750000  1
  Fe  Fe12  1  0.251222  0.248778  0.250000  1
  Pd  Pd13  1  0.499827  0.000173  0.250000  1
  Au  Au14  1  0.998885  0.249880  0.498076  1
  Au  Au15  1  0.250120  0.501115  0.001924  1
  I  I16  1  0.252224  0.756856  0.744323  1
  I  I17  1  0.516148  0.509948  0.758258  1
  I  I18  1  0.981569  0.739081  0.990378  1
  I  I19  1  0.743144  0.247776  0.755677  1
  I  I20  1  0.990052  0.983852  0.741742  1
  I  I21  1  0.249884  0.990870  0.510195  1
  I  I22  1  0.760919  0.518431  0.509622  1
  I  I23  1  0.509130  0.250116  0.989805  1
  I  I24  1  0.756444  0.743556  0.250000  1
  I  I25  1  0.741612  0.991361  0.982888  1
  I  I26  1  0.990324  0.509676  0.250000  1
  I  I27  1  0.508639  0.758388  0.517112  1
