# generated using pymatgen
data_Th2Pd2Au
_symmetry_space_group_name_H-M   'P 1'
_cell_length_a   7.73336800
_cell_length_b   7.73336800
_cell_length_c   3.90030800
_cell_angle_alpha   90.00000000
_cell_angle_beta   90.00000000
_cell_angle_gamma   90.00000000
_symmetry_Int_Tables_number   1
_chemical_formula_structural   Th2Pd2Au
_chemical_formula_sum   'Th4 Pd4 Au2'
_cell_volume   233.25784437
_cell_formula_units_Z   2
loop_
 _symmetry_equiv_pos_site_id
 _symmetry_equiv_pos_as_xyz
  1  'x, y, z'
loop_
 _atom_site_type_symbol
 _atom_site_label
 _atom_site_symmetry_multiplicity
 _atom_site_fract_x
 _atom_site_fract_y
 _atom_site_fract_z
 _atom_site_occupancy
  Th  Th0  1  0.322753  0.177247  0.500001  1
  Th  Th1  1  0.822753  0.322753  0.500001  1
  Th  Th2  1  0.177247  0.677248  0.500001  1
  Th  Th3  1  0.677248  0.822753  0.500001  1
  Pd  Pd4  1  0.627835  0.127836  0.000000  1
  Pd  Pd5  1  0.127836  0.372164  0.000000  1
  Pd  Pd6  1  0.872166  0.627835  0.000000  1
  Pd  Pd7  1  0.372164  0.872166  0.000000  1
  Au  Au8  1  0.000000  0.000000  0.000000  1
  Au  Au9  1  0.500000  0.500000  0.000000  1
