# generated using pymatgen
data_LuPa(Be11Cu2)2
_symmetry_space_group_name_H-M   'P 1'
_cell_length_a   7.33339549
_cell_length_b   7.30098039
_cell_length_c   7.35392621
_cell_angle_alpha   60.05236463
_cell_angle_beta   59.61566452
_cell_angle_gamma   60.33197706
_symmetry_Int_Tables_number   1
_chemical_formula_structural   LuPa(Be11Cu2)2
_chemical_formula_sum   'Lu1 Pa1 Be22 Cu4'
_cell_volume   278.39161252
_cell_formula_units_Z   1
loop_
 _symmetry_equiv_pos_site_id
 _symmetry_equiv_pos_as_xyz
  1  'x, y, z'
loop_
 _atom_site_type_symbol
 _atom_site_label
 _atom_site_symmetry_multiplicity
 _atom_site_fract_x
 _atom_site_fract_y
 _atom_site_fract_z
 _atom_site_occupancy
  Lu  Lu0  1  0.750000  0.750000  0.750000  1
  Pa  Pa1  1  0.250000  0.250000  0.250000  1
  Be  Be2  1  0.705094  0.934779  0.066186  1
  Be  Be3  1  0.699670  0.058915  0.299985  1
  Be  Be4  1  0.066186  0.293942  0.705094  1
  Be  Be5  1  0.941429  0.299985  0.058915  1
  Be  Be6  1  0.934779  0.705094  0.293942  1
  Be  Be7  1  0.299985  0.941429  0.699670  1
  Be  Be8  1  0.293942  0.066186  0.934779  1
  Be  Be9  1  0.058915  0.699670  0.941429  1
  Be  Be10  1  0.789844  0.440165  0.558138  1
  Be  Be11  1  0.558138  0.211853  0.789844  1
  Be  Be12  1  0.211853  0.558138  0.440165  1
  Be  Be13  1  0.440165  0.789844  0.211853  1
  Be  Be14  1  0.779629  0.221577  0.431575  1
  Be  Be15  1  0.788590  0.563478  0.214269  1
  Be  Be16  1  0.431575  0.567219  0.779629  1
  Be  Be17  1  0.563478  0.788590  0.433662  1
  Be  Be18  1  0.567219  0.431575  0.221577  1
  Be  Be19  1  0.214269  0.433662  0.788590  1
  Be  Be20  1  0.221577  0.779629  0.567219  1
  Be  Be21  1  0.433662  0.214269  0.563478  1
  Be  Be22  1  0.000000  0.000000  0.000000  1
  Be  Be23  1  0.500000  0.500000  0.500000  1
  Cu  Cu24  1  0.694105  0.306786  0.942933  1
  Cu  Cu25  1  0.942933  0.056176  0.694105  1
  Cu  Cu26  1  0.306786  0.694105  0.056176  1
  Cu  Cu27  1  0.056176  0.942933  0.306786  1
