# generated using pymatgen
data_Gd6HoEr13Pb16
_symmetry_space_group_name_H-M   'P 1'
_cell_length_a   8.17074581
_cell_length_b   8.24453247
_cell_length_c   15.56532200
_cell_angle_alpha   90.01446896
_cell_angle_beta   90.02549675
_cell_angle_gamma   89.98708130
_symmetry_Int_Tables_number   1
_chemical_formula_structural   Gd6HoEr13Pb16
_chemical_formula_sum   'Gd6 Ho1 Er13 Pb16'
_cell_volume   1048.54186271
_cell_formula_units_Z   1
loop_
 _symmetry_equiv_pos_site_id
 _symmetry_equiv_pos_as_xyz
  1  'x, y, z'
loop_
 _atom_site_type_symbol
 _atom_site_label
 _atom_site_symmetry_multiplicity
 _atom_site_fract_x
 _atom_site_fract_y
 _atom_site_fract_z
 _atom_site_occupancy
  Gd  Gd0  1  0.465887  0.677422  0.401945  1
  Gd  Gd1  1  0.964943  0.822987  0.098634  1
  Gd  Gd2  1  0.465858  0.677187  0.098310  1
  Gd  Gd3  1  0.966021  0.822900  0.402136  1
  Gd  Gd4  1  0.533438  0.322269  0.598042  1
  Gd  Gd5  1  0.034234  0.177831  0.901178  1
  Ho  Ho6  1  0.035706  0.176756  0.599934  1
  Er  Er7  1  0.375452  0.842270  0.878568  1
  Er  Er8  1  0.874943  0.657528  0.621327  1
  Er  Er9  1  0.624660  0.157871  0.379224  1
  Er  Er10  1  0.124149  0.342199  0.120962  1
  Er  Er11  1  0.624055  0.158005  0.120859  1
  Er  Er12  1  0.124427  0.342209  0.379264  1
  Er  Er13  1  0.375277  0.842610  0.621670  1
  Er  Er14  1  0.875403  0.657726  0.878269  1
  Er  Er15  1  0.536431  0.323486  0.899771  1
  Er  Er16  1  0.208053  0.504399  0.750041  1
  Er  Er17  1  0.707992  0.995476  0.750032  1
  Er  Er18  1  0.791697  0.495252  0.249707  1
  Er  Er19  1  0.291969  0.004579  0.250153  1
  Pb  Pb20  1  0.284479  0.035426  0.043240  1
  Pb  Pb21  1  0.784913  0.464305  0.456806  1
  Pb  Pb22  1  0.716922  0.965813  0.543950  1
  Pb  Pb23  1  0.217653  0.533234  0.955802  1
  Pb  Pb24  1  0.714558  0.965585  0.956253  1
  Pb  Pb25  1  0.214211  0.535224  0.543610  1
  Pb  Pb26  1  0.283084  0.036675  0.457978  1
  Pb  Pb27  1  0.783095  0.463012  0.041851  1
  Pb  Pb28  1  0.570419  0.626283  0.750036  1
  Pb  Pb29  1  0.070394  0.873200  0.749539  1
  Pb  Pb30  1  0.429467  0.372590  0.250284  1
  Pb  Pb31  1  0.929509  0.127373  0.250214  1
  Pb  Pb32  1  0.346762  0.153440  0.750723  1
  Pb  Pb33  1  0.845855  0.346919  0.749104  1
  Pb  Pb34  1  0.653962  0.847674  0.250363  1
  Pb  Pb35  1  0.154122  0.652287  0.250223  1
