# generated using pymatgen
data_NdYRe2F14
_symmetry_space_group_name_H-M   'P 1'
_cell_length_a   5.72075241
_cell_length_b   9.09966233
_cell_length_c   12.24578536
_cell_angle_alpha   62.39443072
_cell_angle_beta   89.85885842
_cell_angle_gamma   89.95148333
_symmetry_Int_Tables_number   1
_chemical_formula_structural   NdYRe2F14
_chemical_formula_sum   'Nd2 Y2 Re4 F28'
_cell_volume   564.90466171
_cell_formula_units_Z   2
loop_
 _symmetry_equiv_pos_site_id
 _symmetry_equiv_pos_as_xyz
  1  'x, y, z'
loop_
 _atom_site_type_symbol
 _atom_site_label
 _atom_site_symmetry_multiplicity
 _atom_site_fract_x
 _atom_site_fract_y
 _atom_site_fract_z
 _atom_site_occupancy
  Nd  Nd0  1  0.257875  0.814316  0.265066  1
  Nd  Nd1  1  0.742125  0.185684  0.734934  1
  Y  Y2  1  0.758175  0.189077  0.234931  1
  Y  Y3  1  0.241825  0.810923  0.765069  1
  Re  Re4  1  0.757384  0.724022  0.042079  1
  Re  Re5  1  0.242616  0.275978  0.957921  1
  Re  Re6  1  0.256705  0.270984  0.455160  1
  Re  Re7  1  0.743295  0.729016  0.544840  1
  F  F8  1  0.944795  0.706922  0.421802  1
  F  F9  1  0.055205  0.293078  0.578198  1
  F  F10  1  0.449426  0.292763  0.081409  1
  F  F11  1  0.550574  0.707237  0.918591  1
  F  F12  1  0.481500  0.728407  0.138235  1
  F  F13  1  0.518500  0.271593  0.861765  1
  F  F14  1  0.978446  0.268783  0.358951  1
  F  F15  1  0.021554  0.731217  0.641049  1
  F  F16  1  0.952430  0.742710  0.169001  1
  F  F17  1  0.047570  0.257290  0.830999  1
  F  F18  1  0.459133  0.253517  0.328683  1
  F  F19  1  0.540867  0.746483  0.671317  1
  F  F20  1  0.768360  0.478523  0.141201  1
  F  F21  1  0.231640  0.521477  0.858799  1
  F  F22  1  0.268274  0.515631  0.359071  1
  F  F23  1  0.731726  0.484369  0.640929  1
  F  F24  1  0.953255  0.280997  0.047758  1
  F  F25  1  0.046745  0.719003  0.952242  1
  F  F26  1  0.457891  0.718000  0.456830  1
  F  F27  1  0.542109  0.282000  0.543170  1
  F  F28  1  0.740956  0.973687  0.446773  1
  F  F29  1  0.259044  0.026313  0.553227  1
  F  F30  1  0.241690  0.031375  0.050745  1
  F  F31  1  0.758310  0.968625  0.949255  1
  F  F32  1  0.587277  0.976691  0.231721  1
  F  F33  1  0.412723  0.023309  0.768279  1
  F  F34  1  0.074050  0.035274  0.267468  1
  F  F35  1  0.925950  0.964726  0.732532  1
