# generated using pymatgen
data_Ce4Hf2NiBi8
_symmetry_space_group_name_H-M   'P 1'
_cell_length_a   9.08169400
_cell_length_b   9.53110200
_cell_length_c   22.70764500
_cell_angle_alpha   90.00000000
_cell_angle_beta   90.00000000
_cell_angle_gamma   90.00000000
_symmetry_Int_Tables_number   1
_chemical_formula_structural   Ce4Hf2NiBi8
_chemical_formula_sum   'Ce4 Hf2 Ni1 Bi8'
_cell_volume   1965.54086705
_cell_formula_units_Z   1
loop_
 _symmetry_equiv_pos_site_id
 _symmetry_equiv_pos_as_xyz
  1  'x, y, z'
loop_
 _atom_site_type_symbol
 _atom_site_label
 _atom_site_symmetry_multiplicity
 _atom_site_fract_x
 _atom_site_fract_y
 _atom_site_fract_z
 _atom_site_occupancy
  Ce  Ce0  1  0.500000  0.000000  0.101926  1
  Ce  Ce1  1  0.500000  0.000000  0.639961  1
  Ce  Ce2  1  0.000000  0.500000  0.889528  1
  Ce  Ce3  1  0.000000  0.500000  0.368122  1
  Hf  Hf4  1  0.500000  0.500000  0.509621  1
  Hf  Hf5  1  0.000000  0.000000  0.509822  1
  Ni  Ni6  1  0.000000  0.000000  0.998525  1
  Bi  Bi7  1  0.500000  0.500000  0.746709  1
  Bi  Bi8  1  0.500000  0.500000  0.247049  1
  Bi  Bi9  1  0.000000  0.000000  0.745804  1
  Bi  Bi10  1  0.000000  0.000000  0.246872  1
  Bi  Bi11  1  0.500000  0.000000  0.928401  1
  Bi  Bi12  1  0.500000  0.000000  0.399756  1
  Bi  Bi13  1  0.000000  0.500000  0.067513  1
  Bi  Bi14  1  0.000000  0.500000  0.600391  1
