# generated using pymatgen
data_Tb4Ho12Cd4TcPd3
_symmetry_space_group_name_H-M   'P 1'
_cell_length_a   9.71212290
_cell_length_b   9.70932640
_cell_length_c   9.70932703
_cell_angle_alpha   59.35152151
_cell_angle_beta   59.30864365
_cell_angle_gamma   59.30863131
_symmetry_Int_Tables_number   1
_chemical_formula_structural   Tb4Ho12Cd4TcPd3
_chemical_formula_sum   'Tb4 Ho12 Cd4 Tc1 Pd3'
_cell_volume   637.42713758
_cell_formula_units_Z   1
loop_
 _symmetry_equiv_pos_site_id
 _symmetry_equiv_pos_as_xyz
  1  'x, y, z'
loop_
 _atom_site_type_symbol
 _atom_site_label
 _atom_site_symmetry_multiplicity
 _atom_site_fract_x
 _atom_site_fract_y
 _atom_site_fract_z
 _atom_site_occupancy
  Tb  Tb0  1  0.565778  0.934598  0.565868  1
  Tb  Tb1  1  0.937456  0.556817  0.937325  1
  Tb  Tb2  1  0.565778  0.565868  0.934598  1
  Tb  Tb3  1  0.937456  0.937325  0.556817  1
  Ho  Ho4  1  0.352720  0.352954  0.352954  1
  Ho  Ho5  1  0.350982  0.350620  0.946163  1
  Ho  Ho6  1  0.350982  0.946163  0.350620  1
  Ho  Ho7  1  0.945805  0.350987  0.350987  1
  Ho  Ho8  1  0.816933  0.187630  0.187630  1
  Ho  Ho9  1  0.188317  0.810309  0.810309  1
  Ho  Ho10  1  0.187808  0.816859  0.187669  1
  Ho  Ho11  1  0.810221  0.188346  0.810173  1
  Ho  Ho12  1  0.187808  0.187669  0.816859  1
  Ho  Ho13  1  0.810221  0.810173  0.188346  1
  Ho  Ho14  1  0.934967  0.565313  0.565313  1
  Ho  Ho15  1  0.556103  0.937894  0.937894  1
  Cd  Cd16  1  0.580199  0.579565  0.579565  1
  Cd  Cd17  1  0.580563  0.581044  0.254419  1
  Cd  Cd18  1  0.580563  0.254419  0.581044  1
  Cd  Cd19  1  0.254454  0.580595  0.580595  1
  Tc  Tc20  1  0.144982  0.144519  0.144519  1
  Pd  Pd21  1  0.144904  0.145285  0.570132  1
  Pd  Pd22  1  0.144904  0.570132  0.145285  1
  Pd  Pd23  1  0.570097  0.144919  0.144919  1
