# generated using pymatgen
data_Tb19HoCoBi8Rh3
_symmetry_space_group_name_H-M   'P 1'
_cell_length_a   8.06746002
_cell_length_b   8.98637724
_cell_length_c   12.50986533
_cell_angle_alpha   90.01231932
_cell_angle_beta   89.78326635
_cell_angle_gamma   89.97647975
_symmetry_Int_Tables_number   1
_chemical_formula_structural   Tb19HoCoBi8Rh3
_chemical_formula_sum   'Tb19 Ho1 Co1 Bi8 Rh3'
_cell_volume   906.92411142
_cell_formula_units_Z   1
loop_
 _symmetry_equiv_pos_site_id
 _symmetry_equiv_pos_as_xyz
  1  'x, y, z'
loop_
 _atom_site_type_symbol
 _atom_site_label
 _atom_site_symmetry_multiplicity
 _atom_site_fract_x
 _atom_site_fract_y
 _atom_site_fract_z
 _atom_site_occupancy
  Tb  Tb0  1  0.345306  0.750091  0.700023  1
  Tb  Tb1  1  0.657812  0.249988  0.293873  1
  Tb  Tb2  1  0.842710  0.249847  0.793745  1
  Tb  Tb3  1  0.157306  0.750113  0.205678  1
  Tb  Tb4  1  0.879569  0.750177  0.805796  1
  Tb  Tb5  1  0.121660  0.249719  0.193963  1
  Tb  Tb6  1  0.378609  0.249982  0.694262  1
  Tb  Tb7  1  0.615723  0.750001  0.310826  1
  Tb  Tb8  1  0.677466  0.544437  0.564332  1
  Tb  Tb9  1  0.323233  0.465694  0.436395  1
  Tb  Tb10  1  0.178474  0.457865  0.933858  1
  Tb  Tb11  1  0.323238  0.034273  0.436360  1
  Tb  Tb12  1  0.820689  0.541087  0.065908  1
  Tb  Tb13  1  0.677478  0.955514  0.564365  1
  Tb  Tb14  1  0.820976  0.958689  0.065845  1
  Tb  Tb15  1  0.050625  0.750014  0.498856  1
  Tb  Tb16  1  0.950819  0.249965  0.501324  1
  Tb  Tb17  1  0.546310  0.249754  0.000778  1
  Tb  Tb18  1  0.451083  0.750267  0.998064  1
  Ho  Ho19  1  0.176983  0.042315  0.934005  1
  Co  Co20  1  0.433045  0.749983  0.491685  1
  Bi  Bi21  1  0.571263  0.509760  0.826006  1
  Bi  Bi22  1  0.428991  0.491169  0.173866  1
  Bi  Bi23  1  0.072017  0.490737  0.672920  1
  Bi  Bi24  1  0.429177  0.008862  0.173931  1
  Bi  Bi25  1  0.928401  0.509949  0.327148  1
  Bi  Bi26  1  0.570655  0.990309  0.826115  1
  Bi  Bi27  1  0.928329  0.990053  0.327241  1
  Bi  Bi28  1  0.072161  0.009303  0.673116  1
  Rh  Rh29  1  0.070696  0.750661  0.990378  1
  Rh  Rh30  1  0.929422  0.249412  0.009894  1
  Rh  Rh31  1  0.569774  0.250011  0.509447  1
