# generated using pymatgen
data_VCrI18
_symmetry_space_group_name_H-M   'P 1'
_cell_length_a   10.09532061
_cell_length_b   10.09532192
_cell_length_c   10.09532229
_cell_angle_alpha   90.84977578
_cell_angle_beta   90.84976530
_cell_angle_gamma   90.84977496
_symmetry_Int_Tables_number   1
_chemical_formula_structural   VCrI18
_chemical_formula_sum   'V1 Cr1 I18'
_cell_volume   1028.52706798
_cell_formula_units_Z   1
loop_
 _symmetry_equiv_pos_site_id
 _symmetry_equiv_pos_as_xyz
  1  'x, y, z'
loop_
 _atom_site_type_symbol
 _atom_site_label
 _atom_site_symmetry_multiplicity
 _atom_site_fract_x
 _atom_site_fract_y
 _atom_site_fract_z
 _atom_site_occupancy
  V  V0  1  0.000000  0.000000  0.000000  1
  Cr  Cr1  1  0.500000  0.500000  0.500000  1
  I  I2  1  0.727905  0.987085  0.016246  1
  I  I3  1  0.743713  0.130262  0.615851  1
  I  I4  1  0.016246  0.727905  0.987085  1
  I  I5  1  0.256287  0.869738  0.384149  1
  I  I6  1  0.130262  0.615851  0.743713  1
  I  I7  1  0.012915  0.983754  0.272095  1
  I  I8  1  0.615851  0.743713  0.130262  1
  I  I9  1  0.983754  0.272095  0.012915  1
  I  I10  1  0.869738  0.384149  0.256287  1
  I  I11  1  0.384149  0.256287  0.869738  1
  I  I12  1  0.987085  0.016246  0.727905  1
  I  I13  1  0.272095  0.012915  0.983754  1
  I  I14  1  0.769941  0.524966  0.492326  1
  I  I15  1  0.507674  0.230059  0.475034  1
  I  I16  1  0.475034  0.507674  0.230059  1
  I  I17  1  0.492326  0.769941  0.524966  1
  I  I18  1  0.524966  0.492326  0.769941  1
  I  I19  1  0.230059  0.475034  0.507674  1
