# generated using pymatgen
data_Y8Hg2PtRh
_symmetry_space_group_name_H-M   'P 1'
_cell_length_a   9.65472006
_cell_length_b   9.65521998
_cell_length_c   9.65661489
_cell_angle_alpha   60.05602715
_cell_angle_beta   60.04941605
_cell_angle_gamma   60.10474882
_symmetry_Int_Tables_number   1
_chemical_formula_structural   Y8Hg2PtRh
_chemical_formula_sum   'Y16 Hg4 Pt2 Rh2'
_cell_volume   637.52991418
_cell_formula_units_Z   2
loop_
 _symmetry_equiv_pos_site_id
 _symmetry_equiv_pos_as_xyz
  1  'x, y, z'
loop_
 _atom_site_type_symbol
 _atom_site_label
 _atom_site_symmetry_multiplicity
 _atom_site_fract_x
 _atom_site_fract_y
 _atom_site_fract_z
 _atom_site_occupancy
  Y  Y0  1  0.601695  0.601619  0.599303  1
  Y  Y1  1  0.604854  0.604880  0.191214  1
  Y  Y2  1  0.608088  0.186398  0.604786  1
  Y  Y3  1  0.186443  0.608086  0.604748  1
  Y  Y4  1  0.057181  0.440941  0.440407  1
  Y  Y5  1  0.438875  0.057179  0.062371  1
  Y  Y6  1  0.440917  0.057169  0.440466  1
  Y  Y7  1  0.057139  0.438926  0.062378  1
  Y  Y8  1  0.441091  0.441158  0.059436  1
  Y  Y9  1  0.061271  0.061301  0.437375  1
  Y  Y10  1  0.187972  0.813980  0.812791  1
  Y  Y11  1  0.812744  0.187436  0.187039  1
  Y  Y12  1  0.814022  0.187950  0.812791  1
  Y  Y13  1  0.187455  0.812708  0.187048  1
  Y  Y14  1  0.814020  0.813987  0.186838  1
  Y  Y15  1  0.187548  0.187557  0.811448  1
  Hg  Hg16  1  0.834857  0.834865  0.835331  1
  Hg  Hg17  1  0.835437  0.835444  0.491940  1
  Hg  Hg18  1  0.834984  0.493437  0.835214  1
  Hg  Hg19  1  0.493462  0.834975  0.835211  1
  Pt  Pt20  1  0.393874  0.393898  0.395831  1
  Pt  Pt21  1  0.392510  0.392500  0.820211  1
  Rh  Rh22  1  0.392320  0.821302  0.392899  1
  Rh  Rh23  1  0.821240  0.392306  0.392925  1
