# generated using pymatgen
data_Li2Ho15Er(InRh2)2
_symmetry_space_group_name_H-M   'P 1'
_cell_length_a   9.62216159
_cell_length_b   9.60027997
_cell_length_c   9.60088692
_cell_angle_alpha   60.08591200
_cell_angle_beta   59.82720156
_cell_angle_gamma   59.83985255
_symmetry_Int_Tables_number   1
_chemical_formula_structural   Li2Ho15Er(InRh2)2
_chemical_formula_sum   'Li2 Ho15 Er1 In2 Rh4'
_cell_volume   625.94368430
_cell_formula_units_Z   1
loop_
 _symmetry_equiv_pos_site_id
 _symmetry_equiv_pos_as_xyz
  1  'x, y, z'
loop_
 _atom_site_type_symbol
 _atom_site_label
 _atom_site_symmetry_multiplicity
 _atom_site_fract_x
 _atom_site_fract_y
 _atom_site_fract_z
 _atom_site_occupancy
  Li  Li0  1  0.427954  0.718264  0.426378  1
  Li  Li1  1  0.428020  0.426394  0.718245  1
  Ho  Ho2  1  0.187116  0.188787  0.812450  1
  Ho  Ho3  1  0.439113  0.059787  0.060032  1
  Ho  Ho4  1  0.434208  0.063602  0.435579  1
  Ho  Ho5  1  0.064262  0.436631  0.063092  1
  Ho  Ho6  1  0.651434  0.051139  0.645609  1
  Ho  Ho7  1  0.184099  0.816759  0.816964  1
  Ho  Ho8  1  0.064350  0.063076  0.436421  1
  Ho  Ho9  1  0.807645  0.191726  0.191909  1
  Ho  Ho10  1  0.812767  0.811280  0.189874  1
  Ho  Ho11  1  0.651174  0.645812  0.051313  1
  Ho  Ho12  1  0.654190  0.653589  0.653446  1
  Ho  Ho13  1  0.063528  0.435928  0.435716  1
  Ho  Ho14  1  0.041180  0.651828  0.651492  1
  Ho  Ho15  1  0.812580  0.189879  0.811271  1
  Ho  Ho16  1  0.434086  0.435754  0.063644  1
  Er  Er17  1  0.187080  0.812202  0.188921  1
  In  In18  1  0.745804  0.420753  0.420655  1
  In  In19  1  0.415253  0.419941  0.419876  1
  Rh  Rh20  1  0.856500  0.427207  0.859461  1
  Rh  Rh21  1  0.856981  0.859387  0.426886  1
  Rh  Rh22  1  0.427430  0.859973  0.860502  1
  Rh  Rh23  1  0.853248  0.860303  0.860265  1
