# generated using pymatgen
data_Ac3NdRe4F28
_symmetry_space_group_name_H-M   'P 1'
_cell_length_a   5.94332529
_cell_length_b   9.54523911
_cell_length_c   12.76280200
_cell_angle_alpha   61.85145178
_cell_angle_beta   89.94972553
_cell_angle_gamma   89.96211054
_symmetry_Int_Tables_number   1
_chemical_formula_structural   Ac3NdRe4F28
_chemical_formula_sum   'Ac3 Nd1 Re4 F28'
_cell_volume   638.40535469
_cell_formula_units_Z   1
loop_
 _symmetry_equiv_pos_site_id
 _symmetry_equiv_pos_as_xyz
  1  'x, y, z'
loop_
 _atom_site_type_symbol
 _atom_site_label
 _atom_site_symmetry_multiplicity
 _atom_site_fract_x
 _atom_site_fract_y
 _atom_site_fract_z
 _atom_site_occupancy
  Ac  Ac0  1  0.757712  0.807522  0.265224  1
  Ac  Ac1  1  0.257836  0.191246  0.234672  1
  Ac  Ac2  1  0.241656  0.186333  0.735306  1
  Nd  Nd3  1  0.740304  0.808216  0.764558  1
  Re  Re4  1  0.243177  0.726589  0.547364  1
  Re  Re5  1  0.743991  0.278801  0.954607  1
  Re  Re6  1  0.755133  0.270587  0.458920  1
  Re  Re7  1  0.256165  0.726699  0.039106  1
  F  F8  1  0.972051  0.715266  0.460654  1
  F  F9  1  0.468541  0.287028  0.039826  1
  F  F10  1  0.031198  0.283379  0.541958  1
  F  F11  1  0.532848  0.718625  0.952406  1
  F  F12  1  0.054049  0.712517  0.920443  1
  F  F13  1  0.559579  0.289536  0.577386  1
  F  F14  1  0.938791  0.292404  0.075365  1
  F  F15  1  0.438118  0.710013  0.427573  1
  F  F16  1  0.737251  0.515681  0.860646  1
  F  F17  1  0.236747  0.491202  0.639330  1
  F  F18  1  0.263993  0.492418  0.135585  1
  F  F19  1  0.762921  0.505657  0.363554  1
  F  F20  1  0.740490  0.044065  0.047560  1
  F  F21  1  0.240077  0.961046  0.452243  1
  F  F22  1  0.258811  0.961767  0.949309  1
  F  F23  1  0.759209  0.035444  0.553844  1
  F  F24  1  0.043317  0.745266  0.666647  1
  F  F25  1  0.552893  0.260063  0.834010  1
  F  F26  1  0.945601  0.256994  0.336165  1
  F  F27  1  0.446722  0.741403  0.161792  1
  F  F28  1  0.013065  0.269790  0.865872  1
  F  F29  1  0.513213  0.734097  0.637634  1
  F  F30  1  0.989899  0.730746  0.131284  1
  F  F31  1  0.486194  0.267991  0.368312  1
  F  F32  1  0.093050  0.965399  0.230785  1
  F  F33  1  0.594000  0.033862  0.269133  1
  F  F34  1  0.906243  0.020940  0.768002  1
  F  F35  1  0.425153  0.961403  0.732921  1
