# generated using pymatgen
data_La7Ce(ZnRh)8
_symmetry_space_group_name_H-M   'P 1'
_cell_length_a   4.02569300
_cell_length_b   7.51253579
_cell_length_c   16.58633263
_cell_angle_alpha   90.05167628
_cell_angle_beta   90.00000000
_cell_angle_gamma   90.00000000
_symmetry_Int_Tables_number   1
_chemical_formula_structural   La7Ce(ZnRh)8
_chemical_formula_sum   'La7 Ce1 Zn8 Rh8'
_cell_volume   501.62295300
_cell_formula_units_Z   1
loop_
 _symmetry_equiv_pos_site_id
 _symmetry_equiv_pos_as_xyz
  1  'x, y, z'
loop_
 _atom_site_type_symbol
 _atom_site_label
 _atom_site_symmetry_multiplicity
 _atom_site_fract_x
 _atom_site_fract_y
 _atom_site_fract_z
 _atom_site_occupancy
  La  La0  1  0.250000  0.049571  0.716357  1
  La  La1  1  0.250000  0.549274  0.781912  1
  La  La2  1  0.250000  0.671029  0.558436  1
  La  La3  1  0.750000  0.828169  0.059988  1
  La  La4  1  0.250000  0.172964  0.940354  1
  La  La5  1  0.750000  0.451635  0.218465  1
  La  La6  1  0.750000  0.949364  0.284340  1
  Ce  Ce7  1  0.750000  0.322938  0.441111  1
  Zn  Zn8  1  0.250000  0.124132  0.149962  1
  Zn  Zn9  1  0.250000  0.994697  0.440069  1
  Zn  Zn10  1  0.750000  0.874117  0.850188  1
  Zn  Zn11  1  0.750000  0.001452  0.558153  1
  Zn  Zn12  1  0.250000  0.498446  0.059605  1
  Zn  Zn13  1  0.750000  0.372348  0.647359  1
  Zn  Zn14  1  0.750000  0.502067  0.940431  1
  Zn  Zn15  1  0.250000  0.618056  0.352066  1
  Rh  Rh16  1  0.750000  0.256583  0.812657  1
  Rh  Rh17  1  0.250000  0.253259  0.325177  1
  Rh  Rh18  1  0.250000  0.742139  0.934514  1
  Rh  Rh19  1  0.250000  0.249663  0.557004  1
  Rh  Rh20  1  0.250000  0.746843  0.186063  1
  Rh  Rh21  1  0.750000  0.752717  0.434004  1
  Rh  Rh22  1  0.750000  0.259173  0.067195  1
  Rh  Rh23  1  0.750000  0.759363  0.684591  1
