# generated using pymatgen
data_Sr8Mg6CdSi16Hg
_symmetry_space_group_name_H-M   'P 1'
_cell_length_a   4.41871000
_cell_length_b   11.45631269
_cell_length_c   14.42367101
_cell_angle_alpha   90.10718795
_cell_angle_beta   90.00000000
_cell_angle_gamma   90.00000000
_symmetry_Int_Tables_number   1
_chemical_formula_structural   Sr8Mg6CdSi16Hg
_chemical_formula_sum   'Sr8 Mg6 Cd1 Si16 Hg1'
_cell_volume   730.15557653
_cell_formula_units_Z   1
loop_
 _symmetry_equiv_pos_site_id
 _symmetry_equiv_pos_as_xyz
  1  'x, y, z'
loop_
 _atom_site_type_symbol
 _atom_site_label
 _atom_site_symmetry_multiplicity
 _atom_site_fract_x
 _atom_site_fract_y
 _atom_site_fract_z
 _atom_site_occupancy
  Sr  Sr0  1  0.250000  0.522427  0.197898  1
  Sr  Sr1  1  0.250000  0.741377  0.939446  1
  Sr  Sr2  1  0.750000  0.258275  0.060213  1
  Sr  Sr3  1  0.750000  0.242490  0.559450  1
  Sr  Sr4  1  0.250000  0.757651  0.439636  1
  Sr  Sr5  1  0.250000  0.976709  0.697135  1
  Sr  Sr6  1  0.750000  0.026021  0.302817  1
  Sr  Sr7  1  0.750000  0.475170  0.803265  1
  Mg  Mg8  1  0.750000  0.556213  0.558031  1
  Mg  Mg9  1  0.750000  0.942491  0.059283  1
  Mg  Mg10  1  0.250000  0.680428  0.690694  1
  Mg  Mg11  1  0.750000  0.321444  0.310302  1
  Mg  Mg12  1  0.750000  0.178767  0.809575  1
  Mg  Mg13  1  0.250000  0.819383  0.189861  1
  Cd  Cd14  1  0.250000  0.057423  0.942093  1
  Si  Si15  1  0.750000  0.951886  0.865572  1
  Si  Si16  1  0.250000  0.453758  0.636915  1
  Si  Si17  1  0.750000  0.549218  0.364182  1
  Si  Si18  1  0.250000  0.029495  0.467179  1
  Si  Si19  1  0.250000  0.046900  0.135786  1
  Si  Si20  1  0.250000  0.272756  0.721490  1
  Si  Si21  1  0.750000  0.728360  0.278234  1
  Si  Si22  1  0.750000  0.772865  0.777992  1
  Si  Si23  1  0.250000  0.210588  0.391856  1
  Si  Si24  1  0.750000  0.969536  0.533401  1
  Si  Si25  1  0.750000  0.528721  0.034288  1
  Si  Si26  1  0.250000  0.471270  0.965928  1
  Si  Si27  1  0.250000  0.288013  0.891970  1
  Si  Si28  1  0.750000  0.785628  0.606192  1
  Si  Si29  1  0.750000  0.713536  0.106426  1
  Si  Si30  1  0.250000  0.227872  0.221168  1
  Hg  Hg31  1  0.250000  0.443325  0.441720  1
