# generated using pymatgen
data_Sr3Fe2WO9
_symmetry_space_group_name_H-M   'P 1'
_cell_length_a   9.77869289
_cell_length_b   9.77869355
_cell_length_c   5.62614465
_cell_angle_alpha   73.40986520
_cell_angle_beta   73.40986210
_cell_angle_gamma   48.65465852
_symmetry_Int_Tables_number   1
_chemical_formula_structural   Sr3Fe2WO9
_chemical_formula_sum   'Sr6 Fe4 W2 O18'
_cell_volume   383.54958348
_cell_formula_units_Z   2
loop_
 _symmetry_equiv_pos_site_id
 _symmetry_equiv_pos_as_xyz
  1  'x, y, z'
loop_
 _atom_site_type_symbol
 _atom_site_label
 _atom_site_symmetry_multiplicity
 _atom_site_fract_x
 _atom_site_fract_y
 _atom_site_fract_z
 _atom_site_occupancy
  Sr  Sr0  1  0.918455  0.397306  0.844222  1
  Sr  Sr1  1  0.230358  0.769642  0.500000  1
  Sr  Sr2  1  0.602694  0.081545  0.155778  1
  Sr  Sr3  1  0.769642  0.230358  0.500000  1
  Sr  Sr4  1  0.081545  0.602694  0.155778  1
  Sr  Sr5  1  0.397306  0.918455  0.844222  1
  Fe  Fe6  1  0.500000  0.500000  0.000000  1
  Fe  Fe7  1  0.834632  0.834632  0.665825  1
  Fe  Fe8  1  0.165368  0.165368  0.334175  1
  Fe  Fe9  1  0.000000  0.000000  0.000000  1
  W  W10  1  0.332458  0.332458  0.665308  1
  W  W11  1  0.667542  0.667542  0.334692  1
  O  O12  1  0.427208  0.911841  0.330065  1
  O  O13  1  0.743521  0.256479  0.000000  1
  O  O14  1  0.088159  0.572792  0.669935  1
  O  O15  1  0.911841  0.427208  0.330065  1
  O  O16  1  0.256479  0.743521  0.000000  1
  O  O17  1  0.572792  0.088159  0.669935  1
  O  O18  1  0.076616  0.076616  0.198863  1
  O  O19  1  0.400021  0.400021  0.880158  1
  O  O20  1  0.734055  0.734055  0.551895  1
  O  O21  1  0.599979  0.599979  0.119842  1
  O  O22  1  0.923384  0.923384  0.801137  1
  O  O23  1  0.265945  0.265945  0.448105  1
  O  O24  1  0.573753  0.573753  0.627614  1
  O  O25  1  0.905421  0.905421  0.322450  1
  O  O26  1  0.239662  0.239662  0.963227  1
  O  O27  1  0.094579  0.094579  0.677550  1
  O  O28  1  0.426247  0.426247  0.372386  1
  O  O29  1  0.760338  0.760338  0.036773  1
