# generated using pymatgen
data_LaYSb5
_symmetry_space_group_name_H-M   'P 1'
_cell_length_a   4.31385600
_cell_length_b   13.49555824
_cell_length_c   15.14614721
_cell_angle_alpha   78.42038559
_cell_angle_beta   90.00000000
_cell_angle_gamma   90.00000000
_symmetry_Int_Tables_number   1
_chemical_formula_structural   LaYSb5
_chemical_formula_sum   'La4 Y4 Sb20'
_cell_volume   863.82976530
_cell_formula_units_Z   4
loop_
 _symmetry_equiv_pos_site_id
 _symmetry_equiv_pos_as_xyz
  1  'x, y, z'
loop_
 _atom_site_type_symbol
 _atom_site_label
 _atom_site_symmetry_multiplicity
 _atom_site_fract_x
 _atom_site_fract_y
 _atom_site_fract_z
 _atom_site_occupancy
  La  La0  1  0.250000  0.949400  0.367966  1
  La  La1  1  0.750000  0.050600  0.632034  1
  La  La2  1  0.250000  0.665813  0.855055  1
  La  La3  1  0.750000  0.334187  0.144945  1
  Y  Y4  1  0.250000  0.663224  0.576858  1
  Y  Y5  1  0.750000  0.336776  0.423142  1
  Y  Y6  1  0.250000  0.398086  0.769125  1
  Y  Y7  1  0.750000  0.601914  0.230875  1
  Sb  Sb8  1  0.250000  0.426104  0.556055  1
  Sb  Sb9  1  0.750000  0.573896  0.443945  1
  Sb  Sb10  1  0.250000  0.714341  0.067085  1
  Sb  Sb11  1  0.750000  0.285659  0.932915  1
  Sb  Sb12  1  0.250000  0.419061  0.971034  1
  Sb  Sb13  1  0.750000  0.580939  0.028966  1
  Sb  Sb14  1  0.250000  0.858141  0.671151  1
  Sb  Sb15  1  0.750000  0.141859  0.328849  1
  Sb  Sb16  1  0.250000  0.145366  0.185268  1
  Sb  Sb17  1  0.750000  0.854634  0.814732  1
  Sb  Sb18  1  0.250000  0.702668  0.355553  1
  Sb  Sb19  1  0.750000  0.297332  0.644447  1
  Sb  Sb20  1  0.250000  0.149702  0.773755  1
  Sb  Sb21  1  0.750000  0.850298  0.226245  1
  Sb  Sb22  1  0.250000  0.426068  0.269579  1
  Sb  Sb23  1  0.750000  0.573932  0.730421  1
  Sb  Sb24  1  0.250000  0.155888  0.475350  1
  Sb  Sb25  1  0.750000  0.844112  0.524650  1
  Sb  Sb26  1  0.250000  0.962130  0.117540  1
  Sb  Sb27  1  0.750000  0.037870  0.882460  1
