# generated using pymatgen
data_Ho10Hg5Pd4Pb3
_symmetry_space_group_name_H-M   'P 1'
_cell_length_a   3.67960600
_cell_length_b   8.04623093
_cell_length_c   18.15826119
_cell_angle_alpha   89.69646492
_cell_angle_beta   90.00000000
_cell_angle_gamma   90.00000000
_symmetry_Int_Tables_number   1
_chemical_formula_structural   Ho10Hg5Pd4Pb3
_chemical_formula_sum   'Ho10 Hg5 Pd4 Pb3'
_cell_volume   537.60336150
_cell_formula_units_Z   1
loop_
 _symmetry_equiv_pos_site_id
 _symmetry_equiv_pos_as_xyz
  1  'x, y, z'
loop_
 _atom_site_type_symbol
 _atom_site_label
 _atom_site_symmetry_multiplicity
 _atom_site_fract_x
 _atom_site_fract_y
 _atom_site_fract_z
 _atom_site_occupancy
  Ho  Ho0  1  0.000000  0.497264  0.504056  1
  Ho  Ho1  1  0.000000  0.002907  0.000397  1
  Ho  Ho2  1  0.000000  0.741716  0.286139  1
  Ho  Ho3  1  0.000000  0.270522  0.710548  1
  Ho  Ho4  1  0.000000  0.753620  0.781357  1
  Ho  Ho5  1  0.000000  0.242773  0.214519  1
  Ho  Ho6  1  0.000000  0.610583  0.083759  1
  Ho  Ho7  1  0.000000  0.391069  0.914335  1
  Ho  Ho8  1  0.000000  0.885103  0.586183  1
  Ho  Ho9  1  0.000000  0.103903  0.417522  1
  Hg  Hg10  1  0.500000  0.705827  0.936324  1
  Hg  Hg11  1  0.500000  0.297093  0.063933  1
  Hg  Hg12  1  0.500000  0.791094  0.437211  1
  Hg  Hg13  1  0.500000  0.203398  0.563008  1
  Hg  Hg14  1  0.500000  0.585745  0.647820  1
  Pd  Pd15  1  0.500000  0.528766  0.197409  1
  Pd  Pd16  1  0.500000  0.473182  0.801919  1
  Pd  Pd17  1  0.500000  0.977177  0.696573  1
  Pd  Pd18  1  0.500000  0.027052  0.303882  1
  Pb  Pb19  1  0.500000  0.412978  0.353339  1
  Pb  Pb20  1  0.500000  0.916938  0.148761  1
  Pb  Pb21  1  0.500000  0.081292  0.851003  1
