# generated using pymatgen
data_HfTiGaFe3
_symmetry_space_group_name_H-M   'P 1'
_cell_length_a   4.93417800
_cell_length_b   4.93417894
_cell_length_c   7.99840600
_cell_angle_alpha   90.00000000
_cell_angle_beta   90.00000000
_cell_angle_gamma   120.00000712
_symmetry_Int_Tables_number   1
_chemical_formula_structural   HfTiGaFe3
_chemical_formula_sum   'Hf2 Ti2 Ga2 Fe6'
_cell_volume   168.64122700
_cell_formula_units_Z   2
loop_
 _symmetry_equiv_pos_site_id
 _symmetry_equiv_pos_as_xyz
  1  'x, y, z'
loop_
 _atom_site_type_symbol
 _atom_site_label
 _atom_site_symmetry_multiplicity
 _atom_site_fract_x
 _atom_site_fract_y
 _atom_site_fract_z
 _atom_site_occupancy
  Hf  Hf0  1  0.666667  0.333333  0.425975  1
  Hf  Hf1  1  0.333333  0.666667  0.574025  1
  Ti  Ti2  1  0.333333  0.666667  0.943064  1
  Ti  Ti3  1  0.666667  0.333333  0.056936  1
  Ga  Ga4  1  0.000000  0.000000  0.500000  1
  Ga  Ga5  1  0.000000  0.000000  0.000000  1
  Fe  Fe6  1  0.653194  0.826596  0.246278  1
  Fe  Fe7  1  0.173404  0.826596  0.246278  1
  Fe  Fe8  1  0.173404  0.346806  0.246278  1
  Fe  Fe9  1  0.346806  0.173404  0.753722  1
  Fe  Fe10  1  0.826596  0.173404  0.753722  1
  Fe  Fe11  1  0.826596  0.653194  0.753722  1
