# generated using pymatgen
data_Ta10GaPt4
_symmetry_space_group_name_H-M   'P 1'
_cell_length_a   9.96403200
_cell_length_b   9.96403200
_cell_length_c   5.19559100
_cell_angle_alpha   90.00000000
_cell_angle_beta   90.00000000
_cell_angle_gamma   90.00000000
_symmetry_Int_Tables_number   1
_chemical_formula_structural   Ta10GaPt4
_chemical_formula_sum   'Ta20 Ga2 Pt8'
_cell_volume   515.82832118
_cell_formula_units_Z   2
loop_
 _symmetry_equiv_pos_site_id
 _symmetry_equiv_pos_as_xyz
  1  'x, y, z'
loop_
 _atom_site_type_symbol
 _atom_site_label
 _atom_site_symmetry_multiplicity
 _atom_site_fract_x
 _atom_site_fract_y
 _atom_site_fract_z
 _atom_site_occupancy
  Ta  Ta0  1  0.397716  0.397716  0.000000  1
  Ta  Ta1  1  0.897716  0.102284  0.500000  1
  Ta  Ta2  1  0.102284  0.897716  0.500000  1
  Ta  Ta3  1  0.602284  0.602284  0.000000  1
  Ta  Ta4  1  0.128324  0.463834  0.000000  1
  Ta  Ta5  1  0.963834  0.371676  0.500000  1
  Ta  Ta6  1  0.036166  0.628324  0.500000  1
  Ta  Ta7  1  0.871676  0.536166  0.000000  1
  Ta  Ta8  1  0.371676  0.963834  0.500000  1
  Ta  Ta9  1  0.628324  0.036166  0.500000  1
  Ta  Ta10  1  0.463834  0.128324  0.000000  1
  Ta  Ta11  1  0.536166  0.871676  0.000000  1
  Ta  Ta12  1  0.181175  0.181175  0.252718  1
  Ta  Ta13  1  0.681175  0.318825  0.752718  1
  Ta  Ta14  1  0.318825  0.681175  0.752718  1
  Ta  Ta15  1  0.818825  0.818825  0.252718  1
  Ta  Ta16  1  0.318825  0.681175  0.247282  1
  Ta  Ta17  1  0.681175  0.318825  0.247282  1
  Ta  Ta18  1  0.181175  0.181175  0.747282  1
  Ta  Ta19  1  0.818825  0.818825  0.747282  1
  Ga  Ga20  1  0.000000  0.000000  0.000000  1
  Ga  Ga21  1  0.500000  0.500000  0.500000  1
  Pt  Pt22  1  0.265190  0.935931  0.000000  1
  Pt  Pt23  1  0.435931  0.234810  0.500000  1
  Pt  Pt24  1  0.564069  0.765190  0.500000  1
  Pt  Pt25  1  0.734810  0.064069  0.000000  1
  Pt  Pt26  1  0.234810  0.435931  0.500000  1
  Pt  Pt27  1  0.765190  0.564069  0.500000  1
  Pt  Pt28  1  0.935931  0.265190  0.000000  1
  Pt  Pt29  1  0.064069  0.734810  0.000000  1
