# generated using pymatgen
data_YLuRe8Si3P
_symmetry_space_group_name_H-M   'P 1'
_cell_length_a   7.41606279
_cell_length_b   7.41606177
_cell_length_c   4.08863800
_cell_angle_alpha   90.00000000
_cell_angle_beta   90.00000000
_cell_angle_gamma   90.66101812
_symmetry_Int_Tables_number   1
_chemical_formula_structural   YLuRe8Si3P
_chemical_formula_sum   'Y1 Lu1 Re8 Si3 P1'
_cell_volume   224.85186516
_cell_formula_units_Z   1
loop_
 _symmetry_equiv_pos_site_id
 _symmetry_equiv_pos_as_xyz
  1  'x, y, z'
loop_
 _atom_site_type_symbol
 _atom_site_label
 _atom_site_symmetry_multiplicity
 _atom_site_fract_x
 _atom_site_fract_y
 _atom_site_fract_z
 _atom_site_occupancy
  Y  Y0  1  0.999055  0.999055  0.500000  1
  Lu  Lu1  1  0.499907  0.499907  0.000000  1
  Re  Re2  1  0.656915  0.904197  0.000000  1
  Re  Re3  1  0.161306  0.588754  0.500000  1
  Re  Re4  1  0.095058  0.344028  0.000000  1
  Re  Re5  1  0.904197  0.656915  0.000000  1
  Re  Re6  1  0.415428  0.835183  0.500000  1
  Re  Re7  1  0.588754  0.161306  0.500000  1
  Re  Re8  1  0.344028  0.095058  0.000000  1
  Re  Re9  1  0.835183  0.415428  0.500000  1
  Si  Si10  1  0.210608  0.789996  0.000000  1
  Si  Si11  1  0.789996  0.210608  0.000000  1
  Si  Si12  1  0.293684  0.293684  0.500000  1
  P  P13  1  0.705882  0.705882  0.500000  1
