# generated using pymatgen
data_TmLu(B3Mo)2
_symmetry_space_group_name_H-M   'P 1'
_cell_length_a   3.15103700
_cell_length_b   5.39539065
_cell_length_c   6.77822135
_cell_angle_alpha   78.65536268
_cell_angle_beta   90.00000000
_cell_angle_gamma   90.00000000
_symmetry_Int_Tables_number   1
_chemical_formula_structural   TmLu(B3Mo)2
_chemical_formula_sum   'Tm1 Lu1 B6 Mo2'
_cell_volume   112.98551783
_cell_formula_units_Z   1
loop_
 _symmetry_equiv_pos_site_id
 _symmetry_equiv_pos_as_xyz
  1  'x, y, z'
loop_
 _atom_site_type_symbol
 _atom_site_label
 _atom_site_symmetry_multiplicity
 _atom_site_fract_x
 _atom_site_fract_y
 _atom_site_fract_z
 _atom_site_occupancy
  Tm  Tm0  1  0.750000  0.677061  0.291112  1
  Lu  Lu1  1  0.250000  0.320400  0.711529  1
  B  B2  1  0.250000  0.920893  0.523268  1
  B  B3  1  0.750000  0.085608  0.477188  1
  B  B4  1  0.250000  0.911565  0.004266  1
  B  B5  1  0.750000  0.086645  0.995028  1
  B  B6  1  0.250000  0.582832  0.006861  1
  B  B7  1  0.750000  0.415698  0.991795  1
  Mo  Mo8  1  0.250000  0.190310  0.221126  1
  Mo  Mo9  1  0.750000  0.808988  0.777827  1
