# generated using pymatgen
data_Pr3Eu(SeO3)6
_symmetry_space_group_name_H-M   'P 1'
_cell_length_a   7.34037423
_cell_length_b   8.39866981
_cell_length_c   9.32950100
_cell_angle_alpha   70.76137965
_cell_angle_beta   70.03571268
_cell_angle_gamma   66.20992003
_symmetry_Int_Tables_number   1
_chemical_formula_structural   Pr3Eu(SeO3)6
_chemical_formula_sum   'Pr3 Eu1 Se6 O18'
_cell_volume   482.20547934
_cell_formula_units_Z   1
loop_
 _symmetry_equiv_pos_site_id
 _symmetry_equiv_pos_as_xyz
  1  'x, y, z'
loop_
 _atom_site_type_symbol
 _atom_site_label
 _atom_site_symmetry_multiplicity
 _atom_site_fract_x
 _atom_site_fract_y
 _atom_site_fract_z
 _atom_site_occupancy
  Pr  Pr0  1  0.333159  0.733710  0.587560  1
  Pr  Pr1  1  0.665664  0.270029  0.409534  1
  Pr  Pr2  1  0.740343  0.735863  0.802444  1
  Eu  Eu3  1  0.262446  0.260873  0.197095  1
  Se  Se4  1  0.422548  0.780483  0.198355  1
  Se  Se5  1  0.575292  0.227838  0.798840  1
  Se  Se6  1  0.151958  0.744471  0.968141  1
  Se  Se7  1  0.850438  0.246351  0.035997  1
  Se  Se8  1  0.889569  0.758926  0.416638  1
  Se  Se9  1  0.111461  0.240666  0.581292  1
  O  O10  1  0.640082  0.796385  0.059621  1
  O  O11  1  0.359609  0.211638  0.940101  1
  O  O12  1  0.357551  0.942572  0.303470  1
  O  O13  1  0.638744  0.064670  0.696177  1
  O  O14  1  0.507028  0.600023  0.346362  1
  O  O15  1  0.488605  0.407371  0.650419  1
  O  O16  1  0.169952  0.566399  0.123932  1
  O  O17  1  0.831394  0.423815  0.880884  1
  O  O18  1  0.401702  0.712309  0.854713  1
  O  O19  1  0.598539  0.284517  0.148365  1
  O  O20  1  0.339967  0.243562  0.440587  1
  O  O21  1  0.660830  0.753944  0.557529  1
  O  O22  1  0.971157  0.288686  0.445369  1
  O  O23  1  0.028563  0.710744  0.554459  1
  O  O24  1  0.148597  0.020463  0.659449  1
  O  O25  1  0.850801  0.978741  0.341568  1
  O  O26  1  0.936245  0.302368  0.159063  1
  O  O27  1  0.067755  0.692584  0.842038  1
