# generated using pymatgen
data_Li2Tb3Pa3(Co4P3)4
_symmetry_space_group_name_H-M   'P 1'
_cell_length_a   3.73718900
_cell_length_b   10.53320843
_cell_length_c   12.18651035
_cell_angle_alpha   90.13461972
_cell_angle_beta   90.00000000
_cell_angle_gamma   90.00000000
_symmetry_Int_Tables_number   1
_chemical_formula_structural   Li2Tb3Pa3(Co4P3)4
_chemical_formula_sum   'Li2 Tb3 Pa3 Co16 P12'
_cell_volume   479.71566754
_cell_formula_units_Z   1
loop_
 _symmetry_equiv_pos_site_id
 _symmetry_equiv_pos_as_xyz
  1  'x, y, z'
loop_
 _atom_site_type_symbol
 _atom_site_label
 _atom_site_symmetry_multiplicity
 _atom_site_fract_x
 _atom_site_fract_y
 _atom_site_fract_z
 _atom_site_occupancy
  Li  Li0  1  0.500000  0.499958  0.151423  1
  Li  Li1  1  0.000000  0.998908  0.850264  1
  Tb  Tb2  1  0.500000  0.184787  0.204939  1
  Tb  Tb3  1  0.000000  0.685336  0.795684  1
  Tb  Tb4  1  0.000000  0.315540  0.793675  1
  Pa  Pa5  1  0.000000  0.499197  0.528086  1
  Pa  Pa6  1  0.500000  0.000687  0.474594  1
  Pa  Pa7  1  0.500000  0.818125  0.207681  1
  Co  Co8  1  0.500000  0.498948  0.695184  1
  Co  Co9  1  0.000000  0.994315  0.300382  1
  Co  Co10  1  0.000000  0.499892  0.983889  1
  Co  Co11  1  0.500000  0.000660  0.015266  1
  Co  Co12  1  0.500000  0.334242  0.994871  1
  Co  Co13  1  0.500000  0.666641  0.996874  1
  Co  Co14  1  0.000000  0.168030  0.003996  1
  Co  Co15  1  0.000000  0.832816  0.006121  1
  Co  Co16  1  0.500000  0.299446  0.432384  1
  Co  Co17  1  0.500000  0.698182  0.433178  1
  Co  Co18  1  0.000000  0.197838  0.565950  1
  Co  Co19  1  0.000000  0.800554  0.568486  1
  Co  Co20  1  0.500000  0.878777  0.707361  1
  Co  Co21  1  0.500000  0.120784  0.706044  1
  Co  Co22  1  0.000000  0.626986  0.290301  1
  Co  Co23  1  0.000000  0.380872  0.294317  1
  P  P24  1  0.500000  0.500333  0.879750  1
  P  P25  1  0.000000  0.001868  0.116930  1
  P  P26  1  0.500000  0.498656  0.344597  1
  P  P27  1  0.000000  0.999730  0.657676  1
  P  P28  1  0.500000  0.305612  0.615369  1
  P  P29  1  0.500000  0.692941  0.617343  1
  P  P30  1  0.000000  0.190478  0.382157  1
  P  P31  1  0.000000  0.807288  0.388091  1
  P  P32  1  0.500000  0.845386  0.895223  1
  P  P33  1  0.500000  0.155366  0.894212  1
  P  P34  1  0.000000  0.655094  0.103045  1
  P  P35  1  0.000000  0.345725  0.104655  1
