# generated using pymatgen
data_TbSc2Zn2Co9B4
_symmetry_space_group_name_H-M   'P 1'
_cell_length_a   5.04022202
_cell_length_b   5.04603171
_cell_length_c   9.63021300
_cell_angle_alpha   90.00004398
_cell_angle_beta   89.99997737
_cell_angle_gamma   120.07175952
_symmetry_Int_Tables_number   1
_chemical_formula_structural   TbSc2Zn2Co9B4
_chemical_formula_sum   'Tb1 Sc2 Zn2 Co9 B4'
_cell_volume   211.95890920
_cell_formula_units_Z   1
loop_
 _symmetry_equiv_pos_site_id
 _symmetry_equiv_pos_as_xyz
  1  'x, y, z'
loop_
 _atom_site_type_symbol
 _atom_site_label
 _atom_site_symmetry_multiplicity
 _atom_site_fract_x
 _atom_site_fract_y
 _atom_site_fract_z
 _atom_site_occupancy
  Tb  Tb0  1  0.999986  0.999998  0.999975  1
  Sc  Sc1  1  0.000001  0.000001  0.345243  1
  Sc  Sc2  1  0.000046  0.000029  0.654827  1
  Zn  Zn3  1  0.333088  0.666481  0.999974  1
  Zn  Zn4  1  0.666881  0.333512  0.999975  1
  Co  Co5  1  0.499996  0.999998  0.500026  1
  Co  Co6  1  0.499995  0.500001  0.500004  1
  Co  Co7  1  0.999994  0.499996  0.500033  1
  Co  Co8  1  0.499991  0.999998  0.212620  1
  Co  Co9  1  0.499989  0.499998  0.212541  1
  Co  Co10  1  0.999988  0.499996  0.212469  1
  Co  Co11  1  0.499999  0.999998  0.787372  1
  Co  Co12  1  0.499999  0.500008  0.787462  1
  Co  Co13  1  0.999991  0.499997  0.787502  1
  B  B14  1  0.333299  0.666737  0.351966  1
  B  B15  1  0.666678  0.333259  0.351966  1
  B  B16  1  0.666693  0.333194  0.648024  1
  B  B17  1  0.333289  0.666800  0.648024  1
