# generated using pymatgen
data_Tm3Fe6Co(P3Ir)2
_symmetry_space_group_name_H-M   'P 1'
_cell_length_a   3.73833000
_cell_length_b   10.70960000
_cell_length_c   12.17099400
_cell_angle_alpha   90.00000000
_cell_angle_beta   90.00000000
_cell_angle_gamma   90.00000000
_symmetry_Int_Tables_number   1
_chemical_formula_structural   Tm3Fe6Co(P3Ir)2
_chemical_formula_sum   'Tm6 Fe12 Co2 P12 Ir4'
_cell_volume   487.27814664
_cell_formula_units_Z   2
loop_
 _symmetry_equiv_pos_site_id
 _symmetry_equiv_pos_as_xyz
  1  'x, y, z'
loop_
 _atom_site_type_symbol
 _atom_site_label
 _atom_site_symmetry_multiplicity
 _atom_site_fract_x
 _atom_site_fract_y
 _atom_site_fract_z
 _atom_site_occupancy
  Tm  Tm0  1  0.000000  0.500000  0.522794  1
  Tm  Tm1  1  0.500000  0.000000  0.477672  1
  Tm  Tm2  1  0.500000  0.817229  0.203509  1
  Tm  Tm3  1  0.500000  0.182771  0.203509  1
  Tm  Tm4  1  0.000000  0.683376  0.796512  1
  Tm  Tm5  1  0.000000  0.316624  0.796512  1
  Fe  Fe6  1  0.000000  0.500000  0.992634  1
  Fe  Fe7  1  0.500000  0.000000  0.008623  1
  Fe  Fe8  1  0.500000  0.331951  0.995256  1
  Fe  Fe9  1  0.500000  0.668049  0.995256  1
  Fe  Fe10  1  0.000000  0.168150  0.005269  1
  Fe  Fe11  1  0.000000  0.831850  0.005269  1
  Fe  Fe12  1  0.500000  0.300318  0.428947  1
  Fe  Fe13  1  0.500000  0.699682  0.428947  1
  Fe  Fe14  1  0.000000  0.199593  0.569245  1
  Fe  Fe15  1  0.000000  0.800407  0.569245  1
  Fe  Fe16  1  0.500000  0.882474  0.711048  1
  Fe  Fe17  1  0.500000  0.117526  0.711048  1
  Co  Co18  1  0.000000  0.618684  0.287894  1
  Co  Co19  1  0.000000  0.381316  0.287894  1
  P  P20  1  0.500000  0.500000  0.891061  1
  P  P21  1  0.000000  0.000000  0.108688  1
  P  P22  1  0.500000  0.500000  0.350788  1
  P  P23  1  0.000000  0.000000  0.652183  1
  P  P24  1  0.500000  0.297261  0.614582  1
  P  P25  1  0.500000  0.702739  0.614582  1
  P  P26  1  0.000000  0.201363  0.385738  1
  P  P27  1  0.000000  0.798637  0.385738  1
  P  P28  1  0.500000  0.841915  0.895893  1
  P  P29  1  0.500000  0.158085  0.895893  1
  P  P30  1  0.000000  0.658918  0.102752  1
  P  P31  1  0.000000  0.341082  0.102752  1
  Ir  Ir32  1  0.500000  0.500000  0.158682  1
  Ir  Ir33  1  0.000000  0.000000  0.843798  1
  Ir  Ir34  1  0.500000  0.500000  0.698469  1
  Ir  Ir35  1  0.000000  0.000000  0.301318  1
