# generated using pymatgen
data_BaSmPPt8
_symmetry_space_group_name_H-M   'P 1'
_cell_length_a   9.41103742
_cell_length_b   9.38719183
_cell_length_c   4.29650600
_cell_angle_alpha   90.00000000
_cell_angle_beta   90.00000000
_cell_angle_gamma   145.85909790
_symmetry_Int_Tables_number   1
_chemical_formula_structural   BaSmPPt8
_chemical_formula_sum   'Ba1 Sm1 P1 Pt8'
_cell_volume   213.02446412
_cell_formula_units_Z   1
loop_
 _symmetry_equiv_pos_site_id
 _symmetry_equiv_pos_as_xyz
  1  'x, y, z'
loop_
 _atom_site_type_symbol
 _atom_site_label
 _atom_site_symmetry_multiplicity
 _atom_site_fract_x
 _atom_site_fract_y
 _atom_site_fract_z
 _atom_site_occupancy
  Ba  Ba0  1  0.619339  0.381047  0.500000  1
  Sm  Sm1  1  0.365935  0.622509  0.500000  1
  P  P2  1  0.213393  0.211387  0.000000  1
  Pt  Pt3  1  0.113254  0.889889  0.000000  1
  Pt  Pt4  1  0.894516  0.111379  0.000000  1
  Pt  Pt5  1  0.495992  0.979223  0.000000  1
  Pt  Pt6  1  0.001945  0.491233  0.000000  1
  Pt  Pt7  1  0.200428  0.790011  0.500000  1
  Pt  Pt8  1  0.796150  0.191324  0.500000  1
  Pt  Pt9  1  0.006904  0.012389  0.500000  1
  Pt  Pt10  1  0.605743  0.633209  0.000000  1
