# generated using pymatgen
data_Ho4Tm6Si5Sn
_symmetry_space_group_name_H-M   'P 1'
_cell_length_a   8.45179991
_cell_length_b   8.45179803
_cell_length_c   6.30102000
_cell_angle_alpha   90.00000000
_cell_angle_beta   90.00000000
_cell_angle_gamma   120.23469385
_symmetry_Int_Tables_number   1
_chemical_formula_structural   Ho4Tm6Si5Sn
_chemical_formula_sum   'Ho4 Tm6 Si5 Sn1'
_cell_volume   388.87306660
_cell_formula_units_Z   1
loop_
 _symmetry_equiv_pos_site_id
 _symmetry_equiv_pos_as_xyz
  1  'x, y, z'
loop_
 _atom_site_type_symbol
 _atom_site_label
 _atom_site_symmetry_multiplicity
 _atom_site_fract_x
 _atom_site_fract_y
 _atom_site_fract_z
 _atom_site_occupancy
  Ho  Ho0  1  0.765577  0.765577  0.250000  1
  Ho  Ho1  1  0.240771  0.240771  0.750000  1
  Ho  Ho2  1  0.756043  0.998856  0.750000  1
  Ho  Ho3  1  0.998856  0.756043  0.750000  1
  Tm  Tm4  1  0.673760  0.331257  0.502756  1
  Tm  Tm5  1  0.331257  0.673760  0.502756  1
  Tm  Tm6  1  0.331257  0.673760  0.997244  1
  Tm  Tm7  1  0.673760  0.331257  0.997244  1
  Tm  Tm8  1  0.240589  0.989535  0.250000  1
  Tm  Tm9  1  0.989535  0.240589  0.250000  1
  Si  Si10  1  0.603947  0.999068  0.250000  1
  Si  Si11  1  0.999068  0.603947  0.250000  1
  Si  Si12  1  0.604882  0.604882  0.750000  1
  Si  Si13  1  0.394373  0.001461  0.750000  1
  Si  Si14  1  0.001461  0.394373  0.750000  1
  Sn  Sn15  1  0.394866  0.394866  0.250000  1
