# generated using pymatgen
data_TbHo7In4
_symmetry_space_group_name_H-M   'P 1'
_cell_length_a   5.21502100
_cell_length_b   6.76743513
_cell_length_c   9.74878900
_cell_angle_alpha   90.11287405
_cell_angle_beta   90.00000000
_cell_angle_gamma   90.00000000
_symmetry_Int_Tables_number   1
_chemical_formula_structural   TbHo7In4
_chemical_formula_sum   'Tb1 Ho7 In4'
_cell_volume   344.05667759
_cell_formula_units_Z   1
loop_
 _symmetry_equiv_pos_site_id
 _symmetry_equiv_pos_as_xyz
  1  'x, y, z'
loop_
 _atom_site_type_symbol
 _atom_site_label
 _atom_site_symmetry_multiplicity
 _atom_site_fract_x
 _atom_site_fract_y
 _atom_site_fract_z
 _atom_site_occupancy
  Tb  Tb0  1  0.250000  0.812193  0.928325  1
  Ho  Ho1  1  0.250000  0.312452  0.571858  1
  Ho  Ho2  1  0.750000  0.188058  0.071561  1
  Ho  Ho3  1  0.750000  0.687185  0.428490  1
  Ho  Ho4  1  0.250000  0.969674  0.286178  1
  Ho  Ho5  1  0.250000  0.469158  0.214292  1
  Ho  Ho6  1  0.750000  0.030702  0.713679  1
  Ho  Ho7  1  0.750000  0.529690  0.785926  1
  In  In8  1  0.250000  0.287202  0.895348  1
  In  In9  1  0.250000  0.786035  0.603087  1
  In  In10  1  0.750000  0.713658  0.105488  1
  In  In11  1  0.750000  0.213991  0.395768  1
