# generated using pymatgen
data_Ho5Er(SnIr)6
_symmetry_space_group_name_H-M   'P 1'
_cell_length_a   7.50512306
_cell_length_b   7.45824299
_cell_length_c   7.90776000
_cell_angle_alpha   90.00000000
_cell_angle_beta   90.00000000
_cell_angle_gamma   120.24097234
_symmetry_Int_Tables_number   1
_chemical_formula_structural   Ho5Er(SnIr)6
_chemical_formula_sum   'Ho5 Er1 Sn6 Ir6'
_cell_volume   382.40078580
_cell_formula_units_Z   1
loop_
 _symmetry_equiv_pos_site_id
 _symmetry_equiv_pos_as_xyz
  1  'x, y, z'
loop_
 _atom_site_type_symbol
 _atom_site_label
 _atom_site_symmetry_multiplicity
 _atom_site_fract_x
 _atom_site_fract_y
 _atom_site_fract_z
 _atom_site_occupancy
  Ho  Ho0  1  0.405355  0.001089  0.250000  1
  Ho  Ho1  1  0.595817  0.594442  0.750000  1
  Ho  Ho2  1  0.595183  0.595658  0.250000  1
  Ho  Ho3  1  0.998502  0.403949  0.250000  1
  Ho  Ho4  1  0.003540  0.406362  0.750000  1
  Er  Er5  1  0.402431  0.998953  0.750000  1
  Sn  Sn6  1  0.260075  0.260579  0.499194  1
  Sn  Sn7  1  0.260075  0.260579  0.000806  1
  Sn  Sn8  1  0.742202  0.000162  0.997822  1
  Sn  Sn9  1  0.998836  0.739170  0.499317  1
  Sn  Sn10  1  0.742202  0.000162  0.502178  1
  Sn  Sn11  1  0.998836  0.739170  0.000683  1
  Ir  Ir12  1  0.663897  0.329472  0.502755  1
  Ir  Ir13  1  0.663897  0.329472  0.997245  1
  Ir  Ir14  1  0.333990  0.670437  0.000398  1
  Ir  Ir15  1  0.333990  0.670437  0.499602  1
  Ir  Ir16  1  0.002141  0.999925  0.750000  1
  Ir  Ir17  1  0.999030  0.999984  0.250000  1
