# generated using pymatgen
data_TaTiNb2(CrB2)2
_symmetry_space_group_name_H-M   'P 1'
_cell_length_a   5.92658804
_cell_length_b   5.92459201
_cell_length_c   3.22875100
_cell_angle_alpha   90.00000000
_cell_angle_beta   90.00000000
_cell_angle_gamma   89.89338120
_symmetry_Int_Tables_number   1
_chemical_formula_structural   TaTiNb2(CrB2)2
_chemical_formula_sum   'Ta1 Ti1 Nb2 Cr2 B4'
_cell_volume   113.36969821
_cell_formula_units_Z   1
loop_
 _symmetry_equiv_pos_site_id
 _symmetry_equiv_pos_as_xyz
  1  'x, y, z'
loop_
 _atom_site_type_symbol
 _atom_site_label
 _atom_site_symmetry_multiplicity
 _atom_site_fract_x
 _atom_site_fract_y
 _atom_site_fract_z
 _atom_site_occupancy
  Ta  Ta0  1  0.817540  0.680739  0.500000  1
  Ti  Ti1  1  0.681242  0.180921  0.500000  1
  Nb  Nb2  1  0.320358  0.820041  0.500000  1
  Nb  Nb3  1  0.180451  0.317760  0.500000  1
  Cr  Cr4  1  0.501653  0.497051  0.000000  1
  Cr  Cr5  1  0.996583  0.000710  0.000000  1
  B  B6  1  0.108065  0.609970  0.000000  1
  B  B7  1  0.885919  0.387763  0.000000  1
  B  B8  1  0.612552  0.893971  0.000000  1
  B  B9  1  0.395637  0.111073  0.000000  1
