# generated using pymatgen
data_Dy8Ho2Cd3Ru
_symmetry_space_group_name_H-M   'P 1'
_cell_length_a   9.58717102
_cell_length_b   9.58717017
_cell_length_c   9.84972801
_cell_angle_alpha   90.00515396
_cell_angle_beta   89.99484722
_cell_angle_gamma   120.00552094
_symmetry_Int_Tables_number   1
_chemical_formula_structural   Dy8Ho2Cd3Ru
_chemical_formula_sum   'Dy16 Ho4 Cd6 Ru2'
_cell_volume   783.99197004
_cell_formula_units_Z   2
loop_
 _symmetry_equiv_pos_site_id
 _symmetry_equiv_pos_as_xyz
  1  'x, y, z'
loop_
 _atom_site_type_symbol
 _atom_site_label
 _atom_site_symmetry_multiplicity
 _atom_site_fract_x
 _atom_site_fract_y
 _atom_site_fract_z
 _atom_site_occupancy
  Dy  Dy0  1  0.209779  0.790221  0.440315  1
  Dy  Dy1  1  0.209850  0.419632  0.440234  1
  Dy  Dy2  1  0.580368  0.790150  0.440234  1
  Dy  Dy3  1  0.790223  0.209777  0.559701  1
  Dy  Dy4  1  0.790198  0.580424  0.559667  1
  Dy  Dy5  1  0.419576  0.209802  0.559667  1
  Dy  Dy6  1  0.790248  0.209752  0.940376  1
  Dy  Dy7  1  0.790160  0.580454  0.940366  1
  Dy  Dy8  1  0.419546  0.209840  0.940366  1
  Dy  Dy9  1  0.209928  0.790072  0.059708  1
  Dy  Dy10  1  0.541069  0.458931  0.249895  1
  Dy  Dy11  1  0.541176  0.082271  0.249955  1
  Dy  Dy12  1  0.917729  0.458824  0.249955  1
  Dy  Dy13  1  0.458812  0.541188  0.750140  1
  Dy  Dy14  1  0.458886  0.917653  0.750081  1
  Dy  Dy15  1  0.082347  0.541114  0.750081  1
  Ho  Ho16  1  0.999996  0.000004  0.500033  1
  Ho  Ho17  1  0.999933  0.000067  0.000046  1
  Ho  Ho18  1  0.209941  0.419757  0.059670  1
  Ho  Ho19  1  0.580243  0.790059  0.059670  1
  Cd  Cd20  1  0.885579  0.114421  0.249940  1
  Cd  Cd21  1  0.885572  0.771157  0.249959  1
  Cd  Cd22  1  0.228843  0.114428  0.249959  1
  Cd  Cd23  1  0.114427  0.885573  0.750038  1
  Cd  Cd24  1  0.114408  0.228885  0.750069  1
  Cd  Cd25  1  0.771115  0.885592  0.750069  1
  Ru  Ru26  1  0.333380  0.666620  0.249835  1
  Ru  Ru27  1  0.666666  0.333334  0.749969  1
