# generated using pymatgen
data_Ce3Dy4Y(ReB6)4
_symmetry_space_group_name_H-M   'P 1'
_cell_length_a   3.72185900
_cell_length_b   9.21115510
_cell_length_c   11.59597902
_cell_angle_alpha   89.92081517
_cell_angle_beta   90.00000000
_cell_angle_gamma   90.00000000
_symmetry_Int_Tables_number   1
_chemical_formula_structural   Ce3Dy4Y(ReB6)4
_chemical_formula_sum   'Ce3 Dy4 Y1 Re4 B24'
_cell_volume   397.54016853
_cell_formula_units_Z   1
loop_
 _symmetry_equiv_pos_site_id
 _symmetry_equiv_pos_as_xyz
  1  'x, y, z'
loop_
 _atom_site_type_symbol
 _atom_site_label
 _atom_site_symmetry_multiplicity
 _atom_site_fract_x
 _atom_site_fract_y
 _atom_site_fract_z
 _atom_site_occupancy
  Ce  Ce0  1  0.000000  0.822162  0.085777  1
  Ce  Ce1  1  0.000000  0.177554  0.913570  1
  Ce  Ce2  1  0.000000  0.324116  0.414243  1
  Dy  Dy3  1  0.000000  0.676895  0.586372  1
  Dy  Dy4  1  0.000000  0.444537  0.127284  1
  Dy  Dy5  1  0.000000  0.556138  0.871807  1
  Dy  Dy6  1  0.000000  0.942835  0.372179  1
  Y  Y7  1  0.000000  0.055777  0.628080  1
  Re  Re8  1  0.000000  0.138462  0.179075  1
  Re  Re9  1  0.000000  0.862527  0.822117  1
  Re  Re10  1  0.000000  0.638396  0.320650  1
  Re  Re11  1  0.000000  0.361194  0.678789  1
  B  B12  1  0.500000  0.054202  0.068552  1
  B  B13  1  0.500000  0.945856  0.931584  1
  B  B14  1  0.500000  0.553902  0.432310  1
  B  B15  1  0.500000  0.446304  0.567693  1
  B  B16  1  0.500000  0.248162  0.081598  1
  B  B17  1  0.500000  0.751536  0.918014  1
  B  B18  1  0.500000  0.748063  0.419227  1
  B  B19  1  0.500000  0.252280  0.581515  1
  B  B20  1  0.500000  0.291178  0.233781  1
  B  B21  1  0.500000  0.708153  0.765806  1
  B  B22  1  0.500000  0.791008  0.266984  1
  B  B23  1  0.500000  0.209026  0.733582  1
  B  B24  1  0.500000  0.131434  0.314078  1
  B  B25  1  0.500000  0.867986  0.685615  1
  B  B26  1  0.500000  0.631934  0.186282  1
  B  B27  1  0.500000  0.368780  0.813383  1
  B  B28  1  0.500000  0.484036  0.287565  1
  B  B29  1  0.500000  0.517399  0.712466  1
  B  B30  1  0.500000  0.983679  0.213076  1
  B  B31  1  0.500000  0.016095  0.786985  1
  B  B32  1  0.500000  0.103881  0.471027  1
  B  B33  1  0.500000  0.894336  0.529567  1
  B  B34  1  0.500000  0.607557  0.029533  1
  B  B35  1  0.500000  0.392621  0.969836  1
