# generated using pymatgen
data_Tb3Dy13MgNi4Ag3
_symmetry_space_group_name_H-M   'P 1'
_cell_length_a   9.47902132
_cell_length_b   9.49183808
_cell_length_c   9.49183704
_cell_angle_alpha   60.10569274
_cell_angle_beta   60.18846906
_cell_angle_gamma   60.18845625
_symmetry_Int_Tables_number   1
_chemical_formula_structural   Tb3Dy13MgNi4Ag3
_chemical_formula_sum   'Tb3 Dy13 Mg1 Ni4 Ag3'
_cell_volume   606.07733751
_cell_formula_units_Z   1
loop_
 _symmetry_equiv_pos_site_id
 _symmetry_equiv_pos_as_xyz
  1  'x, y, z'
loop_
 _atom_site_type_symbol
 _atom_site_label
 _atom_site_symmetry_multiplicity
 _atom_site_fract_x
 _atom_site_fract_y
 _atom_site_fract_z
 _atom_site_occupancy
  Tb  Tb0  1  0.600296  0.599085  0.204152  1
  Tb  Tb1  1  0.600296  0.204152  0.599085  1
  Tb  Tb2  1  0.192655  0.603636  0.603636  1
  Dy  Dy3  1  0.183440  0.815843  0.815843  1
  Dy  Dy4  1  0.813177  0.185629  0.185629  1
  Dy  Dy5  1  0.813532  0.185826  0.815443  1
  Dy  Dy6  1  0.183799  0.815297  0.186370  1
  Dy  Dy7  1  0.813532  0.815443  0.185826  1
  Dy  Dy8  1  0.183799  0.186370  0.815297  1
  Dy  Dy9  1  0.059170  0.440305  0.440305  1
  Dy  Dy10  1  0.435544  0.063090  0.063090  1
  Dy  Dy11  1  0.436898  0.062374  0.438005  1
  Dy  Dy12  1  0.059647  0.438432  0.060749  1
  Dy  Dy13  1  0.436898  0.438005  0.062374  1
  Dy  Dy14  1  0.059647  0.060749  0.438432  1
  Dy  Dy15  1  0.596560  0.596742  0.596742  1
  Mg  Mg16  1  0.537448  0.819801  0.819801  1
  Ni  Ni17  1  0.391052  0.394545  0.394545  1
  Ni  Ni18  1  0.389991  0.393511  0.822618  1
  Ni  Ni19  1  0.389991  0.822618  0.393511  1
  Ni  Ni20  1  0.822778  0.392357  0.392357  1
  Ag  Ag21  1  0.833130  0.833847  0.833847  1
  Ag  Ag22  1  0.833361  0.834464  0.497881  1
  Ag  Ag23  1  0.833361  0.497881  0.834464  1
