# generated using pymatgen
data_Tb5Lu15(Bi2Ir)4
_symmetry_space_group_name_H-M   'P 1'
_cell_length_a   7.85939506
_cell_length_b   8.97347100
_cell_length_c   12.40862710
_cell_angle_alpha   90.00000000
_cell_angle_beta   89.98569652
_cell_angle_gamma   90.00000000
_symmetry_Int_Tables_number   1
_chemical_formula_structural   Tb5Lu15(Bi2Ir)4
_chemical_formula_sum   'Tb5 Lu15 Bi8 Ir4'
_cell_volume   875.13147319
_cell_formula_units_Z   1
loop_
 _symmetry_equiv_pos_site_id
 _symmetry_equiv_pos_as_xyz
  1  'x, y, z'
loop_
 _atom_site_type_symbol
 _atom_site_label
 _atom_site_symmetry_multiplicity
 _atom_site_fract_x
 _atom_site_fract_y
 _atom_site_fract_z
 _atom_site_occupancy
  Tb  Tb0  1  0.124783  0.750000  0.193761  1
  Tb  Tb1  1  0.945611  0.750000  0.501158  1
  Tb  Tb2  1  0.054212  0.250000  0.499019  1
  Tb  Tb3  1  0.445990  0.250000  0.998583  1
  Tb  Tb4  1  0.554623  0.750000  0.001015  1
  Lu  Lu5  1  0.842846  0.750000  0.794021  1
  Lu  Lu6  1  0.156897  0.250000  0.205448  1
  Lu  Lu7  1  0.342730  0.250000  0.705441  1
  Lu  Lu8  1  0.656383  0.750000  0.294588  1
  Lu  Lu9  1  0.378106  0.750000  0.690839  1
  Lu  Lu10  1  0.621986  0.250000  0.309240  1
  Lu  Lu11  1  0.878061  0.250000  0.809087  1
  Lu  Lu12  1  0.672562  0.041213  0.565349  1
  Lu  Lu13  1  0.327675  0.958915  0.435038  1
  Lu  Lu14  1  0.172080  0.959247  0.933767  1
  Lu  Lu15  1  0.327675  0.541085  0.435038  1
  Lu  Lu16  1  0.826830  0.042168  0.064925  1
  Lu  Lu17  1  0.672562  0.458787  0.565349  1
  Lu  Lu18  1  0.826830  0.457832  0.064925  1
  Lu  Lu19  1  0.172080  0.540753  0.933767  1
  Bi  Bi20  1  0.567392  0.490953  0.825237  1
  Bi  Bi21  1  0.434707  0.507664  0.174744  1
  Bi  Bi22  1  0.067568  0.509008  0.674583  1
  Bi  Bi23  1  0.434707  0.992336  0.174744  1
  Bi  Bi24  1  0.930630  0.489624  0.325887  1
  Bi  Bi25  1  0.567392  0.009047  0.825237  1
  Bi  Bi26  1  0.930630  0.010376  0.325887  1
  Bi  Bi27  1  0.067568  0.990992  0.674583  1
  Ir  Ir28  1  0.568309  0.750000  0.508524  1
  Ir  Ir29  1  0.431880  0.250000  0.491719  1
  Ir  Ir30  1  0.068178  0.250000  0.991358  1
  Ir  Ir31  1  0.930517  0.750000  0.007140  1
