# generated using pymatgen
data_Ho4ReB12Ir
_symmetry_space_group_name_H-M   'P 1'
_cell_length_a   3.66056300
_cell_length_b   9.14291717
_cell_length_c   11.52481166
_cell_angle_alpha   90.33590710
_cell_angle_beta   90.00000000
_cell_angle_gamma   90.00000000
_symmetry_Int_Tables_number   1
_chemical_formula_structural   Ho4ReB12Ir
_chemical_formula_sum   'Ho8 Re2 B24 Ir2'
_cell_volume   385.70835286
_cell_formula_units_Z   2
loop_
 _symmetry_equiv_pos_site_id
 _symmetry_equiv_pos_as_xyz
  1  'x, y, z'
loop_
 _atom_site_type_symbol
 _atom_site_label
 _atom_site_symmetry_multiplicity
 _atom_site_fract_x
 _atom_site_fract_y
 _atom_site_fract_z
 _atom_site_occupancy
  Ho  Ho0  1  0.000000  0.317050  0.410008  1
  Ho  Ho1  1  0.000000  0.682950  0.589992  1
  Ho  Ho2  1  0.000000  0.826476  0.082185  1
  Ho  Ho3  1  0.000000  0.173524  0.917815  1
  Ho  Ho4  1  0.000000  0.946268  0.372152  1
  Ho  Ho5  1  0.000000  0.053732  0.627848  1
  Ho  Ho6  1  0.000000  0.441736  0.125927  1
  Ho  Ho7  1  0.000000  0.558264  0.874073  1
  Re  Re8  1  0.000000  0.138372  0.179755  1
  Re  Re9  1  0.000000  0.861628  0.820245  1
  B  B10  1  0.500000  0.554268  0.433998  1
  B  B11  1  0.500000  0.445732  0.566002  1
  B  B12  1  0.500000  0.053389  0.067082  1
  B  B13  1  0.500000  0.946611  0.932918  1
  B  B14  1  0.500000  0.749480  0.421141  1
  B  B15  1  0.500000  0.250520  0.578859  1
  B  B16  1  0.500000  0.247977  0.080671  1
  B  B17  1  0.500000  0.752023  0.919329  1
  B  B18  1  0.500000  0.790961  0.265765  1
  B  B19  1  0.500000  0.209039  0.734235  1
  B  B20  1  0.500000  0.292376  0.234463  1
  B  B21  1  0.500000  0.707624  0.765537  1
  B  B22  1  0.500000  0.631802  0.183933  1
  B  B23  1  0.500000  0.368198  0.816067  1
  B  B24  1  0.500000  0.131815  0.314749  1
  B  B25  1  0.500000  0.868185  0.685251  1
  B  B26  1  0.500000  0.983028  0.212845  1
  B  B27  1  0.500000  0.016972  0.787155  1
  B  B28  1  0.500000  0.482606  0.287404  1
  B  B29  1  0.500000  0.517394  0.712596  1
  B  B30  1  0.500000  0.606883  0.029865  1
  B  B31  1  0.500000  0.393117  0.970135  1
  B  B32  1  0.500000  0.107693  0.470767  1
  B  B33  1  0.500000  0.892307  0.529233  1
  Ir  Ir34  1  0.000000  0.636610  0.322215  1
  Ir  Ir35  1  0.000000  0.363390  0.677785  1
