# generated using pymatgen
data_Hf8FePd3N2
_symmetry_space_group_name_H-M   'P 1'
_cell_length_a   8.69212224
_cell_length_b   8.69212139
_cell_length_c   8.67235900
_cell_angle_alpha   60.07518535
_cell_angle_beta   60.07518860
_cell_angle_gamma   60.18200925
_symmetry_Int_Tables_number   1
_chemical_formula_structural   Hf8FePd3N2
_chemical_formula_sum   'Hf16 Fe2 Pd6 N4'
_cell_volume   464.47427461
_cell_formula_units_Z   2
loop_
 _symmetry_equiv_pos_site_id
 _symmetry_equiv_pos_as_xyz
  1  'x, y, z'
loop_
 _atom_site_type_symbol
 _atom_site_label
 _atom_site_symmetry_multiplicity
 _atom_site_fract_x
 _atom_site_fract_y
 _atom_site_fract_z
 _atom_site_occupancy
  Hf  Hf0  1  0.137227  0.629756  0.616508  1
  Hf  Hf1  1  0.629756  0.137227  0.616508  1
  Hf  Hf2  1  0.619229  0.619229  0.155397  1
  Hf  Hf3  1  0.619229  0.619229  0.606144  1
  Hf  Hf4  1  0.817088  0.817088  0.182912  1
  Hf  Hf5  1  0.183350  0.183350  0.816650  1
  Hf  Hf6  1  0.817795  0.185070  0.814494  1
  Hf  Hf7  1  0.185070  0.817795  0.182642  1
  Hf  Hf8  1  0.185070  0.817795  0.814494  1
  Hf  Hf9  1  0.817795  0.185070  0.182642  1
  Hf  Hf10  1  0.432324  0.432324  0.067676  1
  Hf  Hf11  1  0.067185  0.067185  0.432815  1
  Hf  Hf12  1  0.431495  0.058546  0.432276  1
  Hf  Hf13  1  0.058546  0.431495  0.077682  1
  Hf  Hf14  1  0.058546  0.431495  0.432276  1
  Hf  Hf15  1  0.431495  0.058546  0.077682  1
  Fe  Fe16  1  0.795068  0.399049  0.402942  1
  Fe  Fe17  1  0.399049  0.795068  0.402942  1
  Pd  Pd18  1  0.405093  0.405093  0.778238  1
  Pd  Pd19  1  0.405093  0.405093  0.411577  1
  Pd  Pd20  1  0.492273  0.833541  0.837093  1
  Pd  Pd21  1  0.833541  0.492273  0.837093  1
  Pd  Pd22  1  0.836920  0.836920  0.485406  1
  Pd  Pd23  1  0.836920  0.836920  0.840752  1
  N  N24  1  0.626077  0.127549  0.123187  1
  N  N25  1  0.127549  0.626077  0.123187  1
  N  N26  1  0.125608  0.125608  0.626610  1
  N  N27  1  0.125608  0.125608  0.122174  1
