# generated using pymatgen
data_Lu10Sn5PbN2
_symmetry_space_group_name_H-M   'P 1'
_cell_length_a   8.84103422
_cell_length_b   8.84103462
_cell_length_c   8.84103400
_cell_angle_alpha   125.85374471
_cell_angle_beta   125.85373057
_cell_angle_gamma   80.12865843
_symmetry_Int_Tables_number   1
_chemical_formula_structural   Lu10Sn5PbN2
_chemical_formula_sum   'Lu10 Sn5 Pb1 N2'
_cell_volume   438.20720441
_cell_formula_units_Z   1
loop_
 _symmetry_equiv_pos_site_id
 _symmetry_equiv_pos_as_xyz
  1  'x, y, z'
loop_
 _atom_site_type_symbol
 _atom_site_label
 _atom_site_symmetry_multiplicity
 _atom_site_fract_x
 _atom_site_fract_y
 _atom_site_fract_z
 _atom_site_occupancy
  Lu  Lu0  1  0.505565  0.299580  0.501839  1
  Lu  Lu1  1  0.797741  0.003726  0.498161  1
  Lu  Lu2  1  0.003726  0.505565  0.205985  1
  Lu  Lu3  1  0.299580  0.797741  0.794015  1
  Lu  Lu4  1  0.498784  0.704771  0.501822  1
  Lu  Lu5  1  0.202949  0.996961  0.498178  1
  Lu  Lu6  1  0.996961  0.498784  0.794013  1
  Lu  Lu7  1  0.704771  0.202949  0.205987  1
  Lu  Lu8  1  0.502391  0.502391  0.000000  1
  Lu  Lu9  1  0.000352  0.000352  0.000000  1
  Sn  Sn10  1  0.150556  0.351944  0.500005  1
  Sn  Sn11  1  0.851940  0.650550  0.499995  1
  Sn  Sn12  1  0.650550  0.150556  0.798610  1
  Sn  Sn13  1  0.351944  0.851940  0.201390  1
  Sn  Sn14  1  0.751186  0.751186  0.000000  1
  Pb  Pb15  1  0.251333  0.251333  0.000000  1
  N  N16  1  0.751254  0.251254  0.500000  1
  N  N17  1  0.251254  0.751254  0.500000  1
