# generated using pymatgen
data_Ho4In3Co2
_symmetry_space_group_name_H-M   'P 1'
_cell_length_a   3.64475400
_cell_length_b   7.33467383
_cell_length_c   8.11672952
_cell_angle_alpha   71.70906391
_cell_angle_beta   90.00000000
_cell_angle_gamma   90.00000000
_symmetry_Int_Tables_number   1
_chemical_formula_structural   Ho4In3Co2
_chemical_formula_sum   'Ho4 In3 Co2'
_cell_volume   206.02204695
_cell_formula_units_Z   1
loop_
 _symmetry_equiv_pos_site_id
 _symmetry_equiv_pos_as_xyz
  1  'x, y, z'
loop_
 _atom_site_type_symbol
 _atom_site_label
 _atom_site_symmetry_multiplicity
 _atom_site_fract_x
 _atom_site_fract_y
 _atom_site_fract_z
 _atom_site_occupancy
  Ho  Ho0  1  0.500000  0.607505  0.180872  1
  Ho  Ho1  1  0.500000  0.091706  0.276773  1
  Ho  Ho2  1  0.500000  0.392495  0.819128  1
  Ho  Ho3  1  0.500000  0.908294  0.723227  1
  In  In4  1  0.000000  0.706963  0.505116  1
  In  In5  1  0.000000  0.000000  0.000000  1
  In  In6  1  0.000000  0.293037  0.494884  1
  Co  Co7  1  0.000000  0.650484  0.897187  1
  Co  Co8  1  0.000000  0.349516  0.102813  1
