# generated using pymatgen
data_Dy16InAg3Ir3Rh
_symmetry_space_group_name_H-M   'P 1'
_cell_length_a   9.57076098
_cell_length_b   9.54018444
_cell_length_c   9.57076222
_cell_angle_alpha   60.35200720
_cell_angle_beta   60.41439086
_cell_angle_gamma   60.35200459
_symmetry_Int_Tables_number   1
_chemical_formula_structural   Dy16InAg3Ir3Rh
_chemical_formula_sum   'Dy16 In1 Ag3 Ir3 Rh1'
_cell_volume   623.13356931
_cell_formula_units_Z   1
loop_
 _symmetry_equiv_pos_site_id
 _symmetry_equiv_pos_as_xyz
  1  'x, y, z'
loop_
 _atom_site_type_symbol
 _atom_site_label
 _atom_site_symmetry_multiplicity
 _atom_site_fract_x
 _atom_site_fract_y
 _atom_site_fract_z
 _atom_site_occupancy
  Dy  Dy0  1  0.689142  0.311976  0.311274  1
  Dy  Dy1  1  0.690976  0.689993  0.309978  1
  Dy  Dy2  1  0.311959  0.689023  0.311959  1
  Dy  Dy3  1  0.935389  0.937293  0.559728  1
  Dy  Dy4  1  0.148857  0.149438  0.552692  1
  Dy  Dy5  1  0.561808  0.938013  0.561808  1
  Dy  Dy6  1  0.148498  0.149193  0.148498  1
  Dy  Dy7  1  0.311274  0.311976  0.689142  1
  Dy  Dy8  1  0.938046  0.561058  0.561004  1
  Dy  Dy9  1  0.561004  0.561058  0.938046  1
  Dy  Dy10  1  0.559728  0.937293  0.935389  1
  Dy  Dy11  1  0.937240  0.558971  0.937240  1
  Dy  Dy12  1  0.149361  0.551827  0.149361  1
  Dy  Dy13  1  0.309978  0.689993  0.690976  1
  Dy  Dy14  1  0.690646  0.309898  0.690646  1
  Dy  Dy15  1  0.552692  0.149438  0.148857  1
  In  In16  1  0.921259  0.921618  0.921259  1
  Ag  Ag17  1  0.916696  0.916862  0.249208  1
  Ag  Ag18  1  0.249208  0.916862  0.916696  1
  Ag  Ag19  1  0.916786  0.249066  0.916786  1
  Ir  Ir20  1  0.358080  0.358216  0.358080  1
  Ir  Ir21  1  0.927188  0.356863  0.357312  1
  Ir  Ir22  1  0.357312  0.356863  0.927188  1
  Rh  Rh23  1  0.356874  0.927209  0.356874  1
