# generated using pymatgen
data_Tm2LuPa(Ga3Rh)6
_symmetry_space_group_name_H-M   'P 1'
_cell_length_a   7.58691909
_cell_length_b   7.57537031
_cell_length_c   9.43805500
_cell_angle_alpha   90.00000000
_cell_angle_beta   90.00000000
_cell_angle_gamma   119.88545497
_symmetry_Int_Tables_number   1
_chemical_formula_structural   Tm2LuPa(Ga3Rh)6
_chemical_formula_sum   'Tm2 Lu1 Pa1 Ga18 Rh6'
_cell_volume   470.30822695
_cell_formula_units_Z   1
loop_
 _symmetry_equiv_pos_site_id
 _symmetry_equiv_pos_as_xyz
  1  'x, y, z'
loop_
 _atom_site_type_symbol
 _atom_site_label
 _atom_site_symmetry_multiplicity
 _atom_site_fract_x
 _atom_site_fract_y
 _atom_site_fract_z
 _atom_site_occupancy
  Tm  Tm0  1  0.003141  0.330566  0.750000  1
  Tm  Tm1  1  0.671074  0.997577  0.250000  1
  Lu  Lu2  1  0.329767  0.001990  0.750000  1
  Pa  Pa3  1  0.997682  0.669409  0.250000  1
  Ga  Ga4  1  0.338459  0.546614  0.250000  1
  Ga  Ga5  1  0.660932  0.449896  0.750000  1
  Ga  Ga6  1  0.545937  0.339623  0.250000  1
  Ga  Ga7  1  0.451114  0.661924  0.750000  1
  Ga  Ga8  1  0.998614  0.330667  0.079131  1
  Ga  Ga9  1  0.001229  0.665224  0.915518  1
  Ga  Ga10  1  0.001229  0.665224  0.584482  1
  Ga  Ga11  1  0.339137  0.002762  0.420611  1
  Ga  Ga12  1  0.998614  0.330667  0.420869  1
  Ga  Ga13  1  0.665167  0.001838  0.581831  1
  Ga  Ga14  1  0.665167  0.001838  0.918169  1
  Ga  Ga15  1  0.339137  0.002762  0.079389  1
  Ga  Ga16  1  0.330967  0.330832  0.570404  1
  Ga  Ga17  1  0.664051  0.668164  0.434555  1
  Ga  Ga18  1  0.664051  0.668164  0.065445  1
  Ga  Ga19  1  0.330967  0.330832  0.929596  1
  Ga  Ga20  1  0.129480  0.128988  0.250000  1
  Ga  Ga21  1  0.874607  0.875560  0.750000  1
  Rh  Rh22  1  0.673336  0.330588  0.001313  1
  Rh  Rh23  1  0.326482  0.671370  0.001134  1
  Rh  Rh24  1  0.326482  0.671370  0.498866  1
  Rh  Rh25  1  0.673336  0.330588  0.498687  1
  Rh  Rh26  1  0.999921  0.997483  0.001671  1
  Rh  Rh27  1  0.999921  0.997483  0.498329  1
