# generated using pymatgen
data_NdGdI6
_symmetry_space_group_name_H-M   'P 1'
_cell_length_a   7.91966009
_cell_length_b   7.91965978
_cell_length_c   8.07980067
_cell_angle_alpha   81.38106526
_cell_angle_beta   81.38106070
_cell_angle_gamma   120.12041433
_symmetry_Int_Tables_number   1
_chemical_formula_structural   NdGdI6
_chemical_formula_sum   'Nd1 Gd1 I6'
_cell_volume   418.11715537
_cell_formula_units_Z   1
loop_
 _symmetry_equiv_pos_site_id
 _symmetry_equiv_pos_as_xyz
  1  'x, y, z'
loop_
 _atom_site_type_symbol
 _atom_site_label
 _atom_site_symmetry_multiplicity
 _atom_site_fract_x
 _atom_site_fract_y
 _atom_site_fract_z
 _atom_site_occupancy
  Nd  Nd0  1  0.166366  0.833634  0.000000  1
  Gd  Gd1  1  0.833586  0.166414  0.000000  1
  I  I2  1  0.931999  0.565734  0.765623  1
  I  I3  1  0.434266  0.068001  0.234377  1
  I  I4  1  0.787728  0.793408  0.234635  1
  I  I5  1  0.206592  0.212272  0.765365  1
  I  I6  1  0.576963  0.937499  0.765676  1
  I  I7  1  0.062501  0.423037  0.234324  1
