# generated using pymatgen
data_NdEu9(Si2Hg)2
_symmetry_space_group_name_H-M   'P 1'
_cell_length_a   9.66684580
_cell_length_b   9.66684491
_cell_length_c   9.66684600
_cell_angle_alpha   131.78090516
_cell_angle_beta   131.78090045
_cell_angle_gamma   70.57528175
_symmetry_Int_Tables_number   1
_chemical_formula_structural   NdEu9(Si2Hg)2
_chemical_formula_sum   'Nd1 Eu9 Si4 Hg2'
_cell_volume   492.14277728
_cell_formula_units_Z   1
loop_
 _symmetry_equiv_pos_site_id
 _symmetry_equiv_pos_as_xyz
  1  'x, y, z'
loop_
 _atom_site_type_symbol
 _atom_site_label
 _atom_site_symmetry_multiplicity
 _atom_site_fract_x
 _atom_site_fract_y
 _atom_site_fract_z
 _atom_site_occupancy
  Nd  Nd0  1  0.500000  0.500000  0.000000  1
  Eu  Eu1  1  0.534818  0.035412  0.847339  1
  Eu  Eu2  1  0.188155  0.687533  0.152640  1
  Eu  Eu3  1  0.035413  0.188137  0.500556  1
  Eu  Eu4  1  0.687515  0.534799  0.499392  1
  Eu  Eu5  1  0.465182  0.964588  0.152661  1
  Eu  Eu6  1  0.811845  0.312467  0.847360  1
  Eu  Eu7  1  0.964587  0.811863  0.499444  1
  Eu  Eu8  1  0.312485  0.465201  0.500608  1
  Eu  Eu9  1  0.000000  0.000000  0.000000  1
  Si  Si10  1  0.885414  0.391511  0.276931  1
  Si  Si11  1  0.114586  0.608489  0.723069  1
  Si  Si12  1  0.391495  0.114592  0.506096  1
  Si  Si13  1  0.608505  0.885408  0.493904  1
  Hg  Hg14  1  0.250392  0.250375  0.000010  1
  Hg  Hg15  1  0.749608  0.749625  0.999990  1
