# generated using pymatgen
data_La3Eu(BiO4)4
_symmetry_space_group_name_H-M   'P 1'
_cell_length_a   5.76392314
_cell_length_b   8.05164628
_cell_length_c   8.11704300
_cell_angle_alpha   80.37549675
_cell_angle_beta   89.98729615
_cell_angle_gamma   89.89048792
_symmetry_Int_Tables_number   1
_chemical_formula_structural   La3Eu(BiO4)4
_chemical_formula_sum   'La3 Eu1 Bi4 O16'
_cell_volume   371.40148342
_cell_formula_units_Z   1
loop_
 _symmetry_equiv_pos_site_id
 _symmetry_equiv_pos_as_xyz
  1  'x, y, z'
loop_
 _atom_site_type_symbol
 _atom_site_label
 _atom_site_symmetry_multiplicity
 _atom_site_fract_x
 _atom_site_fract_y
 _atom_site_fract_z
 _atom_site_occupancy
  La  La0  1  0.769375  0.393912  0.859688  1
  La  La1  1  0.731809  0.891702  0.862088  1
  La  La2  1  0.266395  0.107866  0.140317  1
  Eu  Eu3  1  0.228456  0.609770  0.141468  1
  Bi  Bi4  1  0.766406  0.312084  0.336788  1
  Bi  Bi5  1  0.730988  0.806521  0.336947  1
  Bi  Bi6  1  0.267372  0.190881  0.662539  1
  Bi  Bi7  1  0.232841  0.690804  0.663154  1
  O  O8  1  0.621932  0.065791  0.316791  1
  O  O9  1  0.998928  0.122988  0.838331  1
  O  O10  1  0.384850  0.936257  0.673619  1
  O  O11  1  0.491156  0.381865  0.164985  1
  O  O12  1  0.117072  0.435441  0.676430  1
  O  O13  1  0.509116  0.826081  0.116164  1
  O  O14  1  0.984255  0.334527  0.115081  1
  O  O15  1  0.505190  0.624413  0.835026  1
  O  O16  1  0.000888  0.871988  0.159324  1
  O  O17  1  0.484534  0.169386  0.886156  1
  O  O18  1  0.022069  0.669302  0.888366  1
  O  O19  1  0.598200  0.306788  0.573068  1
  O  O20  1  0.891606  0.564752  0.324685  1
  O  O21  1  0.400988  0.690399  0.426659  1
  O  O22  1  0.900910  0.805973  0.573593  1
  O  O23  1  0.094668  0.190511  0.428731  1
