# generated using pymatgen
data_CsV4Te7Mo2
_symmetry_space_group_name_H-M   'P 1'
_cell_length_a   10.38306453
_cell_length_b   10.33662019
_cell_length_c   10.36970909
_cell_angle_alpha   60.59264498
_cell_angle_beta   60.36105202
_cell_angle_gamma   60.19696285
_symmetry_Int_Tables_number   1
_chemical_formula_structural   CsV4Te7Mo2
_chemical_formula_sum   'Cs2 V8 Te14 Mo4'
_cell_volume   793.77337408
_cell_formula_units_Z   2
loop_
 _symmetry_equiv_pos_site_id
 _symmetry_equiv_pos_as_xyz
  1  'x, y, z'
loop_
 _atom_site_type_symbol
 _atom_site_label
 _atom_site_symmetry_multiplicity
 _atom_site_fract_x
 _atom_site_fract_y
 _atom_site_fract_z
 _atom_site_occupancy
  Cs  Cs0  1  0.620511  0.619279  0.621655  1
  Cs  Cs1  1  0.379565  0.377927  0.379216  1
  V  V2  1  0.689765  0.886157  0.011881  1
  V  V3  1  0.011281  0.694514  0.883674  1
  V  V4  1  0.884108  0.013627  0.690311  1
  V  V5  1  0.305550  0.112069  0.989096  1
  V  V6  1  0.988267  0.304628  0.111260  1
  V  V7  1  0.113264  0.987562  0.307068  1
  V  V8  1  0.942863  0.816608  0.111562  1
  V  V9  1  0.109600  0.948488  0.813040  1
  Te  Te10  1  0.421057  0.808587  0.167220  1
  Te  Te11  1  0.167258  0.422766  0.809467  1
  Te  Te12  1  0.809173  0.169392  0.421915  1
  Te  Te13  1  0.576961  0.189699  0.836510  1
  Te  Te14  1  0.839817  0.581547  0.186852  1
  Te  Te15  1  0.188373  0.839215  0.580389  1
  Te  Te16  1  0.633601  0.979338  0.249574  1
  Te  Te17  1  0.241866  0.638110  0.979017  1
  Te  Te18  1  0.983353  0.247187  0.632888  1
  Te  Te19  1  0.368841  0.015726  0.751554  1
  Te  Te20  1  0.749230  0.368445  0.017728  1
  Te  Te21  1  0.018085  0.749875  0.368073  1
  Te  Te22  1  0.781020  0.780652  0.780287  1
  Te  Te23  1  0.217166  0.219370  0.217840  1
  Mo  Mo24  1  0.823485  0.093932  0.943569  1
  Mo  Mo25  1  0.057685  0.185747  0.894528  1
  Mo  Mo26  1  0.893659  0.056867  0.187164  1
  Mo  Mo27  1  0.184598  0.892688  0.056661  1
