# generated using pymatgen
data_RbBa6U2TlSe12
_symmetry_space_group_name_H-M   'P 1'
_cell_length_a   9.08007081
_cell_length_b   9.08007257
_cell_length_c   9.08007177
_cell_angle_alpha   88.30837540
_cell_angle_beta   88.30837327
_cell_angle_gamma   88.30838394
_symmetry_Int_Tables_number   1
_chemical_formula_structural   RbBa6U2TlSe12
_chemical_formula_sum   'Rb1 Ba6 U2 Tl1 Se12'
_cell_volume   747.67111800
_cell_formula_units_Z   1
loop_
 _symmetry_equiv_pos_site_id
 _symmetry_equiv_pos_as_xyz
  1  'x, y, z'
loop_
 _atom_site_type_symbol
 _atom_site_label
 _atom_site_symmetry_multiplicity
 _atom_site_fract_x
 _atom_site_fract_y
 _atom_site_fract_z
 _atom_site_occupancy
  Rb  Rb0  1  0.750000  0.750000  0.750000  1
  Ba  Ba1  1  0.879237  0.620763  0.250000  1
  Ba  Ba2  1  0.250000  0.879237  0.620763  1
  Ba  Ba3  1  0.620763  0.250000  0.879237  1
  Ba  Ba4  1  0.750000  0.122697  0.377303  1
  Ba  Ba5  1  0.377303  0.750000  0.122697  1
  Ba  Ba6  1  0.122697  0.377303  0.750000  1
  U  U7  1  0.500022  0.500022  0.500022  1
  U  U8  1  0.999978  0.999978  0.999978  1
  Tl  Tl9  1  0.250000  0.250000  0.250000  1
  Se  Se10  1  0.208684  0.565432  0.430262  1
  Se  Se11  1  0.430262  0.208684  0.565432  1
  Se  Se12  1  0.565432  0.430262  0.208684  1
  Se  Se13  1  0.931805  0.068257  0.709378  1
  Se  Se14  1  0.709378  0.931805  0.068257  1
  Se  Se15  1  0.068257  0.709378  0.931805  1
  Se  Se16  1  0.790622  0.431743  0.568195  1
  Se  Se17  1  0.568195  0.790622  0.431743  1
  Se  Se18  1  0.431743  0.568195  0.790622  1
  Se  Se19  1  0.069738  0.934568  0.291316  1
  Se  Se20  1  0.291316  0.069738  0.934568  1
  Se  Se21  1  0.934568  0.291316  0.069738  1
