# generated using pymatgen
data_Ca2In(SnPd2)3
_symmetry_space_group_name_H-M   'P 1'
_cell_length_a   4.78201100
_cell_length_b   10.28333200
_cell_length_c   9.82094500
_cell_angle_alpha   90.00000000
_cell_angle_beta   90.00000000
_cell_angle_gamma   90.00000000
_symmetry_Int_Tables_number   1
_chemical_formula_structural   Ca2In(SnPd2)3
_chemical_formula_sum   'Ca4 In2 Sn6 Pd12'
_cell_volume   482.94503657
_cell_formula_units_Z   2
loop_
 _symmetry_equiv_pos_site_id
 _symmetry_equiv_pos_as_xyz
  1  'x, y, z'
loop_
 _atom_site_type_symbol
 _atom_site_label
 _atom_site_symmetry_multiplicity
 _atom_site_fract_x
 _atom_site_fract_y
 _atom_site_fract_z
 _atom_site_occupancy
  Ca  Ca0  1  0.250000  0.433992  0.736151  1
  Ca  Ca1  1  0.250000  0.066008  0.236151  1
  Ca  Ca2  1  0.750000  0.566296  0.265095  1
  Ca  Ca3  1  0.750000  0.933704  0.765095  1
  In  In4  1  0.750000  0.849018  0.113084  1
  In  In5  1  0.750000  0.650982  0.613084  1
  Sn  Sn6  1  0.250000  0.872704  0.520693  1
  Sn  Sn7  1  0.250000  0.627296  0.020693  1
  Sn  Sn8  1  0.750000  0.124235  0.480484  1
  Sn  Sn9  1  0.750000  0.375765  0.980484  1
  Sn  Sn10  1  0.250000  0.151021  0.886164  1
  Sn  Sn11  1  0.250000  0.348979  0.386164  1
  Pd  Pd12  1  0.250000  0.138747  0.603780  1
  Pd  Pd13  1  0.250000  0.361253  0.103780  1
  Pd  Pd14  1  0.750000  0.862758  0.396346  1
  Pd  Pd15  1  0.750000  0.637242  0.896346  1
  Pd  Pd16  1  0.250000  0.728393  0.751247  1
  Pd  Pd17  1  0.250000  0.771607  0.251247  1
  Pd  Pd18  1  0.750000  0.270786  0.248995  1
  Pd  Pd19  1  0.750000  0.229214  0.748995  1
  Pd  Pd20  1  0.250000  0.905068  0.980606  1
  Pd  Pd21  1  0.250000  0.594932  0.480606  1
  Pd  Pd22  1  0.750000  0.098055  0.017355  1
  Pd  Pd23  1  0.750000  0.401945  0.517355  1
