# generated using pymatgen
data_Ho12Si12Rh3Au
_symmetry_space_group_name_H-M   'P 1'
_cell_length_a   4.23005400
_cell_length_b   10.69294102
_cell_length_c   12.33258679
_cell_angle_alpha   89.95187790
_cell_angle_beta   90.00000000
_cell_angle_gamma   90.00000000
_symmetry_Int_Tables_number   1
_chemical_formula_structural   Ho12Si12Rh3Au
_chemical_formula_sum   'Ho12 Si12 Rh3 Au1'
_cell_volume   557.82389007
_cell_formula_units_Z   1
loop_
 _symmetry_equiv_pos_site_id
 _symmetry_equiv_pos_as_xyz
  1  'x, y, z'
loop_
 _atom_site_type_symbol
 _atom_site_label
 _atom_site_symmetry_multiplicity
 _atom_site_fract_x
 _atom_site_fract_y
 _atom_site_fract_z
 _atom_site_occupancy
  Ho  Ho0  1  0.250000  0.880228  0.021981  1
  Ho  Ho1  1  0.250000  0.623786  0.518435  1
  Ho  Ho2  1  0.750000  0.120725  0.980756  1
  Ho  Ho3  1  0.750000  0.378392  0.478285  1
  Ho  Ho4  1  0.250000  0.921091  0.600928  1
  Ho  Ho5  1  0.250000  0.579265  0.103154  1
  Ho  Ho6  1  0.750000  0.079956  0.394718  1
  Ho  Ho7  1  0.750000  0.420029  0.897361  1
  Ho  Ho8  1  0.250000  0.667781  0.803030  1
  Ho  Ho9  1  0.250000  0.840697  0.300728  1
  Ho  Ho10  1  0.750000  0.341584  0.199776  1
  Ho  Ho11  1  0.750000  0.156387  0.700259  1
  Si  Si12  1  0.250000  0.010294  0.821752  1
  Si  Si13  1  0.250000  0.485518  0.324300  1
  Si  Si14  1  0.750000  0.985772  0.177754  1
  Si  Si15  1  0.750000  0.526220  0.675471  1
  Si  Si16  1  0.250000  0.240149  0.849005  1
  Si  Si17  1  0.250000  0.251692  0.340096  1
  Si  Si18  1  0.750000  0.752364  0.158944  1
  Si  Si19  1  0.750000  0.752142  0.658345  1
  Si  Si20  1  0.250000  0.186428  0.535713  1
  Si  Si21  1  0.250000  0.300915  0.044324  1
  Si  Si22  1  0.750000  0.801386  0.457191  1
  Si  Si23  1  0.750000  0.699298  0.959821  1
  Rh  Rh24  1  0.250000  0.108846  0.180414  1
  Rh  Rh25  1  0.750000  0.609341  0.317492  1
  Rh  Rh26  1  0.750000  0.890207  0.818503  1
  Au  Au27  1  0.250000  0.389509  0.681464  1
