# generated using pymatgen
data_Ca10Si4SnBi
_symmetry_space_group_name_H-M   'P 1'
_cell_length_a   9.35217617
_cell_length_b   9.35217506
_cell_length_c   9.35217609
_cell_angle_alpha   130.77915841
_cell_angle_beta   130.77915949
_cell_angle_gamma   72.16419027
_symmetry_Int_Tables_number   1
_chemical_formula_structural   Ca10Si4SnBi
_chemical_formula_sum   'Ca10 Si4 Sn1 Bi1'
_cell_volume   458.58572781
_cell_formula_units_Z   1
loop_
 _symmetry_equiv_pos_site_id
 _symmetry_equiv_pos_as_xyz
  1  'x, y, z'
loop_
 _atom_site_type_symbol
 _atom_site_label
 _atom_site_symmetry_multiplicity
 _atom_site_fract_x
 _atom_site_fract_y
 _atom_site_fract_z
 _atom_site_occupancy
  Ca  Ca0  1  0.809162  0.314102  0.851734  1
  Ca  Ca1  1  0.185898  0.690838  0.148266  1
  Ca  Ca2  1  0.462368  0.957429  0.148266  1
  Ca  Ca3  1  0.314102  0.462368  0.504939  1
  Ca  Ca4  1  0.037632  0.185898  0.495061  1
  Ca  Ca5  1  0.542571  0.037632  0.851734  1
  Ca  Ca6  1  0.690838  0.542571  0.504939  1
  Ca  Ca7  1  0.957429  0.809162  0.495061  1
  Ca  Ca8  1  0.998391  0.998391  0.000000  1
  Ca  Ca9  1  0.501609  0.501609  0.000000  1
  Si  Si10  1  0.113125  0.613125  0.726250  1
  Si  Si11  1  0.886875  0.386875  0.273750  1
  Si  Si12  1  0.613125  0.886875  0.500000  1
  Si  Si13  1  0.386875  0.113125  0.500000  1
  Sn  Sn14  1  0.750000  0.750000  0.000000  1
  Bi  Bi15  1  0.250000  0.250000  0.000000  1
