# generated using pymatgen
data_Y3CrFe7CoP6
_symmetry_space_group_name_H-M   'P 1'
_cell_length_a   3.72765800
_cell_length_b   10.60377600
_cell_length_c   12.22306900
_cell_angle_alpha   90.00000000
_cell_angle_beta   90.00000000
_cell_angle_gamma   90.00000000
_symmetry_Int_Tables_number   1
_chemical_formula_structural   Y3CrFe7CoP6
_chemical_formula_sum   'Y6 Cr2 Fe14 Co2 P12'
_cell_volume   483.14430947
_cell_formula_units_Z   2
loop_
 _symmetry_equiv_pos_site_id
 _symmetry_equiv_pos_as_xyz
  1  'x, y, z'
loop_
 _atom_site_type_symbol
 _atom_site_label
 _atom_site_symmetry_multiplicity
 _atom_site_fract_x
 _atom_site_fract_y
 _atom_site_fract_z
 _atom_site_occupancy
  Y  Y0  1  0.000000  0.500000  0.526687  1
  Y  Y1  1  0.500000  0.000000  0.473313  1
  Y  Y2  1  0.500000  0.820957  0.205910  1
  Y  Y3  1  0.500000  0.179043  0.205910  1
  Y  Y4  1  0.000000  0.679043  0.794090  1
  Y  Y5  1  0.000000  0.320957  0.794090  1
  Cr  Cr6  1  0.500000  0.500000  0.151180  1
  Cr  Cr7  1  0.000000  0.000000  0.848820  1
  Fe  Fe8  1  0.000000  0.500000  0.989639  1
  Fe  Fe9  1  0.500000  0.000000  0.010361  1
  Fe  Fe10  1  0.500000  0.327145  0.997630  1
  Fe  Fe11  1  0.500000  0.672855  0.997630  1
  Fe  Fe12  1  0.000000  0.172855  0.002370  1
  Fe  Fe13  1  0.000000  0.827145  0.002370  1
  Fe  Fe14  1  0.500000  0.298476  0.430260  1
  Fe  Fe15  1  0.500000  0.701524  0.430260  1
  Fe  Fe16  1  0.000000  0.201524  0.569740  1
  Fe  Fe17  1  0.000000  0.798476  0.569740  1
  Fe  Fe18  1  0.500000  0.882780  0.707036  1
  Fe  Fe19  1  0.500000  0.117220  0.707036  1
  Fe  Fe20  1  0.000000  0.617220  0.292964  1
  Fe  Fe21  1  0.000000  0.382780  0.292964  1
  Co  Co22  1  0.500000  0.500000  0.701468  1
  Co  Co23  1  0.000000  0.000000  0.298532  1
  P  P24  1  0.500000  0.500000  0.887058  1
  P  P25  1  0.000000  0.000000  0.112942  1
  P  P26  1  0.500000  0.500000  0.345153  1
  P  P27  1  0.000000  0.000000  0.654847  1
  P  P28  1  0.500000  0.307192  0.614864  1
  P  P29  1  0.500000  0.692808  0.614864  1
  P  P30  1  0.000000  0.192808  0.385136  1
  P  P31  1  0.000000  0.807192  0.385136  1
  P  P32  1  0.500000  0.848357  0.889930  1
  P  P33  1  0.500000  0.151643  0.889930  1
  P  P34  1  0.000000  0.651643  0.110070  1
  P  P35  1  0.000000  0.348357  0.110070  1
