# generated using pymatgen
data_Tb2MgAl5(CdNi)2
_symmetry_space_group_name_H-M   'P 1'
_cell_length_a   8.37393702
_cell_length_b   8.37393701
_cell_length_c   6.73544400
_cell_angle_alpha   90.00000000
_cell_angle_beta   90.00000000
_cell_angle_gamma   151.96690966
_symmetry_Int_Tables_number   1
_chemical_formula_structural   Tb2MgAl5(CdNi)2
_chemical_formula_sum   'Tb2 Mg1 Al5 Cd2 Ni2'
_cell_volume   221.97614104
_cell_formula_units_Z   1
loop_
 _symmetry_equiv_pos_site_id
 _symmetry_equiv_pos_as_xyz
  1  'x, y, z'
loop_
 _atom_site_type_symbol
 _atom_site_label
 _atom_site_symmetry_multiplicity
 _atom_site_fract_x
 _atom_site_fract_y
 _atom_site_fract_z
 _atom_site_occupancy
  Tb  Tb0  1  0.874903  0.125097  0.250000  1
  Tb  Tb1  1  0.126965  0.873035  0.750000  1
  Mg  Mg2  1  0.921578  0.078422  0.750000  1
  Al  Al3  1  0.306602  0.693398  0.552212  1
  Al  Al4  1  0.693195  0.306805  0.444956  1
  Al  Al5  1  0.693195  0.306805  0.055044  1
  Al  Al6  1  0.306602  0.693398  0.947788  1
  Al  Al7  1  0.080307  0.919693  0.250000  1
  Cd  Cd8  1  0.501650  0.498350  0.004201  1
  Cd  Cd9  1  0.501650  0.498350  0.495799  1
  Ni  Ni10  1  0.224845  0.775155  0.250000  1
  Ni  Ni11  1  0.768508  0.231492  0.750000  1
