# generated using pymatgen
data_Li4Cd3In5Ir4
_symmetry_space_group_name_H-M   'P 1'
_cell_length_a   6.53427416
_cell_length_b   4.60932200
_cell_length_c   9.28401501
_cell_angle_alpha   90.00000000
_cell_angle_beta   89.90595648
_cell_angle_gamma   90.00000000
_symmetry_Int_Tables_number   1
_chemical_formula_structural   Li4Cd3In5Ir4
_chemical_formula_sum   'Li4 Cd3 In5 Ir4'
_cell_volume   279.62091301
_cell_formula_units_Z   1
loop_
 _symmetry_equiv_pos_site_id
 _symmetry_equiv_pos_as_xyz
  1  'x, y, z'
loop_
 _atom_site_type_symbol
 _atom_site_label
 _atom_site_symmetry_multiplicity
 _atom_site_fract_x
 _atom_site_fract_y
 _atom_site_fract_z
 _atom_site_occupancy
  Li  Li0  1  0.246697  0.250000  0.127481  1
  Li  Li1  1  0.753423  0.750001  0.367936  1
  Li  Li2  1  0.248284  0.250000  0.619785  1
  Li  Li3  1  0.752087  0.750001  0.885151  1
  Cd  Cd4  1  0.003761  0.750001  0.129857  1
  Cd  Cd5  1  0.494170  0.750001  0.124615  1
  Cd  Cd6  1  0.998848  0.250000  0.370847  1
  In  In7  1  0.505007  0.250000  0.371251  1
  In  In8  1  0.503775  0.750001  0.626727  1
  In  In9  1  0.997440  0.750001  0.621826  1
  In  In10  1  0.497506  0.250000  0.877285  1
  In  In11  1  0.999294  0.250000  0.877157  1
  Ir  Ir12  1  0.745036  0.250000  0.118933  1
  Ir  Ir13  1  0.261181  0.750001  0.386099  1
  Ir  Ir14  1  0.746493  0.250000  0.629661  1
  Ir  Ir15  1  0.246997  0.750001  0.865388  1
