# generated using pymatgen
data_NdTh5PtBr15
_symmetry_space_group_name_H-M   'P 1'
_cell_length_a   10.25164994
_cell_length_b   10.25160669
_cell_length_c   10.25163413
_cell_angle_alpha   109.41740992
_cell_angle_beta   109.49830589
_cell_angle_gamma   109.49821499
_symmetry_Int_Tables_number   1
_chemical_formula_structural   NdTh5PtBr15
_chemical_formula_sum   'Nd1 Th5 Pt1 Br15'
_cell_volume   829.38323844
_cell_formula_units_Z   1
loop_
 _symmetry_equiv_pos_site_id
 _symmetry_equiv_pos_as_xyz
  1  'x, y, z'
loop_
 _atom_site_type_symbol
 _atom_site_label
 _atom_site_symmetry_multiplicity
 _atom_site_fract_x
 _atom_site_fract_y
 _atom_site_fract_z
 _atom_site_occupancy
  Nd  Nd0  1  0.000000  0.246585  0.246585  1
  Th  Th1  1  0.000000  0.754044  0.754048  1
  Th  Th2  1  0.242682  0.002392  0.245071  1
  Th  Th3  1  0.757323  0.002391  0.759710  1
  Th  Th4  1  0.242687  0.245079  0.002392  1
  Th  Th5  1  0.757314  0.759704  0.002392  1
  Pt  Pt6  1  0.000002  0.995972  0.995974  1
  Br  Br7  1  0.497004  0.248056  0.248054  1
  Br  Br8  1  0.502996  0.751052  0.751052  1
  Br  Br9  1  0.000000  0.248054  0.751053  1
  Br  Br10  1  0.000000  0.751052  0.248056  1
  Br  Br11  1  0.250502  0.496902  0.246397  1
  Br  Br12  1  0.749496  0.995897  0.246398  1
  Br  Br13  1  0.751337  0.503787  0.752447  1
  Br  Br14  1  0.248661  0.001112  0.752449  1
  Br  Br15  1  0.250502  0.246400  0.496902  1
  Br  Br16  1  0.751338  0.752449  0.503787  1
  Br  Br17  1  0.749497  0.246397  0.995896  1
  Br  Br18  1  0.248663  0.752449  0.001110  1
  Br  Br19  1  0.999999  0.504493  0.504491  1
  Br  Br20  1  0.500001  0.997866  0.497868  1
  Br  Br21  1  0.499999  0.497866  0.997866  1
