# generated using pymatgen
data_Tb3Nd5Y12Si15Pd
_symmetry_space_group_name_H-M   'P 1'
_cell_length_a   7.69648378
_cell_length_b   7.76767662
_cell_length_c   14.23172000
_cell_angle_alpha   90.10868807
_cell_angle_beta   89.78185593
_cell_angle_gamma   89.95311071
_symmetry_Int_Tables_number   1
_chemical_formula_structural   Tb3Nd5Y12Si15Pd
_chemical_formula_sum   'Tb3 Nd5 Y12 Si15 Pd1'
_cell_volume   850.81827429
_cell_formula_units_Z   1
loop_
 _symmetry_equiv_pos_site_id
 _symmetry_equiv_pos_as_xyz
  1  'x, y, z'
loop_
 _atom_site_type_symbol
 _atom_site_label
 _atom_site_symmetry_multiplicity
 _atom_site_fract_x
 _atom_site_fract_y
 _atom_site_fract_z
 _atom_site_occupancy
  Tb  Tb0  1  0.496263  0.136794  0.544516  1
  Tb  Tb1  1  0.363063  0.994236  0.791677  1
  Tb  Tb2  1  0.637951  0.003228  0.293944  1
  Nd  Nd3  1  0.986690  0.361551  0.209007  1
  Nd  Nd4  1  0.009404  0.640814  0.709126  1
  Nd  Nd5  1  0.140407  0.498664  0.457818  1
  Nd  Nd6  1  0.511798  0.857634  0.039653  1
  Nd  Nd7  1  0.857596  0.508089  0.957769  1
  Y  Y8  1  0.185871  0.184152  0.000688  1
  Y  Y9  1  0.820236  0.817729  0.500849  1
  Y  Y10  1  0.317667  0.686614  0.249722  1
  Y  Y11  1  0.683013  0.316760  0.749417  1
  Y  Y12  1  0.144295  0.012346  0.375859  1
  Y  Y13  1  0.863377  0.991890  0.874158  1
  Y  Y14  1  0.490866  0.638516  0.627125  1
  Y  Y15  1  0.363403  0.509064  0.872534  1
  Y  Y16  1  0.506217  0.355942  0.127817  1
  Y  Y17  1  0.631446  0.488384  0.377830  1
  Y  Y18  1  0.009810  0.139846  0.623242  1
  Y  Y19  1  0.988163  0.860311  0.123469  1
  Si  Si20  1  0.651373  0.707463  0.811630  1
  Si  Si21  1  0.208873  0.852677  0.563595  1
  Si  Si22  1  0.154536  0.794878  0.936447  1
  Si  Si23  1  0.796713  0.153431  0.059360  1
  Si  Si24  1  0.842259  0.200493  0.436985  1
  Si  Si25  1  0.299327  0.342055  0.688878  1
  Si  Si26  1  0.698937  0.656067  0.191084  1
  Si  Si27  1  0.292759  0.052838  0.185998  1
  Si  Si28  1  0.704935  0.939690  0.688542  1
  Si  Si29  1  0.440156  0.797547  0.441139  1
  Si  Si30  1  0.209850  0.567675  0.059043  1
  Si  Si31  1  0.563288  0.206035  0.938328  1
  Si  Si32  1  0.788662  0.432847  0.561473  1
  Si  Si33  1  0.069280  0.286566  0.809991  1
  Si  Si34  1  0.928623  0.710982  0.311781  1
  Pd  Pd35  1  0.342896  0.296191  0.309503  1
