# generated using pymatgen
data_BaCrSb12RuPt2
_symmetry_space_group_name_H-M   'P 1'
_cell_length_a   8.22328046
_cell_length_b   8.22532156
_cell_length_c   8.21571504
_cell_angle_alpha   109.42954409
_cell_angle_beta   109.47716309
_cell_angle_gamma   109.50225005
_symmetry_Int_Tables_number   1
_chemical_formula_structural   BaCrSb12RuPt2
_chemical_formula_sum   'Ba1 Cr1 Sb12 Ru1 Pt2'
_cell_volume   427.80567545
_cell_formula_units_Z   1
loop_
 _symmetry_equiv_pos_site_id
 _symmetry_equiv_pos_as_xyz
  1  'x, y, z'
loop_
 _atom_site_type_symbol
 _atom_site_label
 _atom_site_symmetry_multiplicity
 _atom_site_fract_x
 _atom_site_fract_y
 _atom_site_fract_z
 _atom_site_occupancy
  Ba  Ba0  1  0.000000  0.000000  0.000000  1
  Cr  Cr1  1  0.000000  0.000000  0.500000  1
  Sb  Sb2  1  0.158739  0.828214  0.660673  1
  Sb  Sb3  1  0.154066  0.502494  0.349403  1
  Sb  Sb4  1  0.498581  0.661026  0.848778  1
  Sb  Sb5  1  0.348522  0.847377  0.187891  1
  Sb  Sb6  1  0.818053  0.669000  0.169641  1
  Sb  Sb7  1  0.668694  0.850682  0.500394  1
  Sb  Sb8  1  0.181947  0.331000  0.830359  1
  Sb  Sb9  1  0.651478  0.152623  0.812109  1
  Sb  Sb10  1  0.331306  0.149318  0.499606  1
  Sb  Sb11  1  0.501419  0.338974  0.151222  1
  Sb  Sb12  1  0.845934  0.497506  0.650597  1
  Sb  Sb13  1  0.841261  0.171786  0.339327  1
  Ru  Ru14  1  0.500000  0.000000  0.000000  1
  Pt  Pt15  1  0.500000  0.500000  0.500000  1
  Pt  Pt16  1  0.000000  0.500000  0.000000  1
