# generated using pymatgen
data_Eu2YHo(BO4)2
_symmetry_space_group_name_H-M   'P 1'
_cell_length_a   3.66607900
_cell_length_b   9.68627431
_cell_length_c   10.92193444
_cell_angle_alpha   90.16653057
_cell_angle_beta   90.00000000
_cell_angle_gamma   90.00000000
_symmetry_Int_Tables_number   1
_chemical_formula_structural   Eu2YHo(BO4)2
_chemical_formula_sum   'Eu4 Y2 Ho2 B4 O16'
_cell_volume   387.84331851
_cell_formula_units_Z   2
loop_
 _symmetry_equiv_pos_site_id
 _symmetry_equiv_pos_as_xyz
  1  'x, y, z'
loop_
 _atom_site_type_symbol
 _atom_site_label
 _atom_site_symmetry_multiplicity
 _atom_site_fract_x
 _atom_site_fract_y
 _atom_site_fract_z
 _atom_site_occupancy
  Eu  Eu0  1  0.250000  0.656743  0.080990  1
  Eu  Eu1  1  0.750000  0.343257  0.919010  1
  Eu  Eu2  1  0.750000  0.155317  0.418531  1
  Eu  Eu3  1  0.250000  0.844683  0.581469  1
  Y  Y4  1  0.750000  0.583263  0.388895  1
  Y  Y5  1  0.250000  0.416737  0.611105  1
  Ho  Ho6  1  0.250000  0.083408  0.109931  1
  Ho  Ho7  1  0.750000  0.916592  0.890069  1
  B  B8  1  0.250000  0.363071  0.206478  1
  B  B9  1  0.750000  0.636929  0.793522  1
  B  B10  1  0.750000  0.864978  0.292445  1
  B  B11  1  0.250000  0.135022  0.707555  1
  O  O12  1  0.250000  0.491507  0.262781  1
  O  O13  1  0.750000  0.508493  0.737219  1
  O  O14  1  0.750000  0.992505  0.235059  1
  O  O15  1  0.250000  0.007495  0.764941  1
  O  O16  1  0.250000  0.240547  0.273033  1
  O  O17  1  0.750000  0.759453  0.726967  1
  O  O18  1  0.750000  0.741884  0.226065  1
  O  O19  1  0.250000  0.258116  0.773935  1
  O  O20  1  0.250000  0.353883  0.078193  1
  O  O21  1  0.750000  0.646117  0.921807  1
  O  O22  1  0.750000  0.857279  0.420782  1
  O  O23  1  0.250000  0.142721  0.579218  1
  O  O24  1  0.250000  0.615187  0.502848  1
  O  O25  1  0.750000  0.384813  0.497152  1
  O  O26  1  0.750000  0.113540  0.997589  1
  O  O27  1  0.250000  0.886460  0.002411  1
