# generated using pymatgen
data_TbHo4Tm3Au4
_symmetry_space_group_name_H-M   'P 1'
_cell_length_a   4.90467000
_cell_length_b   7.12305174
_cell_length_c   8.89321511
_cell_angle_alpha   90.08075315
_cell_angle_beta   90.00000000
_cell_angle_gamma   90.00000000
_symmetry_Int_Tables_number   1
_chemical_formula_structural   TbHo4Tm3Au4
_chemical_formula_sum   'Tb1 Ho4 Tm3 Au4'
_cell_volume   310.69499451
_cell_formula_units_Z   1
loop_
 _symmetry_equiv_pos_site_id
 _symmetry_equiv_pos_as_xyz
  1  'x, y, z'
loop_
 _atom_site_type_symbol
 _atom_site_label
 _atom_site_symmetry_multiplicity
 _atom_site_fract_x
 _atom_site_fract_y
 _atom_site_fract_z
 _atom_site_occupancy
  Tb  Tb0  1  0.250000  0.987279  0.323348  1
  Ho  Ho1  1  0.750000  0.647832  0.419511  1
  Ho  Ho2  1  0.250000  0.484951  0.176247  1
  Ho  Ho3  1  0.750000  0.514355  0.823430  1
  Ho  Ho4  1  0.750000  0.015060  0.677511  1
  Tm  Tm5  1  0.250000  0.851927  0.920675  1
  Tm  Tm6  1  0.250000  0.352416  0.580723  1
  Tm  Tm7  1  0.750000  0.148382  0.078638  1
  Au  Au8  1  0.250000  0.253324  0.899890  1
  Au  Au9  1  0.250000  0.754320  0.602785  1
  Au  Au10  1  0.750000  0.746663  0.097193  1
  Au  Au11  1  0.750000  0.243488  0.400049  1
