# generated using pymatgen
data_Zr12TlTe16
_symmetry_space_group_name_H-M   'P 1'
_cell_length_a   7.93937820
_cell_length_b   11.17271063
_cell_length_c   11.83365200
_cell_angle_alpha   118.10353781
_cell_angle_beta   109.56583858
_cell_angle_gamma   90.02118771
_symmetry_Int_Tables_number   1
_chemical_formula_structural   Zr12TlTe16
_chemical_formula_sum   'Zr12 Tl1 Te16'
_cell_volume   856.53481726
_cell_formula_units_Z   1
loop_
 _symmetry_equiv_pos_site_id
 _symmetry_equiv_pos_as_xyz
  1  'x, y, z'
loop_
 _atom_site_type_symbol
 _atom_site_label
 _atom_site_symmetry_multiplicity
 _atom_site_fract_x
 _atom_site_fract_y
 _atom_site_fract_z
 _atom_site_occupancy
  Zr  Zr0  1  0.121384  0.126577  0.491787  1
  Zr  Zr1  1  0.620225  0.126153  0.492142  1
  Zr  Zr2  1  0.311425  0.366803  0.874074  1
  Zr  Zr3  1  0.811600  0.365717  0.873476  1
  Zr  Zr4  1  0.191281  0.507651  0.633409  1
  Zr  Zr5  1  0.692784  0.508019  0.634246  1
  Zr  Zr6  1  0.379775  0.873847  0.507858  1
  Zr  Zr7  1  0.878616  0.873423  0.508213  1
  Zr  Zr8  1  0.188400  0.634283  0.126524  1
  Zr  Zr9  1  0.688575  0.633197  0.125926  1
  Zr  Zr10  1  0.307216  0.491981  0.365754  1
  Zr  Zr11  1  0.808719  0.492349  0.366591  1
  Tl  Tl12  1  0.500000  0.000000  0.000000  1
  Te  Te13  1  0.729656  0.055036  0.709596  1
  Te  Te14  1  0.229477  0.054889  0.709631  1
  Te  Te15  1  0.847669  0.654460  0.944994  1
  Te  Te16  1  0.347695  0.655489  0.945191  1
  Te  Te17  1  0.547056  0.289753  0.344483  1
  Te  Te18  1  0.047529  0.289836  0.344696  1
  Te  Te19  1  0.770523  0.945111  0.290369  1
  Te  Te20  1  0.270344  0.944964  0.290404  1
  Te  Te21  1  0.652305  0.344511  0.054809  1
  Te  Te22  1  0.152331  0.345540  0.055006  1
  Te  Te23  1  0.952471  0.710164  0.655304  1
  Te  Te24  1  0.452944  0.710247  0.655517  1
  Te  Te25  1  0.958217  0.333411  0.666531  1
  Te  Te26  1  0.458180  0.333760  0.666522  1
  Te  Te27  1  0.541820  0.666240  0.333478  1
  Te  Te28  1  0.041783  0.666589  0.333469  1
