# generated using pymatgen
data_Tm6Lu2Tc(B8Os)3
_symmetry_space_group_name_H-M   'P 1'
_cell_length_a   3.61824700
_cell_length_b   9.06461558
_cell_length_c   11.44110918
_cell_angle_alpha   89.96709211
_cell_angle_beta   90.00000000
_cell_angle_gamma   90.00000000
_symmetry_Int_Tables_number   1
_chemical_formula_structural   Tm6Lu2Tc(B8Os)3
_chemical_formula_sum   'Tm6 Lu2 Tc1 B24 Os3'
_cell_volume   375.24564447
_cell_formula_units_Z   1
loop_
 _symmetry_equiv_pos_site_id
 _symmetry_equiv_pos_as_xyz
  1  'x, y, z'
loop_
 _atom_site_type_symbol
 _atom_site_label
 _atom_site_symmetry_multiplicity
 _atom_site_fract_x
 _atom_site_fract_y
 _atom_site_fract_z
 _atom_site_occupancy
  Tm  Tm0  1  0.000000  0.323438  0.412981  1
  Tm  Tm1  1  0.000000  0.677794  0.583393  1
  Tm  Tm2  1  0.000000  0.819178  0.088012  1
  Tm  Tm3  1  0.000000  0.178596  0.915021  1
  Tm  Tm4  1  0.000000  0.942707  0.372474  1
  Tm  Tm5  1  0.000000  0.056878  0.627481  1
  Lu  Lu6  1  0.000000  0.444733  0.127984  1
  Lu  Lu7  1  0.000000  0.556481  0.872601  1
  Tc  Tc8  1  0.000000  0.637129  0.320797  1
  B  B9  1  0.500000  0.552725  0.433481  1
  B  B10  1  0.500000  0.446714  0.566918  1
  B  B11  1  0.500000  0.053652  0.066484  1
  B  B12  1  0.500000  0.946311  0.933729  1
  B  B13  1  0.500000  0.748714  0.419653  1
  B  B14  1  0.500000  0.251456  0.580227  1
  B  B15  1  0.500000  0.249684  0.080025  1
  B  B16  1  0.500000  0.750433  0.919932  1
  B  B17  1  0.500000  0.791700  0.265520  1
  B  B18  1  0.500000  0.208564  0.734477  1
  B  B19  1  0.500000  0.292013  0.233554  1
  B  B20  1  0.500000  0.708241  0.765829  1
  B  B21  1  0.500000  0.630538  0.184750  1
  B  B22  1  0.500000  0.369234  0.815769  1
  B  B23  1  0.500000  0.131250  0.314635  1
  B  B24  1  0.500000  0.869019  0.684843  1
  B  B25  1  0.500000  0.982029  0.212604  1
  B  B26  1  0.500000  0.017899  0.787667  1
  B  B27  1  0.500000  0.481181  0.286913  1
  B  B28  1  0.500000  0.518097  0.713234  1
  B  B29  1  0.500000  0.604501  0.028532  1
  B  B30  1  0.500000  0.395334  0.970911  1
  B  B31  1  0.500000  0.106183  0.470747  1
  B  B32  1  0.500000  0.894992  0.529495  1
  Os  Os33  1  0.000000  0.362556  0.679895  1
  Os  Os34  1  0.000000  0.137973  0.178075  1
  Os  Os35  1  0.000000  0.862069  0.821358  1
