# generated using pymatgen
data_Sc2Co10Si7Ir2
_symmetry_space_group_name_H-M   'P 1'
_cell_length_a   9.23070850
_cell_length_b   9.23346437
_cell_length_c   3.62158400
_cell_angle_alpha   90.00000000
_cell_angle_beta   90.00000000
_cell_angle_gamma   120.13703603
_symmetry_Int_Tables_number   1
_chemical_formula_structural   Sc2Co10Si7Ir2
_chemical_formula_sum   'Sc2 Co10 Si7 Ir2'
_cell_volume   266.94853893
_cell_formula_units_Z   1
loop_
 _symmetry_equiv_pos_site_id
 _symmetry_equiv_pos_as_xyz
  1  'x, y, z'
loop_
 _atom_site_type_symbol
 _atom_site_label
 _atom_site_symmetry_multiplicity
 _atom_site_fract_x
 _atom_site_fract_y
 _atom_site_fract_z
 _atom_site_occupancy
  Sc  Sc0  1  0.663424  0.333977  0.000000  1
  Sc  Sc1  1  0.008123  0.006729  0.500000  1
  Co  Co2  1  0.280404  0.232152  0.000000  1
  Co  Co3  1  0.482248  0.538011  0.000000  1
  Co  Co4  1  0.455187  0.944303  0.000000  1
  Co  Co5  1  0.057434  0.511265  0.000000  1
  Co  Co6  1  0.708026  0.607529  0.500000  1
  Co  Co7  1  0.385182  0.101903  0.500000  1
  Co  Co8  1  0.902357  0.287571  0.500000  1
  Co  Co9  1  0.546918  0.784054  0.500000  1
  Co  Co10  1  0.213928  0.766425  0.500000  1
  Co  Co11  1  0.234572  0.442657  0.500000  1
  Si  Si12  1  0.726418  0.775502  0.000000  1
  Si  Si13  1  0.224461  0.962127  0.000000  1
  Si  Si14  1  0.058842  0.271446  0.000000  1
  Si  Si15  1  0.445357  0.373024  0.500000  1
  Si  Si16  1  0.617503  0.074121  0.500000  1
  Si  Si17  1  0.927191  0.544589  0.500000  1
  Si  Si18  1  0.333332  0.666934  0.000000  1
  Ir  Ir19  1  0.774539  0.048688  0.000000  1
  Ir  Ir20  1  0.954552  0.726995  0.000000  1
