# generated using pymatgen
data_Ta2TiSi6
_symmetry_space_group_name_H-M   'P 1'
_cell_length_a   4.78287000
_cell_length_b   4.79983386
_cell_length_c   6.57119500
_cell_angle_alpha   90.00000000
_cell_angle_beta   90.00000000
_cell_angle_gamma   119.88317011
_symmetry_Int_Tables_number   1
_chemical_formula_structural   Ta2TiSi6
_chemical_formula_sum   'Ta2 Ti1 Si6'
_cell_volume   130.79761986
_cell_formula_units_Z   1
loop_
 _symmetry_equiv_pos_site_id
 _symmetry_equiv_pos_as_xyz
  1  'x, y, z'
loop_
 _atom_site_type_symbol
 _atom_site_label
 _atom_site_symmetry_multiplicity
 _atom_site_fract_x
 _atom_site_fract_y
 _atom_site_fract_z
 _atom_site_occupancy
  Ta  Ta0  1  0.000000  0.500000  0.166021  1
  Ta  Ta1  1  0.500000  0.500000  0.833979  1
  Ti  Ti2  1  0.500000  0.000000  0.500000  1
  Si  Si3  1  0.843921  0.687844  0.500000  1
  Si  Si4  1  0.164690  0.841236  0.830668  1
  Si  Si5  1  0.676548  0.841236  0.169332  1
  Si  Si6  1  0.156079  0.312156  0.500000  1
  Si  Si7  1  0.835310  0.158764  0.830668  1
  Si  Si8  1  0.323452  0.158764  0.169332  1
