# generated using pymatgen
data_Ho8CdHgIrPt
_symmetry_space_group_name_H-M   'P 1'
_cell_length_a   9.60409039
_cell_length_b   9.60409008
_cell_length_c   9.59012300
_cell_angle_alpha   60.04809224
_cell_angle_beta   60.04809333
_cell_angle_gamma   60.15592844
_symmetry_Int_Tables_number   1
_chemical_formula_structural   Ho8CdHgIrPt
_chemical_formula_sum   'Ho16 Cd2 Hg2 Ir2 Pt2'
_cell_volume   626.68150409
_cell_formula_units_Z   2
loop_
 _symmetry_equiv_pos_site_id
 _symmetry_equiv_pos_as_xyz
  1  'x, y, z'
loop_
 _atom_site_type_symbol
 _atom_site_label
 _atom_site_symmetry_multiplicity
 _atom_site_fract_x
 _atom_site_fract_y
 _atom_site_fract_z
 _atom_site_occupancy
  Ho  Ho0  1  0.601525  0.601525  0.596428  1
  Ho  Ho1  1  0.601525  0.601525  0.200523  1
  Ho  Ho2  1  0.607973  0.190293  0.600867  1
  Ho  Ho3  1  0.190293  0.607973  0.600867  1
  Ho  Ho4  1  0.056340  0.439640  0.441573  1
  Ho  Ho5  1  0.439640  0.056340  0.062446  1
  Ho  Ho6  1  0.439640  0.056340  0.441573  1
  Ho  Ho7  1  0.056340  0.439640  0.062446  1
  Ho  Ho8  1  0.441042  0.441042  0.058958  1
  Ho  Ho9  1  0.060052  0.060052  0.439948  1
  Ho  Ho10  1  0.186769  0.813788  0.812180  1
  Ho  Ho11  1  0.813788  0.186769  0.187263  1
  Ho  Ho12  1  0.813788  0.186769  0.812180  1
  Ho  Ho13  1  0.186769  0.813788  0.187263  1
  Ho  Ho14  1  0.812563  0.812563  0.187437  1
  Ho  Ho15  1  0.186593  0.186593  0.813407  1
  Cd  Cd16  1  0.830477  0.506282  0.831620  1
  Cd  Cd17  1  0.506282  0.830477  0.831620  1
  Hg  Hg18  1  0.834913  0.834913  0.836799  1
  Hg  Hg19  1  0.834913  0.834913  0.493373  1
  Ir  Ir20  1  0.391143  0.822742  0.393058  1
  Ir  Ir21  1  0.822742  0.391143  0.393058  1
  Pt  Pt22  1  0.392443  0.392443  0.395157  1
  Pt  Pt23  1  0.392443  0.392443  0.819957  1
