# generated using pymatgen
data_Y2CdGa2
_symmetry_space_group_name_H-M   'P 1'
_cell_length_a   7.36318700
_cell_length_b   7.36318700
_cell_length_c   4.27259100
_cell_angle_alpha   90.00000000
_cell_angle_beta   90.00000000
_cell_angle_gamma   90.00000000
_symmetry_Int_Tables_number   1
_chemical_formula_structural   Y2CdGa2
_chemical_formula_sum   'Y4 Cd2 Ga4'
_cell_volume   231.64502735
_cell_formula_units_Z   2
loop_
 _symmetry_equiv_pos_site_id
 _symmetry_equiv_pos_as_xyz
  1  'x, y, z'
loop_
 _atom_site_type_symbol
 _atom_site_label
 _atom_site_symmetry_multiplicity
 _atom_site_fract_x
 _atom_site_fract_y
 _atom_site_fract_z
 _atom_site_occupancy
  Y  Y0  1  0.673367  0.173367  0.500000  1
  Y  Y1  1  0.326633  0.826633  0.500000  1
  Y  Y2  1  0.173367  0.326633  0.500000  1
  Y  Y3  1  0.826633  0.673367  0.500000  1
  Cd  Cd4  1  0.500000  0.500000  0.000000  1
  Cd  Cd5  1  0.000000  0.000000  0.000000  1
  Ga  Ga6  1  0.124528  0.624528  0.000000  1
  Ga  Ga7  1  0.875472  0.375472  0.000000  1
  Ga  Ga8  1  0.624528  0.875472  0.000000  1
  Ga  Ga9  1  0.375472  0.124528  0.000000  1
