# generated using pymatgen
data_Ta2V4Si6BW4
_symmetry_space_group_name_H-M   'P 1'
_cell_length_a   7.35960646
_cell_length_b   7.36343362
_cell_length_c   4.92901022
_cell_angle_alpha   90.24362450
_cell_angle_beta   89.87812407
_cell_angle_gamma   120.01720272
_symmetry_Int_Tables_number   1
_chemical_formula_structural   Ta2V4Si6BW4
_chemical_formula_sum   'Ta2 V4 Si6 B1 W4'
_cell_volume   231.28426263
_cell_formula_units_Z   1
loop_
 _symmetry_equiv_pos_site_id
 _symmetry_equiv_pos_as_xyz
  1  'x, y, z'
loop_
 _atom_site_type_symbol
 _atom_site_label
 _atom_site_symmetry_multiplicity
 _atom_site_fract_x
 _atom_site_fract_y
 _atom_site_fract_z
 _atom_site_occupancy
  Ta  Ta0  1  0.755357  0.753242  0.758125  1
  Ta  Ta1  1  0.244643  0.997885  0.758125  1
  V  V2  1  0.334476  0.669514  0.504157  1
  V  V3  1  0.665524  0.335036  0.504157  1
  V  V4  1  0.665506  0.333479  0.998062  1
  V  V5  1  0.334494  0.667974  0.998062  1
  Si  Si6  1  0.000000  0.402854  0.249662  1
  Si  Si7  1  0.595903  0.596209  0.252790  1
  Si  Si8  1  0.404097  0.000306  0.252790  1
  Si  Si9  1  0.000000  0.590259  0.750452  1
  Si  Si10  1  0.401308  0.403987  0.749180  1
  Si  Si11  1  0.598692  0.002679  0.749180  1
  B  B12  1  0.000000  0.002132  0.490080  1
  W  W13  1  0.000000  0.750688  0.246106  1
  W  W14  1  0.247456  0.247636  0.243575  1
  W  W15  1  0.752544  0.000180  0.243575  1
  W  W16  1  0.000000  0.245938  0.751923  1
