# generated using pymatgen
data_HoTh3(B4Rh)4
_symmetry_space_group_name_H-M   'P 1'
_cell_length_a   7.08012002
_cell_length_b   7.08011964
_cell_length_c   7.08011914
_cell_angle_alpha   111.71057769
_cell_angle_beta   111.71056855
_cell_angle_gamma   105.07977330
_symmetry_Int_Tables_number   1
_chemical_formula_structural   HoTh3(B4Rh)4
_chemical_formula_sum   'Ho1 Th3 B16 Rh4'
_cell_volume   272.02044032
_cell_formula_units_Z   1
loop_
 _symmetry_equiv_pos_site_id
 _symmetry_equiv_pos_as_xyz
  1  'x, y, z'
loop_
 _atom_site_type_symbol
 _atom_site_label
 _atom_site_symmetry_multiplicity
 _atom_site_fract_x
 _atom_site_fract_y
 _atom_site_fract_z
 _atom_site_occupancy
  Ho  Ho0  1  0.250000  0.750000  0.500000  1
  Th  Th1  1  0.786909  0.786909  0.000000  1
  Th  Th2  1  0.213091  0.213091  0.000000  1
  Th  Th3  1  0.750000  0.250000  0.500000  1
  B  B4  1  0.266205  0.108344  0.373419  1
  B  B5  1  0.734926  0.892786  0.626581  1
  B  B6  1  0.266205  0.892786  0.157860  1
  B  B7  1  0.734926  0.108344  0.842140  1
  B  B8  1  0.107214  0.733795  0.842140  1
  B  B9  1  0.891656  0.265074  0.157860  1
  B  B10  1  0.107214  0.265074  0.373419  1
  B  B11  1  0.891656  0.733795  0.626581  1
  B  B12  1  0.111245  0.108758  0.523229  1
  B  B13  1  0.585529  0.588015  0.476771  1
  B  B14  1  0.111245  0.588015  0.002486  1
  B  B15  1  0.585529  0.108758  0.997514  1
  B  B16  1  0.891242  0.888755  0.476771  1
  B  B17  1  0.411985  0.414471  0.523229  1
  B  B18  1  0.891242  0.414471  0.002486  1
  B  B19  1  0.411985  0.888755  0.997514  1
  Rh  Rh20  1  0.262490  0.501806  0.760684  1
  Rh  Rh21  1  0.741122  0.501806  0.239316  1
  Rh  Rh22  1  0.498194  0.737510  0.239316  1
  Rh  Rh23  1  0.498194  0.258878  0.760684  1
