# generated using pymatgen
data_Yb11YAl8(SiO4)12
_symmetry_space_group_name_H-M   'P 1'
_cell_length_a   10.31095510
_cell_length_b   10.28384506
_cell_length_c   10.31095716
_cell_angle_alpha   109.53486668
_cell_angle_beta   109.45093629
_cell_angle_gamma   109.53482990
_symmetry_Int_Tables_number   1
_chemical_formula_structural   Yb11YAl8(SiO4)12
_chemical_formula_sum   'Yb11 Y1 Al8 Si12 O48'
_cell_volume   840.53656617
_cell_formula_units_Z   1
loop_
 _symmetry_equiv_pos_site_id
 _symmetry_equiv_pos_as_xyz
  1  'x, y, z'
loop_
 _atom_site_type_symbol
 _atom_site_label
 _atom_site_symmetry_multiplicity
 _atom_site_fract_x
 _atom_site_fract_y
 _atom_site_fract_z
 _atom_site_occupancy
  Yb  Yb0  1  0.249822  0.377208  0.122767  1
  Yb  Yb1  1  0.377233  0.122792  0.250178  1
  Yb  Yb2  1  0.875294  0.624561  0.250262  1
  Yb  Yb3  1  0.745560  0.122792  0.372614  1
  Yb  Yb4  1  0.125000  0.250000  0.375000  1
  Yb  Yb5  1  0.875000  0.750000  0.625000  1
  Yb  Yb6  1  0.249737  0.875439  0.624705  1
  Yb  Yb7  1  0.127386  0.377208  0.754440  1
  Yb  Yb8  1  0.625702  0.875440  0.750734  1
  Yb  Yb9  1  0.749266  0.624561  0.874298  1
  Yb  Yb10  1  0.625000  0.250000  0.875000  1
  Y  Y11  1  0.375000  0.750000  0.125000  1
  Al  Al12  1  0.000713  0.001359  0.000325  1
  Al  Al13  1  0.500942  0.001517  0.999630  1
  Al  Al14  1  0.998113  0.498483  0.999424  1
  Al  Al15  1  0.500370  0.498483  0.999058  1
  Al  Al16  1  0.000645  0.001358  0.501034  1
  Al  Al17  1  0.499676  0.498642  0.499287  1
  Al  Al18  1  0.998966  0.498641  0.499355  1
  Al  Al19  1  0.500576  0.001517  0.501888  1
  Si  Si20  1  0.875121  0.250000  0.125121  1
  Si  Si21  1  0.751462  0.874355  0.124496  1
  Si  Si22  1  0.624940  0.375353  0.249641  1
  Si  Si23  1  0.122893  0.874355  0.249859  1
  Si  Si24  1  0.250141  0.625645  0.377107  1
  Si  Si25  1  0.629036  0.750000  0.379036  1
  Si  Si26  1  0.750412  0.375353  0.625712  1
  Si  Si27  1  0.374879  0.250000  0.624879  1
  Si  Si28  1  0.874288  0.124647  0.749587  1
  Si  Si29  1  0.375504  0.625645  0.748538  1
  Si  Si30  1  0.250359  0.124647  0.875060  1
  Si  Si31  1  0.120964  0.750000  0.870964  1
  O  O32  1  0.198239  0.114413  0.008928  1
  O  O33  1  0.308041  0.893348  0.004658  1
  O  O34  1  0.698896  0.688092  0.083902  1
  O  O35  1  0.885572  0.395118  0.084113  1
  O  O36  1  0.614531  0.416422  0.104859  1
  O  O37  1  0.989196  0.688092  0.104191  1
  O  O38  1  0.009298  0.198568  0.114362  1
  O  O39  1  0.604819  0.913474  0.111002  1
  O  O40  1  0.197528  0.586525  0.191344  1
  O  O41  1  0.495343  0.606652  0.191959  1
  O  O42  1  0.114844  0.009097  0.198073  1
  O  O43  1  0.584291  0.189195  0.196792  1
  O  O44  1  0.308657  0.913474  0.302472  1
  O  O45  1  0.491072  0.385586  0.301761  1
  O  O46  1  0.915794  0.301432  0.310730  1
  O  O47  1  0.894252  0.009096  0.311023  1
  O  O48  1  0.585307  0.893348  0.388690  1
  O  O49  1  0.301927  0.490904  0.385156  1
  O  O50  1  0.811001  0.509284  0.394624  1
  O  O51  1  0.082678  0.885836  0.395031  1
  O  O52  1  0.813735  0.802441  0.418195  1
  O  O53  1  0.104970  0.614163  0.417322  1
  O  O54  1  0.385638  0.301432  0.490702  1
  O  O55  1  0.604904  0.189195  0.492404  1
  O  O56  1  0.395809  0.811907  0.510803  1
  O  O57  1  0.615754  0.697559  0.511294  1
  O  O58  1  0.894515  0.385586  0.583826  1
  O  O59  1  0.189269  0.198568  0.584206  1
  O  O60  1  0.916174  0.114413  0.605485  1
  O  O61  1  0.188977  0.490904  0.605748  1
  O  O62  1  0.415887  0.104881  0.614428  1
  O  O63  1  0.698284  0.509285  0.614661  1
  O  O64  1  0.105376  0.990715  0.688999  1
  O  O65  1  0.081806  0.697559  0.686266  1
  O  O66  1  0.688435  0.083577  0.698108  1
  O  O67  1  0.509194  0.614164  0.696842  1
  O  O68  1  0.416098  0.811908  0.801104  1
  O  O69  1  0.885339  0.990715  0.801717  1
  O  O70  1  0.509546  0.395118  0.811005  1
  O  O71  1  0.801892  0.416423  0.811564  1
  O  O72  1  0.395142  0.083577  0.885469  1
  O  O73  1  0.988706  0.802441  0.884247  1
  O  O74  1  0.388998  0.586526  0.895182  1
  O  O75  1  0.007596  0.310805  0.895096  1
  O  O76  1  0.303208  0.310804  0.915709  1
  O  O77  1  0.111309  0.606652  0.914693  1
  O  O78  1  0.688994  0.104881  0.990454  1
  O  O79  1  0.803158  0.885836  0.990806  1
