# generated using pymatgen
data_Tb13Tm7Si15Os
_symmetry_space_group_name_H-M   'P 1'
_cell_length_a   7.37939715
_cell_length_b   7.74269630
_cell_length_c   14.55796575
_cell_angle_alpha   90.03024269
_cell_angle_beta   90.04723138
_cell_angle_gamma   90.17961912
_symmetry_Int_Tables_number   1
_chemical_formula_structural   Tb13Tm7Si15Os
_chemical_formula_sum   'Tb13 Tm7 Si15 Os1'
_cell_volume   831.78571956
_cell_formula_units_Z   1
loop_
 _symmetry_equiv_pos_site_id
 _symmetry_equiv_pos_as_xyz
  1  'x, y, z'
loop_
 _atom_site_type_symbol
 _atom_site_label
 _atom_site_symmetry_multiplicity
 _atom_site_fract_x
 _atom_site_fract_y
 _atom_site_fract_z
 _atom_site_occupancy
  Tb  Tb0  1  0.817442  0.677493  0.376125  1
  Tb  Tb1  1  0.318971  0.820605  0.376418  1
  Tb  Tb2  1  0.817067  0.677030  0.122783  1
  Tb  Tb3  1  0.670803  0.185323  0.874540  1
  Tb  Tb4  1  0.191996  0.324789  0.626781  1
  Tb  Tb5  1  0.522865  0.673308  0.597853  1
  Tb  Tb6  1  0.025460  0.818155  0.902888  1
  Tb  Tb7  1  0.473381  0.315655  0.097454  1
  Tb  Tb8  1  0.974706  0.182074  0.402417  1
  Tb  Tb9  1  0.474866  0.316021  0.402919  1
  Tb  Tb10  1  0.975143  0.182059  0.096712  1
  Tb  Tb11  1  0.520685  0.672192  0.902387  1
  Tb  Tb12  1  0.025626  0.817425  0.597315  1
  Tm  Tm13  1  0.672085  0.185517  0.626586  1
  Tm  Tm14  1  0.191803  0.325443  0.873297  1
  Tm  Tm15  1  0.318120  0.819997  0.124106  1
  Tm  Tm16  1  0.840989  0.511706  0.749959  1
  Tm  Tm17  1  0.354190  0.988942  0.750196  1
  Tm  Tm18  1  0.150292  0.485241  0.249682  1
  Tm  Tm19  1  0.650058  0.013436  0.249920  1
  Si  Si20  1  0.648807  0.972719  0.461622  1
  Si  Si21  1  0.152063  0.528914  0.039131  1
  Si  Si22  1  0.345247  0.026118  0.961990  1
  Si  Si23  1  0.854442  0.469677  0.539570  1
  Si  Si24  1  0.351693  0.025272  0.540363  1
  Si  Si25  1  0.860041  0.470847  0.959398  1
  Si  Si26  1  0.642674  0.970766  0.040347  1
  Si  Si27  1  0.147843  0.527706  0.460047  1
  Si  Si28  1  0.980156  0.101004  0.749905  1
  Si  Si29  1  0.520273  0.604361  0.248902  1
  Si  Si30  1  0.020423  0.895924  0.248788  1
  Si  Si31  1  0.739162  0.875601  0.749338  1
  Si  Si32  1  0.229755  0.634167  0.751260  1
  Si  Si33  1  0.269316  0.129428  0.249179  1
  Si  Si34  1  0.770898  0.369115  0.249740  1
  Os  Os35  1  0.480658  0.405971  0.750079  1
