# generated using pymatgen
data_ErLuRh2F14
_symmetry_space_group_name_H-M   'P 1'
_cell_length_a   5.46938815
_cell_length_b   8.73302657
_cell_length_c   11.80314901
_cell_angle_alpha   62.73025374
_cell_angle_beta   89.90067411
_cell_angle_gamma   89.98089811
_symmetry_Int_Tables_number   1
_chemical_formula_structural   ErLuRh2F14
_chemical_formula_sum   'Er2 Lu2 Rh4 F28'
_cell_volume   501.11075170
_cell_formula_units_Z   2
loop_
 _symmetry_equiv_pos_site_id
 _symmetry_equiv_pos_as_xyz
  1  'x, y, z'
loop_
 _atom_site_type_symbol
 _atom_site_label
 _atom_site_symmetry_multiplicity
 _atom_site_fract_x
 _atom_site_fract_y
 _atom_site_fract_z
 _atom_site_occupancy
  Er  Er0  1  0.260477  0.814441  0.265092  1
  Er  Er1  1  0.739523  0.185559  0.734908  1
  Lu  Lu2  1  0.761391  0.187410  0.234925  1
  Lu  Lu3  1  0.238609  0.812590  0.765075  1
  Rh  Rh4  1  0.759066  0.725863  0.042891  1
  Rh  Rh5  1  0.240934  0.274137  0.957109  1
  Rh  Rh6  1  0.259206  0.271346  0.455740  1
  Rh  Rh7  1  0.740794  0.728654  0.544260  1
  F  F8  1  0.937704  0.703552  0.416299  1
  F  F9  1  0.062296  0.296448  0.583701  1
  F  F10  1  0.437865  0.298271  0.085118  1
  F  F11  1  0.562135  0.701729  0.914882  1
  F  F12  1  0.464780  0.724547  0.136850  1
  F  F13  1  0.535220  0.275453  0.863150  1
  F  F14  1  0.965105  0.273909  0.361184  1
  F  F15  1  0.034895  0.726091  0.638816  1
  F  F16  1  0.948712  0.745209  0.175773  1
  F  F17  1  0.051288  0.254791  0.824227  1
  F  F18  1  0.451907  0.251909  0.323335  1
  F  F19  1  0.548093  0.748091  0.676665  1
  F  F20  1  0.776150  0.477019  0.141928  1
  F  F21  1  0.223850  0.522981  0.858072  1
  F  F22  1  0.276167  0.519753  0.358268  1
  F  F23  1  0.723833  0.480247  0.641732  1
  F  F24  1  0.936598  0.277944  0.044401  1
  F  F25  1  0.063402  0.722056  0.955599  1
  F  F26  1  0.438370  0.723081  0.457420  1
  F  F27  1  0.561630  0.276919  0.542580  1
  F  F28  1  0.745324  0.976995  0.450275  1
  F  F29  1  0.254676  0.023005  0.549725  1
  F  F30  1  0.245711  0.025116  0.049952  1
  F  F31  1  0.754289  0.974884  0.950048  1
  F  F32  1  0.585531  0.973781  0.232220  1
  F  F33  1  0.414469  0.026219  0.767780  1
  F  F34  1  0.080472  0.032151  0.267646  1
  F  F35  1  0.919528  0.967849  0.732354  1
