# generated using pymatgen
data_Pa2(Al3Rh)3
_symmetry_space_group_name_H-M   'P 1'
_cell_length_a   7.61326135
_cell_length_b   7.61392604
_cell_length_c   9.44892100
_cell_angle_alpha   90.00000000
_cell_angle_beta   90.00000000
_cell_angle_gamma   119.59681119
_symmetry_Int_Tables_number   1
_chemical_formula_structural   Pa2(Al3Rh)3
_chemical_formula_sum   'Pa4 Al18 Rh6'
_cell_volume   476.25812140
_cell_formula_units_Z   2
loop_
 _symmetry_equiv_pos_site_id
 _symmetry_equiv_pos_as_xyz
  1  'x, y, z'
loop_
 _atom_site_type_symbol
 _atom_site_label
 _atom_site_symmetry_multiplicity
 _atom_site_fract_x
 _atom_site_fract_y
 _atom_site_fract_z
 _atom_site_occupancy
  Pa  Pa0  1  0.996152  0.670392  0.250000  1
  Pa  Pa1  1  0.003848  0.329608  0.750000  1
  Pa  Pa2  1  0.670362  0.996161  0.250000  1
  Pa  Pa3  1  0.329638  0.003839  0.750000  1
  Al  Al4  1  0.127710  0.127721  0.250000  1
  Al  Al5  1  0.872290  0.872279  0.750000  1
  Al  Al6  1  0.002209  0.334668  0.074007  1
  Al  Al7  1  0.997791  0.665332  0.925993  1
  Al  Al8  1  0.997791  0.665332  0.574007  1
  Al  Al9  1  0.334717  0.002215  0.425993  1
  Al  Al10  1  0.002209  0.334668  0.425993  1
  Al  Al11  1  0.665283  0.997785  0.574007  1
  Al  Al12  1  0.665283  0.997785  0.925993  1
  Al  Al13  1  0.334717  0.002215  0.074007  1
  Al  Al14  1  0.334935  0.334924  0.553778  1
  Al  Al15  1  0.665065  0.665076  0.446222  1
  Al  Al16  1  0.665065  0.665076  0.053778  1
  Al  Al17  1  0.334935  0.334924  0.946222  1
  Al  Al18  1  0.339140  0.547030  0.250000  1
  Al  Al19  1  0.660860  0.452970  0.750000  1
  Al  Al20  1  0.546984  0.339103  0.250000  1
  Al  Al21  1  0.453016  0.660897  0.750000  1
  Rh  Rh22  1  0.671648  0.328459  0.000032  1
  Rh  Rh23  1  0.328352  0.671541  0.999968  1
  Rh  Rh24  1  0.328352  0.671541  0.500032  1
  Rh  Rh25  1  0.671648  0.328459  0.499968  1
  Rh  Rh26  1  0.000000  0.000000  0.000000  1
  Rh  Rh27  1  0.000000  0.000000  0.500000  1
