# generated using pymatgen
data_Sc4MnAl3CrOs3
_symmetry_space_group_name_H-M   'P 1'
_cell_length_a   5.22527033
_cell_length_b   5.17885361
_cell_length_c   8.46036000
_cell_angle_alpha   90.00000000
_cell_angle_beta   90.00000000
_cell_angle_gamma   120.46658019
_symmetry_Int_Tables_number   1
_chemical_formula_structural   Sc4MnAl3CrOs3
_chemical_formula_sum   'Sc4 Mn1 Al3 Cr1 Os3'
_cell_volume   197.33346720
_cell_formula_units_Z   1
loop_
 _symmetry_equiv_pos_site_id
 _symmetry_equiv_pos_as_xyz
  1  'x, y, z'
loop_
 _atom_site_type_symbol
 _atom_site_label
 _atom_site_symmetry_multiplicity
 _atom_site_fract_x
 _atom_site_fract_y
 _atom_site_fract_z
 _atom_site_occupancy
  Sc  Sc0  1  0.661458  0.332856  0.685450  1
  Sc  Sc1  1  0.334575  0.666400  0.805781  1
  Sc  Sc2  1  0.334575  0.666400  0.194219  1
  Sc  Sc3  1  0.661458  0.332856  0.314550  1
  Mn  Mn4  1  0.845225  0.161121  0.000000  1
  Al  Al5  1  0.159691  0.827369  0.500000  1
  Al  Al6  1  0.349874  0.159293  0.000000  1
  Al  Al7  1  0.846994  0.658563  0.000000  1
  Cr  Cr8  1  0.166658  0.334919  0.500000  1
  Os  Os9  1  0.999737  0.022928  0.247006  1
  Os  Os10  1  0.999737  0.022928  0.752994  1
  Os  Os11  1  0.640574  0.813808  0.500000  1
