# generated using pymatgen
data_Nd4Ho3Er(B6Os)4
_symmetry_space_group_name_H-M   'P 1'
_cell_length_a   3.69813800
_cell_length_b   9.23348201
_cell_length_c   11.66063702
_cell_angle_alpha   89.99349566
_cell_angle_beta   90.00000000
_cell_angle_gamma   90.00000000
_symmetry_Int_Tables_number   1
_chemical_formula_structural   Nd4Ho3Er(B6Os)4
_chemical_formula_sum   'Nd4 Ho3 Er1 B24 Os4'
_cell_volume   398.17216321
_cell_formula_units_Z   1
loop_
 _symmetry_equiv_pos_site_id
 _symmetry_equiv_pos_as_xyz
  1  'x, y, z'
loop_
 _atom_site_type_symbol
 _atom_site_label
 _atom_site_symmetry_multiplicity
 _atom_site_fract_x
 _atom_site_fract_y
 _atom_site_fract_z
 _atom_site_occupancy
  Nd  Nd0  1  0.000000  0.322436  0.414195  1
  Nd  Nd1  1  0.000000  0.677547  0.585694  1
  Nd  Nd2  1  0.000000  0.822529  0.085840  1
  Nd  Nd3  1  0.000000  0.177465  0.914254  1
  Ho  Ho4  1  0.000000  0.055609  0.627459  1
  Ho  Ho5  1  0.000000  0.444327  0.127684  1
  Ho  Ho6  1  0.000000  0.555674  0.872367  1
  Er  Er7  1  0.000000  0.944315  0.372400  1
  B  B8  1  0.500000  0.556253  0.430418  1
  B  B9  1  0.500000  0.443862  0.569538  1
  B  B10  1  0.500000  0.056147  0.069629  1
  B  B11  1  0.500000  0.943832  0.930449  1
  B  B12  1  0.500000  0.749778  0.417414  1
  B  B13  1  0.500000  0.250520  0.582575  1
  B  B14  1  0.500000  0.249409  0.082613  1
  B  B15  1  0.500000  0.750540  0.917416  1
  B  B16  1  0.500000  0.790995  0.266981  1
  B  B17  1  0.500000  0.209291  0.733063  1
  B  B18  1  0.500000  0.290561  0.233114  1
  B  B19  1  0.500000  0.709317  0.766915  1
  B  B20  1  0.500000  0.630916  0.185414  1
  B  B21  1  0.500000  0.369149  0.814633  1
  B  B22  1  0.500000  0.130599  0.314772  1
  B  B23  1  0.500000  0.869173  0.685339  1
  B  B24  1  0.500000  0.985353  0.214328  1
  B  B25  1  0.500000  0.014456  0.785875  1
  B  B26  1  0.500000  0.485625  0.285914  1
  B  B27  1  0.500000  0.514444  0.714101  1
  B  B28  1  0.500000  0.603238  0.028248  1
  B  B29  1  0.500000  0.396770  0.971766  1
  B  B30  1  0.500000  0.102840  0.471555  1
  B  B31  1  0.500000  0.896906  0.527896  1
  Os  Os32  1  0.000000  0.639465  0.319625  1
  Os  Os33  1  0.000000  0.360856  0.680365  1
  Os  Os34  1  0.000000  0.138911  0.180591  1
  Os  Os35  1  0.000000  0.860890  0.819561  1
