# generated using pymatgen
data_Pr3Dy5Cd2CoPt
_symmetry_space_group_name_H-M   'P 1'
_cell_length_a   9.74234565
_cell_length_b   9.74234545
_cell_length_c   9.72000800
_cell_angle_alpha   60.07581695
_cell_angle_beta   60.07581764
_cell_angle_gamma   60.27648248
_symmetry_Int_Tables_number   1
_chemical_formula_structural   Pr3Dy5Cd2CoPt
_chemical_formula_sum   'Pr6 Dy10 Cd4 Co2 Pt2'
_cell_volume   654.45044372
_cell_formula_units_Z   2
loop_
 _symmetry_equiv_pos_site_id
 _symmetry_equiv_pos_as_xyz
  1  'x, y, z'
loop_
 _atom_site_type_symbol
 _atom_site_label
 _atom_site_symmetry_multiplicity
 _atom_site_fract_x
 _atom_site_fract_y
 _atom_site_fract_z
 _atom_site_occupancy
  Pr  Pr0  1  0.939234  0.558965  0.560983  1
  Pr  Pr1  1  0.558965  0.939234  0.940818  1
  Pr  Pr2  1  0.558965  0.939234  0.560983  1
  Pr  Pr3  1  0.939234  0.558965  0.940818  1
  Pr  Pr4  1  0.558307  0.558307  0.941693  1
  Pr  Pr5  1  0.938338  0.938338  0.561662  1
  Dy  Dy6  1  0.344302  0.344302  0.356835  1
  Dy  Dy7  1  0.344302  0.344302  0.954561  1
  Dy  Dy8  1  0.338947  0.961700  0.349677  1
  Dy  Dy9  1  0.961700  0.338947  0.349677  1
  Dy  Dy10  1  0.821805  0.186341  0.186746  1
  Dy  Dy11  1  0.186341  0.821805  0.805107  1
  Dy  Dy12  1  0.186341  0.821805  0.186746  1
  Dy  Dy13  1  0.821805  0.186341  0.805107  1
  Dy  Dy14  1  0.186051  0.186051  0.813949  1
  Dy  Dy15  1  0.812527  0.812527  0.187473  1
  Cd  Cd16  1  0.579171  0.579171  0.578271  1
  Cd  Cd17  1  0.579171  0.579171  0.263385  1
  Cd  Cd18  1  0.580513  0.261515  0.578985  1
  Cd  Cd19  1  0.261515  0.580513  0.578985  1
  Co  Co20  1  0.142179  0.142179  0.140609  1
  Co  Co21  1  0.142179  0.142179  0.575033  1
  Pt  Pt22  1  0.143975  0.574131  0.140947  1
  Pt  Pt23  1  0.574131  0.143975  0.140947  1
