# generated using pymatgen
data_K4Hf6AsI18
_symmetry_space_group_name_H-M   'P 1'
_cell_length_a   11.24043248
_cell_length_b   11.38389003
_cell_length_c   11.49857811
_cell_angle_alpha   118.55801624
_cell_angle_beta   100.09617220
_cell_angle_gamma   103.76585459
_symmetry_Int_Tables_number   1
_chemical_formula_structural   K4Hf6AsI18
_chemical_formula_sum   'K4 Hf6 As1 I18'
_cell_volume   1180.97272831
_cell_formula_units_Z   1
loop_
 _symmetry_equiv_pos_site_id
 _symmetry_equiv_pos_as_xyz
  1  'x, y, z'
loop_
 _atom_site_type_symbol
 _atom_site_label
 _atom_site_symmetry_multiplicity
 _atom_site_fract_x
 _atom_site_fract_y
 _atom_site_fract_z
 _atom_site_occupancy
  K  K0  1  0.650387  0.537953  0.226388  1
  K  K1  1  0.349613  0.462047  0.773612  1
  K  K2  1  0.683892  0.223955  0.563483  1
  K  K3  1  0.316108  0.776045  0.436517  1
  Hf  Hf4  1  0.149105  0.055351  0.228796  1
  Hf  Hf5  1  0.850895  0.944649  0.771204  1
  Hf  Hf6  1  0.862865  0.126414  0.132589  1
  Hf  Hf7  1  0.137135  0.873586  0.867411  1
  Hf  Hf8  1  0.144448  0.237728  0.044962  1
  Hf  Hf9  1  0.855552  0.762272  0.955038  1
  As  As10  1  0.000000  0.000000  0.000000  1
  I  I11  1  0.007695  0.411425  0.197980  1
  I  I12  1  0.992305  0.588575  0.802020  1
  I  I13  1  0.329567  0.333972  0.312354  1
  I  I14  1  0.670433  0.666028  0.687646  1
  I  I15  1  0.320726  0.520837  0.099570  1
  I  I16  1  0.679274  0.479163  0.900430  1
  I  I17  1  0.004171  0.794899  0.209938  1
  I  I18  1  0.995829  0.205101  0.790062  1
  I  I19  1  0.703323  0.275990  0.288380  1
  I  I20  1  0.296677  0.724010  0.711620  1
  I  I21  1  0.317588  0.126970  0.902183  1
  I  I22  1  0.682412  0.873030  0.097817  1
  I  I23  1  0.014558  0.205209  0.409422  1
  I  I24  1  0.985442  0.794791  0.590578  1
  I  I25  1  0.321815  0.921949  0.109653  1
  I  I26  1  0.678185  0.078051  0.890347  1
  I  I27  1  0.331873  0.120612  0.501146  1
  I  I28  1  0.668127  0.879388  0.498854  1
