# generated using pymatgen
data_Tl3Sb4F15
_symmetry_space_group_name_H-M   'P 1'
_cell_length_a   29.19293900
_cell_length_b   8.06271693
_cell_length_c   8.14372300
_cell_angle_alpha   64.59844679
_cell_angle_beta   90.00000000
_cell_angle_gamma   90.00000000
_symmetry_Int_Tables_number   1
_chemical_formula_structural   Tl3Sb4F15
_chemical_formula_sum   'Tl12 Sb16 F60'
_cell_volume   1731.51242811
_cell_formula_units_Z   4
loop_
 _symmetry_equiv_pos_site_id
 _symmetry_equiv_pos_as_xyz
  1  'x, y, z'
loop_
 _atom_site_type_symbol
 _atom_site_label
 _atom_site_symmetry_multiplicity
 _atom_site_fract_x
 _atom_site_fract_y
 _atom_site_fract_z
 _atom_site_occupancy
  Tl  Tl0  1  0.566467  0.838244  0.666841  1
  Tl  Tl1  1  0.066467  0.161756  0.833159  1
  Tl  Tl2  1  0.433533  0.161756  0.333159  1
  Tl  Tl3  1  0.933533  0.838244  0.166841  1
  Tl  Tl4  1  0.283399  0.653085  0.853191  1
  Tl  Tl5  1  0.783399  0.346915  0.646809  1
  Tl  Tl6  1  0.716601  0.346915  0.146809  1
  Tl  Tl7  1  0.216601  0.653085  0.353191  1
  Tl  Tl8  1  0.650287  0.823650  0.157013  1
  Tl  Tl9  1  0.150287  0.176350  0.342987  1
  Tl  Tl10  1  0.349713  0.176350  0.842987  1
  Tl  Tl11  1  0.849713  0.823650  0.657013  1
  Sb  Sb12  1  0.428838  0.712210  0.814445  1
  Sb  Sb13  1  0.928838  0.287790  0.685555  1
  Sb  Sb14  1  0.571162  0.287790  0.185555  1
  Sb  Sb15  1  0.071162  0.712210  0.314445  1
  Sb  Sb16  1  0.359862  0.654718  0.336150  1
  Sb  Sb17  1  0.859862  0.345282  0.163850  1
  Sb  Sb18  1  0.640138  0.345282  0.663850  1
  Sb  Sb19  1  0.140138  0.654718  0.836150  1
  Sb  Sb20  1  0.498650  0.248850  0.746066  1
  Sb  Sb21  1  0.998650  0.751150  0.753934  1
  Sb  Sb22  1  0.501350  0.751150  0.253934  1
  Sb  Sb23  1  0.001350  0.248850  0.246066  1
  Sb  Sb24  1  0.291088  0.139527  0.371003  1
  Sb  Sb25  1  0.791088  0.860473  0.128997  1
  Sb  Sb26  1  0.708912  0.860473  0.628997  1
  Sb  Sb27  1  0.208912  0.139527  0.871003  1
  F  F28  1  0.433398  0.786439  0.541569  1
  F  F29  1  0.933398  0.213561  0.958431  1
  F  F30  1  0.566602  0.213561  0.458431  1
  F  F31  1  0.066602  0.786439  0.041569  1
  F  F32  1  0.383322  0.526773  0.823896  1
  F  F33  1  0.883322  0.473227  0.676104  1
  F  F34  1  0.616678  0.473227  0.176104  1
  F  F35  1  0.116678  0.526773  0.323896  1
  F  F36  1  0.378883  0.899151  0.736701  1
  F  F37  1  0.878883  0.100849  0.763299  1
  F  F38  1  0.621117  0.100849  0.263299  1
  F  F39  1  0.121117  0.899151  0.236701  1
  F  F40  1  0.400450  0.659458  0.099975  1
  F  F41  1  0.900450  0.340542  0.400025  1
  F  F42  1  0.599550  0.340542  0.900025  1
  F  F43  1  0.099550  0.659458  0.599975  1
  F  F44  1  0.309395  0.698808  0.161397  1
  F  F45  1  0.809395  0.301192  0.338603  1
  F  F46  1  0.690605  0.301192  0.838603  1
  F  F47  1  0.190605  0.698808  0.661397  1
  F  F48  1  0.368615  0.928474  0.224376  1
  F  F49  1  0.868615  0.071526  0.275624  1
  F  F50  1  0.631385  0.071526  0.775624  1
  F  F51  1  0.131385  0.928474  0.724376  1
  F  F52  1  0.308497  0.692657  0.488949  1
  F  F53  1  0.808497  0.307343  0.011051  1
  F  F54  1  0.691503  0.307343  0.511051  1
  F  F55  1  0.191503  0.692657  0.988949  1
  F  F56  1  0.481546  0.020650  0.687453  1
  F  F57  1  0.981546  0.979350  0.812547  1
  F  F58  1  0.518454  0.979350  0.312547  1
  F  F59  1  0.018454  0.020650  0.187453  1
  F  F60  1  0.451844  0.366621  0.557093  1
  F  F61  1  0.951844  0.633379  0.942907  1
  F  F62  1  0.548156  0.633379  0.442907  1
  F  F63  1  0.048156  0.366621  0.057093  1
  F  F64  1  0.454283  0.127459  0.944839  1
  F  F65  1  0.954283  0.872541  0.555161  1
  F  F66  1  0.545717  0.872541  0.055161  1
  F  F67  1  0.045717  0.127459  0.444839  1
  F  F68  1  0.487278  0.470755  0.806639  1
  F  F69  1  0.987278  0.529245  0.693361  1
  F  F70  1  0.512722  0.529245  0.193361  1
  F  F71  1  0.012722  0.470755  0.306639  1
  F  F72  1  0.336031  0.315312  0.434066  1
  F  F73  1  0.836031  0.684688  0.065934  1
  F  F74  1  0.663969  0.684688  0.565934  1
  F  F75  1  0.163969  0.315312  0.934066  1
  F  F76  1  0.317768  0.275103  0.127435  1
  F  F77  1  0.817768  0.724897  0.372565  1
  F  F78  1  0.682232  0.724897  0.872565  1
  F  F79  1  0.182232  0.275103  0.627435  1
  F  F80  1  0.245762  0.335291  0.323047  1
  F  F81  1  0.745762  0.664709  0.176953  1
  F  F82  1  0.754238  0.664709  0.676953  1
  F  F83  1  0.254238  0.335291  0.823047  1
  F  F84  1  0.241041  0.050643  0.241836  1
  F  F85  1  0.741041  0.949357  0.258164  1
  F  F86  1  0.758959  0.949357  0.758164  1
  F  F87  1  0.258959  0.050643  0.741836  1
