# generated using pymatgen
data_Dy3Er(Si5Pt3)2
_symmetry_space_group_name_H-M   'P 1'
_cell_length_a   8.14930318
_cell_length_b   8.14500919
_cell_length_c   8.14500944
_cell_angle_alpha   136.26652551
_cell_angle_beta   104.61901231
_cell_angle_gamma   91.42680490
_symmetry_Int_Tables_number   1
_chemical_formula_structural   Dy3Er(Si5Pt3)2
_chemical_formula_sum   'Dy3 Er1 Si10 Pt6'
_cell_volume   343.84486997
_cell_formula_units_Z   1
loop_
 _symmetry_equiv_pos_site_id
 _symmetry_equiv_pos_as_xyz
  1  'x, y, z'
loop_
 _atom_site_type_symbol
 _atom_site_label
 _atom_site_symmetry_multiplicity
 _atom_site_fract_x
 _atom_site_fract_y
 _atom_site_fract_z
 _atom_site_occupancy
  Dy  Dy0  1  0.641362  0.370431  0.270931  1
  Dy  Dy1  1  0.358694  0.629615  0.729079  1
  Dy  Dy2  1  0.099495  0.870326  0.229169  1
  Er  Er3  1  0.900427  0.129627  0.770799  1
  Si  Si4  1  0.271739  0.521549  0.249439  1
  Si  Si5  1  0.728109  0.477851  0.750021  1
  Si  Si6  1  0.728109  0.978090  0.250258  1
  Si  Si7  1  0.271739  0.022300  0.750191  1
  Si  Si8  1  0.460560  0.111937  0.348624  1
  Si  Si9  1  0.539674  0.888202  0.651472  1
  Si  Si10  1  0.763513  0.612030  0.151483  1
  Si  Si11  1  0.236339  0.387820  0.848519  1
  Si  Si12  1  0.999988  0.249707  0.249403  1
  Si  Si13  1  0.999988  0.750585  0.750281  1
  Pt  Pt14  1  0.250020  0.137488  0.112532  1
  Pt  Pt15  1  0.750322  0.862900  0.887422  1
  Pt  Pt16  1  0.024831  0.637436  0.387395  1
  Pt  Pt17  1  0.974742  0.362063  0.612679  1
  Pt  Pt18  1  0.500174  0.249850  0.749981  1
  Pt  Pt19  1  0.500174  0.750193  0.250324  1
