# generated using pymatgen
data_Dy4GaFeRu6
_symmetry_space_group_name_H-M   'P 1'
_cell_length_a   5.41593523
_cell_length_b   5.18301817
_cell_length_c   8.84704800
_cell_angle_alpha   90.00000000
_cell_angle_beta   90.00000000
_cell_angle_gamma   121.36728110
_symmetry_Int_Tables_number   1
_chemical_formula_structural   Dy4GaFeRu6
_chemical_formula_sum   'Dy4 Ga1 Fe1 Ru6'
_cell_volume   212.04851466
_cell_formula_units_Z   1
loop_
 _symmetry_equiv_pos_site_id
 _symmetry_equiv_pos_as_xyz
  1  'x, y, z'
loop_
 _atom_site_type_symbol
 _atom_site_label
 _atom_site_symmetry_multiplicity
 _atom_site_fract_x
 _atom_site_fract_y
 _atom_site_fract_z
 _atom_site_occupancy
  Dy  Dy0  1  0.670165  0.339959  0.567710  1
  Dy  Dy1  1  0.331456  0.663244  0.436789  1
  Dy  Dy2  1  0.331456  0.663244  0.063211  1
  Dy  Dy3  1  0.670165  0.339959  0.932290  1
  Ga  Ga4  1  0.833231  0.667062  0.250000  1
  Fe  Fe5  1  0.157557  0.314883  0.750000  1
  Ru  Ru6  1  0.007677  0.015403  0.502856  1
  Ru  Ru7  1  0.007677  0.015403  0.997144  1
  Ru  Ru8  1  0.176694  0.825305  0.750000  1
  Ru  Ru9  1  0.648113  0.825443  0.750000  1
  Ru  Ru10  1  0.821836  0.165628  0.250000  1
  Ru  Ru11  1  0.343975  0.164468  0.250000  1
