# generated using pymatgen
data_HfTiV5Sn6
_symmetry_space_group_name_H-M   'P 1'
_cell_length_a   9.28354300
_cell_length_b   5.46835225
_cell_length_c   5.49132438
_cell_angle_alpha   119.72822648
_cell_angle_beta   89.99972849
_cell_angle_gamma   90.00008828
_symmetry_Int_Tables_number   1
_chemical_formula_structural   HfTiV5Sn6
_chemical_formula_sum   'Hf1 Ti1 V5 Sn6'
_cell_volume   242.08105834
_cell_formula_units_Z   1
loop_
 _symmetry_equiv_pos_site_id
 _symmetry_equiv_pos_as_xyz
  1  'x, y, z'
loop_
 _atom_site_type_symbol
 _atom_site_label
 _atom_site_symmetry_multiplicity
 _atom_site_fract_x
 _atom_site_fract_y
 _atom_site_fract_z
 _atom_site_occupancy
  Hf  Hf0  1  0.999208  0.000014  0.000019  1
  Ti  Ti1  1  0.245618  0.500011  0.000008  1
  V  V2  1  0.752175  0.500008  0.000007  1
  V  V3  1  0.246716  0.500007  0.500011  1
  V  V4  1  0.752648  0.500008  0.500010  1
  V  V5  1  0.247098  0.000008  0.500006  1
  V  V6  1  0.752879  0.000013  0.500009  1
  Sn  Sn7  1  0.323406  0.000009  0.000006  1
  Sn  Sn8  1  0.678365  0.000007  0.000006  1
  Sn  Sn9  1  0.503021  0.667361  0.335161  1
  Sn  Sn10  1  0.997920  0.668500  0.336491  1
  Sn  Sn11  1  0.997919  0.331530  0.663544  1
  Sn  Sn12  1  0.503024  0.332652  0.664849  1
