# generated using pymatgen
data_CeDy2Cu3Sb4
_symmetry_space_group_name_H-M   'P 1'
_cell_length_a   8.32723259
_cell_length_b   8.32723234
_cell_length_c   8.32723341
_cell_angle_alpha   109.25816088
_cell_angle_beta   109.89819285
_cell_angle_gamma   109.25815691
_symmetry_Int_Tables_number   1
_chemical_formula_structural   CeDy2Cu3Sb4
_chemical_formula_sum   'Ce2 Dy4 Cu6 Sb8'
_cell_volume   444.49011100
_cell_formula_units_Z   2
loop_
 _symmetry_equiv_pos_site_id
 _symmetry_equiv_pos_as_xyz
  1  'x, y, z'
loop_
 _atom_site_type_symbol
 _atom_site_label
 _atom_site_symmetry_multiplicity
 _atom_site_fract_x
 _atom_site_fract_y
 _atom_site_fract_z
 _atom_site_occupancy
  Ce  Ce0  1  0.875000  0.250000  0.125000  1
  Ce  Ce1  1  0.625000  0.750000  0.375000  1
  Dy  Dy2  1  0.250000  0.123967  0.873967  1
  Dy  Dy3  1  0.750000  0.376033  0.626033  1
  Dy  Dy4  1  0.126033  0.876033  0.250000  1
  Dy  Dy5  1  0.373967  0.623967  0.750000  1
  Cu  Cu6  1  0.375000  0.250000  0.625000  1
  Cu  Cu7  1  0.125000  0.750000  0.875000  1
  Cu  Cu8  1  0.250000  0.627940  0.377940  1
  Cu  Cu9  1  0.750000  0.872060  0.122060  1
  Cu  Cu10  1  0.622060  0.372060  0.250000  1
  Cu  Cu11  1  0.877940  0.127940  0.750000  1
  Sb  Sb12  1  0.660211  0.499486  0.997357  1
  Sb  Sb13  1  0.497871  0.000514  0.660726  1
  Sb  Sb14  1  0.002129  0.662855  0.502643  1
  Sb  Sb15  1  0.839789  0.837145  0.839274  1
  Sb  Sb16  1  0.497357  0.999486  0.160211  1
  Sb  Sb17  1  0.160726  0.500514  0.997871  1
  Sb  Sb18  1  0.002643  0.162855  0.502129  1
  Sb  Sb19  1  0.339274  0.337145  0.339789  1
