# generated using pymatgen
data_Rb5CrO5
_symmetry_space_group_name_H-M   'P 1'
_cell_length_a   8.28672346
_cell_length_b   8.28672320
_cell_length_c   9.59669630
_cell_angle_alpha   76.86548807
_cell_angle_beta   76.86549261
_cell_angle_gamma   95.83097001
_symmetry_Int_Tables_number   1
_chemical_formula_structural   Rb5CrO5
_chemical_formula_sum   'Rb10 Cr2 O10'
_cell_volume   616.76225713
_cell_formula_units_Z   2
loop_
 _symmetry_equiv_pos_site_id
 _symmetry_equiv_pos_as_xyz
  1  'x, y, z'
loop_
 _atom_site_type_symbol
 _atom_site_label
 _atom_site_symmetry_multiplicity
 _atom_site_fract_x
 _atom_site_fract_y
 _atom_site_fract_z
 _atom_site_occupancy
  Rb  Rb0  1  0.405344  0.405344  0.377136  1
  Rb  Rb1  1  0.594656  0.594656  0.622864  1
  Rb  Rb2  1  0.667915  0.667915  0.013964  1
  Rb  Rb3  1  0.332085  0.332085  0.986036  1
  Rb  Rb4  1  0.919130  0.919130  0.198230  1
  Rb  Rb5  1  0.080870  0.080870  0.801770  1
  Rb  Rb6  1  0.546828  0.102757  0.753753  1
  Rb  Rb7  1  0.897243  0.453172  0.246247  1
  Rb  Rb8  1  0.453172  0.897243  0.246247  1
  Rb  Rb9  1  0.102757  0.546828  0.753753  1
  Cr  Cr10  1  0.757413  0.242587  0.000000  1
  Cr  Cr11  1  0.242587  0.757413  0.000000  1
  O  O12  1  0.663559  0.663559  0.316178  1
  O  O13  1  0.336441  0.336441  0.683822  1
  O  O14  1  0.725356  0.039673  0.979828  1
  O  O15  1  0.960327  0.274644  0.020172  1
  O  O16  1  0.274644  0.960327  0.020172  1
  O  O17  1  0.039673  0.725356  0.979828  1
  O  O18  1  0.383421  0.731749  0.845240  1
  O  O19  1  0.268251  0.616579  0.154759  1
  O  O20  1  0.616579  0.268251  0.154759  1
  O  O21  1  0.731749  0.383421  0.845240  1
