# generated using pymatgen
data_AgNF10
_symmetry_space_group_name_H-M   'P 1'
_cell_length_a   5.69130917
_cell_length_b   7.68560309
_cell_length_c   9.12479554
_cell_angle_alpha   88.59344909
_cell_angle_beta   109.51993901
_cell_angle_gamma   96.83959562
_symmetry_Int_Tables_number   1
_chemical_formula_structural   AgNF10
_chemical_formula_sum   'Ag2 N2 F20'
_cell_volume   373.46241791
_cell_formula_units_Z   2
loop_
 _symmetry_equiv_pos_site_id
 _symmetry_equiv_pos_as_xyz
  1  'x, y, z'
loop_
 _atom_site_type_symbol
 _atom_site_label
 _atom_site_symmetry_multiplicity
 _atom_site_fract_x
 _atom_site_fract_y
 _atom_site_fract_z
 _atom_site_occupancy
  Ag  Ag0  1  0.996849  0.754177  0.294159  1
  Ag  Ag1  1  0.003151  0.245823  0.705841  1
  N  N2  1  0.295267  0.274421  0.214616  1
  N  N3  1  0.704733  0.725579  0.785384  1
  F  F4  1  0.059978  0.232523  0.213353  1
  F  F5  1  0.940022  0.767477  0.786647  1
  F  F6  1  0.370056  0.140987  0.155972  1
  F  F7  1  0.629944  0.859013  0.844028  1
  F  F8  1  0.929085  0.191834  0.896842  1
  F  F9  1  0.070915  0.808166  0.103158  1
  F  F10  1  0.074893  0.300751  0.516637  1
  F  F11  1  0.925107  0.699249  0.483363  1
  F  F12  1  0.779632  0.042414  0.603635  1
  F  F13  1  0.220368  0.957586  0.396365  1
  F  F14  1  0.281075  0.106535  0.778392  1
  F  F15  1  0.718925  0.893465  0.221608  1
  F  F16  1  0.218503  0.455062  0.807648  1
  F  F17  1  0.781497  0.544938  0.192352  1
  F  F18  1  0.722163  0.383014  0.636670  1
  F  F19  1  0.277837  0.616986  0.363330  1
  F  F20  1  0.695526  0.584359  0.873041  1
  F  F21  1  0.304474  0.415641  0.126959  1
  F  F22  1  0.550615  0.692175  0.639300  1
  F  F23  1  0.449385  0.307825  0.360700  1
