# generated using pymatgen
data_KRb2Tb(AsSe2)6
_symmetry_space_group_name_H-M   'P 1'
_cell_length_a   9.90207400
_cell_length_b   9.90207295
_cell_length_c   8.25193000
_cell_angle_alpha   90.00000000
_cell_angle_beta   90.00000000
_cell_angle_gamma   119.99999682
_symmetry_Int_Tables_number   1
_chemical_formula_structural   KRb2Tb(AsSe2)6
_chemical_formula_sum   'K1 Rb2 Tb1 As6 Se12'
_cell_volume   700.71024930
_cell_formula_units_Z   1
loop_
 _symmetry_equiv_pos_site_id
 _symmetry_equiv_pos_as_xyz
  1  'x, y, z'
loop_
 _atom_site_type_symbol
 _atom_site_label
 _atom_site_symmetry_multiplicity
 _atom_site_fract_x
 _atom_site_fract_y
 _atom_site_fract_z
 _atom_site_occupancy
  K  K0  1  0.000000  0.000000  0.000000  1
  Rb  Rb1  1  0.333333  0.666667  0.837715  1
  Rb  Rb2  1  0.666667  0.333333  0.162285  1
  Tb  Tb3  1  0.000000  0.000000  0.500000  1
  As  As4  1  0.293780  0.840498  0.371872  1
  As  As5  1  0.159502  0.453282  0.371872  1
  As  As6  1  0.546718  0.706220  0.371872  1
  As  As7  1  0.706220  0.159502  0.628128  1
  As  As8  1  0.840498  0.546718  0.628128  1
  As  As9  1  0.453282  0.293780  0.628128  1
  Se  Se10  1  0.263713  0.056731  0.296343  1
  Se  Se11  1  0.943269  0.206983  0.296343  1
  Se  Se12  1  0.793017  0.736287  0.296343  1
  Se  Se13  1  0.736287  0.943269  0.703657  1
  Se  Se14  1  0.056731  0.793017  0.703657  1
  Se  Se15  1  0.206983  0.263713  0.703657  1
  Se  Se16  1  0.530391  0.905720  0.208863  1
  Se  Se17  1  0.094280  0.624669  0.208863  1
  Se  Se18  1  0.375331  0.469609  0.208863  1
  Se  Se19  1  0.469609  0.094280  0.791137  1
  Se  Se20  1  0.905720  0.375331  0.791137  1
  Se  Se21  1  0.624669  0.530391  0.791137  1
