# generated using pymatgen
data_Hf3NpN4
_symmetry_space_group_name_H-M   'P 1'
_cell_length_a   10.98555199
_cell_length_b   10.98555221
_cell_length_c   10.98555113
_cell_angle_alpha   16.93048251
_cell_angle_beta   16.93047699
_cell_angle_gamma   16.93049094
_symmetry_Int_Tables_number   1
_chemical_formula_structural   Hf3NpN4
_chemical_formula_sum   'Hf3 Np1 N4'
_cell_volume   98.07552215
_cell_formula_units_Z   1
loop_
 _symmetry_equiv_pos_site_id
 _symmetry_equiv_pos_as_xyz
  1  'x, y, z'
loop_
 _atom_site_type_symbol
 _atom_site_label
 _atom_site_symmetry_multiplicity
 _atom_site_fract_x
 _atom_site_fract_y
 _atom_site_fract_z
 _atom_site_occupancy
  Hf  Hf0  1  0.248054  0.248054  0.248054  1
  Hf  Hf1  1  0.500000  0.500000  0.500000  1
  Hf  Hf2  1  0.751946  0.751946  0.751946  1
  Np  Np3  1  0.000000  0.000000  0.000000  1
  N  N4  1  0.381881  0.381881  0.381881  1
  N  N5  1  0.127102  0.127102  0.127102  1
  N  N6  1  0.618119  0.618119  0.618119  1
  N  N7  1  0.872898  0.872898  0.872898  1
