# generated using pymatgen
data_Y18Ho2CoBi8Ru3
_symmetry_space_group_name_H-M   'P 1'
_cell_length_a   8.00399731
_cell_length_b   9.00912963
_cell_length_c   12.45623700
_cell_angle_alpha   89.99423576
_cell_angle_beta   89.75400569
_cell_angle_gamma   89.95761260
_symmetry_Int_Tables_number   1
_chemical_formula_structural   Y18Ho2CoBi8Ru3
_chemical_formula_sum   'Y18 Ho2 Co1 Bi8 Ru3'
_cell_volume   898.19887921
_cell_formula_units_Z   1
loop_
 _symmetry_equiv_pos_site_id
 _symmetry_equiv_pos_as_xyz
  1  'x, y, z'
loop_
 _atom_site_type_symbol
 _atom_site_label
 _atom_site_symmetry_multiplicity
 _atom_site_fract_x
 _atom_site_fract_y
 _atom_site_fract_z
 _atom_site_occupancy
  Y  Y0  1  0.344793  0.750109  0.702116  1
  Y  Y1  1  0.656811  0.249875  0.292909  1
  Y  Y2  1  0.843556  0.249763  0.792221  1
  Y  Y3  1  0.155138  0.750237  0.206137  1
  Y  Y4  1  0.879118  0.750307  0.806268  1
  Y  Y5  1  0.120274  0.249678  0.193250  1
  Y  Y6  1  0.378872  0.249871  0.692859  1
  Y  Y7  1  0.617130  0.750125  0.311257  1
  Y  Y8  1  0.676676  0.543258  0.564278  1
  Y  Y9  1  0.324131  0.462023  0.436439  1
  Y  Y10  1  0.176594  0.458155  0.935344  1
  Y  Y11  1  0.324142  0.037959  0.436415  1
  Y  Y12  1  0.823079  0.542689  0.064879  1
  Y  Y13  1  0.676664  0.956753  0.564301  1
  Y  Y14  1  0.053875  0.750078  0.497107  1
  Y  Y15  1  0.948155  0.249932  0.503146  1
  Y  Y16  1  0.553857  0.249351  0.003492  1
  Y  Y17  1  0.446225  0.750653  0.995880  1
  Ho  Ho18  1  0.824588  0.957569  0.064295  1
  Ho  Ho19  1  0.175042  0.041646  0.935932  1
  Co  Co20  1  0.429161  0.749966  0.490916  1
  Bi  Bi21  1  0.570854  0.508496  0.827025  1
  Bi  Bi22  1  0.428776  0.492181  0.172933  1
  Bi  Bi23  1  0.071795  0.491835  0.672125  1
  Bi  Bi24  1  0.428921  0.007859  0.173009  1
  Bi  Bi25  1  0.928670  0.508760  0.328233  1
  Bi  Bi26  1  0.570711  0.991463  0.826961  1
  Bi  Bi27  1  0.928559  0.991220  0.328219  1
  Bi  Bi28  1  0.071914  0.008179  0.672147  1
  Ru  Ru29  1  0.073284  0.752011  0.989140  1
  Ru  Ru30  1  0.925913  0.247985  0.010518  1
  Ru  Ru31  1  0.572722  0.250015  0.510248  1
