# generated using pymatgen
data_Hf2TiSi4MoRh4
_symmetry_space_group_name_H-M   'P 1'
_cell_length_a   3.86808200
_cell_length_b   6.38412221
_cell_length_c   7.35554836
_cell_angle_alpha   90.83237126
_cell_angle_beta   90.00000000
_cell_angle_gamma   90.00000000
_symmetry_Int_Tables_number   1
_chemical_formula_structural   Hf2TiSi4MoRh4
_chemical_formula_sum   'Hf2 Ti1 Si4 Mo1 Rh4'
_cell_volume   181.62101064
_cell_formula_units_Z   1
loop_
 _symmetry_equiv_pos_site_id
 _symmetry_equiv_pos_as_xyz
  1  'x, y, z'
loop_
 _atom_site_type_symbol
 _atom_site_label
 _atom_site_symmetry_multiplicity
 _atom_site_fract_x
 _atom_site_fract_y
 _atom_site_fract_z
 _atom_site_occupancy
  Hf  Hf0  1  0.250000  0.028292  0.314497  1
  Hf  Hf1  1  0.750000  0.975506  0.689398  1
  Ti  Ti2  1  0.250000  0.523405  0.176815  1
  Si  Si3  1  0.250000  0.751275  0.881849  1
  Si  Si4  1  0.750000  0.244672  0.109210  1
  Si  Si5  1  0.250000  0.287656  0.632849  1
  Si  Si6  1  0.750000  0.719999  0.374204  1
  Mo  Mo7  1  0.750000  0.475549  0.823956  1
  Rh  Rh8  1  0.750000  0.849570  0.067460  1
  Rh  Rh9  1  0.250000  0.141151  0.936276  1
  Rh  Rh10  1  0.750000  0.347623  0.436164  1
  Rh  Rh11  1  0.250000  0.655301  0.557321  1
