# generated using pymatgen
data_KRbSm6(CBr6)2
_symmetry_space_group_name_H-M   'P 1'
_cell_length_a   8.83567420
_cell_length_b   8.86649703
_cell_length_c   9.52807700
_cell_angle_alpha   69.69714010
_cell_angle_beta   86.01257483
_cell_angle_gamma   89.34412352
_symmetry_Int_Tables_number   1
_chemical_formula_structural   KRbSm6(CBr6)2
_chemical_formula_sum   'K1 Rb1 Sm6 C2 Br12'
_cell_volume   698.30952246
_cell_formula_units_Z   1
loop_
 _symmetry_equiv_pos_site_id
 _symmetry_equiv_pos_as_xyz
  1  'x, y, z'
loop_
 _atom_site_type_symbol
 _atom_site_label
 _atom_site_symmetry_multiplicity
 _atom_site_fract_x
 _atom_site_fract_y
 _atom_site_fract_z
 _atom_site_occupancy
  K  K0  1  0.520157  0.667288  0.659948  1
  Rb  Rb1  1  0.478681  0.344902  0.337807  1
  Sm  Sm2  1  0.916657  0.735479  0.005037  1
  Sm  Sm3  1  0.083610  0.264044  0.994824  1
  Sm  Sm4  1  0.735198  0.084374  0.002079  1
  Sm  Sm5  1  0.265190  0.914691  0.998686  1
  Sm  Sm6  1  0.980897  0.873797  0.331210  1
  Sm  Sm7  1  0.019634  0.124987  0.669294  1
  C  C8  1  0.004660  0.028647  0.921152  1
  C  C9  1  0.995917  0.970659  0.079328  1
  Br  Br10  1  0.088694  0.193856  0.326505  1
  Br  Br11  1  0.907566  0.805887  0.673779  1
  Br  Br12  1  0.213729  0.590571  0.998957  1
  Br  Br13  1  0.786344  0.409020  0.000353  1
  Br  Br14  1  0.406278  0.207844  0.005769  1
  Br  Br15  1  0.593825  0.791775  0.992994  1
  Br  Br16  1  0.668068  0.991851  0.332488  1
  Br  Br17  1  0.331295  0.000393  0.668927  1
  Br  Br18  1  0.293550  0.760741  0.327020  1
  Br  Br19  1  0.708275  0.240189  0.674351  1
  Br  Br20  1  0.848630  0.576734  0.329344  1
  Br  Br21  1  0.153145  0.422271  0.670147  1
