# generated using pymatgen
data_Nd9Ga(Co2Cu)2
_symmetry_space_group_name_H-M   'P 1'
_cell_length_a   8.69594909
_cell_length_b   8.69595063
_cell_length_c   8.69595000
_cell_angle_alpha   128.71234174
_cell_angle_beta   128.71234983
_cell_angle_gamma   75.47385944
_symmetry_Int_Tables_number   1
_chemical_formula_structural   Nd9Ga(Co2Cu)2
_chemical_formula_sum   'Nd9 Ga1 Co4 Cu2'
_cell_volume   389.60007605
_cell_formula_units_Z   1
loop_
 _symmetry_equiv_pos_site_id
 _symmetry_equiv_pos_as_xyz
  1  'x, y, z'
loop_
 _atom_site_type_symbol
 _atom_site_label
 _atom_site_symmetry_multiplicity
 _atom_site_fract_x
 _atom_site_fract_y
 _atom_site_fract_z
 _atom_site_occupancy
  Nd  Nd0  1  0.716717  0.558447  0.537624  1
  Nd  Nd1  1  0.441553  0.979176  0.158270  1
  Nd  Nd2  1  0.820906  0.283283  0.841730  1
  Nd  Nd3  1  0.558447  0.020824  0.841730  1
  Nd  Nd4  1  0.020824  0.179094  0.462376  1
  Nd  Nd5  1  0.283283  0.441553  0.462376  1
  Nd  Nd6  1  0.179094  0.716717  0.158270  1
  Nd  Nd7  1  0.979176  0.820906  0.537624  1
  Nd  Nd8  1  0.500000  0.500000  0.000000  1
  Ga  Ga9  1  0.000000  0.000000  0.000000  1
  Co  Co10  1  0.127170  0.630029  0.757198  1
  Co  Co11  1  0.872830  0.369971  0.242802  1
  Co  Co12  1  0.630029  0.872830  0.502859  1
  Co  Co13  1  0.369971  0.127170  0.497141  1
  Cu  Cu14  1  0.260437  0.260437  0.000000  1
  Cu  Cu15  1  0.739563  0.739563  0.000000  1
