# generated using pymatgen
data_NdTh2Sn3RuRh2
_symmetry_space_group_name_H-M   'P 1'
_cell_length_a   7.51839500
_cell_length_b   7.58162127
_cell_length_c   4.12949000
_cell_angle_alpha   90.00000000
_cell_angle_beta   90.00000000
_cell_angle_gamma   119.72452008
_symmetry_Int_Tables_number   1
_chemical_formula_structural   NdTh2Sn3RuRh2
_chemical_formula_sum   'Nd1 Th2 Sn3 Ru1 Rh2'
_cell_volume   204.41518807
_cell_formula_units_Z   1
loop_
 _symmetry_equiv_pos_site_id
 _symmetry_equiv_pos_as_xyz
  1  'x, y, z'
loop_
 _atom_site_type_symbol
 _atom_site_label
 _atom_site_symmetry_multiplicity
 _atom_site_fract_x
 _atom_site_fract_y
 _atom_site_fract_z
 _atom_site_occupancy
  Nd  Nd0  1  0.590306  0.000000  0.000000  1
  Th  Th1  1  0.998786  0.588801  0.000000  1
  Th  Th2  1  0.409985  0.411199  0.000000  1
  Sn  Sn3  1  0.750159  0.757960  0.500000  1
  Sn  Sn4  1  0.992199  0.242040  0.500000  1
  Sn  Sn5  1  0.256782  0.000000  0.500000  1
  Ru  Ru6  1  0.013236  0.000000  0.000000  1
  Rh  Rh7  1  0.669396  0.350246  0.500000  1
  Rh  Rh8  1  0.319150  0.649754  0.500000  1
