# generated using pymatgen
data_Hf2ZrBe2Ir5
_symmetry_space_group_name_H-M   'P 1'
_cell_length_a   9.45142700
_cell_length_b   9.45197500
_cell_length_c   3.37240400
_cell_angle_alpha   90.00000000
_cell_angle_beta   90.00000000
_cell_angle_gamma   90.00000000
_symmetry_Int_Tables_number   1
_chemical_formula_structural   Hf2ZrBe2Ir5
_chemical_formula_sum   'Hf4 Zr2 Be4 Ir10'
_cell_volume   301.27253679
_cell_formula_units_Z   2
loop_
 _symmetry_equiv_pos_site_id
 _symmetry_equiv_pos_as_xyz
  1  'x, y, z'
loop_
 _atom_site_type_symbol
 _atom_site_label
 _atom_site_symmetry_multiplicity
 _atom_site_fract_x
 _atom_site_fract_y
 _atom_site_fract_z
 _atom_site_occupancy
  Hf  Hf0  1  0.824288  0.324515  0.000000  1
  Hf  Hf1  1  0.500384  0.500021  0.000000  1
  Hf  Hf2  1  0.675712  0.824515  0.000000  1
  Hf  Hf3  1  0.999616  0.000021  0.000000  1
  Zr  Zr4  1  0.175279  0.675566  0.000000  1
  Zr  Zr5  1  0.324721  0.175566  0.000000  1
  Be  Be6  1  0.381131  0.880780  0.000000  1
  Be  Be7  1  0.118869  0.380780  0.000000  1
  Be  Be8  1  0.880503  0.619186  0.000000  1
  Be  Be9  1  0.619497  0.119186  0.000000  1
  Ir  Ir10  1  0.216591  0.927859  0.500000  1
  Ir  Ir11  1  0.926093  0.783989  0.500000  1
  Ir  Ir12  1  0.429183  0.716534  0.500000  1
  Ir  Ir13  1  0.573907  0.283989  0.500000  1
  Ir  Ir14  1  0.715972  0.572551  0.500000  1
  Ir  Ir15  1  0.283409  0.427859  0.500000  1
  Ir  Ir16  1  0.070817  0.216534  0.500000  1
  Ir  Ir17  1  0.998413  0.498999  0.500000  1
  Ir  Ir18  1  0.501587  0.998999  0.500000  1
  Ir  Ir19  1  0.784028  0.072551  0.500000  1
