# generated using pymatgen
data_KTi2F8
_symmetry_space_group_name_H-M   'P 1'
_cell_length_a   3.94298146
_cell_length_b   5.58566490
_cell_length_c   10.00944345
_cell_angle_alpha   108.11009917
_cell_angle_beta   63.35316835
_cell_angle_gamma   91.53543152
_symmetry_Int_Tables_number   1
_chemical_formula_structural   KTi2F8
_chemical_formula_sum   'K1 Ti2 F8'
_cell_volume   185.62154013
_cell_formula_units_Z   1
loop_
 _symmetry_equiv_pos_site_id
 _symmetry_equiv_pos_as_xyz
  1  'x, y, z'
loop_
 _atom_site_type_symbol
 _atom_site_label
 _atom_site_symmetry_multiplicity
 _atom_site_fract_x
 _atom_site_fract_y
 _atom_site_fract_z
 _atom_site_occupancy
  K  K0  1  0.034172  0.005051  0.194205  1
  Ti  Ti1  1  0.251134  0.664776  0.542043  1
  Ti  Ti2  1  0.865690  0.345623  0.881913  1
  F  F3  1  0.056506  0.510407  0.715026  1
  F  F4  1  0.396736  0.340759  0.394449  1
  F  F5  1  0.059536  0.007308  0.711261  1
  F  F6  1  0.689768  0.180111  0.029563  1
  F  F7  1  0.372654  0.344071  0.875738  1
  F  F8  1  0.740661  0.667321  0.551802  1
  F  F9  1  0.701717  0.667450  0.034781  1
  F  F10  1  0.440186  0.823440  0.393240  1
