# generated using pymatgen
data_NdSmDy6(Si3Rh)4
_symmetry_space_group_name_H-M   'P 1'
_cell_length_a   8.18692000
_cell_length_b   8.18691976
_cell_length_c   8.00154900
_cell_angle_alpha   90.00000000
_cell_angle_beta   90.00000000
_cell_angle_gamma   119.99999289
_symmetry_Int_Tables_number   1
_chemical_formula_structural   NdSmDy6(Si3Rh)4
_chemical_formula_sum   'Nd1 Sm1 Dy6 Si12 Rh4'
_cell_volume   464.45732066
_cell_formula_units_Z   1
loop_
 _symmetry_equiv_pos_site_id
 _symmetry_equiv_pos_as_xyz
  1  'x, y, z'
loop_
 _atom_site_type_symbol
 _atom_site_label
 _atom_site_symmetry_multiplicity
 _atom_site_fract_x
 _atom_site_fract_y
 _atom_site_fract_z
 _atom_site_occupancy
  Nd  Nd0  1  0.000000  0.000000  0.250000  1
  Sm  Sm1  1  0.000000  0.000000  0.750000  1
  Dy  Dy2  1  0.508466  0.491534  0.250000  1
  Dy  Dy3  1  0.508466  0.016932  0.250000  1
  Dy  Dy4  1  0.983068  0.491534  0.250000  1
  Dy  Dy5  1  0.491521  0.508479  0.750000  1
  Dy  Dy6  1  0.491521  0.983042  0.750000  1
  Dy  Dy7  1  0.016958  0.508479  0.750000  1
  Si  Si8  1  0.167923  0.832077  0.501364  1
  Si  Si9  1  0.167923  0.335847  0.501364  1
  Si  Si10  1  0.664153  0.832077  0.501364  1
  Si  Si11  1  0.832053  0.167947  0.500069  1
  Si  Si12  1  0.832053  0.664106  0.500069  1
  Si  Si13  1  0.335894  0.167947  0.500069  1
  Si  Si14  1  0.832053  0.167947  0.999931  1
  Si  Si15  1  0.832053  0.664106  0.999931  1
  Si  Si16  1  0.335894  0.167947  0.999931  1
  Si  Si17  1  0.167923  0.832077  0.998636  1
  Si  Si18  1  0.167923  0.335847  0.998636  1
  Si  Si19  1  0.664153  0.832077  0.998636  1
  Rh  Rh20  1  0.333333  0.666667  0.466777  1
  Rh  Rh21  1  0.666667  0.333333  0.533824  1
  Rh  Rh22  1  0.666667  0.333333  0.966176  1
  Rh  Rh23  1  0.333333  0.666667  0.033223  1
