# generated using pymatgen
data_ThCo3(Ni3B2)3
_symmetry_space_group_name_H-M   'P 1'
_cell_length_a   6.00938348
_cell_length_b   6.00938353
_cell_length_c   6.00938384
_cell_angle_alpha   104.49477531
_cell_angle_beta   104.49474184
_cell_angle_gamma   104.49477745
_symmetry_Int_Tables_number   1
_chemical_formula_structural   ThCo3(Ni3B2)3
_chemical_formula_sum   'Th1 Co3 Ni9 B6'
_cell_volume   191.74882147
_cell_formula_units_Z   1
loop_
 _symmetry_equiv_pos_site_id
 _symmetry_equiv_pos_as_xyz
  1  'x, y, z'
loop_
 _atom_site_type_symbol
 _atom_site_label
 _atom_site_symmetry_multiplicity
 _atom_site_fract_x
 _atom_site_fract_y
 _atom_site_fract_z
 _atom_site_occupancy
  Th  Th0  1  0.000000  0.000000  0.000000  1
  Co  Co1  1  0.866363  0.133637  0.500000  1
  Co  Co2  1  0.133637  0.500000  0.866363  1
  Co  Co3  1  0.500000  0.866363  0.133637  1
  Ni  Ni4  1  0.867964  0.500000  0.132036  1
  Ni  Ni5  1  0.500000  0.132036  0.867964  1
  Ni  Ni6  1  0.132036  0.867964  0.500000  1
  Ni  Ni7  1  0.813302  0.547079  0.545550  1
  Ni  Ni8  1  0.547079  0.545550  0.813302  1
  Ni  Ni9  1  0.545550  0.813302  0.547079  1
  Ni  Ni10  1  0.186698  0.454450  0.452921  1
  Ni  Ni11  1  0.454450  0.452921  0.186698  1
  Ni  Ni12  1  0.452921  0.186698  0.454450  1
  B  B13  1  0.333035  0.765870  0.772048  1
  B  B14  1  0.765870  0.772048  0.333035  1
  B  B15  1  0.772048  0.333035  0.765870  1
  B  B16  1  0.666965  0.227952  0.234130  1
  B  B17  1  0.227952  0.234130  0.666965  1
  B  B18  1  0.234130  0.666965  0.227952  1
