# generated using pymatgen
data_Ta6Ti4Si6B
_symmetry_space_group_name_H-M   'P 1'
_cell_length_a   7.55975600
_cell_length_b   7.55975622
_cell_length_c   5.13305600
_cell_angle_alpha   90.00000000
_cell_angle_beta   90.00000000
_cell_angle_gamma   119.99999902
_symmetry_Int_Tables_number   1
_chemical_formula_structural   Ta6Ti4Si6B
_chemical_formula_sum   'Ta6 Ti4 Si6 B1'
_cell_volume   254.05175993
_cell_formula_units_Z   1
loop_
 _symmetry_equiv_pos_site_id
 _symmetry_equiv_pos_as_xyz
  1  'x, y, z'
loop_
 _atom_site_type_symbol
 _atom_site_label
 _atom_site_symmetry_multiplicity
 _atom_site_fract_x
 _atom_site_fract_y
 _atom_site_fract_z
 _atom_site_occupancy
  Ta  Ta0  1  0.000000  0.755847  0.244128  1
  Ta  Ta1  1  0.244153  0.244153  0.244128  1
  Ta  Ta2  1  0.755847  0.000000  0.244128  1
  Ta  Ta3  1  0.000000  0.244153  0.755872  1
  Ta  Ta4  1  0.755847  0.755847  0.755872  1
  Ta  Ta5  1  0.244153  0.000000  0.755872  1
  Ti  Ti6  1  0.333333  0.666667  0.500000  1
  Ti  Ti7  1  0.666667  0.333333  0.500000  1
  Ti  Ti8  1  0.666667  0.333333  0.000000  1
  Ti  Ti9  1  0.333333  0.666667  0.000000  1
  Si  Si10  1  0.000000  0.401774  0.248012  1
  Si  Si11  1  0.598226  0.598226  0.248012  1
  Si  Si12  1  0.401774  0.000000  0.248012  1
  Si  Si13  1  0.000000  0.598226  0.751988  1
  Si  Si14  1  0.401774  0.401774  0.751988  1
  Si  Si15  1  0.598226  0.000000  0.751988  1
  B  B16  1  0.000000  0.000000  0.500000  1
