# generated using pymatgen
data_Hf5U(NbTc2)6
_symmetry_space_group_name_H-M   'P 1'
_cell_length_a   4.55930600
_cell_length_b   6.48909900
_cell_length_c   13.75768200
_cell_angle_alpha   90.00000000
_cell_angle_beta   90.00007942
_cell_angle_gamma   90.00000000
_symmetry_Int_Tables_number   1
_chemical_formula_structural   Hf5U(NbTc2)6
_chemical_formula_sum   'Hf5 U1 Nb6 Tc12'
_cell_volume   407.03186310
_cell_formula_units_Z   1
loop_
 _symmetry_equiv_pos_site_id
 _symmetry_equiv_pos_as_xyz
  1  'x, y, z'
loop_
 _atom_site_type_symbol
 _atom_site_label
 _atom_site_symmetry_multiplicity
 _atom_site_fract_x
 _atom_site_fract_y
 _atom_site_fract_z
 _atom_site_occupancy
  Hf  Hf0  1  0.499982  0.500000  0.168320  1
  Hf  Hf1  1  0.999977  0.000000  0.336054  1
  Hf  Hf2  1  0.500000  0.500000  0.500000  1
  Hf  Hf3  1  0.000023  0.000000  0.663946  1
  Hf  Hf4  1  0.500018  0.500000  0.831680  1
  U  U5  1  0.000000  0.000000  0.000000  1
  Nb  Nb6  1  0.000000  0.500000  0.000000  1
  Nb  Nb7  1  0.499981  0.000000  0.175391  1
  Nb  Nb8  1  0.999983  0.500000  0.334696  1
  Nb  Nb9  1  0.500000  0.000000  0.500000  1
  Nb  Nb10  1  0.000017  0.500000  0.665304  1
  Nb  Nb11  1  0.500019  0.000000  0.824609  1
  Tc  Tc12  1  0.500000  0.239271  0.000000  1
  Tc  Tc13  1  0.500000  0.760730  0.000000  1
  Tc  Tc14  1  0.999980  0.245529  0.162898  1
  Tc  Tc15  1  0.999980  0.754471  0.162898  1
  Tc  Tc16  1  0.499979  0.249796  0.332451  1
  Tc  Tc17  1  0.499979  0.750203  0.332451  1
  Tc  Tc18  1  0.000000  0.252465  0.500000  1
  Tc  Tc19  1  0.000000  0.747536  0.500000  1
  Tc  Tc20  1  0.500021  0.249796  0.667549  1
  Tc  Tc21  1  0.500021  0.750203  0.667549  1
  Tc  Tc22  1  0.000020  0.245529  0.837102  1
  Tc  Tc23  1  0.000020  0.754471  0.837102  1
