# generated using pymatgen
data_Nd3YTl5
_symmetry_space_group_name_H-M   'P 1'
_cell_length_a   8.68396957
_cell_length_b   8.68396840
_cell_length_c   8.68396966
_cell_angle_alpha   66.51026499
_cell_angle_beta   66.51026717
_cell_angle_gamma   66.51023248
_symmetry_Int_Tables_number   1
_chemical_formula_structural   Nd3YTl5
_chemical_formula_sum   'Nd6 Y2 Tl10'
_cell_volume   527.98756735
_cell_formula_units_Z   2
loop_
 _symmetry_equiv_pos_site_id
 _symmetry_equiv_pos_as_xyz
  1  'x, y, z'
loop_
 _atom_site_type_symbol
 _atom_site_label
 _atom_site_symmetry_multiplicity
 _atom_site_fract_x
 _atom_site_fract_y
 _atom_site_fract_z
 _atom_site_occupancy
  Nd  Nd0  1  0.889545  0.188533  0.618904  1
  Nd  Nd1  1  0.618904  0.889545  0.188533  1
  Nd  Nd2  1  0.188533  0.618904  0.889545  1
  Nd  Nd3  1  0.110455  0.811467  0.381096  1
  Nd  Nd4  1  0.381096  0.110455  0.811467  1
  Nd  Nd5  1  0.811467  0.381096  0.110455  1
  Y  Y6  1  0.657553  0.657553  0.657553  1
  Y  Y7  1  0.342447  0.342447  0.342447  1
  Tl  Tl8  1  0.000000  0.000000  0.000000  1
  Tl  Tl9  1  0.500000  0.500000  0.500000  1
  Tl  Tl10  1  0.813957  0.813957  0.813957  1
  Tl  Tl11  1  0.186043  0.186043  0.186043  1
  Tl  Tl12  1  0.948797  0.569065  0.298612  1
  Tl  Tl13  1  0.298612  0.948797  0.569065  1
  Tl  Tl14  1  0.569065  0.298612  0.948797  1
  Tl  Tl15  1  0.051203  0.430935  0.701388  1
  Tl  Tl16  1  0.701388  0.051203  0.430935  1
  Tl  Tl17  1  0.430935  0.701388  0.051203  1
