# generated using pymatgen
data_Tb10IrPtRh4
_symmetry_space_group_name_H-M   'P 1'
_cell_length_a   11.01806270
_cell_length_b   11.01071769
_cell_length_c   6.37118438
_cell_angle_alpha   90.00523513
_cell_angle_beta   89.95877926
_cell_angle_gamma   90.10156401
_symmetry_Int_Tables_number   1
_chemical_formula_structural   Tb10IrPtRh4
_chemical_formula_sum   'Tb20 Ir2 Pt2 Rh8'
_cell_volume   772.93014326
_cell_formula_units_Z   2
loop_
 _symmetry_equiv_pos_site_id
 _symmetry_equiv_pos_as_xyz
  1  'x, y, z'
loop_
 _atom_site_type_symbol
 _atom_site_label
 _atom_site_symmetry_multiplicity
 _atom_site_fract_x
 _atom_site_fract_y
 _atom_site_fract_z
 _atom_site_occupancy
  Tb  Tb0  1  0.291096  0.089332  0.378124  1
  Tb  Tb1  1  0.291608  0.908177  0.878020  1
  Tb  Tb2  1  0.706237  0.089926  0.875727  1
  Tb  Tb3  1  0.705791  0.910253  0.375853  1
  Tb  Tb4  1  0.585529  0.790602  0.879581  1
  Tb  Tb5  1  0.587009  0.208811  0.380270  1
  Tb  Tb6  1  0.409521  0.790227  0.380722  1
  Tb  Tb7  1  0.409326  0.208926  0.878763  1
  Tb  Tb8  1  0.208418  0.412547  0.619498  1
  Tb  Tb9  1  0.209094  0.590569  0.121382  1
  Tb  Tb10  1  0.791518  0.411736  0.122032  1
  Tb  Tb11  1  0.792208  0.587806  0.619568  1
  Tb  Tb12  1  0.911833  0.707204  0.126634  1
  Tb  Tb13  1  0.911978  0.293206  0.623489  1
  Tb  Tb14  1  0.092993  0.706010  0.619125  1
  Tb  Tb15  1  0.091514  0.293548  0.123079  1
  Tb  Tb16  1  0.002785  0.999185  0.500732  1
  Tb  Tb17  1  0.003175  0.000818  0.999570  1
  Tb  Tb18  1  0.499437  0.499608  0.000477  1
  Tb  Tb19  1  0.499843  0.500554  0.499754  1
  Ir  Ir20  1  0.346955  0.654189  0.750290  1
  Ir  Ir21  1  0.999526  0.499687  0.375617  1
  Pt  Pt22  1  0.844816  0.153217  0.249675  1
  Pt  Pt23  1  0.844997  0.845898  0.749859  1
  Rh  Rh24  1  0.153810  0.154254  0.749161  1
  Rh  Rh25  1  0.153693  0.847874  0.249616  1
  Rh  Rh26  1  0.654163  0.345435  0.749385  1
  Rh  Rh27  1  0.654569  0.655455  0.249410  1
  Rh  Rh28  1  0.346951  0.343897  0.249965  1
  Rh  Rh29  1  0.500262  0.000083  0.124075  1
  Rh  Rh30  1  0.500197  0.001238  0.623700  1
  Rh  Rh31  1  0.999151  0.499730  0.876845  1
