# generated using pymatgen
data_Yb7Tm(Sc3Pb4)4
_symmetry_space_group_name_H-M   'P 1'
_cell_length_a   7.75391444
_cell_length_b   15.29362159
_cell_length_c   8.23193700
_cell_angle_alpha   89.98802656
_cell_angle_beta   90.37989262
_cell_angle_gamma   90.04280971
_symmetry_Int_Tables_number   1
_chemical_formula_structural   Yb7Tm(Sc3Pb4)4
_chemical_formula_sum   'Yb7 Tm1 Sc12 Pb16'
_cell_volume   976.16606522
_cell_formula_units_Z   1
loop_
 _symmetry_equiv_pos_site_id
 _symmetry_equiv_pos_as_xyz
  1  'x, y, z'
loop_
 _atom_site_type_symbol
 _atom_site_label
 _atom_site_symmetry_multiplicity
 _atom_site_fract_x
 _atom_site_fract_y
 _atom_site_fract_z
 _atom_site_occupancy
  Yb  Yb0  1  0.486874  0.590944  0.682733  1
  Yb  Yb1  1  0.986428  0.908978  0.818666  1
  Yb  Yb2  1  0.511069  0.089816  0.317338  1
  Yb  Yb3  1  0.012499  0.409805  0.183215  1
  Yb  Yb4  1  0.510869  0.411391  0.315564  1
  Yb  Yb5  1  0.011633  0.089928  0.182323  1
  Yb  Yb6  1  0.487874  0.907898  0.681075  1
  Tm  Tm7  1  0.988349  0.593019  0.814287  1
  Sc  Sc8  1  0.663289  0.624911  0.150322  1
  Sc  Sc9  1  0.166922  0.873182  0.348150  1
  Sc  Sc10  1  0.335715  0.124851  0.848182  1
  Sc  Sc11  1  0.836848  0.374375  0.651420  1
  Sc  Sc12  1  0.337091  0.375551  0.850012  1
  Sc  Sc13  1  0.835602  0.125315  0.651363  1
  Sc  Sc14  1  0.664457  0.874210  0.153286  1
  Sc  Sc15  1  0.164981  0.625886  0.348991  1
  Sc  Sc16  1  0.828178  0.749285  0.499611  1
  Sc  Sc17  1  0.327479  0.749867  0.000090  1
  Sc  Sc18  1  0.170775  0.249987  0.501040  1
  Sc  Sc19  1  0.673400  0.250254  0.999940  1
  Pb  Pb20  1  0.690010  0.456501  0.953064  1
  Pb  Pb21  1  0.183197  0.044321  0.543309  1
  Pb  Pb22  1  0.317060  0.954481  0.043344  1
  Pb  Pb23  1  0.816133  0.545783  0.459195  1
  Pb  Pb24  1  0.311428  0.546155  0.042981  1
  Pb  Pb25  1  0.817801  0.954213  0.456839  1
  Pb  Pb26  1  0.683083  0.044540  0.955573  1
  Pb  Pb27  1  0.182950  0.456522  0.546381  1
  Pb  Pb28  1  0.472379  0.748512  0.366596  1
  Pb  Pb29  1  0.970965  0.749772  0.130047  1
  Pb  Pb30  1  0.528487  0.250535  0.633468  1
  Pb  Pb31  1  0.030286  0.249569  0.868649  1
  Pb  Pb32  1  0.687124  0.748565  0.848213  1
  Pb  Pb33  1  0.184065  0.750548  0.654931  1
  Pb  Pb34  1  0.313550  0.250474  0.152122  1
  Pb  Pb35  1  0.811149  0.250056  0.347682  1
