# generated using pymatgen
data_Dy6Er2AlPd24
_symmetry_space_group_name_H-M   'P 1'
_cell_length_a   8.35403448
_cell_length_b   8.35403496
_cell_length_c   8.35403600
_cell_angle_alpha   89.98059057
_cell_angle_beta   90.01940943
_cell_angle_gamma   90.01940915
_symmetry_Int_Tables_number   1
_chemical_formula_structural   Dy6Er2AlPd24
_chemical_formula_sum   'Dy6 Er2 Al1 Pd24'
_cell_volume   583.02720398
_cell_formula_units_Z   1
loop_
 _symmetry_equiv_pos_site_id
 _symmetry_equiv_pos_as_xyz
  1  'x, y, z'
loop_
 _atom_site_type_symbol
 _atom_site_label
 _atom_site_symmetry_multiplicity
 _atom_site_fract_x
 _atom_site_fract_y
 _atom_site_fract_z
 _atom_site_occupancy
  Dy  Dy0  1  0.251333  0.251614  0.251614  1
  Dy  Dy1  1  0.748667  0.748386  0.748386  1
  Dy  Dy2  1  0.748386  0.748667  0.251614  1
  Dy  Dy3  1  0.748386  0.251614  0.748667  1
  Dy  Dy4  1  0.251614  0.251333  0.748386  1
  Dy  Dy5  1  0.251614  0.748386  0.251333  1
  Er  Er6  1  0.251453  0.748547  0.748547  1
  Er  Er7  1  0.748547  0.251453  0.251453  1
  Al  Al8  1  0.000000  0.000000  0.000000  1
  Pd  Pd9  1  0.259456  0.500106  0.999038  1
  Pd  Pd10  1  0.740544  0.499894  0.000962  1
  Pd  Pd11  1  0.999038  0.259456  0.499894  1
  Pd  Pd12  1  0.500106  0.259456  0.000962  1
  Pd  Pd13  1  0.000962  0.740544  0.500106  1
  Pd  Pd14  1  0.499894  0.740544  0.999038  1
  Pd  Pd15  1  0.500106  0.000962  0.259456  1
  Pd  Pd16  1  0.259456  0.999038  0.500106  1
  Pd  Pd17  1  0.499894  0.999038  0.740544  1
  Pd  Pd18  1  0.740544  0.000962  0.499894  1
  Pd  Pd19  1  0.999038  0.499894  0.259456  1
  Pd  Pd20  1  0.000962  0.500106  0.740544  1
  Pd  Pd21  1  0.252468  0.500550  0.500550  1
  Pd  Pd22  1  0.747532  0.499450  0.499450  1
  Pd  Pd23  1  0.500550  0.252468  0.499450  1
  Pd  Pd24  1  0.499450  0.747532  0.500550  1
  Pd  Pd25  1  0.500550  0.499450  0.252468  1
  Pd  Pd26  1  0.499450  0.500550  0.747532  1
  Pd  Pd27  1  0.288938  0.999236  0.999236  1
  Pd  Pd28  1  0.711062  0.000764  0.000764  1
  Pd  Pd29  1  0.999236  0.288938  0.000764  1
  Pd  Pd30  1  0.000764  0.711062  0.999236  1
  Pd  Pd31  1  0.999236  0.000764  0.288938  1
  Pd  Pd32  1  0.000764  0.999236  0.711062  1
