# generated using pymatgen
data_Al4CoCu2Rh
_symmetry_space_group_name_H-M   'P 1'
_cell_length_a   4.75096752
_cell_length_b   4.75096762
_cell_length_c   5.12386900
_cell_angle_alpha   90.00000000
_cell_angle_beta   90.00000000
_cell_angle_gamma   115.48922873
_symmetry_Int_Tables_number   1
_chemical_formula_structural   Al4CoCu2Rh
_chemical_formula_sum   'Al4 Co1 Cu2 Rh1'
_cell_volume   104.39731554
_cell_formula_units_Z   1
loop_
 _symmetry_equiv_pos_site_id
 _symmetry_equiv_pos_as_xyz
  1  'x, y, z'
loop_
 _atom_site_type_symbol
 _atom_site_label
 _atom_site_symmetry_multiplicity
 _atom_site_fract_x
 _atom_site_fract_y
 _atom_site_fract_z
 _atom_site_occupancy
  Al  Al0  1  0.250000  0.250000  0.505689  1
  Al  Al1  1  0.750000  0.750000  0.505689  1
  Al  Al2  1  0.750000  0.250000  0.174255  1
  Al  Al3  1  0.250000  0.750000  0.822641  1
  Co  Co4  1  0.750000  0.250000  0.675368  1
  Cu  Cu5  1  0.250000  0.250000  0.997277  1
  Cu  Cu6  1  0.750000  0.750000  0.997277  1
  Rh  Rh7  1  0.250000  0.750000  0.321803  1
