# generated using pymatgen
data_U3O7F
_symmetry_space_group_name_H-M   'P 1'
_cell_length_a   6.91777502
_cell_length_b   6.91777578
_cell_length_c   4.16198600
_cell_angle_alpha   90.00000000
_cell_angle_beta   90.00000000
_cell_angle_gamma   119.47222937
_symmetry_Int_Tables_number   1
_chemical_formula_structural   U3O7F
_chemical_formula_sum   'U3 O7 F1'
_cell_volume   173.40009562
_cell_formula_units_Z   1
loop_
 _symmetry_equiv_pos_site_id
 _symmetry_equiv_pos_as_xyz
  1  'x, y, z'
loop_
 _atom_site_type_symbol
 _atom_site_label
 _atom_site_symmetry_multiplicity
 _atom_site_fract_x
 _atom_site_fract_y
 _atom_site_fract_z
 _atom_site_occupancy
  U  U0  1  0.306652  0.693348  0.000000  1
  U  U1  1  0.693348  0.306652  0.000000  1
  U  U2  1  0.000000  0.000000  0.000000  1
  O  O3  1  0.043700  0.335637  0.000000  1
  O  O4  1  0.956300  0.664363  0.000000  1
  O  O5  1  0.335637  0.043700  0.000000  1
  O  O6  1  0.000000  0.000000  0.500000  1
  O  O7  1  0.689296  0.310704  0.500000  1
  O  O8  1  0.310704  0.689296  0.500000  1
  O  O9  1  0.664363  0.956300  0.000000  1
  F  F10  1  0.500000  0.500000  0.000000  1
