# generated using pymatgen
data_DyYPa2(Al8Pt3)3
_symmetry_space_group_name_H-M   'P 1'
_cell_length_a   7.57551501
_cell_length_b   7.58371867
_cell_length_c   13.13013000
_cell_angle_alpha   84.49087840
_cell_angle_beta   78.91667902
_cell_angle_gamma   59.92125033
_symmetry_Int_Tables_number   1
_chemical_formula_structural   DyYPa2(Al8Pt3)3
_chemical_formula_sum   'Dy1 Y1 Pa2 Al24 Pt9'
_cell_volume   640.57820896
_cell_formula_units_Z   1
loop_
 _symmetry_equiv_pos_site_id
 _symmetry_equiv_pos_as_xyz
  1  'x, y, z'
loop_
 _atom_site_type_symbol
 _atom_site_label
 _atom_site_symmetry_multiplicity
 _atom_site_fract_x
 _atom_site_fract_y
 _atom_site_fract_z
 _atom_site_occupancy
  Dy  Dy0  1  0.266115  0.501546  0.192017  1
  Y  Y1  1  0.733867  0.498465  0.808008  1
  Pa  Pa2  1  0.395103  0.168162  0.804984  1
  Pa  Pa3  1  0.604914  0.831828  0.195007  1
  Al  Al4  1  0.684276  0.833618  0.944613  1
  Al  Al5  1  0.315686  0.166419  0.055426  1
  Al  Al6  1  0.145818  0.832681  0.561291  1
  Al  Al7  1  0.854192  0.167319  0.438691  1
  Al  Al8  1  0.480422  0.167456  0.558187  1
  Al  Al9  1  0.519576  0.832541  0.441814  1
  Al  Al10  1  0.214932  0.167624  0.330854  1
  Al  Al11  1  0.785037  0.832420  0.669153  1
  Al  Al12  1  0.437747  0.508638  0.669776  1
  Al  Al13  1  0.562237  0.491338  0.330221  1
  Al  Al14  1  0.107942  0.159839  0.668262  1
  Al  Al15  1  0.892101  0.840142  0.331735  1
  Al  Al16  1  0.353339  0.499340  0.943611  1
  Al  Al17  1  0.646632  0.500637  0.056419  1
  Al  Al18  1  0.015468  0.167859  0.952452  1
  Al  Al19  1  0.984560  0.832126  0.047570  1
  Al  Al20  1  0.185823  0.500003  0.441227  1
  Al  Al21  1  0.814185  0.500000  0.558740  1
  Al  Al22  1  0.736157  0.162616  0.182915  1
  Al  Al23  1  0.263827  0.837419  0.817079  1
  Al  Al24  1  0.062710  0.631108  0.815881  1
  Al  Al25  1  0.937320  0.368889  0.184113  1
  Al  Al26  1  0.855015  0.040430  0.816689  1
  Al  Al27  1  0.144979  0.959536  0.183307  1
  Pt  Pt28  1  0.120238  0.491216  0.639774  1
  Pt  Pt29  1  0.879803  0.508769  0.360235  1
  Pt  Pt30  1  0.656879  0.172461  0.999975  1
  Pt  Pt31  1  0.343091  0.827557  0.999980  1
  Pt  Pt32  1  0.537574  0.166267  0.360569  1
  Pt  Pt33  1  0.462386  0.833775  0.639439  1
  Pt  Pt34  1  0.778165  0.175208  0.638441  1
  Pt  Pt35  1  0.221824  0.824771  0.361570  1
  Pt  Pt36  1  0.000060  0.499977  0.999976  1
