# generated using pymatgen
data_La8P14Ir15Ru
_symmetry_space_group_name_H-M   'P 1'
_cell_length_a   4.03433100
_cell_length_b   12.89261791
_cell_length_c   13.35618732
_cell_angle_alpha   80.87344128
_cell_angle_beta   90.00000000
_cell_angle_gamma   90.00000000
_symmetry_Int_Tables_number   1
_chemical_formula_structural   La8P14Ir15Ru
_chemical_formula_sum   'La8 P14 Ir15 Ru1'
_cell_volume   685.90195952
_cell_formula_units_Z   1
loop_
 _symmetry_equiv_pos_site_id
 _symmetry_equiv_pos_as_xyz
  1  'x, y, z'
loop_
 _atom_site_type_symbol
 _atom_site_label
 _atom_site_symmetry_multiplicity
 _atom_site_fract_x
 _atom_site_fract_y
 _atom_site_fract_z
 _atom_site_occupancy
  La  La0  1  0.750000  0.789499  0.562310  1
  La  La1  1  0.250000  0.210079  0.438421  1
  La  La2  1  0.750000  0.482748  0.707624  1
  La  La3  1  0.250000  0.517345  0.292517  1
  La  La4  1  0.750000  0.718409  0.894518  1
  La  La5  1  0.250000  0.103505  0.789561  1
  La  La6  1  0.750000  0.896330  0.210639  1
  La  La7  1  0.250000  0.281319  0.105556  1
  P  P8  1  0.250000  0.911125  0.412077  1
  P  P9  1  0.750000  0.474461  0.126168  1
  P  P10  1  0.250000  0.525874  0.874042  1
  P  P11  1  0.750000  0.086875  0.589833  1
  P  P12  1  0.250000  0.741831  0.080884  1
  P  P13  1  0.750000  0.258365  0.919013  1
  P  P14  1  0.750000  0.153966  0.280854  1
  P  P15  1  0.250000  0.847930  0.718017  1
  P  P16  1  0.250000  0.054005  0.097015  1
  P  P17  1  0.750000  0.945939  0.902930  1
  P  P18  1  0.250000  0.313063  0.687314  1
  P  P19  1  0.750000  0.686851  0.312634  1
  P  P20  1  0.250000  0.607120  0.560306  1
  P  P21  1  0.750000  0.393233  0.439565  1
  Ir  Ir22  1  0.750000  0.012248  0.422274  1
  Ir  Ir23  1  0.250000  0.663209  0.731195  1
  Ir  Ir24  1  0.750000  0.336587  0.268965  1
  Ir  Ir25  1  0.250000  0.552235  0.047366  1
  Ir  Ir26  1  0.750000  0.447526  0.952751  1
  Ir  Ir27  1  0.250000  0.061579  0.270909  1
  Ir  Ir28  1  0.750000  0.938966  0.728937  1
  Ir  Ir29  1  0.250000  0.424035  0.528134  1
  Ir  Ir30  1  0.750000  0.575848  0.471582  1
  Ir  Ir31  1  0.250000  0.916906  0.997827  1
  Ir  Ir32  1  0.750000  0.083351  0.002001  1
  Ir  Ir33  1  0.250000  0.728781  0.395310  1
  Ir  Ir34  1  0.750000  0.271384  0.605073  1
  Ir  Ir35  1  0.250000  0.340804  0.859605  1
  Ir  Ir36  1  0.750000  0.659268  0.140081  1
  Ru  Ru37  1  0.250000  0.987399  0.576192  1
