# generated using pymatgen
data_Ba2In4Pd3Pt
_symmetry_space_group_name_H-M   'P 1'
_cell_length_a   4.81007400
_cell_length_b   4.89909403
_cell_length_c   10.68194600
_cell_angle_alpha   88.25074940
_cell_angle_beta   90.00000000
_cell_angle_gamma   90.00000000
_symmetry_Int_Tables_number   1
_chemical_formula_structural   Ba2In4Pd3Pt
_chemical_formula_sum   'Ba2 In4 Pd3 Pt1'
_cell_volume   251.60280470
_cell_formula_units_Z   1
loop_
 _symmetry_equiv_pos_site_id
 _symmetry_equiv_pos_as_xyz
  1  'x, y, z'
loop_
 _atom_site_type_symbol
 _atom_site_label
 _atom_site_symmetry_multiplicity
 _atom_site_fract_x
 _atom_site_fract_y
 _atom_site_fract_z
 _atom_site_occupancy
  Ba  Ba0  1  0.750000  0.262058  0.240906  1
  Ba  Ba1  1  0.250000  0.738048  0.760959  1
  In  In2  1  0.750000  0.209814  0.884147  1
  In  In3  1  0.250000  0.250535  0.498217  1
  In  In4  1  0.750000  0.750048  0.500359  1
  In  In5  1  0.250000  0.789213  0.116781  1
  Pd  Pd6  1  0.250000  0.301745  0.000233  1
  Pd  Pd7  1  0.750000  0.242772  0.626025  1
  Pd  Pd8  1  0.750000  0.697542  0.999840  1
  Pt  Pt9  1  0.250000  0.758224  0.372535  1
