# generated using pymatgen
data_CeHo7Sc12Si15Os
_symmetry_space_group_name_H-M   'P 1'
_cell_length_a   7.08118940
_cell_length_b   7.43812981
_cell_length_c   13.95980158
_cell_angle_alpha   90.07355402
_cell_angle_beta   90.03608639
_cell_angle_gamma   90.20589158
_symmetry_Int_Tables_number   1
_chemical_formula_structural   CeHo7Sc12Si15Os
_chemical_formula_sum   'Ce1 Ho7 Sc12 Si15 Os1'
_cell_volume   735.26849993
_cell_formula_units_Z   1
loop_
 _symmetry_equiv_pos_site_id
 _symmetry_equiv_pos_as_xyz
  1  'x, y, z'
loop_
 _atom_site_type_symbol
 _atom_site_label
 _atom_site_symmetry_multiplicity
 _atom_site_fract_x
 _atom_site_fract_y
 _atom_site_fract_z
 _atom_site_occupancy
  Ce  Ce0  1  0.011941  0.177553  0.095259  1
  Ho  Ho1  1  0.991157  0.827334  0.903276  1
  Ho  Ho2  1  0.489090  0.677359  0.903676  1
  Ho  Ho3  1  0.990774  0.827202  0.596704  1
  Ho  Ho4  1  0.510064  0.323814  0.095453  1
  Ho  Ho5  1  0.011138  0.179836  0.403250  1
  Ho  Ho6  1  0.510953  0.323528  0.404561  1
  Ho  Ho7  1  0.488535  0.676941  0.595911  1
  Sc  Sc8  1  0.155376  0.497640  0.750218  1
  Sc  Sc9  1  0.838707  0.495639  0.249964  1
  Sc  Sc10  1  0.339145  0.005325  0.250316  1
  Sc  Sc11  1  0.668567  0.997638  0.750142  1
  Sc  Sc12  1  0.317293  0.171830  0.627742  1
  Sc  Sc13  1  0.671648  0.825005  0.374399  1
  Sc  Sc14  1  0.171985  0.677732  0.374531  1
  Sc  Sc15  1  0.672180  0.825116  0.126007  1
  Sc  Sc16  1  0.837179  0.318702  0.627757  1
  Sc  Sc17  1  0.319121  0.171357  0.871880  1
  Sc  Sc18  1  0.836198  0.319917  0.872256  1
  Sc  Sc19  1  0.171459  0.677565  0.125987  1
  Si  Si20  1  0.968898  0.884762  0.250335  1
  Si  Si21  1  0.469742  0.613547  0.250335  1
  Si  Si22  1  0.529062  0.390034  0.749857  1
  Si  Si23  1  0.286043  0.866333  0.749833  1
  Si  Si24  1  0.712628  0.130400  0.250749  1
  Si  Si25  1  0.214704  0.371343  0.250426  1
  Si  Si26  1  0.778695  0.627298  0.749996  1
  Si  Si27  1  0.159843  0.469141  0.537022  1
  Si  Si28  1  0.844280  0.535613  0.461528  1
  Si  Si29  1  0.344813  0.966198  0.460038  1
  Si  Si30  1  0.843696  0.536376  0.038254  1
  Si  Si31  1  0.655362  0.033913  0.538328  1
  Si  Si32  1  0.160318  0.470158  0.962937  1
  Si  Si33  1  0.655262  0.033520  0.961399  1
  Si  Si34  1  0.345747  0.965403  0.039497  1
  Os  Os35  1  0.028394  0.108928  0.750177  1
