# generated using pymatgen
data_PdAuF20
_symmetry_space_group_name_H-M   'P 1'
_cell_length_a   10.37580502
_cell_length_b   4.91118520
_cell_length_c   6.87065100
_cell_angle_alpha   89.75192521
_cell_angle_beta   90.00385440
_cell_angle_gamma   89.87781121
_symmetry_Int_Tables_number   1
_chemical_formula_structural   PdAuF20
_chemical_formula_sum   'Pd1 Au1 F20'
_cell_volume   350.10712031
_cell_formula_units_Z   1
loop_
 _symmetry_equiv_pos_site_id
 _symmetry_equiv_pos_as_xyz
  1  'x, y, z'
loop_
 _atom_site_type_symbol
 _atom_site_label
 _atom_site_symmetry_multiplicity
 _atom_site_fract_x
 _atom_site_fract_y
 _atom_site_fract_z
 _atom_site_occupancy
  Pd  Pd0  1  0.500000  0.500000  0.000000  1
  Au  Au1  1  0.000000  0.500000  0.500000  1
  F  F2  1  0.848809  0.770903  0.969626  1
  F  F3  1  0.359508  0.236567  0.524430  1
  F  F4  1  0.151191  0.229097  0.030374  1
  F  F5  1  0.640492  0.763433  0.475570  1
  F  F6  1  0.861787  0.004887  0.088841  1
  F  F7  1  0.362034  0.997049  0.409139  1
  F  F8  1  0.138213  0.995113  0.911159  1
  F  F9  1  0.637966  0.002951  0.590861  1
  F  F10  1  0.074316  0.649908  0.264636  1
  F  F11  1  0.574172  0.354285  0.229956  1
  F  F12  1  0.925684  0.350092  0.735364  1
  F  F13  1  0.425828  0.645715  0.770044  1
  F  F14  1  0.852832  0.371616  0.352970  1
  F  F15  1  0.355995  0.622656  0.145401  1
  F  F16  1  0.147168  0.628384  0.647030  1
  F  F17  1  0.644005  0.377344  0.854599  1
  F  F18  1  0.090655  0.165499  0.449080  1
  F  F19  1  0.586774  0.832223  0.047653  1
  F  F20  1  0.413226  0.167777  0.952347  1
  F  F21  1  0.909345  0.834501  0.550920  1
