# generated using pymatgen
data_KO2F3
_symmetry_space_group_name_H-M   'P 1'
_cell_length_a   4.25951285
_cell_length_b   4.21132258
_cell_length_c   7.78545821
_cell_angle_alpha   129.80605953
_cell_angle_beta   72.78344704
_cell_angle_gamma   107.13840284
_symmetry_Int_Tables_number   1
_chemical_formula_structural   KO2F3
_chemical_formula_sum   'K1 O2 F3'
_cell_volume   101.42098126
_cell_formula_units_Z   1
loop_
 _symmetry_equiv_pos_site_id
 _symmetry_equiv_pos_as_xyz
  1  'x, y, z'
loop_
 _atom_site_type_symbol
 _atom_site_label
 _atom_site_symmetry_multiplicity
 _atom_site_fract_x
 _atom_site_fract_y
 _atom_site_fract_z
 _atom_site_occupancy
  K  K0  1  0.726500  0.073064  0.381497  1
  O  O1  1  0.156614  0.101251  0.883196  1
  O  O2  1  0.868728  0.984613  0.861942  1
  F  F3  1  0.719685  0.617313  0.903509  1
  F  F4  1  0.148289  0.528573  0.204362  1
  F  F5  1  0.375818  0.694276  0.583007  1
