# generated using pymatgen
data_Tl(V3S4)4
_symmetry_space_group_name_H-M   'P 1'
_cell_length_a   9.74739614
_cell_length_b   9.74739630
_cell_length_c   9.19595300
_cell_angle_alpha   61.72971507
_cell_angle_beta   61.72971457
_cell_angle_gamma   38.63912207
_symmetry_Int_Tables_number   1
_chemical_formula_structural   Tl(V3S4)4
_chemical_formula_sum   'Tl1 V12 S16'
_cell_volume   471.87444786
_cell_formula_units_Z   1
loop_
 _symmetry_equiv_pos_site_id
 _symmetry_equiv_pos_as_xyz
  1  'x, y, z'
loop_
 _atom_site_type_symbol
 _atom_site_label
 _atom_site_symmetry_multiplicity
 _atom_site_fract_x
 _atom_site_fract_y
 _atom_site_fract_z
 _atom_site_occupancy
  Tl  Tl0  1  0.374870  0.374870  0.999672  1
  V  V1  1  0.932933  0.932933  0.511613  1
  V  V2  1  0.432823  0.432823  0.514068  1
  V  V3  1  0.130947  0.130947  0.373924  1
  V  V4  1  0.632499  0.632499  0.368843  1
  V  V5  1  0.059371  0.059371  0.116029  1
  V  V6  1  0.561971  0.561971  0.114774  1
  V  V7  1  0.065920  0.568765  0.491634  1
  V  V8  1  0.568765  0.065920  0.491634  1
  V  V9  1  0.875868  0.365122  0.623784  1
  V  V10  1  0.365122  0.875868  0.623784  1
  V  V11  1  0.932472  0.441355  0.885073  1
  V  V12  1  0.441355  0.932472  0.885073  1
  S  S13  1  0.525262  0.525262  0.646601  1
  S  S14  1  0.021729  0.021729  0.652484  1
  S  S15  1  0.701190  0.701190  0.053582  1
  S  S16  1  0.198083  0.198083  0.053625  1
  S  S17  1  0.401983  0.401983  0.299134  1
  S  S18  1  0.901496  0.901496  0.295697  1
  S  S19  1  0.479464  0.979373  0.344714  1
  S  S20  1  0.979373  0.479464  0.344714  1
  S  S21  1  0.297154  0.797909  0.946390  1
  S  S22  1  0.797909  0.297154  0.946390  1
  S  S23  1  0.599965  0.096496  0.708398  1
  S  S24  1  0.096496  0.599965  0.708398  1
  S  S25  1  0.707734  0.707734  0.666074  1
  S  S26  1  0.208672  0.208672  0.667555  1
  S  S27  1  0.291730  0.791846  0.333171  1
  S  S28  1  0.791846  0.291730  0.333171  1
