# generated using pymatgen
data_NiPb(ClO4)4
_symmetry_space_group_name_H-M   'P 1'
_cell_length_a   5.12186999
_cell_length_b   7.58060996
_cell_length_c   9.18889800
_cell_angle_alpha   90.25906581
_cell_angle_beta   91.58916724
_cell_angle_gamma   98.43293703
_symmetry_Int_Tables_number   1
_chemical_formula_structural   NiPb(ClO4)4
_chemical_formula_sum   'Ni1 Pb1 Cl4 O16'
_cell_volume   352.76996502
_cell_formula_units_Z   1
loop_
 _symmetry_equiv_pos_site_id
 _symmetry_equiv_pos_as_xyz
  1  'x, y, z'
loop_
 _atom_site_type_symbol
 _atom_site_label
 _atom_site_symmetry_multiplicity
 _atom_site_fract_x
 _atom_site_fract_y
 _atom_site_fract_z
 _atom_site_occupancy
  Ni  Ni0  1  0.000000  0.000000  0.000000  1
  Pb  Pb1  1  0.500000  0.500000  0.500000  1
  Cl  Cl2  1  0.562330  0.232872  0.150124  1
  Cl  Cl3  1  0.953826  0.231049  0.690357  1
  Cl  Cl4  1  0.437670  0.767128  0.849876  1
  Cl  Cl5  1  0.046174  0.768951  0.309643  1
  O  O6  1  0.569351  0.261572  0.308629  1
  O  O7  1  0.942908  0.199525  0.848520  1
  O  O8  1  0.430649  0.738428  0.691371  1
  O  O9  1  0.057092  0.800475  0.151480  1
  O  O10  1  0.281189  0.195022  0.102823  1
  O  O11  1  0.229473  0.242693  0.645715  1
  O  O12  1  0.718811  0.804978  0.897177  1
  O  O13  1  0.770527  0.757307  0.354285  1
  O  O14  1  0.687979  0.071651  0.123756  1
  O  O15  1  0.871884  0.408887  0.666343  1
  O  O16  1  0.312021  0.928349  0.876244  1
  O  O17  1  0.128116  0.591113  0.333657  1
  O  O18  1  0.692136  0.384926  0.076882  1
  O  O19  1  0.784496  0.095475  0.610254  1
  O  O20  1  0.307864  0.615074  0.923118  1
  O  O21  1  0.215504  0.904525  0.389746  1
