# generated using pymatgen
data_Tm4MnOsC4
_symmetry_space_group_name_H-M   'P 1'
_cell_length_a   4.99115100
_cell_length_b   6.34853325
_cell_length_c   9.59607817
_cell_angle_alpha   90.47625812
_cell_angle_beta   90.00000000
_cell_angle_gamma   90.00000000
_symmetry_Int_Tables_number   1
_chemical_formula_structural   Tm4MnOsC4
_chemical_formula_sum   'Tm8 Mn2 Os2 C8'
_cell_volume   304.05551178
_cell_formula_units_Z   2
loop_
 _symmetry_equiv_pos_site_id
 _symmetry_equiv_pos_as_xyz
  1  'x, y, z'
loop_
 _atom_site_type_symbol
 _atom_site_label
 _atom_site_symmetry_multiplicity
 _atom_site_fract_x
 _atom_site_fract_y
 _atom_site_fract_z
 _atom_site_occupancy
  Tm  Tm0  1  0.250000  0.682106  0.557075  1
  Tm  Tm1  1  0.750000  0.317894  0.442925  1
  Tm  Tm2  1  0.750000  0.820714  0.052855  1
  Tm  Tm3  1  0.250000  0.179286  0.947145  1
  Tm  Tm4  1  0.250000  0.525363  0.217484  1
  Tm  Tm5  1  0.750000  0.474637  0.782516  1
  Tm  Tm6  1  0.750000  0.974399  0.715686  1
  Tm  Tm7  1  0.250000  0.025601  0.284314  1
  Mn  Mn8  1  0.250000  0.726280  0.863385  1
  Mn  Mn9  1  0.750000  0.273720  0.136615  1
  Os  Os10  1  0.750000  0.776164  0.362837  1
  Os  Os11  1  0.250000  0.223836  0.637163  1
  C  C12  1  0.250000  0.467245  0.765308  1
  C  C13  1  0.750000  0.532755  0.234692  1
  C  C14  1  0.750000  0.047257  0.254244  1
  C  C15  1  0.250000  0.952743  0.745756  1
  C  C16  1  0.250000  0.815322  0.042437  1
  C  C17  1  0.750000  0.184678  0.957563  1
  C  C18  1  0.750000  0.675315  0.553537  1
  C  C19  1  0.250000  0.324685  0.446463  1
