# generated using pymatgen
data_Rb4Hf6CCl18
_symmetry_space_group_name_H-M   'P 1'
_cell_length_a   10.30452102
_cell_length_b   10.30452020
_cell_length_c   9.99014301
_cell_angle_alpha   77.27734998
_cell_angle_beta   77.27734821
_cell_angle_gamma   117.54576088
_symmetry_Int_Tables_number   1
_chemical_formula_structural   Rb4Hf6CCl18
_chemical_formula_sum   'Rb4 Hf6 C1 Cl18'
_cell_volume   851.45360994
_cell_formula_units_Z   1
loop_
 _symmetry_equiv_pos_site_id
 _symmetry_equiv_pos_as_xyz
  1  'x, y, z'
loop_
 _atom_site_type_symbol
 _atom_site_label
 _atom_site_symmetry_multiplicity
 _atom_site_fract_x
 _atom_site_fract_y
 _atom_site_fract_z
 _atom_site_occupancy
  Rb  Rb0  1  0.769657  0.446533  0.682066  1
  Rb  Rb1  1  0.553467  0.230343  0.317934  1
  Rb  Rb2  1  0.230343  0.553467  0.317934  1
  Rb  Rb3  1  0.446533  0.769657  0.682066  1
  Hf  Hf4  1  0.120858  0.120858  0.139942  1
  Hf  Hf5  1  0.879142  0.879142  0.860058  1
  Hf  Hf6  1  0.949169  0.768133  0.146917  1
  Hf  Hf7  1  0.231867  0.050831  0.853083  1
  Hf  Hf8  1  0.050831  0.231867  0.853083  1
  Hf  Hf9  1  0.768133  0.949169  0.146917  1
  C  C10  1  0.000000  0.000000  0.000000  1
  Cl  Cl11  1  0.810295  0.606518  0.008319  1
  Cl  Cl12  1  0.393483  0.189705  0.991681  1
  Cl  Cl13  1  0.189705  0.393483  0.991681  1
  Cl  Cl14  1  0.606517  0.810295  0.008319  1
  Cl  Cl15  1  0.202120  0.797880  0.000000  1
  Cl  Cl16  1  0.797880  0.202120  0.000000  1
  Cl  Cl17  1  0.316554  0.316554  0.675228  1
  Cl  Cl18  1  0.683446  0.683446  0.324772  1
  Cl  Cl19  1  0.889395  0.498972  0.321121  1
  Cl  Cl20  1  0.501028  0.110605  0.678879  1
  Cl  Cl21  1  0.110605  0.501028  0.678879  1
  Cl  Cl22  1  0.498972  0.889395  0.321121  1
  Cl  Cl23  1  0.259999  0.259999  0.297742  1
  Cl  Cl24  1  0.740001  0.740001  0.702258  1
  Cl  Cl25  1  0.077826  0.875747  0.316678  1
  Cl  Cl26  1  0.124253  0.922174  0.683322  1
  Cl  Cl27  1  0.922174  0.124253  0.683322  1
  Cl  Cl28  1  0.875747  0.077826  0.316678  1
