# generated using pymatgen
data_Yb5Ga2Bi
_symmetry_space_group_name_H-M   'P 1'
_cell_length_a   9.27880406
_cell_length_b   9.27880447
_cell_length_c   9.27880484
_cell_angle_alpha   128.59969736
_cell_angle_beta   128.59969919
_cell_angle_gamma   75.65553333
_symmetry_Int_Tables_number   1
_chemical_formula_structural   Yb5Ga2Bi
_chemical_formula_sum   'Yb10 Ga4 Bi2'
_cell_volume   474.66441003
_cell_formula_units_Z   2
loop_
 _symmetry_equiv_pos_site_id
 _symmetry_equiv_pos_as_xyz
  1  'x, y, z'
loop_
 _atom_site_type_symbol
 _atom_site_label
 _atom_site_symmetry_multiplicity
 _atom_site_fract_x
 _atom_site_fract_y
 _atom_site_fract_z
 _atom_site_occupancy
  Yb  Yb0  1  0.000000  0.000000  0.000000  1
  Yb  Yb1  1  0.500000  0.500000  0.000000  1
  Yb  Yb2  1  0.809030  0.309030  0.842799  1
  Yb  Yb3  1  0.190970  0.690970  0.157201  1
  Yb  Yb4  1  0.466231  0.966231  0.157201  1
  Yb  Yb5  1  0.309030  0.466231  0.500000  1
  Yb  Yb6  1  0.033769  0.190970  0.500000  1
  Yb  Yb7  1  0.533769  0.033769  0.842799  1
  Yb  Yb8  1  0.690970  0.533769  0.500000  1
  Yb  Yb9  1  0.966231  0.809030  0.500000  1
  Ga  Ga10  1  0.116215  0.616215  0.732428  1
  Ga  Ga11  1  0.883785  0.383785  0.267572  1
  Ga  Ga12  1  0.616215  0.883785  0.500000  1
  Ga  Ga13  1  0.383785  0.116215  0.500000  1
  Bi  Bi14  1  0.250000  0.250000  0.000000  1
  Bi  Bi15  1  0.750000  0.750000  0.000000  1
