# generated using pymatgen
data_Hf8Ga5SiMo2
_symmetry_space_group_name_H-M   'P 1'
_cell_length_a   7.91579645
_cell_length_b   7.91579615
_cell_length_c   5.44840325
_cell_angle_alpha   90.01735550
_cell_angle_beta   90.01734830
_cell_angle_gamma   119.96556100
_symmetry_Int_Tables_number   1
_chemical_formula_structural   Hf8Ga5SiMo2
_chemical_formula_sum   'Hf8 Ga5 Si1 Mo2'
_cell_volume   295.76012669
_cell_formula_units_Z   1
loop_
 _symmetry_equiv_pos_site_id
 _symmetry_equiv_pos_as_xyz
  1  'x, y, z'
loop_
 _atom_site_type_symbol
 _atom_site_label
 _atom_site_symmetry_multiplicity
 _atom_site_fract_x
 _atom_site_fract_y
 _atom_site_fract_z
 _atom_site_occupancy
  Hf  Hf0  1  0.333945  0.664272  0.499782  1
  Hf  Hf1  1  0.664272  0.333945  0.499782  1
  Hf  Hf2  1  0.751268  0.751268  0.754056  1
  Hf  Hf3  1  0.245613  0.003316  0.754254  1
  Hf  Hf4  1  0.003316  0.245613  0.754254  1
  Hf  Hf5  1  0.247594  0.247594  0.246680  1
  Hf  Hf6  1  0.756238  0.000818  0.246091  1
  Hf  Hf7  1  0.000818  0.756238  0.246091  1
  Ga  Ga8  1  0.602017  0.000345  0.764361  1
  Ga  Ga9  1  0.000345  0.602017  0.764361  1
  Ga  Ga10  1  0.603264  0.603264  0.235435  1
  Ga  Ga11  1  0.398856  0.998404  0.235142  1
  Ga  Ga12  1  0.998404  0.398856  0.235142  1
  Si  Si13  1  0.397350  0.397350  0.768549  1
  Mo  Mo14  1  0.662447  0.334251  0.998010  1
  Mo  Mo15  1  0.334251  0.662447  0.998010  1
