# generated using pymatgen
data_Y2PaOs2
_symmetry_space_group_name_H-M   'P 1'
_cell_length_a   4.32163211
_cell_length_b   5.70669698
_cell_length_c   5.90078916
_cell_angle_alpha   118.91774357
_cell_angle_beta   111.48090795
_cell_angle_gamma   90.00000152
_symmetry_Int_Tables_number   1
_chemical_formula_structural   Y2PaOs2
_chemical_formula_sum   'Y2 Pa1 Os2'
_cell_volume   115.69877081
_cell_formula_units_Z   1
loop_
 _symmetry_equiv_pos_site_id
 _symmetry_equiv_pos_as_xyz
  1  'x, y, z'
loop_
 _atom_site_type_symbol
 _atom_site_label
 _atom_site_symmetry_multiplicity
 _atom_site_fract_x
 _atom_site_fract_y
 _atom_site_fract_z
 _atom_site_occupancy
  Y  Y0  1  0.801238  0.301238  0.602476  1
  Y  Y1  1  0.198762  0.698762  0.397524  1
  Pa  Pa2  1  0.000000  0.000000  0.000000  1
  Os  Os3  1  0.500000  0.266710  0.000000  1
  Os  Os4  1  0.500000  0.733290  0.000000  1
