# generated using pymatgen
data_Y4Al18(IrPd)3
_symmetry_space_group_name_H-M   'P 1'
_cell_length_a   7.60362772
_cell_length_b   7.60362961
_cell_length_c   9.46280901
_cell_angle_alpha   89.97786211
_cell_angle_beta   89.97789540
_cell_angle_gamma   119.64030702
_symmetry_Int_Tables_number   1
_chemical_formula_structural   Y4Al18(IrPd)3
_chemical_formula_sum   'Y4 Al18 Ir3 Pd3'
_cell_volume   475.50500871
_cell_formula_units_Z   1
loop_
 _symmetry_equiv_pos_site_id
 _symmetry_equiv_pos_as_xyz
  1  'x, y, z'
loop_
 _atom_site_type_symbol
 _atom_site_label
 _atom_site_symmetry_multiplicity
 _atom_site_fract_x
 _atom_site_fract_y
 _atom_site_fract_z
 _atom_site_occupancy
  Y  Y0  1  0.995668  0.670313  0.250394  1
  Y  Y1  1  0.004737  0.329699  0.749652  1
  Y  Y2  1  0.670301  0.995264  0.250348  1
  Y  Y3  1  0.329687  0.004332  0.749606  1
  Al  Al4  1  0.127192  0.128019  0.250401  1
  Al  Al5  1  0.871981  0.872808  0.749599  1
  Al  Al6  1  0.000679  0.331663  0.076299  1
  Al  Al7  1  0.999357  0.668663  0.922893  1
  Al  Al8  1  0.996740  0.664887  0.575081  1
  Al  Al9  1  0.335113  0.003260  0.424919  1
  Al  Al10  1  0.996360  0.330863  0.425012  1
  Al  Al11  1  0.669137  0.003640  0.574988  1
  Al  Al12  1  0.668337  0.999321  0.923701  1
  Al  Al13  1  0.331337  0.000643  0.077106  1
  Al  Al14  1  0.333015  0.329778  0.552810  1
  Al  Al15  1  0.670222  0.666985  0.447190  1
  Al  Al16  1  0.669022  0.668961  0.056671  1
  Al  Al17  1  0.331038  0.330978  0.943329  1
  Al  Al18  1  0.340091  0.546791  0.250664  1
  Al  Al19  1  0.659172  0.452218  0.747591  1
  Al  Al20  1  0.547782  0.340828  0.252409  1
  Al  Al21  1  0.453209  0.659909  0.749336  1
  Ir  Ir22  1  0.671848  0.328152  0.500000  1
  Ir  Ir23  1  0.000006  0.999994  0.000000  1
  Ir  Ir24  1  0.000391  0.999610  0.500000  1
  Pd  Pd25  1  0.672255  0.327745  0.000000  1
  Pd  Pd26  1  0.327652  0.672348  0.000000  1
  Pd  Pd27  1  0.327672  0.672328  0.500000  1
