# generated using pymatgen
data_LaSm3(AgO3)4
_symmetry_space_group_name_H-M   'P 1'
_cell_length_a   3.97263233
_cell_length_b   5.68349400
_cell_length_c   13.08453800
_cell_angle_alpha   90.00000000
_cell_angle_beta   89.66889799
_cell_angle_gamma   90.00000000
_symmetry_Int_Tables_number   1
_chemical_formula_structural   LaSm3(AgO3)4
_chemical_formula_sum   'La1 Sm3 Ag4 O12'
_cell_volume   295.42341895
_cell_formula_units_Z   1
loop_
 _symmetry_equiv_pos_site_id
 _symmetry_equiv_pos_as_xyz
  1  'x, y, z'
loop_
 _atom_site_type_symbol
 _atom_site_label
 _atom_site_symmetry_multiplicity
 _atom_site_fract_x
 _atom_site_fract_y
 _atom_site_fract_z
 _atom_site_occupancy
  La  La0  1  0.736264  0.750000  0.578722  1
  Sm  Sm1  1  0.261015  0.750000  0.078485  1
  Sm  Sm2  1  0.257812  0.250000  0.418821  1
  Sm  Sm3  1  0.741819  0.250000  0.923338  1
  Ag  Ag4  1  0.076130  0.750000  0.831775  1
  Ag  Ag5  1  0.072667  0.250000  0.672720  1
  Ag  Ag6  1  0.925353  0.250000  0.170369  1
  Ag  Ag7  1  0.925032  0.750000  0.326464  1
  O  O8  1  0.187748  0.499971  0.248226  1
  O  O9  1  0.816083  0.003790  0.755217  1
  O  O10  1  0.816083  0.496210  0.755217  1
  O  O11  1  0.187748  0.000029  0.248226  1
  O  O12  1  0.744398  0.499248  0.075613  1
  O  O13  1  0.743515  0.497868  0.420164  1
  O  O14  1  0.257964  0.998659  0.926323  1
  O  O15  1  0.252247  0.008262  0.574110  1
  O  O16  1  0.743515  0.002132  0.420164  1
  O  O17  1  0.744398  0.000752  0.075613  1
  O  O18  1  0.252247  0.491738  0.574110  1
  O  O19  1  0.257964  0.501341  0.926323  1
