# generated using pymatgen
data_Hf18FeRe5Mo3P
_symmetry_space_group_name_H-M   'P 1'
_cell_length_a   8.54010300
_cell_length_b   8.59364981
_cell_length_c   8.60381119
_cell_angle_alpha   119.95965227
_cell_angle_beta   90.00000000
_cell_angle_gamma   90.00000000
_symmetry_Int_Tables_number   1
_chemical_formula_structural   Hf18FeRe5Mo3P
_chemical_formula_sum   'Hf18 Fe1 Re5 Mo3 P1'
_cell_volume   547.06469927
_cell_formula_units_Z   1
loop_
 _symmetry_equiv_pos_site_id
 _symmetry_equiv_pos_as_xyz
  1  'x, y, z'
loop_
 _atom_site_type_symbol
 _atom_site_label
 _atom_site_symmetry_multiplicity
 _atom_site_fract_x
 _atom_site_fract_y
 _atom_site_fract_z
 _atom_site_occupancy
  Hf  Hf0  1  0.548054  0.804296  0.608596  1
  Hf  Hf1  1  0.546902  0.803123  0.195768  1
  Hf  Hf2  1  0.546902  0.392624  0.195742  1
  Hf  Hf3  1  0.442152  0.201896  0.403798  1
  Hf  Hf4  1  0.442628  0.201560  0.798207  1
  Hf  Hf5  1  0.442638  0.596665  0.798216  1
  Hf  Hf6  1  0.057848  0.201896  0.403798  1
  Hf  Hf7  1  0.057372  0.201560  0.798207  1
  Hf  Hf8  1  0.057362  0.596665  0.798216  1
  Hf  Hf9  1  0.951946  0.804296  0.608596  1
  Hf  Hf10  1  0.953098  0.803123  0.195768  1
  Hf  Hf11  1  0.953098  0.392624  0.195742  1
  Hf  Hf12  1  0.750000  0.459788  0.919579  1
  Hf  Hf13  1  0.750000  0.461135  0.540407  1
  Hf  Hf14  1  0.750000  0.079282  0.540424  1
  Hf  Hf15  1  0.250000  0.539997  0.079997  1
  Hf  Hf16  1  0.250000  0.541038  0.460027  1
  Hf  Hf17  1  0.250000  0.918975  0.460011  1
  Fe  Fe18  1  0.250000  0.333967  0.667875  1
  Re  Re19  1  0.750000  0.111217  0.887752  1
  Re  Re20  1  0.750000  0.776573  0.887806  1
  Re  Re21  1  0.250000  0.888968  0.777917  1
  Re  Re22  1  0.250000  0.888675  0.111282  1
  Re  Re23  1  0.250000  0.222604  0.111269  1
  Mo  Mo24  1  0.750000  0.110402  0.220863  1
  Mo  Mo25  1  0.500230  0.999942  0.999874  1
  Mo  Mo26  1  0.999770  0.999942  0.999874  1
  P  P27  1  0.750000  0.667165  0.334387  1
