# generated using pymatgen
data_Er3Tm13MgZn3Co4
_symmetry_space_group_name_H-M   'P 1'
_cell_length_a   9.31588329
_cell_length_b   9.27883482
_cell_length_c   9.27478216
_cell_angle_alpha   60.01082062
_cell_angle_beta   60.12457134
_cell_angle_gamma   60.11623241
_symmetry_Int_Tables_number   1
_chemical_formula_structural   Er3Tm13MgZn3Co4
_chemical_formula_sum   'Er3 Tm13 Mg1 Zn3 Co4'
_cell_volume   567.97575546
_cell_formula_units_Z   1
loop_
 _symmetry_equiv_pos_site_id
 _symmetry_equiv_pos_as_xyz
  1  'x, y, z'
loop_
 _atom_site_type_symbol
 _atom_site_label
 _atom_site_symmetry_multiplicity
 _atom_site_fract_x
 _atom_site_fract_y
 _atom_site_fract_z
 _atom_site_occupancy
  Er  Er0  1  0.183512  0.812315  0.192036  1
  Er  Er1  1  0.811507  0.814135  0.187020  1
  Er  Er2  1  0.183190  0.192024  0.812295  1
  Tm  Tm3  1  0.599317  0.596143  0.596428  1
  Tm  Tm4  1  0.599439  0.596089  0.208190  1
  Tm  Tm5  1  0.599450  0.208119  0.596269  1
  Tm  Tm6  1  0.195593  0.601470  0.601589  1
  Tm  Tm7  1  0.058599  0.440448  0.440790  1
  Tm  Tm8  1  0.437333  0.062768  0.062574  1
  Tm  Tm9  1  0.437184  0.062654  0.437518  1
  Tm  Tm10  1  0.058663  0.440636  0.060039  1
  Tm  Tm11  1  0.437356  0.437391  0.062531  1
  Tm  Tm12  1  0.058574  0.060090  0.440814  1
  Tm  Tm13  1  0.183568  0.812167  0.811916  1
  Tm  Tm14  1  0.811232  0.187675  0.187339  1
  Tm  Tm15  1  0.811484  0.187413  0.813723  1
  Mg  Mg16  1  0.538261  0.820523  0.820575  1
  Zn  Zn17  1  0.835106  0.828659  0.828549  1
  Zn  Zn18  1  0.834939  0.828653  0.507898  1
  Zn  Zn19  1  0.834969  0.507644  0.828710  1
  Co  Co20  1  0.388402  0.393511  0.393509  1
  Co  Co21  1  0.388354  0.393680  0.824498  1
  Co  Co22  1  0.388195  0.824544  0.393725  1
  Co  Co23  1  0.825771  0.391252  0.391467  1
