# generated using pymatgen
data_Zr5TiCr2(Co4P3)4
_symmetry_space_group_name_H-M   'P 1'
_cell_length_a   11.88977833
_cell_length_b   11.92784221
_cell_length_c   3.61919400
_cell_angle_alpha   90.00000000
_cell_angle_beta   90.00000000
_cell_angle_gamma   120.10595215
_symmetry_Int_Tables_number   1
_chemical_formula_structural   Zr5TiCr2(Co4P3)4
_chemical_formula_sum   'Zr5 Ti1 Cr2 Co16 P12'
_cell_volume   444.03118800
_cell_formula_units_Z   1
loop_
 _symmetry_equiv_pos_site_id
 _symmetry_equiv_pos_as_xyz
  1  'x, y, z'
loop_
 _atom_site_type_symbol
 _atom_site_label
 _atom_site_symmetry_multiplicity
 _atom_site_fract_x
 _atom_site_fract_y
 _atom_site_fract_z
 _atom_site_occupancy
  Zr  Zr0  1  0.666575  0.332858  0.000000  1
  Zr  Zr1  1  0.333425  0.666284  0.000000  1
  Zr  Zr2  1  0.818137  0.817516  0.500000  1
  Zr  Zr3  1  0.181863  0.999379  0.500000  1
  Zr  Zr4  1  0.000000  0.179906  0.500000  1
  Ti  Ti5  1  0.000000  0.557481  0.000000  1
  Cr  Cr6  1  0.445488  0.444732  0.000000  1
  Cr  Cr7  1  0.554512  0.999243  0.000000  1
  Co  Co8  1  0.198182  0.375682  0.000000  1
  Co  Co9  1  0.180035  0.805347  0.000000  1
  Co  Co10  1  0.819965  0.625312  0.000000  1
  Co  Co11  1  0.801818  0.177499  0.000000  1
  Co  Co12  1  0.376477  0.197793  0.000000  1
  Co  Co13  1  0.126763  0.481294  0.500000  1
  Co  Co14  1  0.356399  0.873799  0.500000  1
  Co  Co15  1  0.517333  0.644513  0.500000  1
  Co  Co16  1  0.643601  0.517401  0.500000  1
  Co  Co17  1  0.873237  0.354532  0.500000  1
  Co  Co18  1  0.482667  0.127180  0.500000  1
  Co  Co19  1  0.000000  0.000341  0.000000  1
  Co  Co20  1  0.717052  0.000215  0.500000  1
  Co  Co21  1  0.000000  0.718063  0.500000  1
  Co  Co22  1  0.623523  0.821315  0.000000  1
  Co  Co23  1  0.282948  0.283163  0.500000  1
  P  P24  1  0.639949  0.642235  0.000000  1
  P  P25  1  0.360051  0.002286  0.000000  1
  P  P26  1  0.000000  0.353529  0.000000  1
  P  P27  1  0.481852  0.316145  0.500000  1
  P  P28  1  0.683287  0.165011  0.500000  1
  P  P29  1  0.829974  0.516718  0.500000  1
  P  P30  1  0.518148  0.834294  0.500000  1
  P  P31  1  0.170026  0.686744  0.500000  1
  P  P32  1  0.822303  0.999392  0.000000  1
  P  P33  1  0.000000  0.823987  0.000000  1
  P  P34  1  0.316713  0.481725  0.500000  1
  P  P35  1  0.177697  0.177088  0.000000  1
