# generated using pymatgen
data_GaFe(AgI4)2
_symmetry_space_group_name_H-M   'P 1'
_cell_length_a   8.45268254
_cell_length_b   8.00191159
_cell_length_c   15.97699500
_cell_angle_alpha   89.43225357
_cell_angle_beta   89.69656289
_cell_angle_gamma   90.71121614
_symmetry_Int_Tables_number   1
_chemical_formula_structural   GaFe(AgI4)2
_chemical_formula_sum   'Ga2 Fe2 Ag4 I16'
_cell_volume   1080.49371890
_cell_formula_units_Z   2
loop_
 _symmetry_equiv_pos_site_id
 _symmetry_equiv_pos_as_xyz
  1  'x, y, z'
loop_
 _atom_site_type_symbol
 _atom_site_label
 _atom_site_symmetry_multiplicity
 _atom_site_fract_x
 _atom_site_fract_y
 _atom_site_fract_z
 _atom_site_occupancy
  Ga  Ga0  1  0.181908  0.701700  0.607764  1
  Ga  Ga1  1  0.818092  0.298300  0.392236  1
  Fe  Fe2  1  0.676435  0.301595  0.895086  1
  Fe  Fe3  1  0.323565  0.698405  0.104914  1
  Ag  Ag4  1  0.426830  0.817575  0.865373  1
  Ag  Ag5  1  0.573170  0.182425  0.134627  1
  Ag  Ag6  1  0.926923  0.182832  0.635999  1
  Ag  Ag7  1  0.073077  0.817168  0.364001  1
  I  I8  1  0.177861  0.410913  0.681830  1
  I  I9  1  0.822139  0.589087  0.318170  1
  I  I10  1  0.672015  0.589119  0.822294  1
  I  I11  1  0.327985  0.410881  0.177706  1
  I  I12  1  0.354015  0.912099  0.691176  1
  I  I13  1  0.645985  0.087901  0.308824  1
  I  I14  1  0.847882  0.103269  0.810547  1
  I  I15  1  0.152118  0.896731  0.189453  1
  I  I16  1  0.187220  0.663006  0.962309  1
  I  I17  1  0.812780  0.336994  0.037691  1
  I  I18  1  0.685238  0.328539  0.539262  1
  I  I19  1  0.314762  0.671461  0.460738  1
  I  I20  1  0.902013  0.828793  0.591730  1
  I  I21  1  0.097987  0.171207  0.408270  1
  I  I22  1  0.399267  0.169081  0.910747  1
  I  I23  1  0.600733  0.830919  0.089253  1
