# generated using pymatgen
data_ZrTi3Fe2(As2Pd)2
_symmetry_space_group_name_H-M   'P 1'
_cell_length_a   3.81246800
_cell_length_b   6.47365509
_cell_length_c   7.39351419
_cell_angle_alpha   92.57806937
_cell_angle_beta   90.00000000
_cell_angle_gamma   90.00000000
_symmetry_Int_Tables_number   1
_chemical_formula_structural   ZrTi3Fe2(As2Pd)2
_chemical_formula_sum   'Zr1 Ti3 Fe2 As4 Pd2'
_cell_volume   182.29169595
_cell_formula_units_Z   1
loop_
 _symmetry_equiv_pos_site_id
 _symmetry_equiv_pos_as_xyz
  1  'x, y, z'
loop_
 _atom_site_type_symbol
 _atom_site_label
 _atom_site_symmetry_multiplicity
 _atom_site_fract_x
 _atom_site_fract_y
 _atom_site_fract_z
 _atom_site_occupancy
  Zr  Zr0  1  0.250000  0.972741  0.327512  1
  Ti  Ti1  1  0.250000  0.471008  0.197291  1
  Ti  Ti2  1  0.750000  0.522461  0.800012  1
  Ti  Ti3  1  0.750000  0.030517  0.671043  1
  Fe  Fe4  1  0.750000  0.636207  0.444835  1
  Fe  Fe5  1  0.250000  0.368708  0.559240  1
  As  As6  1  0.250000  0.730742  0.611761  1
  As  As7  1  0.750000  0.275528  0.397718  1
  As  As8  1  0.750000  0.728668  0.133876  1
  As  As9  1  0.250000  0.259097  0.859573  1
  Pd  Pd10  1  0.250000  0.853004  0.933963  1
  Pd  Pd11  1  0.750000  0.151319  0.063177  1
