# generated using pymatgen
data_Zr3Pa(TiRh5)2
_symmetry_space_group_name_H-M   'P 1'
_cell_length_a   4.22606900
_cell_length_b   5.64727419
_cell_length_c   11.04600642
_cell_angle_alpha   90.42518071
_cell_angle_beta   90.00000000
_cell_angle_gamma   90.00000000
_symmetry_Int_Tables_number   1
_chemical_formula_structural   Zr3Pa(TiRh5)2
_chemical_formula_sum   'Zr3 Pa1 Ti2 Rh10'
_cell_volume   263.61419433
_cell_formula_units_Z   1
loop_
 _symmetry_equiv_pos_site_id
 _symmetry_equiv_pos_as_xyz
  1  'x, y, z'
loop_
 _atom_site_type_symbol
 _atom_site_label
 _atom_site_symmetry_multiplicity
 _atom_site_fract_x
 _atom_site_fract_y
 _atom_site_fract_z
 _atom_site_occupancy
  Zr  Zr0  1  0.500000  0.662274  0.850705  1
  Zr  Zr1  1  0.500000  0.837402  0.360871  1
  Zr  Zr2  1  0.500000  0.163411  0.644416  1
  Pa  Pa3  1  0.500000  0.335201  0.144388  1
  Ti  Ti4  1  0.000000  0.985141  0.990998  1
  Ti  Ti5  1  0.000000  0.501100  0.503848  1
  Rh  Rh6  1  0.000000  0.001249  0.502141  1
  Rh  Rh7  1  0.000000  0.504322  0.996719  1
  Rh  Rh8  1  0.000000  0.086326  0.243241  1
  Rh  Rh9  1  0.000000  0.912379  0.760765  1
  Rh  Rh10  1  0.000000  0.586999  0.260561  1
  Rh  Rh11  1  0.000000  0.411394  0.738048  1
  Rh  Rh12  1  0.500000  0.325092  0.399029  1
  Rh  Rh13  1  0.500000  0.680171  0.603696  1
  Rh  Rh14  1  0.500000  0.825412  0.103062  1
  Rh  Rh15  1  0.500000  0.182126  0.897512  1
