# generated using pymatgen
data_Dy7Co6AgSn22
_symmetry_space_group_name_H-M   'P 1'
_cell_length_a   9.68951600
_cell_length_b   9.68951549
_cell_length_c   10.00800500
_cell_angle_alpha   90.00000000
_cell_angle_beta   90.00000000
_cell_angle_gamma   119.99999490
_symmetry_Int_Tables_number   1
_chemical_formula_structural   Dy7Co6AgSn22
_chemical_formula_sum   'Dy7 Co6 Ag1 Sn22'
_cell_volume   813.73372090
_cell_formula_units_Z   1
loop_
 _symmetry_equiv_pos_site_id
 _symmetry_equiv_pos_as_xyz
  1  'x, y, z'
loop_
 _atom_site_type_symbol
 _atom_site_label
 _atom_site_symmetry_multiplicity
 _atom_site_fract_x
 _atom_site_fract_y
 _atom_site_fract_z
 _atom_site_occupancy
  Dy  Dy0  1  0.000000  0.000000  0.000000  1
  Dy  Dy1  1  0.478892  0.521108  0.306174  1
  Dy  Dy2  1  0.521108  0.478892  0.693826  1
  Dy  Dy3  1  0.478892  0.957785  0.306174  1
  Dy  Dy4  1  0.521108  0.042215  0.693826  1
  Dy  Dy5  1  0.042215  0.521108  0.306174  1
  Dy  Dy6  1  0.957785  0.478892  0.693826  1
  Co  Co7  1  0.832317  0.167683  0.197077  1
  Co  Co8  1  0.167683  0.832317  0.802923  1
  Co  Co9  1  0.832317  0.664633  0.197077  1
  Co  Co10  1  0.167683  0.335367  0.802923  1
  Co  Co11  1  0.335367  0.167683  0.197077  1
  Co  Co12  1  0.664633  0.832317  0.802923  1
  Ag  Ag13  1  0.000000  0.000000  0.500000  1
  Sn  Sn14  1  0.345347  0.000000  0.000000  1
  Sn  Sn15  1  0.654653  0.000000  0.000000  1
  Sn  Sn16  1  0.000000  0.345347  0.000000  1
  Sn  Sn17  1  0.000000  0.654653  0.000000  1
  Sn  Sn18  1  0.654653  0.654653  0.000000  1
  Sn  Sn19  1  0.345347  0.345347  0.000000  1
  Sn  Sn20  1  0.333333  0.666667  0.818817  1
  Sn  Sn21  1  0.666667  0.333333  0.181183  1
  Sn  Sn22  1  0.782279  0.217721  0.452883  1
  Sn  Sn23  1  0.217721  0.782279  0.547117  1
  Sn  Sn24  1  0.782279  0.564559  0.452883  1
  Sn  Sn25  1  0.217721  0.435441  0.547117  1
  Sn  Sn26  1  0.435441  0.217721  0.452883  1
  Sn  Sn27  1  0.564559  0.782279  0.547117  1
  Sn  Sn28  1  0.333333  0.666667  0.116936  1
  Sn  Sn29  1  0.666667  0.333333  0.883064  1
  Sn  Sn30  1  0.114886  0.885114  0.275520  1
  Sn  Sn31  1  0.885114  0.114886  0.724480  1
  Sn  Sn32  1  0.114886  0.229773  0.275520  1
  Sn  Sn33  1  0.885114  0.770227  0.724480  1
  Sn  Sn34  1  0.770227  0.885114  0.275520  1
  Sn  Sn35  1  0.229773  0.114886  0.724480  1
