# generated using pymatgen
data_CaPr(Al5Os)4
_symmetry_space_group_name_H-M   'P 1'
_cell_length_a   6.89816600
_cell_length_b   6.89816582
_cell_length_c   9.20157600
_cell_angle_alpha   90.00000000
_cell_angle_beta   90.00000000
_cell_angle_gamma   96.42995101
_symmetry_Int_Tables_number   1
_chemical_formula_structural   CaPr(Al5Os)4
_chemical_formula_sum   'Ca1 Pr1 Al20 Os4'
_cell_volume   435.09985294
_cell_formula_units_Z   1
loop_
 _symmetry_equiv_pos_site_id
 _symmetry_equiv_pos_as_xyz
  1  'x, y, z'
loop_
 _atom_site_type_symbol
 _atom_site_label
 _atom_site_symmetry_multiplicity
 _atom_site_fract_x
 _atom_site_fract_y
 _atom_site_fract_z
 _atom_site_occupancy
  Ca  Ca0  1  0.874115  0.125885  0.750000  1
  Pr  Pr1  1  0.124753  0.875247  0.250000  1
  Al  Al2  1  0.623082  0.376918  0.545446  1
  Al  Al3  1  0.377651  0.622349  0.449620  1
  Al  Al4  1  0.377651  0.622349  0.050380  1
  Al  Al5  1  0.623082  0.376918  0.954554  1
  Al  Al6  1  0.224351  0.226095  0.501304  1
  Al  Al7  1  0.773905  0.775649  0.501304  1
  Al  Al8  1  0.773905  0.775649  0.998696  1
  Al  Al9  1  0.224351  0.226095  0.998696  1
  Al  Al10  1  0.841205  0.158795  0.100398  1
  Al  Al11  1  0.160620  0.839380  0.897672  1
  Al  Al12  1  0.160620  0.839380  0.602328  1
  Al  Al13  1  0.841205  0.158795  0.399602  1
  Al  Al14  1  0.858252  0.586694  0.750000  1
  Al  Al15  1  0.142187  0.412309  0.250000  1
  Al  Al16  1  0.413306  0.141748  0.750000  1
  Al  Al17  1  0.587691  0.857813  0.250000  1
  Al  Al18  1  0.217502  0.478342  0.750000  1
  Al  Al19  1  0.779704  0.517179  0.250000  1
  Al  Al20  1  0.521658  0.782498  0.750000  1
  Al  Al21  1  0.482821  0.220296  0.250000  1
  Os  Os22  1  0.999322  0.501130  0.500868  1
  Os  Os23  1  0.999322  0.501130  0.999132  1
  Os  Os24  1  0.498870  0.000678  0.999132  1
  Os  Os25  1  0.498870  0.000678  0.500868  1
