# generated using pymatgen
data_Dy4HfAl3Ir4
_symmetry_space_group_name_H-M   'P 1'
_cell_length_a   4.35372500
_cell_length_b   6.93581793
_cell_length_c   7.97166536
_cell_angle_alpha   89.02414296
_cell_angle_beta   90.00000000
_cell_angle_gamma   90.00000000
_symmetry_Int_Tables_number   1
_chemical_formula_structural   Dy4HfAl3Ir4
_chemical_formula_sum   'Dy4 Hf1 Al3 Ir4'
_cell_volume   240.68262691
_cell_formula_units_Z   1
loop_
 _symmetry_equiv_pos_site_id
 _symmetry_equiv_pos_as_xyz
  1  'x, y, z'
loop_
 _atom_site_type_symbol
 _atom_site_label
 _atom_site_symmetry_multiplicity
 _atom_site_fract_x
 _atom_site_fract_y
 _atom_site_fract_z
 _atom_site_occupancy
  Dy  Dy0  1  0.250000  0.961654  0.314008  1
  Dy  Dy1  1  0.250000  0.477397  0.174099  1
  Dy  Dy2  1  0.750000  0.016298  0.684001  1
  Dy  Dy3  1  0.750000  0.537814  0.830479  1
  Hf  Hf4  1  0.250000  0.364245  0.566906  1
  Al  Al5  1  0.250000  0.858106  0.934300  1
  Al  Al6  1  0.750000  0.641856  0.435781  1
  Al  Al7  1  0.750000  0.141798  0.059487  1
  Ir  Ir8  1  0.250000  0.230586  0.885251  1
  Ir  Ir9  1  0.250000  0.733590  0.618172  1
  Ir  Ir10  1  0.750000  0.773851  0.116171  1
  Ir  Ir11  1  0.750000  0.262806  0.381345  1
