# generated using pymatgen
data_VHg2F6
_symmetry_space_group_name_H-M   'P 1'
_cell_length_a   5.68144560
_cell_length_b   7.09715717
_cell_length_c   4.92986735
_cell_angle_alpha   80.54618325
_cell_angle_beta   96.24483504
_cell_angle_gamma   127.98017396
_symmetry_Int_Tables_number   1
_chemical_formula_structural   VHg2F6
_chemical_formula_sum   'V1 Hg2 F6'
_cell_volume   154.54959214
_cell_formula_units_Z   1
loop_
 _symmetry_equiv_pos_site_id
 _symmetry_equiv_pos_as_xyz
  1  'x, y, z'
loop_
 _atom_site_type_symbol
 _atom_site_label
 _atom_site_symmetry_multiplicity
 _atom_site_fract_x
 _atom_site_fract_y
 _atom_site_fract_z
 _atom_site_occupancy
  V  V0  1  0.999908  0.999674  0.033214  1
  Hg  Hg1  1  0.287281  0.648368  0.521141  1
  Hg  Hg2  1  0.711955  0.356333  0.538649  1
  F  F3  1  0.309620  0.046334  0.291226  1
  F  F4  1  0.002934  0.219845  0.175796  1
  F  F5  1  0.693612  0.744449  0.290041  1
  F  F6  1  0.304251  0.253910  0.776434  1
  F  F7  1  0.997895  0.777225  0.897373  1
  F  F8  1  0.692543  0.953861  0.775210  1
