# generated using pymatgen
data_Sm2Hg3(SCl4)2
_symmetry_space_group_name_H-M   'P 1'
_cell_length_a   7.61508634
_cell_length_b   7.61508612
_cell_length_c   9.74508242
_cell_angle_alpha   64.65365462
_cell_angle_beta   64.65365510
_cell_angle_gamma   58.80759733
_symmetry_Int_Tables_number   1
_chemical_formula_structural   Sm2Hg3(SCl4)2
_chemical_formula_sum   'Sm2 Hg3 S2 Cl8'
_cell_volume   421.02650838
_cell_formula_units_Z   1
loop_
 _symmetry_equiv_pos_site_id
 _symmetry_equiv_pos_as_xyz
  1  'x, y, z'
loop_
 _atom_site_type_symbol
 _atom_site_label
 _atom_site_symmetry_multiplicity
 _atom_site_fract_x
 _atom_site_fract_y
 _atom_site_fract_z
 _atom_site_occupancy
  Sm  Sm0  1  0.138105  0.138105  0.549928  1
  Sm  Sm1  1  0.861895  0.861895  0.450072  1
  Hg  Hg2  1  0.000000  0.500000  0.000000  1
  Hg  Hg3  1  0.500000  0.000000  0.000000  1
  Hg  Hg4  1  0.500000  0.500000  0.000000  1
  S  S5  1  0.618460  0.618460  0.125798  1
  S  S6  1  0.381540  0.381540  0.874202  1
  Cl  Cl7  1  0.231232  0.768768  0.500000  1
  Cl  Cl8  1  0.768768  0.231232  0.500000  1
  Cl  Cl9  1  0.930603  0.472039  0.694370  1
  Cl  Cl10  1  0.472039  0.930603  0.694370  1
  Cl  Cl11  1  0.069397  0.527961  0.305630  1
  Cl  Cl12  1  0.527961  0.069397  0.305630  1
  Cl  Cl13  1  0.953053  0.953053  0.850042  1
  Cl  Cl14  1  0.046947  0.046947  0.149958  1
