# generated using pymatgen
data_YbHoU2F12
_symmetry_space_group_name_H-M   'P 1'
_cell_length_a   4.53516088
_cell_length_b   6.53553433
_cell_length_c   7.05480500
_cell_angle_alpha   90.00000000
_cell_angle_beta   90.00000000
_cell_angle_gamma   89.15177134
_symmetry_Int_Tables_number   1
_chemical_formula_structural   YbHoU2F12
_chemical_formula_sum   'Yb1 Ho1 U2 F12'
_cell_volume   209.07938723
_cell_formula_units_Z   1
loop_
 _symmetry_equiv_pos_site_id
 _symmetry_equiv_pos_as_xyz
  1  'x, y, z'
loop_
 _atom_site_type_symbol
 _atom_site_label
 _atom_site_symmetry_multiplicity
 _atom_site_fract_x
 _atom_site_fract_y
 _atom_site_fract_z
 _atom_site_occupancy
  Yb  Yb0  1  0.047947  0.368975  0.250000  1
  Ho  Ho1  1  0.946394  0.626554  0.750000  1
  U  U2  1  0.432091  0.861161  0.250000  1
  U  U3  1  0.555274  0.138862  0.750000  1
  F  F4  1  0.087980  0.968251  0.750000  1
  F  F5  1  0.602903  0.535695  0.250000  1
  F  F6  1  0.411735  0.488985  0.750000  1
  F  F7  1  0.905201  0.015832  0.250000  1
  F  F8  1  0.372264  0.167433  0.063852  1
  F  F9  1  0.880984  0.339979  0.931135  1
  F  F10  1  0.123334  0.660918  0.443829  1
  F  F11  1  0.628656  0.829514  0.568294  1
  F  F12  1  0.628656  0.829514  0.931706  1
  F  F13  1  0.123334  0.660918  0.056171  1
  F  F14  1  0.880984  0.339979  0.568865  1
  F  F15  1  0.372264  0.167433  0.436148  1
