# generated using pymatgen
data_Ho7(LuPt6)3
_symmetry_space_group_name_H-M   'P 1'
_cell_length_a   9.70813901
_cell_length_b   9.72205301
_cell_length_c   5.74849100
_cell_angle_alpha   90.00000000
_cell_angle_beta   90.00000000
_cell_angle_gamma   90.05229998
_symmetry_Int_Tables_number   1
_chemical_formula_structural   Ho7(LuPt6)3
_chemical_formula_sum   'Ho7 Lu3 Pt18'
_cell_volume   542.55984214
_cell_formula_units_Z   1
loop_
 _symmetry_equiv_pos_site_id
 _symmetry_equiv_pos_as_xyz
  1  'x, y, z'
loop_
 _atom_site_type_symbol
 _atom_site_label
 _atom_site_symmetry_multiplicity
 _atom_site_fract_x
 _atom_site_fract_y
 _atom_site_fract_z
 _atom_site_occupancy
  Ho  Ho0  1  0.452284  0.809808  0.000000  1
  Ho  Ho1  1  0.547677  0.190220  0.000000  1
  Ho  Ho2  1  0.190073  0.547499  0.000000  1
  Ho  Ho3  1  0.809986  0.452242  0.000000  1
  Ho  Ho4  1  0.309547  0.047878  0.500000  1
  Ho  Ho5  1  0.690224  0.952350  0.500000  1
  Ho  Ho6  1  0.952344  0.689967  0.500000  1
  Lu  Lu7  1  0.500006  0.499957  0.500000  1
  Lu  Lu8  1  0.047739  0.309812  0.500000  1
  Lu  Lu9  1  0.000030  0.000107  0.000000  1
  Pt  Pt10  1  0.190694  0.809192  0.250420  1
  Pt  Pt11  1  0.810303  0.191055  0.748916  1
  Pt  Pt12  1  0.810303  0.191055  0.251084  1
  Pt  Pt13  1  0.190694  0.809192  0.749580  1
  Pt  Pt14  1  0.440335  0.780075  0.500000  1
  Pt  Pt15  1  0.559650  0.219912  0.500000  1
  Pt  Pt16  1  0.219100  0.558605  0.500000  1
  Pt  Pt17  1  0.781316  0.440035  0.500000  1
  Pt  Pt18  1  0.308091  0.309285  0.250506  1
  Pt  Pt19  1  0.690719  0.690680  0.750339  1
  Pt  Pt20  1  0.690719  0.690680  0.249661  1
  Pt  Pt21  1  0.308091  0.309285  0.749494  1
  Pt  Pt22  1  0.280261  0.059651  0.000000  1
  Pt  Pt23  1  0.719862  0.940542  0.000000  1
  Pt  Pt24  1  0.940419  0.719866  0.000000  1
  Pt  Pt25  1  0.059466  0.280315  0.000000  1
  Pt  Pt26  1  0.000174  0.000861  0.500000  1
  Pt  Pt27  1  0.499892  0.499876  0.000000  1
