# generated using pymatgen
data_Ho4Ga6Ir2Pd5
_symmetry_space_group_name_H-M   'P 1'
_cell_length_a   7.37875637
_cell_length_b   7.38311921
_cell_length_c   7.37875724
_cell_angle_alpha   109.71844900
_cell_angle_beta   108.95371387
_cell_angle_gamma   109.71845746
_symmetry_Int_Tables_number   1
_chemical_formula_structural   Ho4Ga6Ir2Pd5
_chemical_formula_sum   'Ho4 Ga6 Ir2 Pd5'
_cell_volume   309.51985721
_cell_formula_units_Z   1
loop_
 _symmetry_equiv_pos_site_id
 _symmetry_equiv_pos_as_xyz
  1  'x, y, z'
loop_
 _atom_site_type_symbol
 _atom_site_label
 _atom_site_symmetry_multiplicity
 _atom_site_fract_x
 _atom_site_fract_y
 _atom_site_fract_z
 _atom_site_occupancy
  Ho  Ho0  1  0.996832  0.993663  0.496832  1
  Ho  Ho1  1  0.009687  0.507097  0.009687  1
  Ho  Ho2  1  0.496832  0.993663  0.996832  1
  Ho  Ho3  1  0.497410  0.507097  0.497410  1
  Ga  Ga4  1  0.678089  0.679008  0.000919  1
  Ga  Ga5  1  0.320129  0.998389  0.320129  1
  Ga  Ga6  1  0.001525  0.323530  0.322005  1
  Ga  Ga7  1  0.322005  0.323530  0.001525  1
  Ga  Ga8  1  0.678260  0.998389  0.678260  1
  Ga  Ga9  1  0.000919  0.679008  0.678089  1
  Ir  Ir10  1  0.249570  0.751207  0.501637  1
  Ir  Ir11  1  0.501637  0.751207  0.249570  1
  Pd  Pd12  1  0.749913  0.251632  0.501718  1
  Pd  Pd13  1  0.748300  0.496600  0.248300  1
  Pd  Pd14  1  0.501718  0.251632  0.749913  1
  Pd  Pd15  1  0.248300  0.496600  0.748300  1
  Pd  Pd16  1  0.998873  0.997747  0.998873  1
