# generated using pymatgen
data_Nd10Os3Pd
_symmetry_space_group_name_H-M   'P 1'
_cell_length_a   8.94088210
_cell_length_b   8.97733392
_cell_length_c   7.43060586
_cell_angle_alpha   83.59420065
_cell_angle_beta   83.46939821
_cell_angle_gamma   43.59869764
_symmetry_Int_Tables_number   1
_chemical_formula_structural   Nd10Os3Pd
_chemical_formula_sum   'Nd10 Os3 Pd1'
_cell_volume   408.25266800
_cell_formula_units_Z   1
loop_
 _symmetry_equiv_pos_site_id
 _symmetry_equiv_pos_as_xyz
  1  'x, y, z'
loop_
 _atom_site_type_symbol
 _atom_site_label
 _atom_site_symmetry_multiplicity
 _atom_site_fract_x
 _atom_site_fract_y
 _atom_site_fract_z
 _atom_site_occupancy
  Nd  Nd0  1  0.016299  0.801823  0.924462  1
  Nd  Nd1  1  0.203500  0.985544  0.584472  1
  Nd  Nd2  1  0.981579  0.201400  0.085178  1
  Nd  Nd3  1  0.788035  0.030708  0.411382  1
  Nd  Nd4  1  0.363641  0.196993  0.820291  1
  Nd  Nd5  1  0.783034  0.644167  0.684907  1
  Nd  Nd6  1  0.647570  0.788230  0.186029  1
  Nd  Nd7  1  0.208905  0.349759  0.311417  1
  Nd  Nd8  1  0.574146  0.427129  0.752005  1
  Nd  Nd9  1  0.431440  0.574678  0.241841  1
  Os  Os10  1  0.400080  0.822968  0.924278  1
  Os  Os11  1  0.821468  0.398277  0.428536  1
  Os  Os12  1  0.599432  0.179320  0.073939  1
  Pd  Pd13  1  0.180871  0.599004  0.571262  1
