# generated using pymatgen
data_Li2Yb4ZnRu5
_symmetry_space_group_name_H-M   'P 1'
_cell_length_a   5.13625223
_cell_length_b   5.24736781
_cell_length_c   9.02103500
_cell_angle_alpha   90.00000000
_cell_angle_beta   90.00000000
_cell_angle_gamma   119.30368273
_symmetry_Int_Tables_number   1
_chemical_formula_structural   Li2Yb4ZnRu5
_chemical_formula_sum   'Li2 Yb4 Zn1 Ru5'
_cell_volume   212.02132061
_cell_formula_units_Z   1
loop_
 _symmetry_equiv_pos_site_id
 _symmetry_equiv_pos_as_xyz
  1  'x, y, z'
loop_
 _atom_site_type_symbol
 _atom_site_label
 _atom_site_symmetry_multiplicity
 _atom_site_fract_x
 _atom_site_fract_y
 _atom_site_fract_z
 _atom_site_occupancy
  Li  Li0  1  0.993724  0.987518  0.498373  1
  Li  Li1  1  0.993724  0.987518  0.001627  1
  Yb  Yb2  1  0.666371  0.332747  0.569358  1
  Yb  Yb3  1  0.339241  0.678471  0.425871  1
  Yb  Yb4  1  0.339241  0.678471  0.074129  1
  Yb  Yb5  1  0.666371  0.332747  0.930642  1
  Zn  Zn6  1  0.165551  0.331087  0.750000  1
  Ru  Ru7  1  0.168911  0.830859  0.750000  1
  Ru  Ru8  1  0.661990  0.830856  0.750000  1
  Ru  Ru9  1  0.832360  0.664708  0.250000  1
  Ru  Ru10  1  0.836733  0.172521  0.250000  1
  Ru  Ru11  1  0.335782  0.172499  0.250000  1
