# generated using pymatgen
data_Hf3GaNi2N
_symmetry_space_group_name_H-M   'P 1'
_cell_length_a   8.30596998
_cell_length_b   8.30596991
_cell_length_c   8.30597000
_cell_angle_alpha   59.99999965
_cell_angle_beta   59.99999992
_cell_angle_gamma   59.99999967
_symmetry_Int_Tables_number   1
_chemical_formula_structural   Hf3GaNi2N
_chemical_formula_sum   'Hf12 Ga4 Ni8 N4'
_cell_volume   405.18752754
_cell_formula_units_Z   4
loop_
 _symmetry_equiv_pos_site_id
 _symmetry_equiv_pos_as_xyz
  1  'x, y, z'
loop_
 _atom_site_type_symbol
 _atom_site_label
 _atom_site_symmetry_multiplicity
 _atom_site_fract_x
 _atom_site_fract_y
 _atom_site_fract_z
 _atom_site_occupancy
  Hf  Hf0  1  0.808640  0.191360  0.191360  1
  Hf  Hf1  1  0.191360  0.808640  0.191360  1
  Hf  Hf2  1  0.808640  0.808640  0.191360  1
  Hf  Hf3  1  0.191360  0.808640  0.808640  1
  Hf  Hf4  1  0.808640  0.191360  0.808640  1
  Hf  Hf5  1  0.191360  0.191360  0.808640  1
  Hf  Hf6  1  0.441360  0.058640  0.058640  1
  Hf  Hf7  1  0.058640  0.441360  0.058640  1
  Hf  Hf8  1  0.441360  0.441360  0.058640  1
  Hf  Hf9  1  0.058640  0.441360  0.441360  1
  Hf  Hf10  1  0.441360  0.058640  0.441360  1
  Hf  Hf11  1  0.058640  0.058640  0.441360  1
  Ga  Ga12  1  0.625000  0.625000  0.125000  1
  Ga  Ga13  1  0.625000  0.625000  0.625000  1
  Ga  Ga14  1  0.125000  0.625000  0.625000  1
  Ga  Ga15  1  0.625000  0.125000  0.625000  1
  Ni  Ni16  1  0.414652  0.414652  0.756044  1
  Ni  Ni17  1  0.414652  0.414652  0.414652  1
  Ni  Ni18  1  0.756044  0.414652  0.414652  1
  Ni  Ni19  1  0.414652  0.756044  0.414652  1
  Ni  Ni20  1  0.835348  0.835348  0.493956  1
  Ni  Ni21  1  0.835348  0.835348  0.835348  1
  Ni  Ni22  1  0.493956  0.835348  0.835348  1
  Ni  Ni23  1  0.835348  0.493956  0.835348  1
  N  N24  1  0.125000  0.125000  0.625000  1
  N  N25  1  0.125000  0.125000  0.125000  1
  N  N26  1  0.625000  0.125000  0.125000  1
  N  N27  1  0.125000  0.625000  0.125000  1
