# generated using pymatgen
data_Zr10In5Ga2Pb
_symmetry_space_group_name_H-M   'P 1'
_cell_length_a   8.79341407
_cell_length_b   8.79341537
_cell_length_c   5.91347100
_cell_angle_alpha   90.00000000
_cell_angle_beta   90.00000000
_cell_angle_gamma   119.90708456
_symmetry_Int_Tables_number   1
_chemical_formula_structural   Zr10In5Ga2Pb
_chemical_formula_sum   'Zr10 In5 Ga2 Pb1'
_cell_volume   396.36388297
_cell_formula_units_Z   1
loop_
 _symmetry_equiv_pos_site_id
 _symmetry_equiv_pos_as_xyz
  1  'x, y, z'
loop_
 _atom_site_type_symbol
 _atom_site_label
 _atom_site_symmetry_multiplicity
 _atom_site_fract_x
 _atom_site_fract_y
 _atom_site_fract_z
 _atom_site_occupancy
  Zr  Zr0  1  0.000146  0.264665  0.250000  1
  Zr  Zr1  1  0.737867  0.000680  0.750000  1
  Zr  Zr2  1  0.737869  0.737869  0.250000  1
  Zr  Zr3  1  0.666653  0.332200  0.498359  1
  Zr  Zr4  1  0.000680  0.737867  0.750000  1
  Zr  Zr5  1  0.261740  0.261740  0.750000  1
  Zr  Zr6  1  0.332200  0.666653  0.001641  1
  Zr  Zr7  1  0.666653  0.332200  0.001641  1
  Zr  Zr8  1  0.332200  0.666653  0.498359  1
  Zr  Zr9  1  0.264665  0.000146  0.250000  1
  In  In10  1  0.615005  0.000494  0.250000  1
  In  In11  1  0.385129  0.998987  0.750000  1
  In  In12  1  0.383148  0.383148  0.250000  1
  In  In13  1  0.000494  0.615005  0.250000  1
  In  In14  1  0.998987  0.385129  0.750000  1
  Ga  Ga15  1  0.001608  0.001608  0.001853  1
  Ga  Ga16  1  0.001608  0.001608  0.498147  1
  Pb  Pb17  1  0.613345  0.613345  0.750000  1
