# generated using pymatgen
data_ZnNi2(MoO4)3
_symmetry_space_group_name_H-M   'P 1'
_cell_length_a   7.02264471
_cell_length_b   8.41960843
_cell_length_c   9.74966909
_cell_angle_alpha   95.99076303
_cell_angle_beta   106.95025266
_cell_angle_gamma   101.79198422
_symmetry_Int_Tables_number   1
_chemical_formula_structural   ZnNi2(MoO4)3
_chemical_formula_sum   'Zn2 Ni4 Mo6 O24'
_cell_volume   531.45861426
_cell_formula_units_Z   2
loop_
 _symmetry_equiv_pos_site_id
 _symmetry_equiv_pos_as_xyz
  1  'x, y, z'
loop_
 _atom_site_type_symbol
 _atom_site_label
 _atom_site_symmetry_multiplicity
 _atom_site_fract_x
 _atom_site_fract_y
 _atom_site_fract_z
 _atom_site_occupancy
  Zn  Zn0  1  0.967256  0.886979  0.711826  1
  Zn  Zn1  1  0.032744  0.113021  0.288174  1
  Ni  Ni2  1  0.253282  0.699273  0.908699  1
  Ni  Ni3  1  0.746718  0.300727  0.091301  1
  Ni  Ni4  1  0.537496  0.691786  0.492569  1
  Ni  Ni5  1  0.462504  0.308214  0.507431  1
  Mo  Mo6  1  0.505548  0.991920  0.755950  1
  Mo  Mo7  1  0.494452  0.008080  0.244050  1
  Mo  Mo8  1  0.699268  0.602309  0.841063  1
  Mo  Mo9  1  0.300732  0.397691  0.158937  1
  Mo  Mo10  1  0.977977  0.700016  0.374944  1
  Mo  Mo11  1  0.022023  0.299984  0.625056  1
  O  O12  1  0.263310  0.866148  0.763073  1
  O  O13  1  0.736690  0.133852  0.236927  1
  O  O14  1  0.555684  0.708668  0.924361  1
  O  O15  1  0.444316  0.291332  0.075639  1
  O  O16  1  0.554651  0.523944  0.648458  1
  O  O17  1  0.445349  0.476056  0.351542  1
  O  O18  1  0.550921  0.861280  0.356066  1
  O  O19  1  0.449079  0.138720  0.643934  1
  O  O20  1  0.660417  0.097384  0.930582  1
  O  O21  1  0.339583  0.902616  0.069418  1
  O  O22  1  0.650350  0.865923  0.680600  1
  O  O23  1  0.349650  0.134077  0.319400  1
  O  O24  1  0.024326  0.126248  0.717711  1
  O  O25  1  0.975674  0.873752  0.282289  1
  O  O26  1  0.046574  0.266848  0.139109  1
  O  O27  1  0.953426  0.733152  0.860891  1
  O  O28  1  0.150236  0.484865  0.752839  1
  O  O29  1  0.849764  0.515135  0.247161  1
  O  O30  1  0.145360  0.275229  0.483069  1
  O  O31  1  0.854640  0.724771  0.516931  1
  O  O32  1  0.255350  0.564041  0.069996  1
  O  O33  1  0.744650  0.435959  0.930004  1
  O  O34  1  0.237672  0.699305  0.462592  1
  O  O35  1  0.762328  0.300695  0.537408  1
