# generated using pymatgen
data_KAc(PSe3)2
_symmetry_space_group_name_H-M   'P 1'
_cell_length_a   8.01093500
_cell_length_b   7.07831190
_cell_length_c   10.57942771
_cell_angle_alpha   88.65491029
_cell_angle_beta   90.00000000
_cell_angle_gamma   90.00000000
_symmetry_Int_Tables_number   1
_chemical_formula_structural   KAc(PSe3)2
_chemical_formula_sum   'K2 Ac2 P4 Se12'
_cell_volume   599.72947071
_cell_formula_units_Z   2
loop_
 _symmetry_equiv_pos_site_id
 _symmetry_equiv_pos_as_xyz
  1  'x, y, z'
loop_
 _atom_site_type_symbol
 _atom_site_label
 _atom_site_symmetry_multiplicity
 _atom_site_fract_x
 _atom_site_fract_y
 _atom_site_fract_z
 _atom_site_occupancy
  K  K0  1  0.042910  0.301857  0.498237  1
  K  K1  1  0.542910  0.698143  0.501763  1
  Ac  Ac2  1  0.250160  0.212490  0.996039  1
  Ac  Ac3  1  0.750160  0.787510  0.003961  1
  P  P4  1  0.748908  0.309990  0.821974  1
  P  P5  1  0.248908  0.690010  0.178026  1
  P  P6  1  0.033750  0.796415  0.298341  1
  P  P7  1  0.533750  0.203585  0.701659  1
  Se  Se8  1  0.641408  0.343307  0.015842  1
  Se  Se9  1  0.121815  0.827196  0.488863  1
  Se  Se10  1  0.939243  0.079831  0.816440  1
  Se  Se11  1  0.837606  0.584932  0.271430  1
  Se  Se12  1  0.344338  0.421836  0.256970  1
  Se  Se13  1  0.337606  0.415068  0.728570  1
  Se  Se14  1  0.453364  0.941541  0.809341  1
  Se  Se15  1  0.953364  0.058459  0.190659  1
  Se  Se16  1  0.621815  0.172804  0.511137  1
  Se  Se17  1  0.141408  0.656693  0.984158  1
  Se  Se18  1  0.439243  0.920169  0.183560  1
  Se  Se19  1  0.844338  0.578164  0.743030  1
