# generated using pymatgen
data_Nd3MgCd2Ga2Ag
_symmetry_space_group_name_H-M   'P 1'
_cell_length_a   7.56271473
_cell_length_b   7.56271496
_cell_length_c   4.46267300
_cell_angle_alpha   90.00000000
_cell_angle_beta   90.00000000
_cell_angle_gamma   120.12819012
_symmetry_Int_Tables_number   1
_chemical_formula_structural   Nd3MgCd2Ga2Ag
_chemical_formula_sum   'Nd3 Mg1 Cd2 Ga2 Ag1'
_cell_volume   220.75914680
_cell_formula_units_Z   1
loop_
 _symmetry_equiv_pos_site_id
 _symmetry_equiv_pos_as_xyz
  1  'x, y, z'
loop_
 _atom_site_type_symbol
 _atom_site_label
 _atom_site_symmetry_multiplicity
 _atom_site_fract_x
 _atom_site_fract_y
 _atom_site_fract_z
 _atom_site_occupancy
  Nd  Nd0  1  0.416089  0.416089  0.500000  1
  Nd  Nd1  1  0.580063  0.000499  0.500000  1
  Nd  Nd2  1  0.000499  0.580063  0.500000  1
  Mg  Mg3  1  0.758971  0.758971  0.000000  1
  Cd  Cd4  1  0.247809  0.999518  0.000000  1
  Cd  Cd5  1  0.999518  0.247809  0.000000  1
  Ga  Ga6  1  0.666287  0.336063  0.000000  1
  Ga  Ga7  1  0.336063  0.666287  0.000000  1
  Ag  Ag8  1  0.994703  0.994703  0.500000  1
