# generated using pymatgen
data_Y8Ti11Si16Pt
_symmetry_space_group_name_H-M   'P 1'
_cell_length_a   7.05318641
_cell_length_b   7.05318543
_cell_length_c   12.87287444
_cell_angle_alpha   90.16442709
_cell_angle_beta   89.83557173
_cell_angle_gamma   89.69239064
_symmetry_Int_Tables_number   1
_chemical_formula_structural   Y8Ti11Si16Pt
_chemical_formula_sum   'Y8 Ti11 Si16 Pt1'
_cell_volume   640.37790929
_cell_formula_units_Z   1
loop_
 _symmetry_equiv_pos_site_id
 _symmetry_equiv_pos_as_xyz
  1  'x, y, z'
loop_
 _atom_site_type_symbol
 _atom_site_label
 _atom_site_symmetry_multiplicity
 _atom_site_fract_x
 _atom_site_fract_y
 _atom_site_fract_z
 _atom_site_occupancy
  Y  Y0  1  0.340469  0.003504  0.466990  1
  Y  Y1  1  0.497095  0.841442  0.717879  1
  Y  Y2  1  0.501152  0.158069  0.214625  1
  Y  Y3  1  0.841442  0.497095  0.282121  1
  Y  Y4  1  0.158069  0.501152  0.785375  1
  Y  Y5  1  0.656882  0.998782  0.968409  1
  Y  Y6  1  0.003504  0.340469  0.533010  1
  Y  Y7  1  0.998782  0.656882  0.031591  1
  Ti  Ti8  1  0.175562  0.826748  0.248610  1
  Ti  Ti9  1  0.826748  0.175562  0.751390  1
  Ti  Ti10  1  0.673260  0.673260  0.500000  1
  Ti  Ti11  1  0.148999  0.004944  0.876724  1
  Ti  Ti12  1  0.493672  0.654292  0.124292  1
  Ti  Ti13  1  0.507832  0.350225  0.627229  1
  Ti  Ti14  1  0.654292  0.493672  0.875708  1
  Ti  Ti15  1  0.350225  0.507832  0.372771  1
  Ti  Ti16  1  0.849552  0.992959  0.374796  1
  Ti  Ti17  1  0.004944  0.148999  0.123276  1
  Ti  Ti18  1  0.992959  0.849552  0.625204  1
  Si  Si19  1  0.201911  0.132351  0.685714  1
  Si  Si20  1  0.372883  0.708997  0.932824  1
  Si  Si21  1  0.631013  0.294982  0.433858  1
  Si  Si22  1  0.708997  0.372883  0.067176  1
  Si  Si23  1  0.294982  0.631013  0.566142  1
  Si  Si24  1  0.796994  0.868568  0.183910  1
  Si  Si25  1  0.132351  0.201911  0.314286  1
  Si  Si26  1  0.868568  0.796994  0.816090  1
  Si  Si27  1  0.285578  0.945116  0.064446  1
  Si  Si28  1  0.547430  0.791323  0.315062  1
  Si  Si29  1  0.450360  0.209809  0.815058  1
  Si  Si30  1  0.791323  0.547430  0.684938  1
  Si  Si31  1  0.209809  0.450360  0.184942  1
  Si  Si32  1  0.709044  0.047948  0.565337  1
  Si  Si33  1  0.945116  0.285578  0.935554  1
  Si  Si34  1  0.047948  0.709044  0.434663  1
  Pt  Pt35  1  0.330253  0.330253  0.000000  1
