# generated using pymatgen
data_Tb4FeRu6W
_symmetry_space_group_name_H-M   'P 1'
_cell_length_a   5.18266598
_cell_length_b   5.18266553
_cell_length_c   9.02839100
_cell_angle_alpha   90.00000000
_cell_angle_beta   90.00000000
_cell_angle_gamma   115.74632595
_symmetry_Int_Tables_number   1
_chemical_formula_structural   Tb4FeRu6W
_chemical_formula_sum   'Tb4 Fe1 Ru6 W1'
_cell_volume   218.42860183
_cell_formula_units_Z   1
loop_
 _symmetry_equiv_pos_site_id
 _symmetry_equiv_pos_as_xyz
  1  'x, y, z'
loop_
 _atom_site_type_symbol
 _atom_site_label
 _atom_site_symmetry_multiplicity
 _atom_site_fract_x
 _atom_site_fract_y
 _atom_site_fract_z
 _atom_site_occupancy
  Tb  Tb0  1  0.326753  0.673247  0.437343  1
  Tb  Tb1  1  0.667665  0.332335  0.569220  1
  Tb  Tb2  1  0.667665  0.332335  0.930780  1
  Tb  Tb3  1  0.326753  0.673247  0.062657  1
  Fe  Fe4  1  0.162285  0.837715  0.750000  1
  Ru  Ru5  1  0.993671  0.006329  0.503364  1
  Ru  Ru6  1  0.993671  0.006329  0.996636  1
  Ru  Ru7  1  0.829434  0.642891  0.250000  1
  Ru  Ru8  1  0.357109  0.170566  0.250000  1
  Ru  Ru9  1  0.175352  0.347913  0.750000  1
  Ru  Ru10  1  0.652087  0.824648  0.750000  1
  W  W11  1  0.847556  0.152444  0.250000  1
