# generated using pymatgen
data_Nb3Re2Si2BW
_symmetry_space_group_name_H-M   'P 1'
_cell_length_a   6.80563400
_cell_length_b   6.78889028
_cell_length_c   3.24977500
_cell_angle_alpha   90.00000000
_cell_angle_beta   90.00000000
_cell_angle_gamma   120.08161949
_symmetry_Int_Tables_number   1
_chemical_formula_structural   Nb3Re2Si2BW
_chemical_formula_sum   'Nb3 Re2 Si2 B1 W1'
_cell_volume   129.92524077
_cell_formula_units_Z   1
loop_
 _symmetry_equiv_pos_site_id
 _symmetry_equiv_pos_as_xyz
  1  'x, y, z'
loop_
 _atom_site_type_symbol
 _atom_site_label
 _atom_site_symmetry_multiplicity
 _atom_site_fract_x
 _atom_site_fract_y
 _atom_site_fract_z
 _atom_site_occupancy
  Nb  Nb0  1  0.394507  0.000000  0.500000  1
  Nb  Nb1  1  0.995683  0.390488  0.500000  1
  Nb  Nb2  1  0.605195  0.609512  0.500000  1
  Re  Re3  1  0.001321  0.758044  0.000000  1
  Re  Re4  1  0.243277  0.241956  0.000000  1
  Si  Si5  1  0.329911  0.663739  0.000000  1
  Si  Si6  1  0.666173  0.336261  0.000000  1
  B  B7  1  0.004197  0.000000  0.500000  1
  W  W8  1  0.759737  0.000000  0.000000  1
