# generated using pymatgen
data_Sr6BiIrO12
_symmetry_space_group_name_H-M   'P 1'
_cell_length_a   7.00745065
_cell_length_b   7.00745237
_cell_length_c   7.00745127
_cell_angle_alpha   92.08784773
_cell_angle_beta   92.08784343
_cell_angle_gamma   92.08783806
_symmetry_Int_Tables_number   1
_chemical_formula_structural   Sr6BiIrO12
_chemical_formula_sum   'Sr6 Bi1 Ir1 O12'
_cell_volume   343.39410911
_cell_formula_units_Z   1
loop_
 _symmetry_equiv_pos_site_id
 _symmetry_equiv_pos_as_xyz
  1  'x, y, z'
loop_
 _atom_site_type_symbol
 _atom_site_label
 _atom_site_symmetry_multiplicity
 _atom_site_fract_x
 _atom_site_fract_y
 _atom_site_fract_z
 _atom_site_occupancy
  Sr  Sr0  1  0.065324  0.254950  0.565152  1
  Sr  Sr1  1  0.434848  0.934676  0.745050  1
  Sr  Sr2  1  0.745050  0.434848  0.934676  1
  Sr  Sr3  1  0.254950  0.565152  0.065324  1
  Sr  Sr4  1  0.565152  0.065324  0.254950  1
  Sr  Sr5  1  0.934676  0.745050  0.434848  1
  Bi  Bi6  1  0.000000  0.000000  0.000000  1
  Ir  Ir7  1  0.500000  0.500000  0.500000  1
  O  O8  1  0.067800  0.292631  0.928947  1
  O  O9  1  0.071053  0.932200  0.707369  1
  O  O10  1  0.454344  0.571855  0.764257  1
  O  O11  1  0.707369  0.071053  0.932200  1
  O  O12  1  0.235743  0.545656  0.428145  1
  O  O13  1  0.428145  0.235743  0.545656  1
  O  O14  1  0.571855  0.764257  0.454344  1
  O  O15  1  0.764257  0.454344  0.571855  1
  O  O16  1  0.292631  0.928947  0.067800  1
  O  O17  1  0.545656  0.428145  0.235743  1
  O  O18  1  0.928947  0.067800  0.292631  1
  O  O19  1  0.932200  0.707369  0.071053  1
