# generated using pymatgen
data_PrHo2Fe(Co4P3)2
_symmetry_space_group_name_H-M   'P 1'
_cell_length_a   3.71693100
_cell_length_b   10.56632400
_cell_length_c   12.23974800
_cell_angle_alpha   90.00000000
_cell_angle_beta   90.00000000
_cell_angle_gamma   90.00000000
_symmetry_Int_Tables_number   1
_chemical_formula_structural   PrHo2Fe(Co4P3)2
_chemical_formula_sum   'Pr2 Ho4 Fe2 Co16 P12'
_cell_volume   480.70750099
_cell_formula_units_Z   2
loop_
 _symmetry_equiv_pos_site_id
 _symmetry_equiv_pos_as_xyz
  1  'x, y, z'
loop_
 _atom_site_type_symbol
 _atom_site_label
 _atom_site_symmetry_multiplicity
 _atom_site_fract_x
 _atom_site_fract_y
 _atom_site_fract_z
 _atom_site_occupancy
  Pr  Pr0  1  0.000000  0.500000  0.522579  1
  Pr  Pr1  1  0.500000  0.000000  0.477421  1
  Ho  Ho2  1  0.500000  0.817675  0.203920  1
  Ho  Ho3  1  0.500000  0.182325  0.203920  1
  Ho  Ho4  1  0.000000  0.682325  0.796080  1
  Ho  Ho5  1  0.000000  0.317675  0.796080  1
  Fe  Fe6  1  0.500000  0.500000  0.155076  1
  Fe  Fe7  1  0.000000  0.000000  0.844924  1
  Co  Co8  1  0.000000  0.500000  0.986817  1
  Co  Co9  1  0.500000  0.000000  0.013183  1
  Co  Co10  1  0.500000  0.296212  0.428701  1
  Co  Co11  1  0.500000  0.703788  0.428701  1
  Co  Co12  1  0.000000  0.203788  0.571299  1
  Co  Co13  1  0.000000  0.796212  0.571299  1
  Co  Co14  1  0.500000  0.879202  0.712886  1
  Co  Co15  1  0.500000  0.120798  0.712886  1
  Co  Co16  1  0.000000  0.620798  0.287114  1
  Co  Co17  1  0.000000  0.379202  0.287114  1
  Co  Co18  1  0.500000  0.332922  0.994751  1
  Co  Co19  1  0.500000  0.667078  0.994751  1
  Co  Co20  1  0.000000  0.167078  0.005249  1
  Co  Co21  1  0.000000  0.832922  0.005249  1
  Co  Co22  1  0.500000  0.500000  0.706633  1
  Co  Co23  1  0.000000  0.000000  0.293367  1
  P  P24  1  0.500000  0.306551  0.618348  1
  P  P25  1  0.500000  0.693449  0.618348  1
  P  P26  1  0.000000  0.193449  0.381652  1
  P  P27  1  0.000000  0.806551  0.381652  1
  P  P28  1  0.500000  0.500000  0.884059  1
  P  P29  1  0.000000  0.000000  0.115941  1
  P  P30  1  0.500000  0.846498  0.893936  1
  P  P31  1  0.500000  0.153502  0.893936  1
  P  P32  1  0.000000  0.653502  0.106064  1
  P  P33  1  0.000000  0.346498  0.106064  1
  P  P34  1  0.500000  0.500000  0.338001  1
  P  P35  1  0.000000  0.000000  0.661999  1
