# generated using pymatgen
data_Tm12TlCo6
_symmetry_space_group_name_H-M   'P 1'
_cell_length_a   8.24249285
_cell_length_b   8.24249403
_cell_length_c   8.24249200
_cell_angle_alpha   109.47121319
_cell_angle_beta   109.47121609
_cell_angle_gamma   109.47123270
_symmetry_Int_Tables_number   1
_chemical_formula_structural   Tm12TlCo6
_chemical_formula_sum   'Tm12 Tl1 Co6'
_cell_volume   431.07601896
_cell_formula_units_Z   1
loop_
 _symmetry_equiv_pos_site_id
 _symmetry_equiv_pos_as_xyz
  1  'x, y, z'
loop_
 _atom_site_type_symbol
 _atom_site_label
 _atom_site_symmetry_multiplicity
 _atom_site_fract_x
 _atom_site_fract_y
 _atom_site_fract_z
 _atom_site_occupancy
  Tm  Tm0  1  0.301873  0.495577  0.193703  1
  Tm  Tm1  1  0.806297  0.698127  0.504423  1
  Tm  Tm2  1  0.108167  0.806297  0.301873  1
  Tm  Tm3  1  0.806297  0.301873  0.108167  1
  Tm  Tm4  1  0.891833  0.193703  0.698127  1
  Tm  Tm5  1  0.193703  0.301873  0.495577  1
  Tm  Tm6  1  0.495577  0.193703  0.301873  1
  Tm  Tm7  1  0.504423  0.806297  0.698127  1
  Tm  Tm8  1  0.193703  0.698127  0.891833  1
  Tm  Tm9  1  0.301873  0.108167  0.806297  1
  Tm  Tm10  1  0.698127  0.891833  0.193703  1
  Tm  Tm11  1  0.698127  0.504423  0.806297  1
  Tl  Tl12  1  0.000000  0.000000  0.000000  1
  Co  Co13  1  0.614281  0.500000  0.114281  1
  Co  Co14  1  0.114281  0.614281  0.500000  1
  Co  Co15  1  0.500000  0.885719  0.385719  1
  Co  Co16  1  0.885719  0.385719  0.500000  1
  Co  Co17  1  0.500000  0.114281  0.614281  1
  Co  Co18  1  0.385719  0.500000  0.885719  1
