# generated using pymatgen
data_Ce(FeSb3)5
_symmetry_space_group_name_H-M   'P 1'
_cell_length_a   15.17706930
_cell_length_b   15.17706936
_cell_length_c   15.17707000
_cell_angle_alpha   50.44522314
_cell_angle_beta   50.44522294
_cell_angle_gamma   50.44522358
_symmetry_Int_Tables_number   1
_chemical_formula_structural   Ce(FeSb3)5
_chemical_formula_sum   'Ce4 Fe20 Sb60'
_cell_volume   1914.48046544
_cell_formula_units_Z   4
loop_
 _symmetry_equiv_pos_site_id
 _symmetry_equiv_pos_as_xyz
  1  'x, y, z'
loop_
 _atom_site_type_symbol
 _atom_site_label
 _atom_site_symmetry_multiplicity
 _atom_site_fract_x
 _atom_site_fract_y
 _atom_site_fract_z
 _atom_site_occupancy
  Ce  Ce0  1  0.201151  0.201151  0.201151  1
  Ce  Ce1  1  0.399788  0.399788  0.399788  1
  Ce  Ce2  1  0.600212  0.600212  0.600212  1
  Ce  Ce3  1  0.798849  0.798849  0.798849  1
  Fe  Fe4  1  0.100866  0.100866  0.100866  1
  Fe  Fe5  1  0.500000  0.000000  0.000000  1
  Fe  Fe6  1  0.000000  0.500000  0.000000  1
  Fe  Fe7  1  0.299898  0.299898  0.299898  1
  Fe  Fe8  1  0.697580  0.201599  0.201719  1
  Fe  Fe9  1  0.201719  0.697580  0.201599  1
  Fe  Fe10  1  0.600240  0.599954  0.100110  1
  Fe  Fe11  1  0.500000  0.500000  0.500000  1
  Fe  Fe12  1  0.899890  0.399760  0.400046  1
  Fe  Fe13  1  0.400046  0.899890  0.399760  1
  Fe  Fe14  1  0.798401  0.798281  0.302420  1
  Fe  Fe15  1  0.700102  0.700102  0.700102  1
  Fe  Fe16  1  0.100110  0.600240  0.599954  1
  Fe  Fe17  1  0.599954  0.100110  0.600240  1
  Fe  Fe18  1  0.000000  0.000000  0.500000  1
  Fe  Fe19  1  0.899134  0.899134  0.899134  1
  Fe  Fe20  1  0.302420  0.798401  0.798281  1
  Fe  Fe21  1  0.798281  0.302420  0.798401  1
  Fe  Fe22  1  0.201599  0.201719  0.697580  1
  Fe  Fe23  1  0.399760  0.400046  0.899890  1
  Sb  Sb24  1  0.503297  0.164868  0.002393  1
  Sb  Sb25  1  0.262124  0.438544  0.099762  1
  Sb  Sb26  1  0.193245  0.707195  0.033175  1
  Sb  Sb27  1  0.499294  0.336201  0.165687  1
  Sb  Sb28  1  0.434354  0.597258  0.100381  1
  Sb  Sb29  1  0.229007  0.902856  0.062687  1
  Sb  Sb30  1  0.699880  0.365937  0.202633  1
  Sb  Sb31  1  0.463527  0.634570  0.300406  1
  Sb  Sb32  1  0.966048  0.299470  0.136200  1
  Sb  Sb33  1  0.765895  0.603067  0.099133  1
  Sb  Sb34  1  0.396933  0.900867  0.234105  1
  Sb  Sb35  1  0.700530  0.863800  0.033952  1
  Sb  Sb36  1  0.699594  0.536473  0.365430  1
  Sb  Sb37  1  0.002393  0.503297  0.164868  1
  Sb  Sb38  1  0.634063  0.797367  0.300120  1
  Sb  Sb39  1  0.438544  0.099762  0.262124  1
  Sb  Sb40  1  0.937313  0.770993  0.097144  1
  Sb  Sb41  1  0.899619  0.565646  0.402742  1
  Sb  Sb42  1  0.707195  0.033175  0.193245  1
  Sb  Sb43  1  0.663799  0.834313  0.500706  1
  Sb  Sb44  1  0.165687  0.499294  0.336201  1
  Sb  Sb45  1  0.966825  0.806755  0.292805  1
  Sb  Sb46  1  0.597258  0.100381  0.434354  1
  Sb  Sb47  1  0.902856  0.062687  0.229007  1
  Sb  Sb48  1  0.900238  0.737876  0.561456  1
  Sb  Sb49  1  0.202633  0.699880  0.365937  1
  Sb  Sb50  1  0.835132  0.997607  0.496703  1
  Sb  Sb51  1  0.634570  0.300406  0.463527  1
  Sb  Sb52  1  0.136200  0.966048  0.299470  1
  Sb  Sb53  1  0.099133  0.765895  0.603067  1
  Sb  Sb54  1  0.900867  0.234105  0.396933  1
  Sb  Sb55  1  0.863800  0.033952  0.700530  1
  Sb  Sb56  1  0.365430  0.699594  0.536473  1
  Sb  Sb57  1  0.164868  0.002393  0.503297  1
  Sb  Sb58  1  0.797367  0.300120  0.634063  1
  Sb  Sb59  1  0.099762  0.262124  0.438544  1
  Sb  Sb60  1  0.097144  0.937313  0.770993  1
  Sb  Sb61  1  0.402742  0.899619  0.565646  1
  Sb  Sb62  1  0.033175  0.193245  0.707195  1
  Sb  Sb63  1  0.834313  0.500706  0.663799  1
  Sb  Sb64  1  0.336201  0.165687  0.499294  1
  Sb  Sb65  1  0.292805  0.966825  0.806755  1
  Sb  Sb66  1  0.100381  0.434354  0.597258  1
  Sb  Sb67  1  0.062687  0.229007  0.902856  1
  Sb  Sb68  1  0.561456  0.900238  0.737876  1
  Sb  Sb69  1  0.365937  0.202633  0.699880  1
  Sb  Sb70  1  0.997607  0.496703  0.835132  1
  Sb  Sb71  1  0.300406  0.463527  0.634570  1
  Sb  Sb72  1  0.299470  0.136200  0.966048  1
  Sb  Sb73  1  0.603067  0.099133  0.765895  1
  Sb  Sb74  1  0.234105  0.396933  0.900867  1
  Sb  Sb75  1  0.033952  0.700530  0.863800  1
  Sb  Sb76  1  0.536473  0.365430  0.699594  1
  Sb  Sb77  1  0.300120  0.634063  0.797367  1
  Sb  Sb78  1  0.770993  0.097144  0.937313  1
  Sb  Sb79  1  0.565646  0.402742  0.899619  1
  Sb  Sb80  1  0.500706  0.663799  0.834313  1
  Sb  Sb81  1  0.806755  0.292805  0.966825  1
  Sb  Sb82  1  0.737876  0.561456  0.900238  1
  Sb  Sb83  1  0.496703  0.835132  0.997607  1
