# generated using pymatgen
data_Er6Tm6Co4NiSn
_symmetry_space_group_name_H-M   'P 1'
_cell_length_a   8.18023855
_cell_length_b   8.18356823
_cell_length_c   8.18354482
_cell_angle_alpha   110.87885051
_cell_angle_beta   110.79694801
_cell_angle_gamma   106.78837346
_symmetry_Int_Tables_number   1
_chemical_formula_structural   Er6Tm6Co4NiSn
_chemical_formula_sum   'Er6 Tm6 Co4 Ni1 Sn1'
_cell_volume   420.94026406
_cell_formula_units_Z   1
loop_
 _symmetry_equiv_pos_site_id
 _symmetry_equiv_pos_as_xyz
  1  'x, y, z'
loop_
 _atom_site_type_symbol
 _atom_site_label
 _atom_site_symmetry_multiplicity
 _atom_site_fract_x
 _atom_site_fract_y
 _atom_site_fract_z
 _atom_site_occupancy
  Er  Er0  1  0.016240  0.213104  0.803159  1
  Er  Er1  1  0.983760  0.786896  0.196841  1
  Er  Er2  1  0.185995  0.290008  0.475398  1
  Er  Er3  1  0.814005  0.709992  0.524602  1
  Er  Er4  1  0.185998  0.710595  0.895968  1
  Er  Er5  1  0.814002  0.289405  0.104032  1
  Tm  Tm6  1  0.315031  0.620163  0.306092  1
  Tm  Tm7  1  0.684969  0.379838  0.693908  1
  Tm  Tm8  1  0.315030  0.008936  0.694866  1
  Tm  Tm9  1  0.684970  0.991064  0.305134  1
  Tm  Tm10  1  0.410507  0.213450  0.197062  1
  Tm  Tm11  1  0.589493  0.786550  0.802938  1
  Co  Co12  1  0.113919  0.613313  0.500603  1
  Co  Co13  1  0.886082  0.386688  0.499397  1
  Co  Co14  1  0.375979  0.000341  0.375643  1
  Co  Co15  1  0.624021  0.999659  0.624357  1
  Ni  Ni16  1  0.000000  0.000000  0.000000  1
  Sn  Sn17  1  0.500000  0.500000  0.000000  1
