# generated using pymatgen
data_Y4Al18RuPt2Rh3
_symmetry_space_group_name_H-M   'P 1'
_cell_length_a   7.57396162
_cell_length_b   7.57396243
_cell_length_c   9.47942555
_cell_angle_alpha   89.92248949
_cell_angle_beta   89.92249155
_cell_angle_gamma   119.53239276
_symmetry_Int_Tables_number   1
_chemical_formula_structural   Y4Al18RuPt2Rh3
_chemical_formula_sum   'Y4 Al18 Ru1 Pt2 Rh3'
_cell_volume   473.13433679
_cell_formula_units_Z   1
loop_
 _symmetry_equiv_pos_site_id
 _symmetry_equiv_pos_as_xyz
  1  'x, y, z'
loop_
 _atom_site_type_symbol
 _atom_site_label
 _atom_site_symmetry_multiplicity
 _atom_site_fract_x
 _atom_site_fract_y
 _atom_site_fract_z
 _atom_site_occupancy
  Y  Y0  1  0.994758  0.670315  0.249528  1
  Y  Y1  1  0.005242  0.329685  0.750472  1
  Y  Y2  1  0.670315  0.994758  0.249528  1
  Y  Y3  1  0.329685  0.005242  0.750472  1
  Al  Al4  1  0.125805  0.125805  0.249889  1
  Al  Al5  1  0.874195  0.874195  0.750111  1
  Al  Al6  1  0.001218  0.329544  0.076550  1
  Al  Al7  1  0.998782  0.670456  0.923450  1
  Al  Al8  1  0.000274  0.665157  0.574404  1
  Al  Al9  1  0.334843  0.999726  0.425596  1
  Al  Al10  1  0.999726  0.334843  0.425596  1
  Al  Al11  1  0.665157  0.000274  0.574404  1
  Al  Al12  1  0.670456  0.998782  0.923450  1
  Al  Al13  1  0.329544  0.001218  0.076550  1
  Al  Al14  1  0.332349  0.332349  0.550194  1
  Al  Al15  1  0.667651  0.667651  0.449806  1
  Al  Al16  1  0.671077  0.671077  0.054803  1
  Al  Al17  1  0.328923  0.328923  0.945197  1
  Al  Al18  1  0.340711  0.547413  0.253694  1
  Al  Al19  1  0.659289  0.452587  0.746306  1
  Al  Al20  1  0.547413  0.340711  0.253694  1
  Al  Al21  1  0.452587  0.659289  0.746306  1
  Ru  Ru22  1  0.000000  0.000000  0.000000  1
  Pt  Pt23  1  0.672029  0.327971  0.000000  1
  Pt  Pt24  1  0.327971  0.672029  0.000000  1
  Rh  Rh25  1  0.328153  0.671847  0.500000  1
  Rh  Rh26  1  0.671847  0.328153  0.500000  1
  Rh  Rh27  1  0.000000  0.000000  0.500000  1
