# generated using pymatgen
data_Ho3Tm17(Zn3Ru)2
_symmetry_space_group_name_H-M   'P 1'
_cell_length_a   9.29282700
_cell_length_b   9.29284165
_cell_length_c   9.51534400
_cell_angle_alpha   90.00054438
_cell_angle_beta   89.99916068
_cell_angle_gamma   120.00010414
_symmetry_Int_Tables_number   1
_chemical_formula_structural   Ho3Tm17(Zn3Ru)2
_chemical_formula_sum   'Ho3 Tm17 Zn6 Ru2'
_cell_volume   711.62477366
_cell_formula_units_Z   1
loop_
 _symmetry_equiv_pos_site_id
 _symmetry_equiv_pos_as_xyz
  1  'x, y, z'
loop_
 _atom_site_type_symbol
 _atom_site_label
 _atom_site_symmetry_multiplicity
 _atom_site_fract_x
 _atom_site_fract_y
 _atom_site_fract_z
 _atom_site_occupancy
  Ho  Ho0  1  0.459012  0.540982  0.750002  1
  Ho  Ho1  1  0.459011  0.918022  0.749998  1
  Ho  Ho2  1  0.081965  0.540980  0.749996  1
  Tm  Tm3  1  0.000014  0.000009  0.499983  1
  Tm  Tm4  1  0.000004  0.000003  0.000019  1
  Tm  Tm5  1  0.207772  0.792227  0.441808  1
  Tm  Tm6  1  0.207771  0.415548  0.441805  1
  Tm  Tm7  1  0.584450  0.792226  0.441811  1
  Tm  Tm8  1  0.792170  0.207832  0.557774  1
  Tm  Tm9  1  0.792168  0.584337  0.557778  1
  Tm  Tm10  1  0.415665  0.207834  0.557778  1
  Tm  Tm11  1  0.792168  0.207831  0.942229  1
  Tm  Tm12  1  0.792168  0.584338  0.942223  1
  Tm  Tm13  1  0.415665  0.207836  0.942224  1
  Tm  Tm14  1  0.207776  0.792233  0.058192  1
  Tm  Tm15  1  0.207769  0.415535  0.058191  1
  Tm  Tm16  1  0.584459  0.792230  0.058194  1
  Tm  Tm17  1  0.541168  0.458821  0.250001  1
  Tm  Tm18  1  0.541174  0.082346  0.250001  1
  Tm  Tm19  1  0.917652  0.458832  0.249998  1
  Zn  Zn20  1  0.885789  0.114208  0.249999  1
  Zn  Zn21  1  0.885790  0.771581  0.250000  1
  Zn  Zn22  1  0.228416  0.114209  0.250000  1
  Zn  Zn23  1  0.114057  0.885945  0.749999  1
  Zn  Zn24  1  0.114056  0.228112  0.750000  1
  Zn  Zn25  1  0.771887  0.885943  0.750001  1
  Ru  Ru26  1  0.333340  0.666672  0.249995  1
  Ru  Ru27  1  0.666662  0.333328  0.750002  1
