# generated using pymatgen
data_CsUTa6Cl18
_symmetry_space_group_name_H-M   'P 1'
_cell_length_a   10.37544146
_cell_length_b   10.37544145
_cell_length_c   10.37544100
_cell_angle_alpha   55.36576152
_cell_angle_beta   55.36576157
_cell_angle_gamma   55.36576905
_symmetry_Int_Tables_number   1
_chemical_formula_structural   CsUTa6Cl18
_chemical_formula_sum   'Cs1 U1 Ta6 Cl18'
_cell_volume   704.74970228
_cell_formula_units_Z   1
loop_
 _symmetry_equiv_pos_site_id
 _symmetry_equiv_pos_as_xyz
  1  'x, y, z'
loop_
 _atom_site_type_symbol
 _atom_site_label
 _atom_site_symmetry_multiplicity
 _atom_site_fract_x
 _atom_site_fract_y
 _atom_site_fract_z
 _atom_site_occupancy
  Cs  Cs0  1  0.223607  0.223530  0.223674  1
  U  U1  1  0.498684  0.498610  0.498692  1
  Ta  Ta2  1  0.807787  0.145140  0.912539  1
  Ta  Ta3  1  0.912621  0.807592  0.145121  1
  Ta  Ta4  1  0.145418  0.912620  0.807440  1
  Ta  Ta5  1  0.193246  0.854921  0.086369  1
  Ta  Ta6  1  0.086320  0.193463  0.854903  1
  Ta  Ta7  1  0.854601  0.086298  0.193610  1
  Cl  Cl8  1  0.870613  0.404967  0.726503  1
  Cl  Cl9  1  0.726500  0.870392  0.404901  1
  Cl  Cl10  1  0.405025  0.726379  0.870664  1
  Cl  Cl11  1  0.128216  0.595238  0.275483  1
  Cl  Cl12  1  0.275526  0.128416  0.595288  1
  Cl  Cl13  1  0.595200  0.275628  0.128227  1
  Cl  Cl14  1  0.551811  0.331940  0.800333  1
  Cl  Cl15  1  0.800871  0.550675  0.333220  1
  Cl  Cl16  1  0.334213  0.801395  0.549882  1
  Cl  Cl17  1  0.445396  0.670257  0.201139  1
  Cl  Cl18  1  0.200438  0.446737  0.668589  1
  Cl  Cl19  1  0.667968  0.199857  0.447509  1
  Cl  Cl20  1  0.666607  0.941985  0.068113  1
  Cl  Cl21  1  0.068349  0.666544  0.941752  1
  Cl  Cl22  1  0.942433  0.067950  0.666467  1
  Cl  Cl23  1  0.336443  0.056497  0.927429  1
  Cl  Cl24  1  0.927245  0.336486  0.056692  1
  Cl  Cl25  1  0.056001  0.927623  0.336602  1
