# generated using pymatgen
data_Er7Lu3InSb5
_symmetry_space_group_name_H-M   'P 1'
_cell_length_a   8.85477772
_cell_length_b   8.85393505
_cell_length_c   6.30136523
_cell_angle_alpha   90.03102908
_cell_angle_beta   89.98206513
_cell_angle_gamma   119.89994376
_symmetry_Int_Tables_number   1
_chemical_formula_structural   Er7Lu3InSb5
_chemical_formula_sum   'Er7 Lu3 In1 Sb5'
_cell_volume   428.26856956
_cell_formula_units_Z   1
loop_
 _symmetry_equiv_pos_site_id
 _symmetry_equiv_pos_as_xyz
  1  'x, y, z'
loop_
 _atom_site_type_symbol
 _atom_site_label
 _atom_site_symmetry_multiplicity
 _atom_site_fract_x
 _atom_site_fract_y
 _atom_site_fract_z
 _atom_site_occupancy
  Er  Er0  1  0.003676  0.759066  0.750023  1
  Er  Er1  1  0.998265  0.243558  0.250114  1
  Er  Er2  1  0.754608  0.756438  0.250004  1
  Er  Er3  1  0.757526  0.999958  0.750153  1
  Er  Er4  1  0.244895  0.241290  0.749703  1
  Er  Er5  1  0.242114  0.999890  0.250185  1
  Er  Er6  1  0.333789  0.668850  0.000590  1
  Lu  Lu7  1  0.333680  0.668993  0.499918  1
  Lu  Lu8  1  0.664751  0.330662  0.000308  1
  Lu  Lu9  1  0.664919  0.330966  0.499619  1
  In  In10  1  0.395690  0.000782  0.749070  1
  Sb  Sb11  1  0.389953  0.390774  0.250537  1
  Sb  Sb12  1  0.997356  0.608122  0.250464  1
  Sb  Sb13  1  0.000098  0.391087  0.749231  1
  Sb  Sb14  1  0.610697  0.608948  0.749473  1
  Sb  Sb15  1  0.607980  0.000615  0.250610  1
