# generated using pymatgen
data_Er6Lu4CoBi5
_symmetry_space_group_name_H-M   'P 1'
_cell_length_a   7.96701800
_cell_length_b   9.28772100
_cell_length_c   11.99990600
_cell_angle_alpha   90.00000000
_cell_angle_beta   90.00000000
_cell_angle_gamma   90.00000000
_symmetry_Int_Tables_number   1
_chemical_formula_structural   Er6Lu4CoBi5
_chemical_formula_sum   'Er12 Lu8 Co2 Bi10'
_cell_volume   887.93832906
_cell_formula_units_Z   2
loop_
 _symmetry_equiv_pos_site_id
 _symmetry_equiv_pos_as_xyz
  1  'x, y, z'
loop_
 _atom_site_type_symbol
 _atom_site_label
 _atom_site_symmetry_multiplicity
 _atom_site_fract_x
 _atom_site_fract_y
 _atom_site_fract_z
 _atom_site_occupancy
  Er  Er0  1  0.572940  0.500000  0.772351  1
  Er  Er1  1  0.427060  0.500000  0.272351  1
  Er  Er2  1  0.907572  0.000000  0.201030  1
  Er  Er3  1  0.092428  0.000000  0.701030  1
  Er  Er4  1  0.260530  0.500000  0.993798  1
  Er  Er5  1  0.739470  0.500000  0.493798  1
  Er  Er6  1  0.198245  0.000000  0.996762  1
  Er  Er7  1  0.801755  0.000000  0.496762  1
  Er  Er8  1  0.089836  0.500000  0.718282  1
  Er  Er9  1  0.910164  0.500000  0.218282  1
  Er  Er10  1  0.372343  0.000000  0.308990  1
  Er  Er11  1  0.627657  0.000000  0.808990  1
  Lu  Lu12  1  0.426879  0.174877  0.562909  1
  Lu  Lu13  1  0.573121  0.825123  0.062909  1
  Lu  Lu14  1  0.070338  0.728959  0.436446  1
  Lu  Lu15  1  0.929662  0.271041  0.936446  1
  Lu  Lu16  1  0.070338  0.271041  0.436446  1
  Lu  Lu17  1  0.929662  0.728959  0.936446  1
  Lu  Lu18  1  0.426879  0.825123  0.562909  1
  Lu  Lu19  1  0.573121  0.174877  0.062909  1
  Co  Co20  1  0.171657  0.000000  0.488032  1
  Co  Co21  1  0.828343  0.000000  0.988032  1
  Bi  Bi22  1  0.813339  0.741154  0.672390  1
  Bi  Bi23  1  0.186661  0.258846  0.172390  1
  Bi  Bi24  1  0.680209  0.242026  0.325201  1
  Bi  Bi25  1  0.319791  0.757974  0.825201  1
  Bi  Bi26  1  0.680209  0.757974  0.325201  1
  Bi  Bi27  1  0.319791  0.242026  0.825201  1
  Bi  Bi28  1  0.813339  0.258846  0.672390  1
  Bi  Bi29  1  0.186661  0.741154  0.172390  1
  Bi  Bi30  1  0.345901  0.500000  0.526867  1
  Bi  Bi31  1  0.654099  0.500000  0.026867  1
