# generated using pymatgen
data_Gd3Ho(TcB4)4
_symmetry_space_group_name_H-M   'P 1'
_cell_length_a   3.61271400
_cell_length_b   5.98747482
_cell_length_c   11.58964700
_cell_angle_alpha   89.95529172
_cell_angle_beta   90.00000000
_cell_angle_gamma   90.00000000
_symmetry_Int_Tables_number   1
_chemical_formula_structural   Gd3Ho(TcB4)4
_chemical_formula_sum   'Gd3 Ho1 Tc4 B16'
_cell_volume   250.69597327
_cell_formula_units_Z   1
loop_
 _symmetry_equiv_pos_site_id
 _symmetry_equiv_pos_as_xyz
  1  'x, y, z'
loop_
 _atom_site_type_symbol
 _atom_site_label
 _atom_site_symmetry_multiplicity
 _atom_site_fract_x
 _atom_site_fract_y
 _atom_site_fract_z
 _atom_site_occupancy
  Gd  Gd0  1  0.000000  0.627298  0.349642  1
  Gd  Gd1  1  0.000000  0.373145  0.650762  1
  Gd  Gd2  1  0.000000  0.127002  0.150295  1
  Ho  Ho3  1  0.000000  0.873084  0.849696  1
  Tc  Tc4  1  0.000000  0.632980  0.086403  1
  Tc  Tc5  1  0.000000  0.367065  0.912503  1
  Tc  Tc6  1  0.000000  0.132434  0.413135  1
  Tc  Tc7  1  0.000000  0.867440  0.588046  1
  B  B8  1  0.500000  0.786370  0.184346  1
  B  B9  1  0.500000  0.212778  0.815144  1
  B  B10  1  0.500000  0.286142  0.315253  1
  B  B11  1  0.500000  0.713730  0.685456  1
  B  B12  1  0.500000  0.863980  0.030984  1
  B  B13  1  0.500000  0.135992  0.967848  1
  B  B14  1  0.500000  0.363556  0.468613  1
  B  B15  1  0.500000  0.636524  0.532032  1
  B  B16  1  0.500000  0.886935  0.453391  1
  B  B17  1  0.500000  0.112644  0.547268  1
  B  B18  1  0.500000  0.387274  0.046335  1
  B  B19  1  0.500000  0.613706  0.952508  1
  B  B20  1  0.500000  0.976543  0.308278  1
  B  B21  1  0.500000  0.022920  0.692639  1
  B  B22  1  0.500000  0.476594  0.191424  1
  B  B23  1  0.500000  0.523867  0.808002  1
