# generated using pymatgen
data_Sr4Re(BrN2)2
_symmetry_space_group_name_H-M   'P 1'
_cell_length_a   6.02745500
_cell_length_b   8.09347797
_cell_length_c   10.76309360
_cell_angle_alpha   81.71297596
_cell_angle_beta   90.00000000
_cell_angle_gamma   90.00000000
_symmetry_Int_Tables_number   1
_chemical_formula_structural   Sr4Re(BrN2)2
_chemical_formula_sum   'Sr8 Re2 Br4 N8'
_cell_volume   519.57439096
_cell_formula_units_Z   2
loop_
 _symmetry_equiv_pos_site_id
 _symmetry_equiv_pos_as_xyz
  1  'x, y, z'
loop_
 _atom_site_type_symbol
 _atom_site_label
 _atom_site_symmetry_multiplicity
 _atom_site_fract_x
 _atom_site_fract_y
 _atom_site_fract_z
 _atom_site_occupancy
  Sr  Sr0  1  0.750000  0.283684  0.303897  1
  Sr  Sr1  1  0.750000  0.003368  0.621326  1
  Sr  Sr2  1  0.750000  0.447404  0.615390  1
  Sr  Sr3  1  0.750000  0.809241  0.097813  1
  Sr  Sr4  1  0.250000  0.996632  0.378674  1
  Sr  Sr5  1  0.250000  0.552596  0.384610  1
  Sr  Sr6  1  0.250000  0.190759  0.902187  1
  Sr  Sr7  1  0.250000  0.716316  0.696103  1
  Re  Re8  1  0.750000  0.771823  0.395429  1
  Re  Re9  1  0.250000  0.228177  0.604571  1
  Br  Br10  1  0.250000  0.323376  0.166337  1
  Br  Br11  1  0.750000  0.676624  0.833663  1
  Br  Br12  1  0.250000  0.840846  0.100034  1
  Br  Br13  1  0.750000  0.159154  0.899966  1
  N  N14  1  0.250000  0.029145  0.712999  1
  N  N15  1  0.002135  0.245385  0.497913  1
  N  N16  1  0.502135  0.754615  0.502087  1
  N  N17  1  0.997865  0.754615  0.502087  1
  N  N18  1  0.750000  0.600722  0.297049  1
  N  N19  1  0.750000  0.970855  0.287001  1
  N  N20  1  0.497865  0.245385  0.497913  1
  N  N21  1  0.250000  0.399278  0.702951  1
