# generated using pymatgen
data_Sr9Tb11Pb16
_symmetry_space_group_name_H-M   'P 1'
_cell_length_a   8.24305625
_cell_length_b   8.75796123
_cell_length_c   16.48830200
_cell_angle_alpha   90.00000000
_cell_angle_beta   90.00000000
_cell_angle_gamma   89.87274935
_symmetry_Int_Tables_number   1
_chemical_formula_structural   Sr9Tb11Pb16
_chemical_formula_sum   'Sr9 Tb11 Pb16'
_cell_volume   1190.32661366
_cell_formula_units_Z   1
loop_
 _symmetry_equiv_pos_site_id
 _symmetry_equiv_pos_as_xyz
  1  'x, y, z'
loop_
 _atom_site_type_symbol
 _atom_site_label
 _atom_site_symmetry_multiplicity
 _atom_site_fract_x
 _atom_site_fract_y
 _atom_site_fract_z
 _atom_site_occupancy
  Sr  Sr0  1  0.495060  0.678617  0.593555  1
  Sr  Sr1  1  0.994900  0.820889  0.906384  1
  Sr  Sr2  1  0.502311  0.319219  0.090679  1
  Sr  Sr3  1  0.002667  0.181286  0.410904  1
  Sr  Sr4  1  0.502311  0.319219  0.409321  1
  Sr  Sr5  1  0.002667  0.181286  0.089096  1
  Sr  Sr6  1  0.495060  0.678617  0.906445  1
  Sr  Sr7  1  0.994900  0.820889  0.593616  1
  Sr  Sr8  1  0.674930  0.012603  0.250000  1
  Tb  Tb9  1  0.670368  0.158819  0.625447  1
  Tb  Tb10  1  0.169728  0.342653  0.875405  1
  Tb  Tb11  1  0.331132  0.839356  0.120781  1
  Tb  Tb12  1  0.832935  0.661982  0.378811  1
  Tb  Tb13  1  0.331132  0.839356  0.379219  1
  Tb  Tb14  1  0.832935  0.661982  0.121189  1
  Tb  Tb15  1  0.670368  0.158819  0.874553  1
  Tb  Tb16  1  0.169728  0.342653  0.624595  1
  Tb  Tb17  1  0.829564  0.505143  0.750000  1
  Tb  Tb18  1  0.329715  0.995613  0.750000  1
  Tb  Tb19  1  0.175261  0.493128  0.250000  1
  Pb  Pb20  1  0.671205  0.953740  0.461397  1
  Pb  Pb21  1  0.172905  0.541978  0.043334  1
  Pb  Pb22  1  0.327238  0.042449  0.954302  1
  Pb  Pb23  1  0.826891  0.457139  0.545260  1
  Pb  Pb24  1  0.327238  0.042449  0.545698  1
  Pb  Pb25  1  0.826891  0.457139  0.954740  1
  Pb  Pb26  1  0.671205  0.953740  0.038603  1
  Pb  Pb27  1  0.172905  0.541978  0.456666  1
  Pb  Pb28  1  0.470908  0.362931  0.750000  1
  Pb  Pb29  1  0.972258  0.136614  0.750000  1
  Pb  Pb30  1  0.529757  0.629211  0.250000  1
  Pb  Pb31  1  0.039574  0.853316  0.250000  1
  Pb  Pb32  1  0.695568  0.858695  0.750000  1
  Pb  Pb33  1  0.196714  0.641317  0.750000  1
  Pb  Pb34  1  0.282523  0.136150  0.250000  1
  Pb  Pb35  1  0.808546  0.379023  0.250000  1
