# generated using pymatgen
data_Li6Hf5Sc7Os6
_symmetry_space_group_name_H-M   'P 1'
_cell_length_a   4.66919901
_cell_length_b   6.50339656
_cell_length_c   13.83448531
_cell_angle_alpha   89.67885164
_cell_angle_beta   89.99355183
_cell_angle_gamma   90.00117915
_symmetry_Int_Tables_number   1
_chemical_formula_structural   Li6Hf5Sc7Os6
_chemical_formula_sum   'Li6 Hf5 Sc7 Os6'
_cell_volume   420.08657529
_cell_formula_units_Z   1
loop_
 _symmetry_equiv_pos_site_id
 _symmetry_equiv_pos_as_xyz
  1  'x, y, z'
loop_
 _atom_site_type_symbol
 _atom_site_label
 _atom_site_symmetry_multiplicity
 _atom_site_fract_x
 _atom_site_fract_y
 _atom_site_fract_z
 _atom_site_occupancy
  Li  Li0  1  0.999989  0.999897  0.998812  1
  Li  Li1  1  0.499621  0.500679  0.167179  1
  Li  Li2  1  0.999552  0.998760  0.334413  1
  Li  Li3  1  0.499993  0.500577  0.500340  1
  Li  Li4  1  0.000460  0.999835  0.666732  1
  Li  Li5  1  0.500383  0.500238  0.832515  1
  Hf  Hf6  1  0.499998  0.249011  0.998527  1
  Hf  Hf7  1  0.499993  0.753109  0.999501  1
  Hf  Hf8  1  0.999707  0.251111  0.166338  1
  Hf  Hf9  1  0.999680  0.747189  0.168146  1
  Hf  Hf10  1  0.499671  0.246575  0.334648  1
  Sc  Sc11  1  0.499640  0.750285  0.335200  1
  Sc  Sc12  1  0.999977  0.251624  0.500876  1
  Sc  Sc13  1  0.999988  0.749858  0.501004  1
  Sc  Sc14  1  0.500387  0.250402  0.666429  1
  Sc  Sc15  1  0.500403  0.751165  0.666020  1
  Sc  Sc16  1  0.000351  0.250754  0.831415  1
  Sc  Sc17  1  0.000318  0.748489  0.831992  1
  Os  Os18  1  0.999953  0.501565  0.006806  1
  Os  Os19  1  0.499696  0.002635  0.163245  1
  Os  Os20  1  0.999611  0.489110  0.326265  1
  Os  Os21  1  0.499984  0.004932  0.496309  1
  Os  Os22  1  0.000358  0.502373  0.666298  1
  Os  Os23  1  0.500285  0.999826  0.840985  1
