# generated using pymatgen
data_TmLu3(MoOs3)2
_symmetry_space_group_name_H-M   'P 1'
_cell_length_a   5.42210702
_cell_length_b   5.42210552
_cell_length_c   8.53546400
_cell_angle_alpha   90.00308812
_cell_angle_beta   89.99691336
_cell_angle_gamma   120.00835866
_symmetry_Int_Tables_number   1
_chemical_formula_structural   TmLu3(MoOs3)2
_chemical_formula_sum   'Tm1 Lu3 Mo2 Os6'
_cell_volume   217.29875110
_cell_formula_units_Z   1
loop_
 _symmetry_equiv_pos_site_id
 _symmetry_equiv_pos_as_xyz
  1  'x, y, z'
loop_
 _atom_site_type_symbol
 _atom_site_label
 _atom_site_symmetry_multiplicity
 _atom_site_fract_x
 _atom_site_fract_y
 _atom_site_fract_z
 _atom_site_occupancy
  Tm  Tm0  1  0.666669  0.333331  0.935072  1
  Lu  Lu1  1  0.666664  0.333336  0.564589  1
  Lu  Lu2  1  0.333331  0.666669  0.435260  1
  Lu  Lu3  1  0.333334  0.666666  0.064858  1
  Mo  Mo4  1  0.999996  0.000004  0.500095  1
  Mo  Mo5  1  0.999994  0.000006  0.000105  1
  Os  Os6  1  0.173468  0.346949  0.749657  1
  Os  Os7  1  0.173442  0.826558  0.749674  1
  Os  Os8  1  0.653051  0.826532  0.749657  1
  Os  Os9  1  0.826625  0.653256  0.250346  1
  Os  Os10  1  0.826682  0.173318  0.250341  1
  Os  Os11  1  0.346744  0.173375  0.250346  1
