# generated using pymatgen
data_Ba3LiNbO6
_symmetry_space_group_name_H-M   'P 1'
_cell_length_a   7.18456409
_cell_length_b   7.18456495
_cell_length_c   7.18456462
_cell_angle_alpha   93.25139790
_cell_angle_beta   93.25140198
_cell_angle_gamma   93.25139262
_symmetry_Int_Tables_number   1
_chemical_formula_structural   Ba3LiNbO6
_chemical_formula_sum   'Ba6 Li2 Nb2 O12'
_cell_volume   368.99083016
_cell_formula_units_Z   2
loop_
 _symmetry_equiv_pos_site_id
 _symmetry_equiv_pos_as_xyz
  1  'x, y, z'
loop_
 _atom_site_type_symbol
 _atom_site_label
 _atom_site_symmetry_multiplicity
 _atom_site_fract_x
 _atom_site_fract_y
 _atom_site_fract_z
 _atom_site_occupancy
  Ba  Ba0  1  0.250000  0.897429  0.602571  1
  Ba  Ba1  1  0.602571  0.250000  0.897429  1
  Ba  Ba2  1  0.897429  0.602571  0.250000  1
  Ba  Ba3  1  0.750000  0.102571  0.397429  1
  Ba  Ba4  1  0.397429  0.750000  0.102571  1
  Ba  Ba5  1  0.102571  0.397429  0.750000  1
  Li  Li6  1  0.750000  0.750000  0.750000  1
  Li  Li7  1  0.250000  0.250000  0.250000  1
  Nb  Nb8  1  0.500000  0.500000  0.500000  1
  Nb  Nb9  1  0.000000  0.000000  0.000000  1
  O  O10  1  0.043775  0.729854  0.917878  1
  O  O11  1  0.917878  0.043775  0.729854  1
  O  O12  1  0.729854  0.917878  0.043775  1
  O  O13  1  0.456225  0.582122  0.770146  1
  O  O14  1  0.770146  0.456225  0.582122  1
  O  O15  1  0.582122  0.770146  0.456225  1
  O  O16  1  0.956225  0.270146  0.082122  1
  O  O17  1  0.082122  0.956225  0.270146  1
  O  O18  1  0.270146  0.082122  0.956225  1
  O  O19  1  0.543775  0.417878  0.229854  1
  O  O20  1  0.417878  0.229854  0.543775  1
  O  O21  1  0.229854  0.543775  0.417878  1
