# generated using pymatgen
data_TmCuAuO4
_symmetry_space_group_name_H-M   'P 1'
_cell_length_a   6.39627747
_cell_length_b   6.39627823
_cell_length_c   6.43256453
_cell_angle_alpha   125.97470768
_cell_angle_beta   126.07277307
_cell_angle_gamma   79.46051490
_symmetry_Int_Tables_number   1
_chemical_formula_structural   TmCuAuO4
_chemical_formula_sum   'Tm2 Cu2 Au2 O8'
_cell_volume   166.71550728
_cell_formula_units_Z   2
loop_
 _symmetry_equiv_pos_site_id
 _symmetry_equiv_pos_as_xyz
  1  'x, y, z'
loop_
 _atom_site_type_symbol
 _atom_site_label
 _atom_site_symmetry_multiplicity
 _atom_site_fract_x
 _atom_site_fract_y
 _atom_site_fract_z
 _atom_site_occupancy
  Tm  Tm0  1  0.749777  0.249777  0.500000  1
  Tm  Tm1  1  0.000223  0.000223  0.000000  1
  Cu  Cu2  1  0.375000  0.625000  0.250000  1
  Cu  Cu3  1  0.375000  0.125000  0.750000  1
  Au  Au4  1  0.375000  0.625000  0.750000  1
  Au  Au5  1  0.875000  0.625000  0.250000  1
  O  O6  1  0.140719  0.602688  0.858718  1
  O  O7  1  0.743970  0.282002  0.141282  1
  O  O8  1  0.351291  0.013040  0.969373  1
  O  O9  1  0.706333  0.868083  0.469373  1
  O  O10  1  0.043667  0.381917  0.030627  1
  O  O11  1  0.398709  0.236960  0.530627  1
  O  O12  1  0.006030  0.967998  0.358718  1
  O  O13  1  0.609281  0.647312  0.641282  1
