# generated using pymatgen
data_Mn3Al3(NiPt4)2
_symmetry_space_group_name_H-M   'P 1'
_cell_length_a   3.99607400
_cell_length_b   5.37012667
_cell_length_c   10.73114198
_cell_angle_alpha   96.25326686
_cell_angle_beta   90.00000000
_cell_angle_gamma   90.00000000
_symmetry_Int_Tables_number   1
_chemical_formula_structural   Mn3Al3(NiPt4)2
_chemical_formula_sum   'Mn3 Al3 Ni2 Pt8'
_cell_volume   228.91396031
_cell_formula_units_Z   1
loop_
 _symmetry_equiv_pos_site_id
 _symmetry_equiv_pos_as_xyz
  1  'x, y, z'
loop_
 _atom_site_type_symbol
 _atom_site_label
 _atom_site_symmetry_multiplicity
 _atom_site_fract_x
 _atom_site_fract_y
 _atom_site_fract_z
 _atom_site_occupancy
  Mn  Mn0  1  0.500000  0.284323  0.359792  1
  Mn  Mn1  1  0.500000  0.274436  0.860951  1
  Mn  Mn2  1  0.500000  0.720292  0.140514  1
  Al  Al3  1  0.500000  0.715280  0.641594  1
  Al  Al4  1  0.000000  0.000538  0.997518  1
  Al  Al5  1  0.000000  0.014808  0.495015  1
  Ni  Ni6  1  0.000000  0.498741  0.252062  1
  Ni  Ni7  1  0.000000  0.488106  0.753995  1
  Pt  Pt8  1  0.500000  0.781179  0.391304  1
  Pt  Pt9  1  0.500000  0.772470  0.885393  1
  Pt  Pt10  1  0.500000  0.222922  0.111261  1
  Pt  Pt11  1  0.500000  0.224882  0.611958  1
  Pt  Pt12  1  0.000000  0.999232  0.249546  1
  Pt  Pt13  1  0.000000  0.986424  0.741698  1
  Pt  Pt14  1  0.000000  0.502334  0.001119  1
  Pt  Pt15  1  0.000000  0.514032  0.506278  1
