# generated using pymatgen
data_Tb4Er(Tm5Bi4)3
_symmetry_space_group_name_H-M   'P 1'
_cell_length_a   8.20223091
_cell_length_b   9.44191300
_cell_length_c   11.93750500
_cell_angle_alpha   90.00000000
_cell_angle_beta   90.02692868
_cell_angle_gamma   90.00000000
_symmetry_Int_Tables_number   1
_chemical_formula_structural   Tb4Er(Tm5Bi4)3
_chemical_formula_sum   'Tb4 Er1 Tm15 Bi12'
_cell_volume   924.49699564
_cell_formula_units_Z   1
loop_
 _symmetry_equiv_pos_site_id
 _symmetry_equiv_pos_as_xyz
  1  'x, y, z'
loop_
 _atom_site_type_symbol
 _atom_site_label
 _atom_site_symmetry_multiplicity
 _atom_site_fract_x
 _atom_site_fract_y
 _atom_site_fract_z
 _atom_site_occupancy
  Tb  Tb0  1  0.312866  0.250000  0.218213  1
  Tb  Tb1  1  0.813514  0.250000  0.281854  1
  Tb  Tb2  1  0.687013  0.750000  0.781727  1
  Tb  Tb3  1  0.186659  0.750000  0.718203  1
  Er  Er4  1  0.352855  0.750000  0.217054  1
  Tm  Tm5  1  0.852607  0.750000  0.282666  1
  Tm  Tm6  1  0.647218  0.250000  0.782622  1
  Tm  Tm7  1  0.147383  0.250000  0.717269  1
  Tm  Tm8  1  0.692269  0.565664  0.059566  1
  Tm  Tm9  1  0.192171  0.934431  0.440478  1
  Tm  Tm10  1  0.307737  0.065623  0.940382  1
  Tm  Tm11  1  0.807761  0.434350  0.559660  1
  Tm  Tm12  1  0.307737  0.434377  0.940382  1
  Tm  Tm13  1  0.807761  0.065650  0.559660  1
  Tm  Tm14  1  0.692269  0.934336  0.059566  1
  Tm  Tm15  1  0.192171  0.565569  0.440478  1
  Tm  Tm16  1  0.476285  0.250000  0.489081  1
  Tm  Tm17  1  0.976256  0.250000  0.011320  1
  Tm  Tm18  1  0.523813  0.750000  0.511325  1
  Tm  Tm19  1  0.023801  0.750000  0.988802  1
  Bi  Bi20  1  0.404453  0.750000  0.958474  1
  Bi  Bi21  1  0.904340  0.750000  0.541018  1
  Bi  Bi22  1  0.595544  0.250000  0.040990  1
  Bi  Bi23  1  0.095665  0.250000  0.458939  1
  Bi  Bi24  1  0.565669  0.994598  0.326423  1
  Bi  Bi25  1  0.065256  0.505362  0.173801  1
  Bi  Bi26  1  0.434519  0.494389  0.673734  1
  Bi  Bi27  1  0.934485  0.005515  0.826177  1
  Bi  Bi28  1  0.434519  0.005611  0.673734  1
  Bi  Bi29  1  0.934485  0.494485  0.826177  1
  Bi  Bi30  1  0.565669  0.505402  0.326423  1
  Bi  Bi31  1  0.065256  0.994638  0.173801  1
