# generated using pymatgen
data_Sr2LiScSi2
_symmetry_space_group_name_H-M   'P 1'
_cell_length_a   8.61493721
_cell_length_b   8.61493763
_cell_length_c   8.61493706
_cell_angle_alpha   135.03863523
_cell_angle_beta   135.26166688
_cell_angle_gamma   65.29715393
_symmetry_Int_Tables_number   1
_chemical_formula_structural   Sr2LiScSi2
_chemical_formula_sum   'Sr4 Li2 Sc2 Si4'
_cell_volume   313.36446127
_cell_formula_units_Z   2
loop_
 _symmetry_equiv_pos_site_id
 _symmetry_equiv_pos_as_xyz
  1  'x, y, z'
loop_
 _atom_site_type_symbol
 _atom_site_label
 _atom_site_symmetry_multiplicity
 _atom_site_fract_x
 _atom_site_fract_y
 _atom_site_fract_z
 _atom_site_occupancy
  Sr  Sr0  1  0.109109  0.828889  0.280220  1
  Sr  Sr1  1  0.890891  0.171111  0.719780  1
  Sr  Sr2  1  0.451330  0.671111  0.780220  1
  Sr  Sr3  1  0.548670  0.328889  0.219780  1
  Li  Li4  1  0.500000  0.250000  0.750000  1
  Li  Li5  1  0.500000  0.750000  0.250000  1
  Sc  Sc6  1  0.000000  0.250000  0.250000  1
  Sc  Sc7  1  0.000000  0.750000  0.750000  1
  Si  Si8  1  0.657233  0.895786  0.761447  1
  Si  Si9  1  0.134340  0.395786  0.738553  1
  Si  Si10  1  0.865660  0.604214  0.261447  1
  Si  Si11  1  0.342767  0.104214  0.238553  1
