# generated using pymatgen
data_TmThCBr
_symmetry_space_group_name_H-M   'P 1'
_cell_length_a   3.63461900
_cell_length_b   3.63461841
_cell_length_c   14.94979400
_cell_angle_alpha   90.00000000
_cell_angle_beta   90.00000000
_cell_angle_gamma   119.99999622
_symmetry_Int_Tables_number   1
_chemical_formula_structural   TmThCBr
_chemical_formula_sum   'Tm2 Th2 C2 Br2'
_cell_volume   171.03444067
_cell_formula_units_Z   2
loop_
 _symmetry_equiv_pos_site_id
 _symmetry_equiv_pos_as_xyz
  1  'x, y, z'
loop_
 _atom_site_type_symbol
 _atom_site_label
 _atom_site_symmetry_multiplicity
 _atom_site_fract_x
 _atom_site_fract_y
 _atom_site_fract_z
 _atom_site_occupancy
  Tm  Tm0  1  0.333333  0.666667  0.091547  1
  Tm  Tm1  1  0.666667  0.333333  0.591547  1
  Th  Th2  1  0.666667  0.333333  0.909615  1
  Th  Th3  1  0.333333  0.666667  0.409615  1
  C  C4  1  0.000000  0.000000  0.011919  1
  C  C5  1  0.000000  0.000000  0.511919  1
  Br  Br6  1  0.333333  0.666667  0.736919  1
  Br  Br7  1  0.666667  0.333333  0.236919  1
