# generated using pymatgen
data_Nb3PSe3
_symmetry_space_group_name_H-M   'P 1'
_cell_length_a   9.97626700
_cell_length_b   9.97626618
_cell_length_c   3.46693700
_cell_angle_alpha   90.00000000
_cell_angle_beta   90.00000000
_cell_angle_gamma   119.99999940
_symmetry_Int_Tables_number   1
_chemical_formula_structural   Nb3PSe3
_chemical_formula_sum   'Nb6 P2 Se6'
_cell_volume   298.82207442
_cell_formula_units_Z   2
loop_
 _symmetry_equiv_pos_site_id
 _symmetry_equiv_pos_as_xyz
  1  'x, y, z'
loop_
 _atom_site_type_symbol
 _atom_site_label
 _atom_site_symmetry_multiplicity
 _atom_site_fract_x
 _atom_site_fract_y
 _atom_site_fract_z
 _atom_site_occupancy
  Nb  Nb0  1  0.627416  0.127059  0.750000  1
  Nb  Nb1  1  0.499642  0.372584  0.750000  1
  Nb  Nb2  1  0.372584  0.872941  0.250000  1
  Nb  Nb3  1  0.872941  0.500358  0.750000  1
  Nb  Nb4  1  0.500358  0.627416  0.250000  1
  Nb  Nb5  1  0.127059  0.499642  0.250000  1
  P  P6  1  0.333333  0.666667  0.750000  1
  P  P7  1  0.666667  0.333333  0.250000  1
  Se  Se8  1  0.713799  0.662643  0.750000  1
  Se  Se9  1  0.286201  0.337357  0.250000  1
  Se  Se10  1  0.662643  0.948844  0.250000  1
  Se  Se11  1  0.948844  0.286201  0.750000  1
  Se  Se12  1  0.051156  0.713799  0.250000  1
  Se  Se13  1  0.337357  0.051156  0.750000  1
