# generated using pymatgen
data_Tb5Y(Tm3Ru2)2
_symmetry_space_group_name_H-M   'P 1'
_cell_length_a   6.28595237
_cell_length_b   7.29350704
_cell_length_c   9.09933420
_cell_angle_alpha   89.91324152
_cell_angle_beta   89.49090789
_cell_angle_gamma   89.85042738
_symmetry_Int_Tables_number   1
_chemical_formula_structural   Tb5Y(Tm3Ru2)2
_chemical_formula_sum   'Tb5 Y1 Tm6 Ru4'
_cell_volume   417.15552678
_cell_formula_units_Z   1
loop_
 _symmetry_equiv_pos_site_id
 _symmetry_equiv_pos_as_xyz
  1  'x, y, z'
loop_
 _atom_site_type_symbol
 _atom_site_label
 _atom_site_symmetry_multiplicity
 _atom_site_fract_x
 _atom_site_fract_y
 _atom_site_fract_z
 _atom_site_occupancy
  Tb  Tb0  1  0.633176  0.040548  0.252404  1
  Tb  Tb1  1  0.367078  0.959108  0.747799  1
  Tb  Tb2  1  0.131320  0.458848  0.748353  1
  Tb  Tb3  1  0.868410  0.541055  0.251857  1
  Tb  Tb4  1  0.169889  0.177070  0.065394  1
  Y  Y5  1  0.830521  0.822552  0.934804  1
  Tm  Tm6  1  0.667575  0.324678  0.934666  1
  Tm  Tm7  1  0.832242  0.823736  0.563369  1
  Tm  Tm8  1  0.332322  0.675228  0.065302  1
  Tm  Tm9  1  0.167818  0.176252  0.436966  1
  Tm  Tm10  1  0.333338  0.676391  0.435427  1
  Tm  Tm11  1  0.666699  0.323686  0.564719  1
  Ru  Ru12  1  0.460089  0.385891  0.250683  1
  Ru  Ru13  1  0.539235  0.614001  0.748992  1
  Ru  Ru14  1  0.956509  0.116280  0.744750  1
  Ru  Ru15  1  0.043778  0.884675  0.254514  1
