# generated using pymatgen
data_Th4MgPd4Au
_symmetry_space_group_name_H-M   'P 1'
_cell_length_a   7.86213000
_cell_length_b   7.86213000
_cell_length_c   3.85089200
_cell_angle_alpha   90.00000000
_cell_angle_beta   90.00000000
_cell_angle_gamma   90.00000000
_symmetry_Int_Tables_number   1
_chemical_formula_structural   Th4MgPd4Au
_chemical_formula_sum   'Th4 Mg1 Pd4 Au1'
_cell_volume   238.03552660
_cell_formula_units_Z   1
loop_
 _symmetry_equiv_pos_site_id
 _symmetry_equiv_pos_as_xyz
  1  'x, y, z'
loop_
 _atom_site_type_symbol
 _atom_site_label
 _atom_site_symmetry_multiplicity
 _atom_site_fract_x
 _atom_site_fract_y
 _atom_site_fract_z
 _atom_site_occupancy
  Th  Th0  1  0.331699  0.182951  0.500001  1
  Th  Th1  1  0.817049  0.331699  0.500001  1
  Th  Th2  1  0.182951  0.668302  0.500001  1
  Th  Th3  1  0.668302  0.817049  0.500001  1
  Mg  Mg4  1  0.000000  0.000000  0.000000  1
  Pd  Pd5  1  0.632118  0.124000  0.000000  1
  Pd  Pd6  1  0.124000  0.367881  0.000000  1
  Pd  Pd7  1  0.876002  0.632118  0.000000  1
  Pd  Pd8  1  0.367881  0.876002  0.000000  1
  Au  Au9  1  0.500000  0.500000  0.000000  1
