# generated using pymatgen
data_Ac3Er(AsPd)4
_symmetry_space_group_name_H-M   'P 1'
_cell_length_a   4.45810200
_cell_length_b   8.12961308
_cell_length_c   7.74565020
_cell_angle_alpha   89.80917258
_cell_angle_beta   90.00000000
_cell_angle_gamma   90.00000000
_symmetry_Int_Tables_number   1
_chemical_formula_structural   Ac3Er(AsPd)4
_chemical_formula_sum   'Ac3 Er1 As4 Pd4'
_cell_volume   280.72128840
_cell_formula_units_Z   1
loop_
 _symmetry_equiv_pos_site_id
 _symmetry_equiv_pos_as_xyz
  1  'x, y, z'
loop_
 _atom_site_type_symbol
 _atom_site_label
 _atom_site_symmetry_multiplicity
 _atom_site_fract_x
 _atom_site_fract_y
 _atom_site_fract_z
 _atom_site_occupancy
  Ac  Ac0  1  0.250000  0.500037  0.244745  1
  Ac  Ac1  1  0.750000  0.499247  0.753329  1
  Ac  Ac2  1  0.250000  0.000482  0.257423  1
  Er  Er3  1  0.750000  0.999774  0.746345  1
  As  As4  1  0.250000  0.777830  0.908886  1
  As  As5  1  0.750000  0.251535  0.079924  1
  As  As6  1  0.250000  0.244147  0.589927  1
  As  As7  1  0.750000  0.745557  0.419507  1
  Pd  Pd8  1  0.750000  0.238626  0.422558  1
  Pd  Pd9  1  0.250000  0.759889  0.583995  1
  Pd  Pd10  1  0.750000  0.764742  0.078264  1
  Pd  Pd11  1  0.250000  0.218134  0.915097  1
