# generated using pymatgen
data_NaLaPr5OsI12
_symmetry_space_group_name_H-M   'P 1'
_cell_length_a   10.14957061
_cell_length_b   10.14552937
_cell_length_c   10.15664628
_cell_angle_alpha   107.06480262
_cell_angle_beta   107.00663111
_cell_angle_gamma   107.23479186
_symmetry_Int_Tables_number   1
_chemical_formula_structural   NaLaPr5OsI12
_chemical_formula_sum   'Na1 La1 Pr5 Os1 I12'
_cell_volume   868.56094062
_cell_formula_units_Z   1
loop_
 _symmetry_equiv_pos_site_id
 _symmetry_equiv_pos_as_xyz
  1  'x, y, z'
loop_
 _atom_site_type_symbol
 _atom_site_label
 _atom_site_symmetry_multiplicity
 _atom_site_fract_x
 _atom_site_fract_y
 _atom_site_fract_z
 _atom_site_occupancy
  Na  Na0  1  0.499961  0.500044  0.499926  1
  La  La1  1  0.897283  0.691315  0.968437  1
  Pr  Pr2  1  0.102485  0.305896  0.031579  1
  Pr  Pr3  1  0.307985  0.031597  0.102278  1
  Pr  Pr4  1  0.031692  0.102916  0.308047  1
  Pr  Pr5  1  0.968405  0.897843  0.692158  1
  Pr  Pr6  1  0.691795  0.967781  0.897583  1
  Os  Os7  1  0.999134  0.997312  0.000072  1
  I  I8  1  0.229614  0.686124  0.074346  1
  I  I9  1  0.454400  0.377905  0.149114  1
  I  I10  1  0.685752  0.073134  0.225242  1
  I  I11  1  0.927649  0.776234  0.318335  1
  I  I12  1  0.149445  0.455202  0.376347  1
  I  I13  1  0.376624  0.149078  0.453983  1
  I  I14  1  0.623369  0.851366  0.546112  1
  I  I15  1  0.850203  0.544911  0.618975  1
  I  I16  1  0.073423  0.226862  0.686459  1
  I  I17  1  0.314457  0.927368  0.774848  1
  I  I18  1  0.541308  0.622755  0.849002  1
  I  I19  1  0.775016  0.314361  0.927160  1
