# generated using pymatgen
data_GdYB6Os
_symmetry_space_group_name_H-M   'P 1'
_cell_length_a   3.67300000
_cell_length_b   9.20260600
_cell_length_c   11.58065000
_cell_angle_alpha   90.00000000
_cell_angle_beta   90.00000000
_cell_angle_gamma   90.00000000
_symmetry_Int_Tables_number   1
_chemical_formula_structural   GdYB6Os
_chemical_formula_sum   'Gd4 Y4 B24 Os4'
_cell_volume   391.43954065
_cell_formula_units_Z   4
loop_
 _symmetry_equiv_pos_site_id
 _symmetry_equiv_pos_as_xyz
  1  'x, y, z'
loop_
 _atom_site_type_symbol
 _atom_site_label
 _atom_site_symmetry_multiplicity
 _atom_site_fract_x
 _atom_site_fract_y
 _atom_site_fract_z
 _atom_site_occupancy
  Gd  Gd0  1  0.000000  0.323027  0.413647  1
  Gd  Gd1  1  0.000000  0.676973  0.586353  1
  Gd  Gd2  1  0.000000  0.823027  0.086353  1
  Gd  Gd3  1  0.000000  0.176973  0.913647  1
  Y  Y4  1  0.000000  0.944323  0.373337  1
  Y  Y5  1  0.000000  0.055677  0.626663  1
  Y  Y6  1  0.000000  0.444323  0.126663  1
  Y  Y7  1  0.000000  0.555677  0.873337  1
  B  B8  1  0.500000  0.554205  0.432376  1
  B  B9  1  0.500000  0.445795  0.567624  1
  B  B10  1  0.500000  0.054205  0.067624  1
  B  B11  1  0.500000  0.945795  0.932376  1
  B  B12  1  0.500000  0.747486  0.419749  1
  B  B13  1  0.500000  0.252514  0.580251  1
  B  B14  1  0.500000  0.247486  0.080251  1
  B  B15  1  0.500000  0.752514  0.919749  1
  B  B16  1  0.500000  0.790822  0.267063  1
  B  B17  1  0.500000  0.209178  0.732937  1
  B  B18  1  0.500000  0.290822  0.232937  1
  B  B19  1  0.500000  0.709178  0.767063  1
  B  B20  1  0.500000  0.632411  0.185901  1
  B  B21  1  0.500000  0.367589  0.814099  1
  B  B22  1  0.500000  0.132411  0.314099  1
  B  B23  1  0.500000  0.867589  0.685901  1
  B  B24  1  0.500000  0.984334  0.213115  1
  B  B25  1  0.500000  0.015666  0.786885  1
  B  B26  1  0.500000  0.484334  0.286885  1
  B  B27  1  0.500000  0.515666  0.713115  1
  B  B28  1  0.500000  0.609595  0.030370  1
  B  B29  1  0.500000  0.390405  0.969630  1
  B  B30  1  0.500000  0.109595  0.469630  1
  B  B31  1  0.500000  0.890405  0.530370  1
  Os  Os32  1  0.000000  0.638046  0.321172  1
  Os  Os33  1  0.000000  0.361954  0.678828  1
  Os  Os34  1  0.000000  0.138046  0.178828  1
  Os  Os35  1  0.000000  0.861954  0.821172  1
