# generated using pymatgen
data_TbSm(Y2Rh9)2
_symmetry_space_group_name_H-M   'P 1'
_cell_length_a   5.29070800
_cell_length_b   5.29070927
_cell_length_c   17.53444700
_cell_angle_alpha   90.00000000
_cell_angle_beta   90.00000000
_cell_angle_gamma   119.99999205
_symmetry_Int_Tables_number   1
_chemical_formula_structural   TbSm(Y2Rh9)2
_chemical_formula_sum   'Tb1 Sm1 Y4 Rh18'
_cell_volume   425.06018855
_cell_formula_units_Z   1
loop_
 _symmetry_equiv_pos_site_id
 _symmetry_equiv_pos_as_xyz
  1  'x, y, z'
loop_
 _atom_site_type_symbol
 _atom_site_label
 _atom_site_symmetry_multiplicity
 _atom_site_fract_x
 _atom_site_fract_y
 _atom_site_fract_z
 _atom_site_occupancy
  Tb  Tb0  1  0.333333  0.666667  0.750000  1
  Sm  Sm1  1  0.666667  0.333333  0.250000  1
  Y  Y2  1  0.333333  0.666667  0.957909  1
  Y  Y3  1  0.666667  0.333333  0.042052  1
  Y  Y4  1  0.666667  0.333333  0.457948  1
  Y  Y5  1  0.333333  0.666667  0.542091  1
  Rh  Rh6  1  0.167258  0.832742  0.374116  1
  Rh  Rh7  1  0.167258  0.334516  0.374116  1
  Rh  Rh8  1  0.665484  0.832742  0.374116  1
  Rh  Rh9  1  0.832731  0.167269  0.625943  1
  Rh  Rh10  1  0.832731  0.665463  0.625943  1
  Rh  Rh11  1  0.334537  0.167269  0.625943  1
  Rh  Rh12  1  0.832731  0.167269  0.874057  1
  Rh  Rh13  1  0.832731  0.665463  0.874057  1
  Rh  Rh14  1  0.334537  0.167269  0.874057  1
  Rh  Rh15  1  0.167258  0.832742  0.125884  1
  Rh  Rh16  1  0.167258  0.334516  0.125884  1
  Rh  Rh17  1  0.665484  0.832742  0.125884  1
  Rh  Rh18  1  0.333333  0.666667  0.250000  1
  Rh  Rh19  1  0.666667  0.333333  0.750000  1
  Rh  Rh20  1  0.000000  0.000000  0.250000  1
  Rh  Rh21  1  0.000000  0.000000  0.750000  1
  Rh  Rh22  1  0.000000  0.000000  0.500000  1
  Rh  Rh23  1  0.000000  0.000000  0.000000  1
