# generated using pymatgen
data_Hf4Nb4Ge3P
_symmetry_space_group_name_H-M   'P 1'
_cell_length_a   3.62252700
_cell_length_b   7.01130109
_cell_length_c   8.53617100
_cell_angle_alpha   89.38906796
_cell_angle_beta   90.00000000
_cell_angle_gamma   90.00000000
_symmetry_Int_Tables_number   1
_chemical_formula_structural   Hf4Nb4Ge3P
_chemical_formula_sum   'Hf4 Nb4 Ge3 P1'
_cell_volume   216.79470249
_cell_formula_units_Z   1
loop_
 _symmetry_equiv_pos_site_id
 _symmetry_equiv_pos_as_xyz
  1  'x, y, z'
loop_
 _atom_site_type_symbol
 _atom_site_label
 _atom_site_symmetry_multiplicity
 _atom_site_fract_x
 _atom_site_fract_y
 _atom_site_fract_z
 _atom_site_occupancy
  Hf  Hf0  1  0.250000  0.047729  0.670434  1
  Hf  Hf1  1  0.250000  0.534639  0.836284  1
  Hf  Hf2  1  0.750000  0.456872  0.162509  1
  Hf  Hf3  1  0.750000  0.953230  0.337482  1
  Nb  Nb4  1  0.750000  0.871835  0.939494  1
  Nb  Nb5  1  0.250000  0.630782  0.441787  1
  Nb  Nb6  1  0.750000  0.365181  0.562514  1
  Nb  Nb7  1  0.250000  0.140264  0.051696  1
  Ge  Ge8  1  0.250000  0.250546  0.356332  1
  Ge  Ge9  1  0.250000  0.756895  0.142545  1
  Ge  Ge10  1  0.750000  0.747640  0.643806  1
  P  P11  1  0.750000  0.244387  0.855118  1
