# generated using pymatgen
data_Sc6Ti2Nb2Al12Os7
_symmetry_space_group_name_H-M   'P 1'
_cell_length_a   8.86122838
_cell_length_b   8.86886703
_cell_length_c   8.86886811
_cell_angle_alpha   60.07060655
_cell_angle_beta   60.02848233
_cell_angle_gamma   60.02848550
_symmetry_Int_Tables_number   1
_chemical_formula_structural   Sc6Ti2Nb2Al12Os7
_chemical_formula_sum   'Sc6 Ti2 Nb2 Al12 Os7'
_cell_volume   493.32545349
_cell_formula_units_Z   1
loop_
 _symmetry_equiv_pos_site_id
 _symmetry_equiv_pos_as_xyz
  1  'x, y, z'
loop_
 _atom_site_type_symbol
 _atom_site_label
 _atom_site_symmetry_multiplicity
 _atom_site_fract_x
 _atom_site_fract_y
 _atom_site_fract_z
 _atom_site_occupancy
  Sc  Sc0  1  0.711408  0.710101  0.287028  1
  Sc  Sc1  1  0.291463  0.710101  0.287028  1
  Sc  Sc2  1  0.709279  0.290721  0.290721  1
  Sc  Sc3  1  0.291463  0.287028  0.710101  1
  Sc  Sc4  1  0.711408  0.287028  0.710101  1
  Sc  Sc5  1  0.288172  0.711828  0.711828  1
  Ti  Ti6  1  0.359692  0.879483  0.879483  1
  Ti  Ti7  1  0.881340  0.879483  0.879483  1
  Nb  Nb8  1  0.879945  0.878139  0.361970  1
  Nb  Nb9  1  0.879945  0.361970  0.878139  1
  Al  Al10  1  0.121603  0.118226  0.638568  1
  Al  Al11  1  0.121603  0.638568  0.118226  1
  Al  Al12  1  0.638533  0.119409  0.119409  1
  Al  Al13  1  0.122648  0.119409  0.119409  1
  Al  Al14  1  0.663461  0.668623  0.004456  1
  Al  Al15  1  0.663461  0.004456  0.668623  1
  Al  Al16  1  0.007315  0.666072  0.666072  1
  Al  Al17  1  0.660542  0.666072  0.666072  1
  Al  Al18  1  0.334404  0.335405  0.995788  1
  Al  Al19  1  0.334404  0.995788  0.335405  1
  Al  Al20  1  0.995394  0.335181  0.335181  1
  Al  Al21  1  0.334244  0.335181  0.335181  1
  Os  Os22  1  0.000400  0.999600  0.999600  1
  Os  Os23  1  0.998041  0.998858  0.501086  1
  Os  Os24  1  0.502015  0.998858  0.501086  1
  Os  Os25  1  0.997276  0.502724  0.502724  1
  Os  Os26  1  0.502015  0.501086  0.998858  1
  Os  Os27  1  0.998041  0.501086  0.998858  1
  Os  Os28  1  0.500485  0.999515  0.999515  1
