# generated using pymatgen
data_NdCo4P3Rh
_symmetry_space_group_name_H-M   'P 1'
_cell_length_a   3.74082900
_cell_length_b   10.54573100
_cell_length_c   11.93343100
_cell_angle_alpha   90.00000000
_cell_angle_beta   90.00000000
_cell_angle_gamma   90.00000000
_symmetry_Int_Tables_number   1
_chemical_formula_structural   NdCo4P3Rh
_chemical_formula_sum   'Nd4 Co16 P12 Rh4'
_cell_volume   470.77118405
_cell_formula_units_Z   4
loop_
 _symmetry_equiv_pos_site_id
 _symmetry_equiv_pos_as_xyz
  1  'x, y, z'
loop_
 _atom_site_type_symbol
 _atom_site_label
 _atom_site_symmetry_multiplicity
 _atom_site_fract_x
 _atom_site_fract_y
 _atom_site_fract_z
 _atom_site_occupancy
  Nd  Nd0  1  0.250000  0.585572  0.703148  1
  Nd  Nd1  1  0.250000  0.914428  0.203148  1
  Nd  Nd2  1  0.750000  0.414428  0.296852  1
  Nd  Nd3  1  0.750000  0.085572  0.796852  1
  Co  Co4  1  0.250000  0.408308  0.490323  1
  Co  Co5  1  0.250000  0.091692  0.990323  1
  Co  Co6  1  0.750000  0.591692  0.509677  1
  Co  Co7  1  0.750000  0.908308  0.009677  1
  Co  Co8  1  0.250000  0.220814  0.175131  1
  Co  Co9  1  0.250000  0.279186  0.675131  1
  Co  Co10  1  0.750000  0.779186  0.824869  1
  Co  Co11  1  0.750000  0.720814  0.324869  1
  Co  Co12  1  0.250000  0.884707  0.700652  1
  Co  Co13  1  0.250000  0.615293  0.200652  1
  Co  Co14  1  0.750000  0.115293  0.299348  1
  Co  Co15  1  0.750000  0.384707  0.799348  1
  Co  Co16  1  0.250000  0.465772  0.931535  1
  Co  Co17  1  0.250000  0.034228  0.431535  1
  Co  Co18  1  0.750000  0.534228  0.068465  1
  Co  Co19  1  0.750000  0.965772  0.568465  1
  P  P20  1  0.250000  0.421560  0.110700  1
  P  P21  1  0.250000  0.078440  0.610700  1
  P  P22  1  0.750000  0.578440  0.889300  1
  P  P23  1  0.750000  0.921560  0.389300  1
  P  P24  1  0.250000  0.276249  0.865035  1
  P  P25  1  0.250000  0.223751  0.365035  1
  P  P26  1  0.750000  0.723751  0.134965  1
  P  P27  1  0.750000  0.776249  0.634965  1
  P  P28  1  0.250000  0.598348  0.390885  1
  P  P29  1  0.250000  0.901652  0.890885  1
  P  P30  1  0.750000  0.401652  0.609115  1
  P  P31  1  0.750000  0.098348  0.109115  1
  Rh  Rh32  1  0.250000  0.714853  0.990427  1
  Rh  Rh33  1  0.250000  0.785147  0.490427  1
  Rh  Rh34  1  0.750000  0.285147  0.009573  1
  Rh  Rh35  1  0.750000  0.214853  0.509573  1
