# generated using pymatgen
data_Tm7Th(NiHg)2
_symmetry_space_group_name_H-M   'P 1'
_cell_length_a   9.44971740
_cell_length_b   9.44971780
_cell_length_c   9.44739900
_cell_angle_alpha   60.00811338
_cell_angle_beta   60.00811196
_cell_angle_gamma   60.10009159
_symmetry_Int_Tables_number   1
_chemical_formula_structural   Tm7Th(NiHg)2
_chemical_formula_sum   'Tm14 Th2 Ni4 Hg4'
_cell_volume   597.05685118
_cell_formula_units_Z   2
loop_
 _symmetry_equiv_pos_site_id
 _symmetry_equiv_pos_as_xyz
  1  'x, y, z'
loop_
 _atom_site_type_symbol
 _atom_site_label
 _atom_site_symmetry_multiplicity
 _atom_site_fract_x
 _atom_site_fract_y
 _atom_site_fract_z
 _atom_site_occupancy
  Tm  Tm0  1  0.351203  0.943140  0.352829  1
  Tm  Tm1  1  0.943140  0.351203  0.352829  1
  Tm  Tm2  1  0.813229  0.189150  0.186632  1
  Tm  Tm3  1  0.189150  0.813229  0.810989  1
  Tm  Tm4  1  0.189150  0.813229  0.186632  1
  Tm  Tm5  1  0.813229  0.189150  0.810989  1
  Tm  Tm6  1  0.186621  0.186621  0.813379  1
  Tm  Tm7  1  0.811310  0.811310  0.188690  1
  Tm  Tm8  1  0.935914  0.564149  0.565444  1
  Tm  Tm9  1  0.564149  0.935914  0.934493  1
  Tm  Tm10  1  0.564149  0.935914  0.565444  1
  Tm  Tm11  1  0.935914  0.564149  0.934493  1
  Tm  Tm12  1  0.564949  0.564949  0.935051  1
  Tm  Tm13  1  0.936354  0.936354  0.563646  1
  Th  Th14  1  0.346409  0.346409  0.352350  1
  Th  Th15  1  0.346409  0.346409  0.954834  1
  Ni  Ni16  1  0.142906  0.142906  0.143099  1
  Ni  Ni17  1  0.142906  0.142906  0.571089  1
  Ni  Ni18  1  0.144774  0.571690  0.141768  1
  Ni  Ni19  1  0.571690  0.144774  0.141768  1
  Hg  Hg20  1  0.588359  0.588359  0.583261  1
  Hg  Hg21  1  0.588359  0.588359  0.240020  1
  Hg  Hg22  1  0.590886  0.238842  0.585136  1
  Hg  Hg23  1  0.238842  0.590886  0.585136  1
