# generated using pymatgen
data_NaZnHg2(NO3)8
_symmetry_space_group_name_H-M   'P 1'
_cell_length_a   8.06439231
_cell_length_b   7.83885173
_cell_length_c   7.99784883
_cell_angle_alpha   89.67477838
_cell_angle_beta   89.87824234
_cell_angle_gamma   92.27884109
_symmetry_Int_Tables_number   1
_chemical_formula_structural   NaZnHg2(NO3)8
_chemical_formula_sum   'Na1 Zn1 Hg2 N8 O24'
_cell_volume   505.17923523
_cell_formula_units_Z   1
loop_
 _symmetry_equiv_pos_site_id
 _symmetry_equiv_pos_as_xyz
  1  'x, y, z'
loop_
 _atom_site_type_symbol
 _atom_site_label
 _atom_site_symmetry_multiplicity
 _atom_site_fract_x
 _atom_site_fract_y
 _atom_site_fract_z
 _atom_site_occupancy
  Na  Na0  1  0.000000  0.000000  0.000000  1
  Zn  Zn1  1  0.500000  0.000000  0.500000  1
  Hg  Hg2  1  0.000000  0.500000  0.500000  1
  Hg  Hg3  1  0.500000  0.500000  0.000000  1
  N  N4  1  0.330894  0.314164  0.349088  1
  N  N5  1  0.351734  0.171107  0.818988  1
  N  N6  1  0.185621  0.845859  0.335525  1
  N  N7  1  0.836120  0.336665  0.171349  1
  N  N8  1  0.669106  0.685836  0.650912  1
  N  N9  1  0.163880  0.663335  0.828651  1
  N  N10  1  0.814379  0.154141  0.664475  1
  N  N11  1  0.648266  0.828893  0.181012  1
  O  O12  1  0.736922  0.316741  0.048819  1
  O  O13  1  0.199476  0.963159  0.230798  1
  O  O14  1  0.287773  0.830222  0.455049  1
  O  O15  1  0.245182  0.183417  0.929842  1
  O  O16  1  0.228758  0.295454  0.468360  1
  O  O17  1  0.451168  0.214746  0.336317  1
  O  O18  1  0.313239  0.431540  0.242491  1
  O  O19  1  0.187288  0.539711  0.728446  1
  O  O20  1  0.936410  0.263076  0.678316  1
  O  O21  1  0.655928  0.949890  0.285804  1
  O  O22  1  0.048145  0.761440  0.808455  1
  O  O23  1  0.525458  0.719165  0.194028  1
  O  O24  1  0.800524  0.036841  0.769202  1
  O  O25  1  0.712227  0.169778  0.544951  1
  O  O26  1  0.754818  0.816583  0.070158  1
  O  O27  1  0.263078  0.683259  0.951181  1
  O  O28  1  0.771242  0.704546  0.531640  1
  O  O29  1  0.548832  0.785254  0.663683  1
  O  O30  1  0.686761  0.568460  0.757509  1
  O  O31  1  0.812712  0.460289  0.271554  1
  O  O32  1  0.063590  0.736924  0.321684  1
  O  O33  1  0.344072  0.050110  0.714196  1
  O  O34  1  0.951855  0.238560  0.191545  1
  O  O35  1  0.474542  0.280835  0.805972  1
