# generated using pymatgen
data_Ce4Co3NiSn2
_symmetry_space_group_name_H-M   'P 1'
_cell_length_a   7.40858668
_cell_length_b   7.40858740
_cell_length_c   3.63803500
_cell_angle_alpha   90.00000000
_cell_angle_beta   90.00000000
_cell_angle_gamma   90.29044914
_symmetry_Int_Tables_number   1
_chemical_formula_structural   Ce4Co3NiSn2
_chemical_formula_sum   'Ce4 Co3 Ni1 Sn2'
_cell_volume   199.67885047
_cell_formula_units_Z   1
loop_
 _symmetry_equiv_pos_site_id
 _symmetry_equiv_pos_as_xyz
  1  'x, y, z'
loop_
 _atom_site_type_symbol
 _atom_site_label
 _atom_site_symmetry_multiplicity
 _atom_site_fract_x
 _atom_site_fract_y
 _atom_site_fract_z
 _atom_site_occupancy
  Ce  Ce0  1  0.678887  0.170988  0.500000  1
  Ce  Ce1  1  0.163673  0.336327  0.500000  1
  Ce  Ce2  1  0.825216  0.674784  0.500000  1
  Ce  Ce3  1  0.329012  0.821113  0.500000  1
  Co  Co4  1  0.865305  0.366211  0.000000  1
  Co  Co5  1  0.630611  0.869389  0.000000  1
  Co  Co6  1  0.133789  0.634695  0.000000  1
  Ni  Ni7  1  0.371054  0.128946  0.000000  1
  Sn  Sn8  1  0.002510  0.000058  0.000000  1
  Sn  Sn9  1  0.499942  0.497490  0.000000  1
