# generated using pymatgen
data_Cs2KIn(AsSe2)6
_symmetry_space_group_name_H-M   'P 1'
_cell_length_a   10.06613800
_cell_length_b   10.06613830
_cell_length_c   8.29021600
_cell_angle_alpha   90.00000000
_cell_angle_beta   90.00000000
_cell_angle_gamma   120.00000557
_symmetry_Int_Tables_number   1
_chemical_formula_structural   Cs2KIn(AsSe2)6
_chemical_formula_sum   'Cs2 K1 In1 As6 Se12'
_cell_volume   727.48195725
_cell_formula_units_Z   1
loop_
 _symmetry_equiv_pos_site_id
 _symmetry_equiv_pos_as_xyz
  1  'x, y, z'
loop_
 _atom_site_type_symbol
 _atom_site_label
 _atom_site_symmetry_multiplicity
 _atom_site_fract_x
 _atom_site_fract_y
 _atom_site_fract_z
 _atom_site_occupancy
  Cs  Cs0  1  0.333333  0.666667  0.845616  1
  Cs  Cs1  1  0.666667  0.333333  0.154384  1
  K  K2  1  0.000000  0.000000  0.000000  1
  In  In3  1  0.000000  0.000000  0.500000  1
  As  As4  1  0.280300  0.833306  0.396788  1
  As  As5  1  0.166694  0.446994  0.396788  1
  As  As6  1  0.553006  0.719700  0.396788  1
  As  As7  1  0.719700  0.166694  0.603212  1
  As  As8  1  0.833306  0.553006  0.603212  1
  As  As9  1  0.446994  0.280300  0.603212  1
  Se  Se10  1  0.239980  0.032300  0.297530  1
  Se  Se11  1  0.967700  0.207681  0.297530  1
  Se  Se12  1  0.792319  0.760020  0.297530  1
  Se  Se13  1  0.760020  0.967700  0.702470  1
  Se  Se14  1  0.032300  0.792319  0.702470  1
  Se  Se15  1  0.207681  0.239980  0.702470  1
  Se  Se16  1  0.517325  0.908483  0.239287  1
  Se  Se17  1  0.091517  0.608841  0.239287  1
  Se  Se18  1  0.391159  0.482675  0.239287  1
  Se  Se19  1  0.482675  0.091517  0.760713  1
  Se  Se20  1  0.908483  0.391159  0.760713  1
  Se  Se21  1  0.608841  0.517325  0.760713  1
