# generated using pymatgen
data_DyY11IrOs3
_symmetry_space_group_name_H-M   'P 1'
_cell_length_a   6.41442615
_cell_length_b   7.39583458
_cell_length_c   9.12941100
_cell_angle_alpha   90.00000000
_cell_angle_beta   90.00000000
_cell_angle_gamma   89.89180507
_symmetry_Int_Tables_number   1
_chemical_formula_structural   DyY11IrOs3
_chemical_formula_sum   'Dy1 Y11 Ir1 Os3'
_cell_volume   433.09880241
_cell_formula_units_Z   1
loop_
 _symmetry_equiv_pos_site_id
 _symmetry_equiv_pos_as_xyz
  1  'x, y, z'
loop_
 _atom_site_type_symbol
 _atom_site_label
 _atom_site_symmetry_multiplicity
 _atom_site_fract_x
 _atom_site_fract_y
 _atom_site_fract_z
 _atom_site_occupancy
  Dy  Dy0  1  0.367772  0.959476  0.750000  1
  Y  Y1  1  0.331397  0.673180  0.062745  1
  Y  Y2  1  0.171198  0.175768  0.437584  1
  Y  Y3  1  0.670440  0.325309  0.564159  1
  Y  Y4  1  0.826824  0.825599  0.934457  1
  Y  Y5  1  0.670440  0.325309  0.935841  1
  Y  Y6  1  0.826824  0.825599  0.565543  1
  Y  Y7  1  0.331397  0.673180  0.437255  1
  Y  Y8  1  0.171198  0.175768  0.062416  1
  Y  Y9  1  0.870087  0.538866  0.250000  1
  Y  Y10  1  0.630411  0.040019  0.250000  1
  Y  Y11  1  0.129742  0.460946  0.750000  1
  Ir  Ir12  1  0.039874  0.883612  0.250000  1
  Os  Os13  1  0.461460  0.382954  0.250000  1
  Os  Os14  1  0.964823  0.115899  0.750000  1
  Os  Os15  1  0.536111  0.618519  0.750000  1
