# generated using pymatgen
data_YbSm2Lu(B6Ru)2
_symmetry_space_group_name_H-M   'P 1'
_cell_length_a   3.67576100
_cell_length_b   9.12691716
_cell_length_c   11.54366121
_cell_angle_alpha   89.97839578
_cell_angle_beta   90.00000000
_cell_angle_gamma   90.00000000
_symmetry_Int_Tables_number   1
_chemical_formula_structural   YbSm2Lu(B6Ru)2
_chemical_formula_sum   'Yb2 Sm4 Lu2 B24 Ru4'
_cell_volume   387.27094535
_cell_formula_units_Z   2
loop_
 _symmetry_equiv_pos_site_id
 _symmetry_equiv_pos_as_xyz
  1  'x, y, z'
loop_
 _atom_site_type_symbol
 _atom_site_label
 _atom_site_symmetry_multiplicity
 _atom_site_fract_x
 _atom_site_fract_y
 _atom_site_fract_z
 _atom_site_occupancy
  Yb  Yb0  1  0.000000  0.942748  0.369811  1
  Yb  Yb1  1  0.000000  0.057252  0.630189  1
  Sm  Sm2  1  0.000000  0.322103  0.414688  1
  Sm  Sm3  1  0.000000  0.677897  0.585312  1
  Sm  Sm4  1  0.000000  0.823355  0.086442  1
  Sm  Sm5  1  0.000000  0.176645  0.913558  1
  Lu  Lu6  1  0.000000  0.443320  0.129081  1
  Lu  Lu7  1  0.000000  0.556680  0.870919  1
  B  B8  1  0.500000  0.555461  0.430785  1
  B  B9  1  0.500000  0.444539  0.569215  1
  B  B10  1  0.500000  0.055715  0.069143  1
  B  B11  1  0.500000  0.944285  0.930857  1
  B  B12  1  0.500000  0.749936  0.416864  1
  B  B13  1  0.500000  0.250064  0.583136  1
  B  B14  1  0.500000  0.251001  0.082278  1
  B  B15  1  0.500000  0.748999  0.917722  1
  B  B16  1  0.500000  0.790794  0.266104  1
  B  B17  1  0.500000  0.209206  0.733896  1
  B  B18  1  0.500000  0.291365  0.233719  1
  B  B19  1  0.500000  0.708635  0.766281  1
  B  B20  1  0.500000  0.629691  0.185074  1
  B  B21  1  0.500000  0.370309  0.814926  1
  B  B22  1  0.500000  0.130027  0.314634  1
  B  B23  1  0.500000  0.869973  0.685366  1
  B  B24  1  0.500000  0.985051  0.213532  1
  B  B25  1  0.500000  0.014949  0.786468  1
  B  B26  1  0.500000  0.483435  0.286251  1
  B  B27  1  0.500000  0.516565  0.713749  1
  B  B28  1  0.500000  0.600280  0.027497  1
  B  B29  1  0.500000  0.399720  0.972503  1
  B  B30  1  0.500000  0.098731  0.473036  1
  B  B31  1  0.500000  0.901269  0.526964  1
  Ru  Ru32  1  0.000000  0.638206  0.318387  1
  Ru  Ru33  1  0.000000  0.361794  0.681613  1
  Ru  Ru34  1  0.000000  0.140571  0.179506  1
  Ru  Ru35  1  0.000000  0.859429  0.820494  1
