# generated using pymatgen
data_ZrH6PdRu
_symmetry_space_group_name_H-M   'P 1'
_cell_length_a   4.55715299
_cell_length_b   4.55715336
_cell_length_c   4.55715200
_cell_angle_alpha   59.97738872
_cell_angle_beta   59.97726984
_cell_angle_gamma   59.97741391
_symmetry_Int_Tables_number   1
_chemical_formula_structural   ZrH6PdRu
_chemical_formula_sum   'Zr1 H6 Pd1 Ru1'
_cell_volume   66.88715597
_cell_formula_units_Z   1
loop_
 _symmetry_equiv_pos_site_id
 _symmetry_equiv_pos_as_xyz
  1  'x, y, z'
loop_
 _atom_site_type_symbol
 _atom_site_label
 _atom_site_symmetry_multiplicity
 _atom_site_fract_x
 _atom_site_fract_y
 _atom_site_fract_z
 _atom_site_occupancy
  Zr  Zr0  1  0.250001  0.250001  0.249999  1
  H  H1  1  0.262733  0.737261  0.262732  1
  H  H2  1  0.737295  0.737293  0.262697  1
  H  H3  1  0.737261  0.262732  0.262734  1
  H  H4  1  0.262697  0.737293  0.737294  1
  H  H5  1  0.737295  0.262696  0.737295  1
  H  H6  1  0.262733  0.262732  0.737261  1
  Pd  Pd7  1  0.750060  0.750063  0.750063  1
  Ru  Ru8  1  0.999924  0.999924  0.999926  1
