# generated using pymatgen
data_Zr4PaCoSb3
_symmetry_space_group_name_H-M   'P 1'
_cell_length_a   5.86971885
_cell_length_b   8.87023313
_cell_length_c   8.87023464
_cell_angle_alpha   122.19975803
_cell_angle_beta   89.97002656
_cell_angle_gamma   89.97050053
_symmetry_Int_Tables_number   1
_chemical_formula_structural   Zr4PaCoSb3
_chemical_formula_sum   'Zr8 Pa2 Co2 Sb6'
_cell_volume   390.80297402
_cell_formula_units_Z   2
loop_
 _symmetry_equiv_pos_site_id
 _symmetry_equiv_pos_as_xyz
  1  'x, y, z'
loop_
 _atom_site_type_symbol
 _atom_site_label
 _atom_site_symmetry_multiplicity
 _atom_site_fract_x
 _atom_site_fract_y
 _atom_site_fract_z
 _atom_site_occupancy
  Zr  Zr0  1  0.749984  0.994024  0.260121  1
  Zr  Zr1  1  0.250017  0.005978  0.739865  1
  Zr  Zr2  1  0.749963  0.260121  0.994024  1
  Zr  Zr3  1  0.250038  0.739864  0.005977  1
  Zr  Zr4  1  0.000040  0.663746  0.336282  1
  Zr  Zr5  1  0.000042  0.336274  0.663739  1
  Zr  Zr6  1  0.499961  0.336287  0.663741  1
  Zr  Zr7  1  0.499960  0.663734  0.336278  1
  Pa  Pa8  1  0.749823  0.773447  0.773447  1
  Pa  Pa9  1  0.250171  0.226637  0.226637  1
  Co  Co10  1  0.000017  0.999910  0.999910  1
  Co  Co11  1  0.499985  0.999910  0.999910  1
  Sb  Sb12  1  0.750024  0.388988  0.388988  1
  Sb  Sb13  1  0.249977  0.611020  0.611020  1
  Sb  Sb14  1  0.750014  0.005253  0.605659  1
  Sb  Sb15  1  0.249985  0.994764  0.394384  1
  Sb  Sb16  1  0.750005  0.605659  0.005252  1
  Sb  Sb17  1  0.249994  0.394385  0.994764  1
