# generated using pymatgen
data_Ba4B4PdPt15
_symmetry_space_group_name_H-M   'P 1'
_cell_length_a   6.16512585
_cell_length_b   5.73871700
_cell_length_c   12.21701310
_cell_angle_alpha   90.00000000
_cell_angle_beta   89.76686912
_cell_angle_gamma   90.00000000
_symmetry_Int_Tables_number   1
_chemical_formula_structural   Ba4B4PdPt15
_chemical_formula_sum   'Ba4 B4 Pd1 Pt15'
_cell_volume   432.23327682
_cell_formula_units_Z   1
loop_
 _symmetry_equiv_pos_site_id
 _symmetry_equiv_pos_as_xyz
  1  'x, y, z'
loop_
 _atom_site_type_symbol
 _atom_site_label
 _atom_site_symmetry_multiplicity
 _atom_site_fract_x
 _atom_site_fract_y
 _atom_site_fract_z
 _atom_site_occupancy
  Ba  Ba0  1  0.185129  0.250001  0.666204  1
  Ba  Ba1  1  0.316863  0.749999  0.166648  1
  Ba  Ba2  1  0.685131  0.250001  0.832818  1
  Ba  Ba3  1  0.815999  0.749999  0.332872  1
  B  B4  1  0.094588  0.250001  0.050792  1
  B  B5  1  0.404640  0.749999  0.551850  1
  B  B6  1  0.593516  0.250001  0.448603  1
  B  B7  1  0.907931  0.749999  0.952642  1
  Pd  Pd8  1  0.894621  0.749999  0.764649  1
  Pt  Pt9  1  0.327658  0.007671  0.417888  1
  Pt  Pt10  1  0.172012  0.990623  0.918139  1
  Pt  Pt11  1  0.828277  0.491484  0.082383  1
  Pt  Pt12  1  0.671092  0.507886  0.581132  1
  Pt  Pt13  1  0.671092  0.992115  0.581132  1
  Pt  Pt14  1  0.828277  0.008515  0.082383  1
  Pt  Pt15  1  0.172012  0.509378  0.918139  1
  Pt  Pt16  1  0.327658  0.492328  0.417888  1
  Pt  Pt17  1  0.431576  0.250001  0.062484  1
  Pt  Pt18  1  0.065693  0.749999  0.560307  1
  Pt  Pt19  1  0.931319  0.250001  0.437880  1
  Pt  Pt20  1  0.570987  0.749999  0.937622  1
  Pt  Pt21  1  0.105016  0.250001  0.235134  1
  Pt  Pt22  1  0.395091  0.749999  0.735647  1
  Pt  Pt23  1  0.603822  0.250001  0.264766  1
