# generated using pymatgen
data_Ac8Yb11LuSi16
_symmetry_space_group_name_H-M   'P 1'
_cell_length_a   7.69628028
_cell_length_b   8.12567557
_cell_length_c   15.54058700
_cell_angle_alpha   89.97880409
_cell_angle_beta   90.01533589
_cell_angle_gamma   89.99717109
_symmetry_Int_Tables_number   1
_chemical_formula_structural   Ac8Yb11LuSi16
_chemical_formula_sum   'Ac8 Yb11 Lu1 Si16'
_cell_volume   971.86899312
_cell_formula_units_Z   1
loop_
 _symmetry_equiv_pos_site_id
 _symmetry_equiv_pos_as_xyz
  1  'x, y, z'
loop_
 _atom_site_type_symbol
 _atom_site_label
 _atom_site_symmetry_multiplicity
 _atom_site_fract_x
 _atom_site_fract_y
 _atom_site_fract_z
 _atom_site_occupancy
  Ac  Ac0  1  0.022809  0.180100  0.400570  1
  Ac  Ac1  1  0.523555  0.320008  0.401883  1
  Ac  Ac2  1  0.474286  0.682126  0.901496  1
  Ac  Ac3  1  0.474707  0.682149  0.598769  1
  Ac  Ac4  1  0.975355  0.817686  0.598259  1
  Ac  Ac5  1  0.973765  0.817535  0.901089  1
  Ac  Ac6  1  0.525018  0.319623  0.099065  1
  Ac  Ac7  1  0.023665  0.182421  0.096459  1
  Yb  Yb8  1  0.321325  0.180145  0.622851  1
  Yb  Yb9  1  0.678239  0.819855  0.376418  1
  Yb  Yb10  1  0.645887  0.007484  0.749764  1
  Yb  Yb11  1  0.180199  0.679935  0.376616  1
  Yb  Yb12  1  0.820787  0.320115  0.878035  1
  Yb  Yb13  1  0.821551  0.319655  0.622579  1
  Yb  Yb14  1  0.856523  0.505385  0.250720  1
  Yb  Yb15  1  0.351026  0.995932  0.250302  1
  Yb  Yb16  1  0.322033  0.178518  0.879715  1
  Yb  Yb17  1  0.178889  0.681542  0.121943  1
  Yb  Yb18  1  0.144918  0.491619  0.750100  1
  Lu  Lu19  1  0.679049  0.819724  0.123960  1
  Si  Si20  1  0.259686  0.884617  0.750796  1
  Si  Si21  1  0.472686  0.604708  0.247087  1
  Si  Si22  1  0.033418  0.099408  0.750736  1
  Si  Si23  1  0.532864  0.399329  0.751201  1
  Si  Si24  1  0.140792  0.468544  0.536186  1
  Si  Si25  1  0.960941  0.895429  0.244322  1
  Si  Si26  1  0.737544  0.110867  0.246184  1
  Si  Si27  1  0.853141  0.537476  0.039016  1
  Si  Si28  1  0.369117  0.966324  0.041707  1
  Si  Si29  1  0.136569  0.471512  0.963615  1
  Si  Si30  1  0.640108  0.030760  0.536247  1
  Si  Si31  1  0.359629  0.970013  0.462148  1
  Si  Si32  1  0.861174  0.529920  0.461847  1
  Si  Si33  1  0.758614  0.615745  0.750446  1
  Si  Si34  1  0.242963  0.387563  0.248814  1
  Si  Si35  1  0.647166  0.026225  0.969061  1
