# generated using pymatgen
data_TbNd4P12Ru9Rh10
_symmetry_space_group_name_H-M   'P 1'
_cell_length_a   12.68882500
_cell_length_b   12.68882456
_cell_length_c   3.97761100
_cell_angle_alpha   90.00000000
_cell_angle_beta   90.00000000
_cell_angle_gamma   120.00000375
_symmetry_Int_Tables_number   1
_chemical_formula_structural   TbNd4P12Ru9Rh10
_chemical_formula_sum   'Tb1 Nd4 P12 Ru9 Rh10'
_cell_volume   554.62025205
_cell_formula_units_Z   1
loop_
 _symmetry_equiv_pos_site_id
 _symmetry_equiv_pos_as_xyz
  1  'x, y, z'
loop_
 _atom_site_type_symbol
 _atom_site_label
 _atom_site_symmetry_multiplicity
 _atom_site_fract_x
 _atom_site_fract_y
 _atom_site_fract_z
 _atom_site_occupancy
  Tb  Tb0  1  0.666667  0.333333  0.000000  1
  Nd  Nd1  1  0.000069  0.186054  0.500000  1
  Nd  Nd2  1  0.813946  0.814016  0.500000  1
  Nd  Nd3  1  0.185984  0.999931  0.500000  1
  Nd  Nd4  1  0.333333  0.666667  0.000000  1
  P  P5  1  0.998951  0.814335  0.000000  1
  P  P6  1  0.185665  0.184617  0.000000  1
  P  P7  1  0.815383  0.001049  0.000000  1
  P  P8  1  0.690095  0.174146  0.500000  1
  P  P9  1  0.825854  0.515949  0.500000  1
  P  P10  1  0.484051  0.309905  0.500000  1
  P  P11  1  0.170648  0.689554  0.500000  1
  P  P12  1  0.518905  0.829352  0.500000  1
  P  P13  1  0.310446  0.481095  0.500000  1
  P  P14  1  0.000158  0.371984  0.000000  1
  P  P15  1  0.628016  0.628174  0.000000  1
  P  P16  1  0.371826  0.999842  0.000000  1
  Ru  Ru17  1  0.998575  0.711460  0.500000  1
  Ru  Ru18  1  0.288540  0.287115  0.500000  1
  Ru  Ru19  1  0.712885  0.001425  0.500000  1
  Ru  Ru20  1  0.872725  0.362953  0.500000  1
  Ru  Ru21  1  0.637047  0.509772  0.500000  1
  Ru  Ru22  1  0.490228  0.127275  0.500000  1
  Ru  Ru23  1  0.362248  0.875385  0.500000  1
  Ru  Ru24  1  0.513137  0.637752  0.500000  1
  Ru  Ru25  1  0.124615  0.486863  0.500000  1
  Rh  Rh26  1  0.999904  0.550725  0.000000  1
  Rh  Rh27  1  0.449275  0.449179  0.000000  1
  Rh  Rh28  1  0.550821  0.000096  0.000000  1
  Rh  Rh29  1  0.804593  0.183499  0.000000  1
  Rh  Rh30  1  0.816501  0.621094  0.000000  1
  Rh  Rh31  1  0.378906  0.195407  0.000000  1
  Rh  Rh32  1  0.181450  0.804949  0.000000  1
  Rh  Rh33  1  0.623499  0.818550  0.000000  1
  Rh  Rh34  1  0.195051  0.376501  0.000000  1
  Rh  Rh35  1  0.000000  0.000000  0.000000  1
