# generated using pymatgen
data_La6Mg5Cd18P
_symmetry_space_group_name_H-M   'P 1'
_cell_length_a   10.17155327
_cell_length_b   10.12643852
_cell_length_c   10.12375301
_cell_angle_alpha   60.01243887
_cell_angle_beta   60.15446134
_cell_angle_gamma   60.42606797
_symmetry_Int_Tables_number   1
_chemical_formula_structural   La6Mg5Cd18P
_chemical_formula_sum   'La6 Mg5 Cd18 P1'
_cell_volume   740.62500549
_cell_formula_units_Z   1
loop_
 _symmetry_equiv_pos_site_id
 _symmetry_equiv_pos_as_xyz
  1  'x, y, z'
loop_
 _atom_site_type_symbol
 _atom_site_label
 _atom_site_symmetry_multiplicity
 _atom_site_fract_x
 _atom_site_fract_y
 _atom_site_fract_z
 _atom_site_occupancy
  La  La0  1  0.795782  0.791212  0.206536  1
  La  La1  1  0.204709  0.793025  0.207302  1
  La  La2  1  0.795304  0.207119  0.204866  1
  La  La3  1  0.204218  0.208788  0.793464  1
  La  La4  1  0.795291  0.206975  0.792698  1
  La  La5  1  0.204696  0.792881  0.795134  1
  Mg  Mg6  1  0.000000  0.000000  0.500000  1
  Mg  Mg7  1  0.500000  0.000000  0.500000  1
  Mg  Mg8  1  0.500000  0.500000  0.000000  1
  Mg  Mg9  1  0.500000  0.000000  0.000000  1
  Mg  Mg10  1  0.500000  0.500000  0.500000  1
  Cd  Cd11  1  0.829075  0.832498  0.508074  1
  Cd  Cd12  1  0.828424  0.508190  0.831688  1
  Cd  Cd13  1  0.508921  0.829873  0.830605  1
  Cd  Cd14  1  0.829065  0.832501  0.830373  1
  Cd  Cd15  1  0.170925  0.167502  0.491926  1
  Cd  Cd16  1  0.171576  0.491810  0.168312  1
  Cd  Cd17  1  0.491079  0.170127  0.169395  1
  Cd  Cd18  1  0.170935  0.167499  0.169627  1
  Cd  Cd19  1  0.617947  0.622909  0.137624  1
  Cd  Cd20  1  0.619731  0.138097  0.621081  1
  Cd  Cd21  1  0.138305  0.623029  0.619334  1
  Cd  Cd22  1  0.617949  0.622905  0.621531  1
  Cd  Cd23  1  0.382053  0.377091  0.862376  1
  Cd  Cd24  1  0.380269  0.861903  0.378919  1
  Cd  Cd25  1  0.861695  0.376971  0.380666  1
  Cd  Cd26  1  0.382051  0.377095  0.378469  1
  Cd  Cd27  1  0.000000  0.500000  0.500000  1
  Cd  Cd28  1  0.000000  0.500000  0.000000  1
  P  P29  1  0.000000  0.000000  0.000000  1
