# generated using pymatgen
data_Ca4Ga2Pt3Rh
_symmetry_space_group_name_H-M   'P 1'
_cell_length_a   5.68986893
_cell_length_b   5.74726044
_cell_length_c   7.84016601
_cell_angle_alpha   78.45017072
_cell_angle_beta   78.59588180
_cell_angle_gamma   59.71769191
_symmetry_Int_Tables_number   1
_chemical_formula_structural   Ca4Ga2Pt3Rh
_chemical_formula_sum   'Ca4 Ga2 Pt3 Rh1'
_cell_volume   215.49296149
_cell_formula_units_Z   1
loop_
 _symmetry_equiv_pos_site_id
 _symmetry_equiv_pos_as_xyz
  1  'x, y, z'
loop_
 _atom_site_type_symbol
 _atom_site_label
 _atom_site_symmetry_multiplicity
 _atom_site_fract_x
 _atom_site_fract_y
 _atom_site_fract_z
 _atom_site_occupancy
  Ca  Ca0  1  0.784983  0.516549  0.348020  1
  Ca  Ca1  1  0.490572  0.212432  0.145923  1
  Ca  Ca2  1  0.214910  0.486954  0.651279  1
  Ca  Ca3  1  0.507921  0.786760  0.854072  1
  Ga  Ga4  1  0.119179  0.877443  0.245345  1
  Ga  Ga5  1  0.883614  0.111608  0.755901  1
  Pt  Pt6  1  0.265730  0.995191  0.491590  1
  Pt  Pt7  1  0.995107  0.275209  0.994015  1
  Pt  Pt8  1  0.731995  0.005298  0.506928  1
  Rh  Rh9  1  0.005989  0.732555  0.006928  1
