# generated using pymatgen
data_Lu12Fe2CoRh
_symmetry_space_group_name_H-M   'P 1'
_cell_length_a   6.16949029
_cell_length_b   6.99187981
_cell_length_c   8.96948000
_cell_angle_alpha   90.00000000
_cell_angle_beta   90.00000000
_cell_angle_gamma   90.23523834
_symmetry_Int_Tables_number   1
_chemical_formula_structural   Lu12Fe2CoRh
_chemical_formula_sum   'Lu12 Fe2 Co1 Rh1'
_cell_volume   386.90722967
_cell_formula_units_Z   1
loop_
 _symmetry_equiv_pos_site_id
 _symmetry_equiv_pos_as_xyz
  1  'x, y, z'
loop_
 _atom_site_type_symbol
 _atom_site_label
 _atom_site_symmetry_multiplicity
 _atom_site_fract_x
 _atom_site_fract_y
 _atom_site_fract_z
 _atom_site_occupancy
  Lu  Lu0  1  0.330339  0.670886  0.060425  1
  Lu  Lu1  1  0.174210  0.181055  0.441017  1
  Lu  Lu2  1  0.677687  0.323858  0.568484  1
  Lu  Lu3  1  0.823147  0.825081  0.931587  1
  Lu  Lu4  1  0.677687  0.323858  0.931516  1
  Lu  Lu5  1  0.823147  0.825081  0.568413  1
  Lu  Lu6  1  0.330339  0.670886  0.439575  1
  Lu  Lu7  1  0.174210  0.181055  0.058983  1
  Lu  Lu8  1  0.861951  0.536242  0.250000  1
  Lu  Lu9  1  0.624495  0.044821  0.250000  1
  Lu  Lu10  1  0.131075  0.459406  0.750000  1
  Lu  Lu11  1  0.368187  0.955750  0.750000  1
  Fe  Fe12  1  0.971450  0.113455  0.750000  1
  Fe  Fe13  1  0.531644  0.612301  0.750000  1
  Co  Co14  1  0.458913  0.386771  0.250000  1
  Rh  Rh15  1  0.041517  0.889495  0.250000  1
