# generated using pymatgen
data_TlGeF5
_symmetry_space_group_name_H-M   'P 1'
_cell_length_a   6.13877800
_cell_length_b   5.52844188
_cell_length_c   15.40500700
_cell_angle_alpha   69.88667511
_cell_angle_beta   90.00000000
_cell_angle_gamma   90.00000000
_symmetry_Int_Tables_number   1
_chemical_formula_structural   TlGeF5
_chemical_formula_sum   'Tl4 Ge4 F20'
_cell_volume   490.92910908
_cell_formula_units_Z   4
loop_
 _symmetry_equiv_pos_site_id
 _symmetry_equiv_pos_as_xyz
  1  'x, y, z'
loop_
 _atom_site_type_symbol
 _atom_site_label
 _atom_site_symmetry_multiplicity
 _atom_site_fract_x
 _atom_site_fract_y
 _atom_site_fract_z
 _atom_site_occupancy
  Tl  Tl0  1  0.873204  0.637652  0.349166  1
  Tl  Tl1  1  0.373204  0.362348  0.150834  1
  Tl  Tl2  1  0.126796  0.362348  0.650834  1
  Tl  Tl3  1  0.626796  0.637652  0.849166  1
  Ge  Ge4  1  0.370322  0.023715  0.409589  1
  Ge  Ge5  1  0.870322  0.976285  0.090411  1
  Ge  Ge6  1  0.629678  0.976285  0.590411  1
  Ge  Ge7  1  0.129678  0.023715  0.909589  1
  F  F8  1  0.607496  0.823744  0.493224  1
  F  F9  1  0.107496  0.176256  0.006776  1
  F  F10  1  0.392504  0.176256  0.506776  1
  F  F11  1  0.892504  0.823744  0.993224  1
  F  F12  1  0.180666  0.793315  0.480750  1
  F  F13  1  0.680666  0.206685  0.019250  1
  F  F14  1  0.819334  0.206685  0.519250  1
  F  F15  1  0.319334  0.793315  0.980750  1
  F  F16  1  0.919892  0.243901  0.848174  1
  F  F17  1  0.419892  0.756099  0.651826  1
  F  F18  1  0.080108  0.756099  0.151826  1
  F  F19  1  0.580108  0.243901  0.348174  1
  F  F20  1  0.098164  0.841642  0.834278  1
  F  F21  1  0.598164  0.158358  0.665722  1
  F  F22  1  0.901836  0.158358  0.165722  1
  F  F23  1  0.401836  0.841642  0.334278  1
  F  F24  1  0.340172  0.238873  0.848609  1
  F  F25  1  0.840172  0.761127  0.651391  1
  F  F26  1  0.659828  0.761127  0.151391  1
  F  F27  1  0.159828  0.238873  0.348609  1
