# generated using pymatgen
data_Ti2Nb4ReSi6Mo5
_symmetry_space_group_name_H-M   'P 1'
_cell_length_a   7.67611967
_cell_length_b   7.69108844
_cell_length_c   7.67808214
_cell_angle_alpha   126.24271737
_cell_angle_beta   128.72422864
_cell_angle_gamma   77.44533179
_symmetry_Int_Tables_number   1
_chemical_formula_structural   Ti2Nb4ReSi6Mo5
_chemical_formula_sum   'Ti2 Nb4 Re1 Si6 Mo5'
_cell_volume   276.72221385
_cell_formula_units_Z   1
loop_
 _symmetry_equiv_pos_site_id
 _symmetry_equiv_pos_as_xyz
  1  'x, y, z'
loop_
 _atom_site_type_symbol
 _atom_site_label
 _atom_site_symmetry_multiplicity
 _atom_site_fract_x
 _atom_site_fract_y
 _atom_site_fract_z
 _atom_site_occupancy
  Ti  Ti0  1  0.549539  0.092473  0.042771  1
  Ti  Ti1  1  0.450840  0.495692  0.545127  1
  Nb  Nb2  1  0.950197  0.495212  0.043991  1
  Nb  Nb3  1  0.048492  0.089625  0.541218  1
  Nb  Nb4  1  0.754485  0.906368  0.652384  1
  Nb  Nb5  1  0.248174  0.900271  0.151761  1
  Re  Re6  1  0.369120  0.497341  0.126529  1
  Si  Si7  1  0.747374  0.495326  0.247094  1
  Si  Si8  1  0.250441  0.497366  0.748063  1
  Si  Si9  1  0.338112  0.826268  0.499518  1
  Si  Si10  1  0.662608  0.165218  0.491393  1
  Si  Si11  1  0.826221  0.829303  0.991344  1
  Si  Si12  1  0.175430  0.167749  0.003361  1
  Mo  Mo13  1  0.499350  0.236110  0.737068  1
  Mo  Mo14  1  0.000313  0.237578  0.237305  1
  Mo  Mo15  1  0.129152  0.756632  0.626128  1
  Mo  Mo16  1  0.869890  0.497202  0.628810  1
  Mo  Mo17  1  0.630260  0.756467  0.128332  1
