# generated using pymatgen
data_Ce3Th3(Cu2S7)2
_symmetry_space_group_name_H-M   'P 1'
_cell_length_a   9.94006708
_cell_length_b   9.94114438
_cell_length_c   5.78690821
_cell_angle_alpha   89.98406057
_cell_angle_beta   89.98529169
_cell_angle_gamma   119.99515641
_symmetry_Int_Tables_number   1
_chemical_formula_structural   Ce3Th3(Cu2S7)2
_chemical_formula_sum   'Ce3 Th3 Cu4 S14'
_cell_volume   495.24950957
_cell_formula_units_Z   1
loop_
 _symmetry_equiv_pos_site_id
 _symmetry_equiv_pos_as_xyz
  1  'x, y, z'
loop_
 _atom_site_type_symbol
 _atom_site_label
 _atom_site_symmetry_multiplicity
 _atom_site_fract_x
 _atom_site_fract_y
 _atom_site_fract_z
 _atom_site_occupancy
  Ce  Ce0  1  0.619177  0.853299  0.740789  1
  Ce  Ce1  1  0.234154  0.380833  0.740871  1
  Ce  Ce2  1  0.146647  0.765714  0.740925  1
  Th  Th3  1  0.377569  0.145864  0.241122  1
  Th  Th4  1  0.768166  0.622354  0.241130  1
  Th  Th5  1  0.854265  0.231835  0.241230  1
  Cu  Cu6  1  0.999933  0.000032  0.226153  1
  Cu  Cu7  1  0.000029  0.999941  0.725949  1
  Cu  Cu8  1  0.333321  0.666595  0.354215  1
  Cu  Cu9  1  0.666664  0.333384  0.855417  1
  S  S10  1  0.155946  0.256669  0.231748  1
  S  S11  1  0.100659  0.844120  0.231749  1
  S  S12  1  0.743354  0.899294  0.231733  1
  S  S13  1  0.666669  0.333341  0.462162  1
  S  S14  1  0.087099  0.514001  0.489772  1
  S  S15  1  0.426738  0.912744  0.489718  1
  S  S16  1  0.486104  0.573231  0.489737  1
  S  S17  1  0.256159  0.100345  0.731892  1
  S  S18  1  0.844302  0.743842  0.731881  1
  S  S19  1  0.899582  0.155606  0.731901  1
  S  S20  1  0.333371  0.666761  0.960628  1
  S  S21  1  0.915516  0.488509  0.987026  1
  S  S22  1  0.572938  0.084651  0.987130  1
  S  S23  1  0.511638  0.427036  0.987125  1
