# generated using pymatgen
data_CaAlAu5
_symmetry_space_group_name_H-M   'P 1'
_cell_length_a   5.75444208
_cell_length_b   5.75444156
_cell_length_c   5.75444256
_cell_angle_alpha   102.48467612
_cell_angle_beta   102.48467532
_cell_angle_gamma   124.58603131
_symmetry_Int_Tables_number   1
_chemical_formula_structural   CaAlAu5
_chemical_formula_sum   'Ca1 Al1 Au5'
_cell_volume   138.88746982
_cell_formula_units_Z   1
loop_
 _symmetry_equiv_pos_site_id
 _symmetry_equiv_pos_as_xyz
  1  'x, y, z'
loop_
 _atom_site_type_symbol
 _atom_site_label
 _atom_site_symmetry_multiplicity
 _atom_site_fract_x
 _atom_site_fract_y
 _atom_site_fract_z
 _atom_site_occupancy
  Ca  Ca0  1  0.000000  0.000000  0.000000  1
  Al  Al1  1  0.750000  0.250000  0.500000  1
  Au  Au2  1  0.301971  0.698029  0.000000  1
  Au  Au3  1  0.698029  0.301971  0.000000  1
  Au  Au4  1  0.698029  0.698029  0.396055  1
  Au  Au5  1  0.301971  0.301971  0.603945  1
  Au  Au6  1  0.250000  0.750000  0.500000  1
