# generated using pymatgen
data_LiNd2ScSb2
_symmetry_space_group_name_H-M   'P 1'
_cell_length_a   8.69031673
_cell_length_b   8.69031704
_cell_length_c   8.69031682
_cell_angle_alpha   150.57854037
_cell_angle_beta   149.96456701
_cell_angle_gamma   42.54504581
_symmetry_Int_Tables_number   1
_chemical_formula_structural   LiNd2ScSb2
_chemical_formula_sum   'Li1 Nd2 Sc1 Sb2'
_cell_volume   160.97061912
_cell_formula_units_Z   1
loop_
 _symmetry_equiv_pos_site_id
 _symmetry_equiv_pos_as_xyz
  1  'x, y, z'
loop_
 _atom_site_type_symbol
 _atom_site_label
 _atom_site_symmetry_multiplicity
 _atom_site_fract_x
 _atom_site_fract_y
 _atom_site_fract_z
 _atom_site_occupancy
  Li  Li0  1  0.000000  0.500000  0.500000  1
  Nd  Nd1  1  0.828929  0.828929  0.000000  1
  Nd  Nd2  1  0.171071  0.171071  0.000000  1
  Sc  Sc3  1  0.500000  0.000000  0.500000  1
  Sb  Sb4  1  0.626681  0.626681  0.000000  1
  Sb  Sb5  1  0.373319  0.373319  0.000000  1
