# generated using pymatgen
data_Ho10Ga3TcSn2
_symmetry_space_group_name_H-M   'P 1'
_cell_length_a   8.65113886
_cell_length_b   8.65113703
_cell_length_c   8.71744100
_cell_angle_alpha   125.65702428
_cell_angle_beta   125.65702370
_cell_angle_gamma   79.93303284
_symmetry_Int_Tables_number   1
_chemical_formula_structural   Ho10Ga3TcSn2
_chemical_formula_sum   'Ho10 Ga3 Tc1 Sn2'
_cell_volume   417.05834471
_cell_formula_units_Z   1
loop_
 _symmetry_equiv_pos_site_id
 _symmetry_equiv_pos_as_xyz
  1  'x, y, z'
loop_
 _atom_site_type_symbol
 _atom_site_label
 _atom_site_symmetry_multiplicity
 _atom_site_fract_x
 _atom_site_fract_y
 _atom_site_fract_z
 _atom_site_occupancy
  Ho  Ho0  1  0.004376  0.006315  0.010693  1
  Ho  Ho1  1  0.493685  0.495624  0.989307  1
  Ho  Ho2  1  0.016085  0.505226  0.807471  1
  Ho  Ho3  1  0.708615  0.197755  0.192529  1
  Ho  Ho4  1  0.518490  0.698201  0.500000  1
  Ho  Ho5  1  0.188799  0.036429  0.500000  1
  Ho  Ho6  1  0.994774  0.483915  0.192529  1
  Ho  Ho7  1  0.302245  0.791385  0.807471  1
  Ho  Ho8  1  0.463571  0.311201  0.500000  1
  Ho  Ho9  1  0.801799  0.981510  0.500000  1
  Ga  Ga10  1  0.366242  0.860128  0.226368  1
  Ga  Ga11  1  0.639872  0.133758  0.773632  1
  Ga  Ga12  1  0.867978  0.632022  0.500000  1
  Tc  Tc13  1  0.124141  0.375859  0.500000  1
  Sn  Sn14  1  0.754665  0.745335  0.000000  1
  Sn  Sn15  1  0.254665  0.245335  0.000000  1
