# generated using pymatgen
data_PrNd4ScRuO12
_symmetry_space_group_name_H-M   'P 1'
_cell_length_a   7.12521909
_cell_length_b   7.12521922
_cell_length_c   7.64591875
_cell_angle_alpha   74.48372397
_cell_angle_beta   74.48372672
_cell_angle_gamma   50.61755216
_symmetry_Int_Tables_number   1
_chemical_formula_structural   PrNd4ScRuO12
_chemical_formula_sum   'Pr1 Nd4 Sc1 Ru1 O12'
_cell_volume   286.59326996
_cell_formula_units_Z   1
loop_
 _symmetry_equiv_pos_site_id
 _symmetry_equiv_pos_as_xyz
  1  'x, y, z'
loop_
 _atom_site_type_symbol
 _atom_site_label
 _atom_site_symmetry_multiplicity
 _atom_site_fract_x
 _atom_site_fract_y
 _atom_site_fract_z
 _atom_site_occupancy
  Pr  Pr0  1  0.008044  0.991956  0.500000  1
  Nd  Nd1  1  0.308586  0.299295  0.358652  1
  Nd  Nd2  1  0.700705  0.691414  0.641348  1
  Nd  Nd3  1  0.688954  0.697230  0.166609  1
  Nd  Nd4  1  0.302770  0.311046  0.833391  1
  Sc  Sc5  1  0.755911  0.244089  0.000000  1
  Ru  Ru6  1  0.243299  0.756701  0.000000  1
  O  O7  1  0.096993  0.595115  0.573206  1
  O  O8  1  0.019714  0.979289  0.179202  1
  O  O9  1  0.404885  0.903007  0.426794  1
  O  O10  1  0.485936  0.515793  0.179418  1
  O  O11  1  0.102215  0.586405  0.079382  1
  O  O12  1  0.906704  0.405238  0.420462  1
  O  O13  1  0.020711  0.980286  0.820798  1
  O  O14  1  0.594762  0.093295  0.579538  1
  O  O15  1  0.484207  0.514064  0.820582  1
  O  O16  1  0.563269  0.101260  0.081600  1
  O  O17  1  0.413595  0.897785  0.920618  1
  O  O18  1  0.898740  0.436731  0.918400  1
