# generated using pymatgen
data_Dy3HoNi2(B2O5)4
_symmetry_space_group_name_H-M   'P 1'
_cell_length_a   4.54987315
_cell_length_b   7.28756445
_cell_length_c   9.43361920
_cell_angle_alpha   90.03642068
_cell_angle_beta   91.31631785
_cell_angle_gamma   90.01638155
_symmetry_Int_Tables_number   1
_chemical_formula_structural   Dy3HoNi2(B2O5)4
_chemical_formula_sum   'Dy3 Ho1 Ni2 B8 O20'
_cell_volume   312.71254870
_cell_formula_units_Z   1
loop_
 _symmetry_equiv_pos_site_id
 _symmetry_equiv_pos_as_xyz
  1  'x, y, z'
loop_
 _atom_site_type_symbol
 _atom_site_label
 _atom_site_symmetry_multiplicity
 _atom_site_fract_x
 _atom_site_fract_y
 _atom_site_fract_z
 _atom_site_occupancy
  Dy  Dy0  1  0.003859  0.398715  0.164824  1
  Dy  Dy1  1  0.996149  0.898620  0.334979  1
  Dy  Dy2  1  0.004012  0.101388  0.665194  1
  Ho  Ho3  1  0.996041  0.601217  0.835200  1
  Ni  Ni4  1  0.000030  0.999732  0.999866  1
  Ni  Ni5  1  0.000020  0.499954  0.500046  1
  B  B6  1  0.471325  0.735189  0.084793  1
  B  B7  1  0.464774  0.095849  0.160511  1
  B  B8  1  0.535235  0.595755  0.339431  1
  B  B9  1  0.528674  0.235492  0.414917  1
  B  B10  1  0.471278  0.764492  0.585395  1
  B  B11  1  0.464557  0.404651  0.660936  1
  B  B12  1  0.535399  0.903662  0.839375  1
  B  B13  1  0.528751  0.264921  0.914738  1
  O  O14  1  0.333171  0.206706  0.037023  1
  O  O15  1  0.250356  0.608942  0.038790  1
  O  O16  1  0.322181  0.907871  0.142150  1
  O  O17  1  0.776866  0.095719  0.165938  1
  O  O18  1  0.671506  0.669745  0.205329  1
  O  O19  1  0.328130  0.169864  0.294545  1
  O  O20  1  0.223122  0.595622  0.333937  1
  O  O21  1  0.677999  0.407898  0.357587  1
  O  O22  1  0.749197  0.108896  0.460508  1
  O  O23  1  0.666995  0.706318  0.463094  1
  O  O24  1  0.333027  0.293750  0.537126  1
  O  O25  1  0.251069  0.891320  0.539670  1
  O  O26  1  0.321083  0.592336  0.642929  1
  O  O27  1  0.776752  0.405272  0.666551  1
  O  O28  1  0.672362  0.829552  0.705618  1
  O  O29  1  0.327733  0.330331  0.794726  1
  O  O30  1  0.223150  0.903439  0.833999  1
  O  O31  1  0.677635  0.092025  0.857573  1
  O  O32  1  0.749664  0.391713  0.959881  1
  O  O33  1  0.667900  0.793047  0.962821  1
