# generated using pymatgen
data_Th5ScRh10
_symmetry_space_group_name_H-M   'P 1'
_cell_length_a   5.94742916
_cell_length_b   5.94742990
_cell_length_c   9.06674700
_cell_angle_alpha   90.00000000
_cell_angle_beta   90.00000000
_cell_angle_gamma   103.18623509
_symmetry_Int_Tables_number   1
_chemical_formula_structural   Th5ScRh10
_chemical_formula_sum   'Th5 Sc1 Rh10'
_cell_volume   312.25235303
_cell_formula_units_Z   1
loop_
 _symmetry_equiv_pos_site_id
 _symmetry_equiv_pos_as_xyz
  1  'x, y, z'
loop_
 _atom_site_type_symbol
 _atom_site_label
 _atom_site_symmetry_multiplicity
 _atom_site_fract_x
 _atom_site_fract_y
 _atom_site_fract_z
 _atom_site_occupancy
  Th  Th0  1  0.613320  0.613320  0.750000  1
  Th  Th1  1  0.788374  0.201105  0.494755  1
  Th  Th2  1  0.201105  0.788374  0.005245  1
  Th  Th3  1  0.201105  0.788374  0.494755  1
  Th  Th4  1  0.788374  0.201105  0.005245  1
  Sc  Sc5  1  0.404719  0.404719  0.250000  1
  Rh  Rh6  1  0.688853  0.688853  0.054251  1
  Rh  Rh7  1  0.688853  0.688853  0.445749  1
  Rh  Rh8  1  0.292438  0.292438  0.971834  1
  Rh  Rh9  1  0.292438  0.292438  0.528166  1
  Rh  Rh10  1  0.499003  0.056477  0.750000  1
  Rh  Rh11  1  0.495985  0.973781  0.250000  1
  Rh  Rh12  1  0.002856  0.002856  0.250000  1
  Rh  Rh13  1  0.012319  0.012319  0.750000  1
  Rh  Rh14  1  0.056477  0.499003  0.750000  1
  Rh  Rh15  1  0.973781  0.495985  0.250000  1
