# generated using pymatgen
data_Sc16Si16Mo3W
_symmetry_space_group_name_H-M   'P 1'
_cell_length_a   6.77005833
_cell_length_b   7.04440195
_cell_length_c   13.27650000
_cell_angle_alpha   90.00000000
_cell_angle_beta   90.00000000
_cell_angle_gamma   89.99791200
_symmetry_Int_Tables_number   1
_chemical_formula_structural   Sc16Si16Mo3W
_chemical_formula_sum   'Sc16 Si16 Mo3 W1'
_cell_volume   633.16972185
_cell_formula_units_Z   1
loop_
 _symmetry_equiv_pos_site_id
 _symmetry_equiv_pos_as_xyz
  1  'x, y, z'
loop_
 _atom_site_type_symbol
 _atom_site_label
 _atom_site_symmetry_multiplicity
 _atom_site_fract_x
 _atom_site_fract_y
 _atom_site_fract_z
 _atom_site_occupancy
  Sc  Sc0  1  0.989417  0.677920  0.595790  1
  Sc  Sc1  1  0.010439  0.321349  0.404314  1
  Sc  Sc2  1  0.510435  0.179307  0.404293  1
  Sc  Sc3  1  0.010439  0.321349  0.095686  1
  Sc  Sc4  1  0.489257  0.820960  0.595817  1
  Sc  Sc5  1  0.989417  0.677920  0.904210  1
  Sc  Sc6  1  0.489257  0.820960  0.904183  1
  Sc  Sc7  1  0.510435  0.179307  0.095707  1
  Sc  Sc8  1  0.326753  0.328401  0.626437  1
  Sc  Sc9  1  0.673762  0.671906  0.373393  1
  Sc  Sc10  1  0.173906  0.829055  0.373541  1
  Sc  Sc11  1  0.673762  0.671906  0.126607  1
  Sc  Sc12  1  0.825544  0.171369  0.626305  1
  Sc  Sc13  1  0.326753  0.328401  0.873563  1
  Sc  Sc14  1  0.825544  0.171369  0.873695  1
  Sc  Sc15  1  0.173906  0.829055  0.126459  1
  Si  Si16  1  0.019759  0.402498  0.750000  1
  Si  Si17  1  0.980713  0.595901  0.250000  1
  Si  Si18  1  0.480574  0.904937  0.250000  1
  Si  Si19  1  0.519406  0.095545  0.750000  1
  Si  Si20  1  0.285472  0.645993  0.750000  1
  Si  Si21  1  0.714964  0.354243  0.250000  1
  Si  Si22  1  0.214764  0.146528  0.250000  1
  Si  Si23  1  0.786010  0.853925  0.750000  1
  Si  Si24  1  0.160865  0.025426  0.546715  1
  Si  Si25  1  0.838690  0.974292  0.453805  1
  Si  Si26  1  0.338687  0.526179  0.453808  1
  Si  Si27  1  0.838690  0.974292  0.046195  1
  Si  Si28  1  0.661174  0.474098  0.545820  1
  Si  Si29  1  0.160865  0.025426  0.953285  1
  Si  Si30  1  0.661174  0.474098  0.954180  1
  Si  Si31  1  0.338687  0.526179  0.046192  1
  Mo  Mo32  1  0.849654  0.004710  0.250000  1
  Mo  Mo33  1  0.349764  0.495956  0.250000  1
  Mo  Mo34  1  0.650656  0.504357  0.750000  1
  W  W35  1  0.150407  0.994883  0.750000  1
