# generated using pymatgen
data_Tb12Cu3Si8Ru
_symmetry_space_group_name_H-M   'P 1'
_cell_length_a   4.16850200
_cell_length_b   11.33435219
_cell_length_c   11.40707922
_cell_angle_alpha   90.08604899
_cell_angle_beta   90.00000000
_cell_angle_gamma   90.00000000
_symmetry_Int_Tables_number   1
_chemical_formula_structural   Tb12Cu3Si8Ru
_chemical_formula_sum   'Tb12 Cu3 Si8 Ru1'
_cell_volume   538.95274150
_cell_formula_units_Z   1
loop_
 _symmetry_equiv_pos_site_id
 _symmetry_equiv_pos_as_xyz
  1  'x, y, z'
loop_
 _atom_site_type_symbol
 _atom_site_label
 _atom_site_symmetry_multiplicity
 _atom_site_fract_x
 _atom_site_fract_y
 _atom_site_fract_z
 _atom_site_occupancy
  Tb  Tb0  1  0.250000  0.062255  0.879685  1
  Tb  Tb1  1  0.250000  0.436566  0.379457  1
  Tb  Tb2  1  0.750000  0.937255  0.122207  1
  Tb  Tb3  1  0.750000  0.558295  0.623079  1
  Tb  Tb4  1  0.250000  0.124064  0.559937  1
  Tb  Tb5  1  0.250000  0.378325  0.058359  1
  Tb  Tb6  1  0.750000  0.881858  0.440730  1
  Tb  Tb7  1  0.750000  0.623443  0.943904  1
  Tb  Tb8  1  0.250000  0.802928  0.708606  1
  Tb  Tb9  1  0.250000  0.696198  0.209210  1
  Tb  Tb10  1  0.750000  0.196644  0.291388  1
  Tb  Tb11  1  0.750000  0.302639  0.788272  1
  Cu  Cu12  1  0.250000  0.134728  0.131497  1
  Cu  Cu13  1  0.750000  0.636024  0.369449  1
  Cu  Cu14  1  0.750000  0.864870  0.869024  1
  Si  Si15  1  0.250000  0.815852  0.975094  1
  Si  Si16  1  0.250000  0.687739  0.473235  1
  Si  Si17  1  0.750000  0.183832  0.025608  1
  Si  Si18  1  0.750000  0.313611  0.521427  1
  Si  Si19  1  0.250000  0.496254  0.807840  1
  Si  Si20  1  0.250000  0.004024  0.303648  1
  Si  Si21  1  0.750000  0.505086  0.193859  1
  Si  Si22  1  0.750000  0.993057  0.694283  1
  Ru  Ru23  1  0.250000  0.364455  0.630201  1
