# generated using pymatgen
data_PrCdGaCu4
_symmetry_space_group_name_H-M   'P 1'
_cell_length_a   5.16641000
_cell_length_b   8.36226700
_cell_length_c   10.77890200
_cell_angle_alpha   90.00000000
_cell_angle_beta   90.00000000
_cell_angle_gamma   90.00000000
_symmetry_Int_Tables_number   1
_chemical_formula_structural   PrCdGaCu4
_chemical_formula_sum   'Pr4 Cd4 Ga4 Cu16'
_cell_volume   465.67982361
_cell_formula_units_Z   4
loop_
 _symmetry_equiv_pos_site_id
 _symmetry_equiv_pos_as_xyz
  1  'x, y, z'
loop_
 _atom_site_type_symbol
 _atom_site_label
 _atom_site_symmetry_multiplicity
 _atom_site_fract_x
 _atom_site_fract_y
 _atom_site_fract_z
 _atom_site_occupancy
  Pr  Pr0  1  0.750000  0.245798  0.056999  1
  Pr  Pr1  1  0.250000  0.754202  0.943001  1
  Pr  Pr2  1  0.750000  0.745798  0.443001  1
  Pr  Pr3  1  0.250000  0.254202  0.556999  1
  Cd  Cd4  1  0.750000  0.363201  0.364785  1
  Cd  Cd5  1  0.250000  0.636799  0.635215  1
  Cd  Cd6  1  0.750000  0.863201  0.135215  1
  Cd  Cd7  1  0.250000  0.136799  0.864785  1
  Ga  Ga8  1  0.750000  0.683920  0.756645  1
  Ga  Ga9  1  0.250000  0.316080  0.243355  1
  Ga  Ga10  1  0.750000  0.183920  0.743355  1
  Ga  Ga11  1  0.250000  0.816080  0.256645  1
  Cu  Cu12  1  0.750000  0.941816  0.891888  1
  Cu  Cu13  1  0.250000  0.058184  0.108112  1
  Cu  Cu14  1  0.750000  0.441816  0.608112  1
  Cu  Cu15  1  0.250000  0.558184  0.391888  1
  Cu  Cu16  1  0.750000  0.587004  0.983718  1
  Cu  Cu17  1  0.250000  0.412996  0.016282  1
  Cu  Cu18  1  0.750000  0.087004  0.516282  1
  Cu  Cu19  1  0.250000  0.912996  0.483718  1
  Cu  Cu20  1  0.504514  0.065956  0.314934  1
  Cu  Cu21  1  0.004514  0.934044  0.685066  1
  Cu  Cu22  1  0.995486  0.565956  0.185066  1
  Cu  Cu23  1  0.495486  0.434044  0.814934  1
  Cu  Cu24  1  0.495486  0.934044  0.685066  1
  Cu  Cu25  1  0.995486  0.065956  0.314934  1
  Cu  Cu26  1  0.004514  0.434044  0.814934  1
  Cu  Cu27  1  0.504514  0.565956  0.185066  1
