# generated using pymatgen
data_Ti2Tc2GeC3
_symmetry_space_group_name_H-M   'P 1'
_cell_length_a   3.04384300
_cell_length_b   3.04384244
_cell_length_c   22.98303500
_cell_angle_alpha   90.00000000
_cell_angle_beta   90.00000000
_cell_angle_gamma   119.99999527
_symmetry_Int_Tables_number   1
_chemical_formula_structural   Ti2Tc2GeC3
_chemical_formula_sum   'Ti4 Tc4 Ge2 C6'
_cell_volume   184.40914159
_cell_formula_units_Z   2
loop_
 _symmetry_equiv_pos_site_id
 _symmetry_equiv_pos_as_xyz
  1  'x, y, z'
loop_
 _atom_site_type_symbol
 _atom_site_label
 _atom_site_symmetry_multiplicity
 _atom_site_fract_x
 _atom_site_fract_y
 _atom_site_fract_z
 _atom_site_occupancy
  Ti  Ti0  1  0.333333  0.666667  0.445320  1
  Ti  Ti1  1  0.666667  0.333333  0.554680  1
  Ti  Ti2  1  0.666667  0.333333  0.945320  1
  Ti  Ti3  1  0.333333  0.666667  0.054680  1
  Tc  Tc4  1  0.000000  0.000000  0.341062  1
  Tc  Tc5  1  0.000000  0.000000  0.658938  1
  Tc  Tc6  1  0.000000  0.000000  0.841062  1
  Tc  Tc7  1  0.000000  0.000000  0.158938  1
  Ge  Ge8  1  0.333333  0.666667  0.250000  1
  Ge  Ge9  1  0.666667  0.333333  0.750000  1
  C  C10  1  0.000000  0.000000  0.500000  1
  C  C11  1  0.000000  0.000000  0.000000  1
  C  C12  1  0.666667  0.333333  0.388614  1
  C  C13  1  0.333333  0.666667  0.611386  1
  C  C14  1  0.333333  0.666667  0.888614  1
  C  C15  1  0.666667  0.333333  0.111386  1
