# generated using pymatgen
data_Ce4CuPt3Pb2
_symmetry_space_group_name_H-M   'P 1'
_cell_length_a   7.94446208
_cell_length_b   7.94446208
_cell_length_c   3.75705000
_cell_angle_alpha   90.00000000
_cell_angle_beta   90.00000000
_cell_angle_gamma   89.81743434
_symmetry_Int_Tables_number   1
_chemical_formula_structural   Ce4CuPt3Pb2
_chemical_formula_sum   'Ce4 Cu1 Pt3 Pb2'
_cell_volume   237.12304499
_cell_formula_units_Z   1
loop_
 _symmetry_equiv_pos_site_id
 _symmetry_equiv_pos_as_xyz
  1  'x, y, z'
loop_
 _atom_site_type_symbol
 _atom_site_label
 _atom_site_symmetry_multiplicity
 _atom_site_fract_x
 _atom_site_fract_y
 _atom_site_fract_z
 _atom_site_occupancy
  Ce  Ce0  1  0.680684  0.170726  0.500001  1
  Ce  Ce1  1  0.168922  0.331077  0.500001  1
  Ce  Ce2  1  0.823672  0.676329  0.500001  1
  Ce  Ce3  1  0.329273  0.819317  0.500001  1
  Cu  Cu4  1  0.375942  0.124058  0.000000  1
  Pt  Pt5  1  0.872343  0.373134  0.000000  1
  Pt  Pt6  1  0.126866  0.627657  0.000000  1
  Pt  Pt7  1  0.615158  0.884842  0.000000  1
  Pb  Pb8  1  0.007237  0.000097  0.000000  1
  Pb  Pb9  1  0.499903  0.492763  0.000000  1
