# generated using pymatgen
data_Y2Si4Tc7Mo
_symmetry_space_group_name_H-M   'P 1'
_cell_length_a   7.03497374
_cell_length_b   7.68977398
_cell_length_c   4.18975900
_cell_angle_alpha   90.00000000
_cell_angle_beta   90.00000000
_cell_angle_gamma   89.99984811
_symmetry_Int_Tables_number   1
_chemical_formula_structural   Y2Si4Tc7Mo
_chemical_formula_sum   'Y2 Si4 Tc7 Mo1'
_cell_volume   226.65489282
_cell_formula_units_Z   1
loop_
 _symmetry_equiv_pos_site_id
 _symmetry_equiv_pos_as_xyz
  1  'x, y, z'
loop_
 _atom_site_type_symbol
 _atom_site_label
 _atom_site_symmetry_multiplicity
 _atom_site_fract_x
 _atom_site_fract_y
 _atom_site_fract_z
 _atom_site_occupancy
  Y  Y0  1  0.499937  0.498286  0.000000  1
  Y  Y1  1  0.999586  0.999267  0.500000  1
  Si  Si2  1  0.226683  0.806476  0.000000  1
  Si  Si3  1  0.775525  0.195364  0.000000  1
  Si  Si4  1  0.727226  0.690558  0.500000  1
  Si  Si5  1  0.273726  0.306417  0.500000  1
  Tc  Tc6  1  0.153980  0.607522  0.500000  1
  Tc  Tc7  1  0.082658  0.342811  0.000000  1
  Tc  Tc8  1  0.917951  0.657301  0.000000  1
  Tc  Tc9  1  0.418903  0.841913  0.500000  1
  Tc  Tc10  1  0.582117  0.162501  0.500000  1
  Tc  Tc11  1  0.343941  0.109359  0.000000  1
  Tc  Tc12  1  0.848935  0.391194  0.500000  1
  Mo  Mo13  1  0.648832  0.891033  0.000000  1
