# generated using pymatgen
data_LiGd4Tc3B16
_symmetry_space_group_name_H-M   'P 1'
_cell_length_a   3.61749900
_cell_length_b   5.97518500
_cell_length_c   11.55856632
_cell_angle_alpha   90.02615604
_cell_angle_beta   90.00000000
_cell_angle_gamma   90.00000000
_symmetry_Int_Tables_number   1
_chemical_formula_structural   LiGd4Tc3B16
_chemical_formula_sum   'Li1 Gd4 Tc3 B16'
_cell_volume   249.84099458
_cell_formula_units_Z   1
loop_
 _symmetry_equiv_pos_site_id
 _symmetry_equiv_pos_as_xyz
  1  'x, y, z'
loop_
 _atom_site_type_symbol
 _atom_site_label
 _atom_site_symmetry_multiplicity
 _atom_site_fract_x
 _atom_site_fract_y
 _atom_site_fract_z
 _atom_site_occupancy
  Li  Li0  1  0.000000  0.865685  0.587996  1
  Gd  Gd1  1  0.000000  0.626113  0.352528  1
  Gd  Gd2  1  0.000000  0.369726  0.646098  1
  Gd  Gd3  1  0.000000  0.128621  0.154528  1
  Gd  Gd4  1  0.000000  0.872193  0.847657  1
  Tc  Tc5  1  0.000000  0.631530  0.085023  1
  Tc  Tc6  1  0.000000  0.367793  0.914978  1
  Tc  Tc7  1  0.000000  0.127439  0.414987  1
  B  B8  1  0.500000  0.785500  0.185558  1
  B  B9  1  0.500000  0.212934  0.813401  1
  B  B10  1  0.500000  0.286418  0.316224  1
  B  B11  1  0.500000  0.717853  0.681948  1
  B  B12  1  0.500000  0.864133  0.031439  1
  B  B13  1  0.500000  0.136452  0.967735  1
  B  B14  1  0.500000  0.365727  0.469357  1
  B  B15  1  0.500000  0.636750  0.533589  1
  B  B16  1  0.500000  0.888836  0.452993  1
  B  B17  1  0.500000  0.114655  0.545713  1
  B  B18  1  0.500000  0.387597  0.046585  1
  B  B19  1  0.500000  0.613361  0.951936  1
  B  B20  1  0.500000  0.976983  0.308894  1
  B  B21  1  0.500000  0.020801  0.692325  1
  B  B22  1  0.500000  0.478051  0.192317  1
  B  B23  1  0.500000  0.524843  0.806193  1
