# generated using pymatgen
data_Li2Tb8Ho10Si15Sn
_symmetry_space_group_name_H-M   'P 1'
_cell_length_a   7.28986602
_cell_length_b   7.71290989
_cell_length_c   14.60125496
_cell_angle_alpha   90.08443531
_cell_angle_beta   89.53045390
_cell_angle_gamma   89.98678267
_symmetry_Int_Tables_number   1
_chemical_formula_structural   Li2Tb8Ho10Si15Sn
_chemical_formula_sum   'Li2 Tb8 Ho10 Si15 Sn1'
_cell_volume   820.94284154
_cell_formula_units_Z   1
loop_
 _symmetry_equiv_pos_site_id
 _symmetry_equiv_pos_as_xyz
  1  'x, y, z'
loop_
 _atom_site_type_symbol
 _atom_site_label
 _atom_site_symmetry_multiplicity
 _atom_site_fract_x
 _atom_site_fract_y
 _atom_site_fract_z
 _atom_site_occupancy
  Li  Li0  1  0.161305  0.517387  0.750816  1
  Li  Li1  1  0.838080  0.481683  0.248189  1
  Tb  Tb2  1  0.019357  0.193659  0.100030  1
  Tb  Tb3  1  0.980852  0.805693  0.900431  1
  Tb  Tb4  1  0.474279  0.675480  0.902289  1
  Tb  Tb5  1  0.980751  0.813671  0.601193  1
  Tb  Tb6  1  0.524261  0.323361  0.098480  1
  Tb  Tb7  1  0.012930  0.188004  0.396340  1
  Tb  Tb8  1  0.525405  0.323585  0.399059  1
  Tb  Tb9  1  0.489808  0.684139  0.600964  1
  Ho  Ho10  1  0.347651  0.014703  0.250297  1
  Ho  Ho11  1  0.654382  0.985059  0.752720  1
  Ho  Ho12  1  0.327969  0.167958  0.631111  1
  Ho  Ho13  1  0.677524  0.818740  0.372134  1
  Ho  Ho14  1  0.161294  0.684660  0.368244  1
  Ho  Ho15  1  0.680137  0.817435  0.125026  1
  Ho  Ho16  1  0.825296  0.319483  0.627453  1
  Ho  Ho17  1  0.318217  0.181759  0.875536  1
  Ho  Ho18  1  0.831841  0.321591  0.873908  1
  Ho  Ho19  1  0.168595  0.679009  0.125727  1
  Si  Si20  1  0.025598  0.084690  0.751901  1
  Si  Si21  1  0.973508  0.917387  0.246519  1
  Si  Si22  1  0.470464  0.601909  0.248815  1
  Si  Si23  1  0.526546  0.399601  0.751999  1
  Si  Si24  1  0.274371  0.866729  0.752105  1
  Si  Si25  1  0.724637  0.130927  0.247995  1
  Si  Si26  1  0.229264  0.376205  0.249137  1
  Si  Si27  1  0.771567  0.623837  0.751445  1
  Si  Si28  1  0.832312  0.538352  0.466340  1
  Si  Si29  1  0.346196  0.971800  0.460931  1
  Si  Si30  1  0.844882  0.533795  0.033594  1
  Si  Si31  1  0.653618  0.029504  0.536762  1
  Si  Si32  1  0.153906  0.465489  0.966921  1
  Si  Si33  1  0.650206  0.028504  0.961646  1
  Si  Si34  1  0.350196  0.972001  0.039218  1
  Sn  Sn35  1  0.172795  0.462215  0.534723  1
