# generated using pymatgen
data_Tb3Yb7YIn9Pd4
_symmetry_space_group_name_H-M   'P 1'
_cell_length_a   13.41374534
_cell_length_b   13.41374465
_cell_length_c   3.66204300
_cell_angle_alpha   90.00000000
_cell_angle_beta   90.00000000
_cell_angle_gamma   112.06333662
_symmetry_Int_Tables_number   1
_chemical_formula_structural   Tb3Yb7YIn9Pd4
_chemical_formula_sum   'Tb3 Yb7 Y1 In9 Pd4'
_cell_volume   610.65387434
_cell_formula_units_Z   1
loop_
 _symmetry_equiv_pos_site_id
 _symmetry_equiv_pos_as_xyz
  1  'x, y, z'
loop_
 _atom_site_type_symbol
 _atom_site_label
 _atom_site_symmetry_multiplicity
 _atom_site_fract_x
 _atom_site_fract_y
 _atom_site_fract_z
 _atom_site_occupancy
  Tb  Tb0  1  0.620714  0.379286  0.000000  1
  Tb  Tb1  1  0.311032  0.311001  0.000000  1
  Tb  Tb2  1  0.688999  0.688968  0.000000  1
  Yb  Yb3  1  0.412985  0.070049  0.000000  1
  Yb  Yb4  1  0.587100  0.929958  0.000000  1
  Yb  Yb5  1  0.070042  0.412900  0.000000  1
  Yb  Yb6  1  0.929951  0.587015  0.000000  1
  Yb  Yb7  1  0.158567  0.841433  0.000000  1
  Yb  Yb8  1  0.841418  0.158582  0.000000  1
  Yb  Yb9  1  0.000009  0.999991  0.000000  1
  Y  Y10  1  0.378936  0.621064  0.000000  1
  In  In11  1  0.369282  0.834038  0.500000  1
  In  In12  1  0.630860  0.165806  0.500000  1
  In  In13  1  0.834194  0.369140  0.500000  1
  In  In14  1  0.165962  0.630718  0.500000  1
  In  In15  1  0.218662  0.080129  0.500000  1
  In  In16  1  0.781215  0.919742  0.500000  1
  In  In17  1  0.080258  0.218785  0.500000  1
  In  In18  1  0.919871  0.781338  0.500000  1
  In  In19  1  0.499700  0.500300  0.500000  1
  Pd  Pd20  1  0.447537  0.245085  0.500000  1
  Pd  Pd21  1  0.553072  0.755280  0.500000  1
  Pd  Pd22  1  0.244720  0.446928  0.500000  1
  Pd  Pd23  1  0.754915  0.552463  0.500000  1
