# generated using pymatgen
data_TbDyZn2(Co3B)2
_symmetry_space_group_name_H-M   'P 1'
_cell_length_a   5.10606200
_cell_length_b   5.09982854
_cell_length_c   6.79952700
_cell_angle_alpha   90.00000000
_cell_angle_beta   90.00000000
_cell_angle_gamma   120.04046718
_symmetry_Int_Tables_number   1
_chemical_formula_structural   TbDyZn2(Co3B)2
_chemical_formula_sum   'Tb1 Dy1 Zn2 Co6 B2'
_cell_volume   153.27585754
_cell_formula_units_Z   1
loop_
 _symmetry_equiv_pos_site_id
 _symmetry_equiv_pos_as_xyz
  1  'x, y, z'
loop_
 _atom_site_type_symbol
 _atom_site_label
 _atom_site_symmetry_multiplicity
 _atom_site_fract_x
 _atom_site_fract_y
 _atom_site_fract_z
 _atom_site_occupancy
  Tb  Tb0  1  0.999975  0.000000  0.000000  1
  Dy  Dy1  1  0.999993  0.000000  0.500000  1
  Zn  Zn2  1  0.333365  0.666778  0.000000  1
  Zn  Zn3  1  0.666588  0.333222  0.000000  1
  Co  Co4  1  0.499990  0.000000  0.297028  1
  Co  Co5  1  0.499986  0.500003  0.297049  1
  Co  Co6  1  0.999982  0.499997  0.297049  1
  Co  Co7  1  0.499990  0.000000  0.702972  1
  Co  Co8  1  0.499986  0.500003  0.702951  1
  Co  Co9  1  0.999982  0.499997  0.702951  1
  B  B10  1  0.333406  0.666850  0.500000  1
  B  B11  1  0.666555  0.333150  0.500000  1
