# generated using pymatgen
data_Zn3Fe2GeRh6
_symmetry_space_group_name_H-M   'P 1'
_cell_length_a   4.27654500
_cell_length_b   6.02581500
_cell_length_c   12.82078801
_cell_angle_alpha   90.00000000
_cell_angle_beta   89.99605973
_cell_angle_gamma   90.00000000
_symmetry_Int_Tables_number   1
_chemical_formula_structural   Zn3Fe2GeRh6
_chemical_formula_sum   'Zn6 Fe4 Ge2 Rh12'
_cell_volume   330.38746281
_cell_formula_units_Z   2
loop_
 _symmetry_equiv_pos_site_id
 _symmetry_equiv_pos_as_xyz
  1  'x, y, z'
loop_
 _atom_site_type_symbol
 _atom_site_label
 _atom_site_symmetry_multiplicity
 _atom_site_fract_x
 _atom_site_fract_y
 _atom_site_fract_z
 _atom_site_occupancy
  Zn  Zn0  1  0.999975  0.000000  0.994349  1
  Zn  Zn1  1  0.499736  0.500000  0.172310  1
  Zn  Zn2  1  0.999709  0.000000  0.338131  1
  Zn  Zn3  1  0.499998  0.500000  0.498792  1
  Zn  Zn4  1  0.000303  0.000000  0.667853  1
  Zn  Zn5  1  0.500266  0.500000  0.828557  1
  Fe  Fe6  1  0.999718  0.500000  0.335313  1
  Fe  Fe7  1  0.500001  0.000000  0.500802  1
  Fe  Fe8  1  0.000288  0.500000  0.665858  1
  Fe  Fe9  1  0.500270  0.000000  0.831361  1
  Ge  Ge10  1  0.999985  0.500000  0.999083  1
  Ge  Ge11  1  0.499737  0.000000  0.167583  1
  Rh  Rh12  1  0.499979  0.253003  0.002768  1
  Rh  Rh13  1  0.499979  0.746999  0.002768  1
  Rh  Rh14  1  0.999762  0.246991  0.163914  1
  Rh  Rh15  1  0.999762  0.753009  0.163914  1
  Rh  Rh16  1  0.499730  0.246562  0.331171  1
  Rh  Rh17  1  0.499730  0.753436  0.331171  1
  Rh  Rh18  1  0.000007  0.251709  0.500542  1
  Rh  Rh19  1  0.000007  0.748291  0.500542  1
  Rh  Rh20  1  0.500276  0.248365  0.666128  1
  Rh  Rh21  1  0.500276  0.751633  0.666128  1
  Rh  Rh22  1  0.000251  0.253455  0.835482  1
  Rh  Rh23  1  0.000251  0.746545  0.835482  1
