# generated using pymatgen
data_Sc6Cu2Os3Rh
_symmetry_space_group_name_H-M   'P 1'
_cell_length_a   4.55885500
_cell_length_b   6.47036900
_cell_length_c   13.67895201
_cell_angle_alpha   90.00030130
_cell_angle_beta   89.99542145
_cell_angle_gamma   89.99886772
_symmetry_Int_Tables_number   1
_chemical_formula_structural   Sc6Cu2Os3Rh
_chemical_formula_sum   'Sc12 Cu4 Os6 Rh2'
_cell_volume   403.49453120
_cell_formula_units_Z   2
loop_
 _symmetry_equiv_pos_site_id
 _symmetry_equiv_pos_as_xyz
  1  'x, y, z'
loop_
 _atom_site_type_symbol
 _atom_site_label
 _atom_site_symmetry_multiplicity
 _atom_site_fract_x
 _atom_site_fract_y
 _atom_site_fract_z
 _atom_site_occupancy
  Sc  Sc0  1  0.499947  0.248179  0.999967  1
  Sc  Sc1  1  0.499975  0.751802  0.999975  1
  Sc  Sc2  1  0.999587  0.251868  0.166731  1
  Sc  Sc3  1  0.999582  0.748162  0.166720  1
  Sc  Sc4  1  0.499571  0.251018  0.333960  1
  Sc  Sc5  1  0.499610  0.748974  0.333960  1
  Sc  Sc6  1  0.999978  0.250534  0.500349  1
  Sc  Sc7  1  0.999971  0.749484  0.500345  1
  Sc  Sc8  1  0.500458  0.249472  0.666292  1
  Sc  Sc9  1  0.500455  0.750514  0.666294  1
  Sc  Sc10  1  0.000400  0.248990  0.832707  1
  Sc  Sc11  1  0.000389  0.751000  0.832689  1
  Cu  Cu12  1  0.999528  0.000010  0.332481  1
  Cu  Cu13  1  0.499954  0.499999  0.499026  1
  Cu  Cu14  1  0.000640  0.999982  0.667599  1
  Cu  Cu15  1  0.500493  0.499982  0.834177  1
  Os  Os16  1  0.999948  0.499997  0.997696  1
  Os  Os17  1  0.499592  0.999987  0.169047  1
  Os  Os18  1  0.999550  0.500024  0.336762  1
  Os  Os19  1  0.499973  0.999998  0.500806  1
  Os  Os20  1  0.000430  0.500005  0.665801  1
  Os  Os21  1  0.500388  0.000006  0.829872  1
  Rh  Rh22  1  0.999977  0.000009  0.999441  1
  Rh  Rh23  1  0.499599  0.500002  0.167305  1
