# generated using pymatgen
data_Sm3VCo7NiP6
_symmetry_space_group_name_H-M   'P 1'
_cell_length_a   3.75138300
_cell_length_b   10.62794200
_cell_length_c   12.34018000
_cell_angle_alpha   90.00000000
_cell_angle_beta   90.00000000
_cell_angle_gamma   90.00000000
_symmetry_Int_Tables_number   1
_chemical_formula_structural   Sm3VCo7NiP6
_chemical_formula_sum   'Sm6 V2 Co14 Ni2 P12'
_cell_volume   491.99657135
_cell_formula_units_Z   2
loop_
 _symmetry_equiv_pos_site_id
 _symmetry_equiv_pos_as_xyz
  1  'x, y, z'
loop_
 _atom_site_type_symbol
 _atom_site_label
 _atom_site_symmetry_multiplicity
 _atom_site_fract_x
 _atom_site_fract_y
 _atom_site_fract_z
 _atom_site_occupancy
  Sm  Sm0  1  0.000000  0.500000  0.519162  1
  Sm  Sm1  1  0.500000  0.000000  0.480838  1
  Sm  Sm2  1  0.500000  0.816978  0.203361  1
  Sm  Sm3  1  0.500000  0.183022  0.203361  1
  Sm  Sm4  1  0.000000  0.683022  0.796639  1
  Sm  Sm5  1  0.000000  0.316978  0.796639  1
  V  V6  1  0.500000  0.500000  0.152784  1
  V  V7  1  0.000000  0.000000  0.847216  1
  Co  Co8  1  0.000000  0.500000  0.987367  1
  Co  Co9  1  0.500000  0.000000  0.012633  1
  Co  Co10  1  0.500000  0.332933  0.993398  1
  Co  Co11  1  0.500000  0.667067  0.993398  1
  Co  Co12  1  0.000000  0.167067  0.006602  1
  Co  Co13  1  0.000000  0.832933  0.006602  1
  Co  Co14  1  0.500000  0.295620  0.431021  1
  Co  Co15  1  0.500000  0.704380  0.431021  1
  Co  Co16  1  0.000000  0.204380  0.568979  1
  Co  Co17  1  0.000000  0.795620  0.568979  1
  Co  Co18  1  0.500000  0.879851  0.709643  1
  Co  Co19  1  0.500000  0.120149  0.709643  1
  Co  Co20  1  0.000000  0.620149  0.290357  1
  Co  Co21  1  0.000000  0.379851  0.290357  1
  Ni  Ni22  1  0.500000  0.500000  0.701696  1
  Ni  Ni23  1  0.000000  0.000000  0.298304  1
  P  P24  1  0.500000  0.500000  0.885567  1
  P  P25  1  0.000000  0.000000  0.114433  1
  P  P26  1  0.500000  0.500000  0.341397  1
  P  P27  1  0.000000  0.000000  0.658603  1
  P  P28  1  0.500000  0.307538  0.614582  1
  P  P29  1  0.500000  0.692462  0.614582  1
  P  P30  1  0.000000  0.192462  0.385418  1
  P  P31  1  0.000000  0.807538  0.385418  1
  P  P32  1  0.500000  0.847292  0.894245  1
  P  P33  1  0.500000  0.152708  0.894245  1
  P  P34  1  0.000000  0.652708  0.105755  1
  P  P35  1  0.000000  0.347292  0.105755  1
