# generated using pymatgen
data_TbY(SbO3)6
_symmetry_space_group_name_H-M   'P 1'
_cell_length_a   7.50037600
_cell_length_b   5.37877413
_cell_length_c   8.18484700
_cell_angle_alpha   86.13517852
_cell_angle_beta   90.00000000
_cell_angle_gamma   90.00000000
_symmetry_Int_Tables_number   1
_chemical_formula_structural   TbY(SbO3)6
_chemical_formula_sum   'Tb1 Y1 Sb6 O18'
_cell_volume   329.44895446
_cell_formula_units_Z   1
loop_
 _symmetry_equiv_pos_site_id
 _symmetry_equiv_pos_as_xyz
  1  'x, y, z'
loop_
 _atom_site_type_symbol
 _atom_site_label
 _atom_site_symmetry_multiplicity
 _atom_site_fract_x
 _atom_site_fract_y
 _atom_site_fract_z
 _atom_site_occupancy
  Tb  Tb0  1  0.250000  0.966538  0.434844  1
  Y  Y1  1  0.750000  0.034302  0.565227  1
  Sb  Sb2  1  0.999992  0.000312  0.999875  1
  Sb  Sb3  1  0.500008  0.000312  0.999875  1
  Sb  Sb4  1  0.495127  0.529824  0.697638  1
  Sb  Sb5  1  0.004873  0.529824  0.697638  1
  Sb  Sb6  1  0.994846  0.470252  0.302211  1
  Sb  Sb7  1  0.505154  0.470252  0.302211  1
  O  O8  1  0.250000  0.880810  0.984800  1
  O  O9  1  0.938005  0.856865  0.778691  1
  O  O10  1  0.561995  0.856865  0.778691  1
  O  O11  1  0.958854  0.737495  0.472343  1
  O  O12  1  0.541146  0.737495  0.472343  1
  O  O13  1  0.250000  0.663701  0.655223  1
  O  O14  1  0.931671  0.675935  0.112278  1
  O  O15  1  0.568329  0.675935  0.112278  1
  O  O16  1  0.250000  0.592765  0.310305  1
  O  O17  1  0.750000  0.405650  0.691253  1
  O  O18  1  0.068375  0.324468  0.887670  1
  O  O19  1  0.431625  0.324468  0.887670  1
  O  O20  1  0.750000  0.334944  0.344478  1
  O  O21  1  0.039944  0.262281  0.527759  1
  O  O22  1  0.460056  0.262281  0.527759  1
  O  O23  1  0.061797  0.143515  0.220908  1
  O  O24  1  0.438203  0.143515  0.220908  1
  O  O25  1  0.750000  0.119394  0.015127  1
