# generated using pymatgen
data_Ac8Cd3Si12Pd
_symmetry_space_group_name_H-M   'P 1'
_cell_length_a   11.89645325
_cell_length_b   10.18649757
_cell_length_c   8.67727500
_cell_angle_alpha   77.74169056
_cell_angle_beta   56.85066641
_cell_angle_gamma   45.46074823
_symmetry_Int_Tables_number   1
_chemical_formula_structural   Ac8Cd3Si12Pd
_chemical_formula_sum   'Ac8 Cd3 Si12 Pd1'
_cell_volume   601.13914414
_cell_formula_units_Z   1
loop_
 _symmetry_equiv_pos_site_id
 _symmetry_equiv_pos_as_xyz
  1  'x, y, z'
loop_
 _atom_site_type_symbol
 _atom_site_label
 _atom_site_symmetry_multiplicity
 _atom_site_fract_x
 _atom_site_fract_y
 _atom_site_fract_z
 _atom_site_occupancy
  Ac  Ac0  1  0.374242  0.378411  0.627034  1
  Ac  Ac1  1  0.627034  0.620314  0.374242  1
  Ac  Ac2  1  0.872158  0.871039  0.627834  1
  Ac  Ac3  1  0.627834  0.628969  0.872158  1
  Ac  Ac4  1  0.877334  0.871378  0.124013  1
  Ac  Ac5  1  0.124013  0.127275  0.877334  1
  Ac  Ac6  1  0.370395  0.374597  0.126278  1
  Ac  Ac7  1  0.126278  0.128729  0.370395  1
  Cd  Cd8  1  0.832447  0.167553  0.832447  1
  Cd  Cd9  1  0.167442  0.832558  0.167442  1
  Cd  Cd10  1  0.417617  0.082383  0.417617  1
  Si  Si11  1  0.660085  0.339915  0.660085  1
  Si  Si12  1  0.340076  0.659924  0.340076  1
  Si  Si13  1  0.591642  0.908358  0.591642  1
  Si  Si14  1  0.917863  0.582137  0.917863  1
  Si  Si15  1  0.336833  0.659584  0.823144  1
  Si  Si16  1  0.181110  0.821709  0.659273  1
  Si  Si17  1  0.823144  0.180439  0.336833  1
  Si  Si18  1  0.659273  0.337907  0.181110  1
  Si  Si19  1  0.918122  0.583754  0.413535  1
  Si  Si20  1  0.065125  0.431463  0.593359  1
  Si  Si21  1  0.413535  0.084589  0.918122  1
  Si  Si22  1  0.593359  0.910053  0.065125  1
  Pd  Pd23  1  0.083039  0.416961  0.083039  1
