# generated using pymatgen
data_LiTb3In3AgIr
_symmetry_space_group_name_H-M   'P 1'
_cell_length_a   7.93862500
_cell_length_b   7.93862668
_cell_length_c   3.76223200
_cell_angle_alpha   90.00000000
_cell_angle_beta   90.00000000
_cell_angle_gamma   120.00000548
_symmetry_Int_Tables_number   1
_chemical_formula_structural   LiTb3In3AgIr
_chemical_formula_sum   'Li1 Tb3 In3 Ag1 Ir1'
_cell_volume   205.33682753
_cell_formula_units_Z   1
loop_
 _symmetry_equiv_pos_site_id
 _symmetry_equiv_pos_as_xyz
  1  'x, y, z'
loop_
 _atom_site_type_symbol
 _atom_site_label
 _atom_site_symmetry_multiplicity
 _atom_site_fract_x
 _atom_site_fract_y
 _atom_site_fract_z
 _atom_site_occupancy
  Li  Li0  1  0.000000  0.000000  0.000000  1
  Tb  Tb1  1  0.426265  0.397085  0.000000  1
  Tb  Tb2  1  0.602915  0.029181  0.000000  1
  Tb  Tb3  1  0.970819  0.573735  0.000000  1
  In  In4  1  0.004572  0.259688  0.500000  1
  In  In5  1  0.740312  0.744884  0.500000  1
  In  In6  1  0.255116  0.995428  0.500000  1
  Ag  Ag7  1  0.333333  0.666667  0.500000  1
  Ir  Ir8  1  0.666667  0.333333  0.500000  1
