# generated using pymatgen
data_YHo5TaCo17P12
_symmetry_space_group_name_H-M   'P 1'
_cell_length_a   3.70071100
_cell_length_b   10.56787700
_cell_length_c   12.25555300
_cell_angle_alpha   90.00000000
_cell_angle_beta   90.00000000
_cell_angle_gamma   90.00000000
_symmetry_Int_Tables_number   1
_chemical_formula_structural   YHo5TaCo17P12
_chemical_formula_sum   'Y1 Ho5 Ta1 Co17 P12'
_cell_volume   479.29823897
_cell_formula_units_Z   1
loop_
 _symmetry_equiv_pos_site_id
 _symmetry_equiv_pos_as_xyz
  1  'x, y, z'
loop_
 _atom_site_type_symbol
 _atom_site_label
 _atom_site_symmetry_multiplicity
 _atom_site_fract_x
 _atom_site_fract_y
 _atom_site_fract_z
 _atom_site_occupancy
  Y  Y0  1  0.500000  0.000000  0.477678  1
  Ho  Ho1  1  0.000000  0.500000  0.526642  1
  Ho  Ho2  1  0.500000  0.819948  0.207045  1
  Ho  Ho3  1  0.500000  0.180052  0.207045  1
  Ho  Ho4  1  0.000000  0.682651  0.796054  1
  Ho  Ho5  1  0.000000  0.317349  0.796054  1
  Ta  Ta6  1  0.500000  0.500000  0.154582  1
  Co  Co7  1  0.000000  0.500000  0.985187  1
  Co  Co8  1  0.500000  0.000000  0.014373  1
  Co  Co9  1  0.500000  0.295537  0.432541  1
  Co  Co10  1  0.500000  0.704463  0.432541  1
  Co  Co11  1  0.000000  0.202991  0.569716  1
  Co  Co12  1  0.000000  0.797009  0.569716  1
  Co  Co13  1  0.500000  0.879299  0.708385  1
  Co  Co14  1  0.500000  0.120701  0.708385  1
  Co  Co15  1  0.000000  0.622537  0.293246  1
  Co  Co16  1  0.000000  0.377463  0.293246  1
  Co  Co17  1  0.500000  0.330259  0.989985  1
  Co  Co18  1  0.500000  0.669741  0.989985  1
  Co  Co19  1  0.000000  0.164013  0.004234  1
  Co  Co20  1  0.000000  0.835987  0.004234  1
  Co  Co21  1  0.000000  0.000000  0.838763  1
  Co  Co22  1  0.500000  0.500000  0.701825  1
  Co  Co23  1  0.000000  0.000000  0.296204  1
  P  P24  1  0.500000  0.310175  0.617221  1
  P  P25  1  0.500000  0.689825  0.617221  1
  P  P26  1  0.000000  0.188602  0.385265  1
  P  P27  1  0.000000  0.811398  0.385265  1
  P  P28  1  0.500000  0.500000  0.880407  1
  P  P29  1  0.000000  0.000000  0.117173  1
  P  P30  1  0.500000  0.850932  0.890132  1
  P  P31  1  0.500000  0.149068  0.890132  1
  P  P32  1  0.000000  0.661141  0.103464  1
  P  P33  1  0.000000  0.338859  0.103464  1
  P  P34  1  0.500000  0.500000  0.356463  1
  P  P35  1  0.000000  0.000000  0.656126  1
