# generated using pymatgen
data_Nd5Th5(Bi3Se)2
_symmetry_space_group_name_H-M   'P 1'
_cell_length_a   9.59598937
_cell_length_b   9.59599005
_cell_length_c   6.77019300
_cell_angle_alpha   90.00000000
_cell_angle_beta   90.00000000
_cell_angle_gamma   120.13201623
_symmetry_Int_Tables_number   1
_chemical_formula_structural   Nd5Th5(Bi3Se)2
_chemical_formula_sum   'Nd5 Th5 Bi6 Se2'
_cell_volume   539.17774145
_cell_formula_units_Z   1
loop_
 _symmetry_equiv_pos_site_id
 _symmetry_equiv_pos_as_xyz
  1  'x, y, z'
loop_
 _atom_site_type_symbol
 _atom_site_label
 _atom_site_symmetry_multiplicity
 _atom_site_fract_x
 _atom_site_fract_y
 _atom_site_fract_z
 _atom_site_occupancy
  Nd  Nd0  1  0.258830  0.999087  0.750000  1
  Nd  Nd1  1  0.999087  0.258830  0.750000  1
  Nd  Nd2  1  0.258373  0.258373  0.250000  1
  Nd  Nd3  1  0.739065  0.999515  0.250000  1
  Nd  Nd4  1  0.999515  0.739065  0.250000  1
  Th  Th5  1  0.667687  0.336575  0.999294  1
  Th  Th6  1  0.336575  0.667687  0.999294  1
  Th  Th7  1  0.336575  0.667687  0.500706  1
  Th  Th8  1  0.667687  0.336575  0.500706  1
  Th  Th9  1  0.740903  0.740903  0.750000  1
  Bi  Bi10  1  0.388137  0.388137  0.750000  1
  Bi  Bi11  1  0.610137  0.001909  0.750000  1
  Bi  Bi12  1  0.001909  0.610137  0.750000  1
  Bi  Bi13  1  0.610105  0.610105  0.250000  1
  Bi  Bi14  1  0.389948  0.000201  0.250000  1
  Bi  Bi15  1  0.000201  0.389948  0.250000  1
  Se  Se16  1  0.997633  0.997633  0.999700  1
  Se  Se17  1  0.997633  0.997633  0.500300  1
