# generated using pymatgen
data_CaDy7(B6Os)4
_symmetry_space_group_name_H-M   'P 1'
_cell_length_a   3.65867300
_cell_length_b   9.17100024
_cell_length_c   11.55773602
_cell_angle_alpha   89.88907816
_cell_angle_beta   90.00000000
_cell_angle_gamma   90.00000000
_symmetry_Int_Tables_number   1
_chemical_formula_structural   CaDy7(B6Os)4
_chemical_formula_sum   'Ca1 Dy7 B24 Os4'
_cell_volume   387.80397590
_cell_formula_units_Z   1
loop_
 _symmetry_equiv_pos_site_id
 _symmetry_equiv_pos_as_xyz
  1  'x, y, z'
loop_
 _atom_site_type_symbol
 _atom_site_label
 _atom_site_symmetry_multiplicity
 _atom_site_fract_x
 _atom_site_fract_y
 _atom_site_fract_z
 _atom_site_occupancy
  Ca  Ca0  1  0.000000  0.322871  0.413760  1
  Dy  Dy1  1  0.000000  0.675629  0.585123  1
  Dy  Dy2  1  0.000000  0.822787  0.086439  1
  Dy  Dy3  1  0.000000  0.177663  0.914450  1
  Dy  Dy4  1  0.000000  0.944254  0.371753  1
  Dy  Dy5  1  0.000000  0.057580  0.627585  1
  Dy  Dy6  1  0.000000  0.443297  0.128898  1
  Dy  Dy7  1  0.000000  0.555916  0.872885  1
  B  B8  1  0.500000  0.554415  0.432631  1
  B  B9  1  0.500000  0.446288  0.567733  1
  B  B10  1  0.500000  0.053219  0.066522  1
  B  B11  1  0.500000  0.945808  0.932403  1
  B  B12  1  0.500000  0.748301  0.419180  1
  B  B13  1  0.500000  0.252455  0.581373  1
  B  B14  1  0.500000  0.247220  0.080346  1
  B  B15  1  0.500000  0.752058  0.919561  1
  B  B16  1  0.500000  0.791477  0.266255  1
  B  B17  1  0.500000  0.209730  0.734064  1
  B  B18  1  0.500000  0.289802  0.232868  1
  B  B19  1  0.500000  0.709267  0.766651  1
  B  B20  1  0.500000  0.632638  0.186095  1
  B  B21  1  0.500000  0.368023  0.814973  1
  B  B22  1  0.500000  0.131286  0.313392  1
  B  B23  1  0.500000  0.868109  0.685448  1
  B  B24  1  0.500000  0.983494  0.211778  1
  B  B25  1  0.500000  0.016204  0.787214  1
  B  B26  1  0.500000  0.484572  0.287422  1
  B  B27  1  0.500000  0.516163  0.713042  1
  B  B28  1  0.500000  0.608958  0.030381  1
  B  B29  1  0.500000  0.391253  0.970369  1
  B  B30  1  0.500000  0.104747  0.470887  1
  B  B31  1  0.500000  0.893887  0.529357  1
  Os  Os32  1  0.000000  0.639873  0.320679  1
  Os  Os33  1  0.000000  0.362257  0.680348  1
  Os  Os34  1  0.000000  0.136209  0.176711  1
  Os  Os35  1  0.000000  0.862289  0.821425  1
