# generated using pymatgen
data_La4Zn10SiGe
_symmetry_space_group_name_H-M   'P 1'
_cell_length_a   8.48183609
_cell_length_b   8.48183615
_cell_length_c   8.94185200
_cell_angle_alpha   90.00000000
_cell_angle_beta   90.00000000
_cell_angle_gamma   149.06107120
_symmetry_Int_Tables_number   1
_chemical_formula_structural   La4Zn10SiGe
_chemical_formula_sum   'La4 Zn10 Si1 Ge1'
_cell_volume   330.73124212
_cell_formula_units_Z   1
loop_
 _symmetry_equiv_pos_site_id
 _symmetry_equiv_pos_as_xyz
  1  'x, y, z'
loop_
 _atom_site_type_symbol
 _atom_site_label
 _atom_site_symmetry_multiplicity
 _atom_site_fract_x
 _atom_site_fract_y
 _atom_site_fract_z
 _atom_site_occupancy
  La  La0  1  0.205032  0.794968  0.250000  1
  La  La1  1  0.794902  0.205098  0.750000  1
  La  La2  1  0.999888  0.000112  0.496979  1
  La  La3  1  0.999888  0.000112  0.003021  1
  Zn  Zn4  1  0.814130  0.185870  0.392361  1
  Zn  Zn5  1  0.185399  0.814601  0.607398  1
  Zn  Zn6  1  0.814130  0.185870  0.107639  1
  Zn  Zn7  1  0.185399  0.814601  0.892602  1
  Zn  Zn8  1  0.650064  0.349936  0.477100  1
  Zn  Zn9  1  0.348030  0.651970  0.519610  1
  Zn  Zn10  1  0.650064  0.349936  0.022900  1
  Zn  Zn11  1  0.348030  0.651970  0.980390  1
  Zn  Zn12  1  0.407174  0.592826  0.250000  1
  Zn  Zn13  1  0.596513  0.403487  0.750000  1
  Si  Si14  1  0.559088  0.440912  0.250000  1
  Ge  Ge15  1  0.442268  0.557732  0.750000  1
