# generated using pymatgen
data_Sc11PaMn3I16
_symmetry_space_group_name_H-M   'P 1'
_cell_length_a   9.03467357
_cell_length_b   12.05222933
_cell_length_c   13.01701338
_cell_angle_alpha   119.14290777
_cell_angle_beta   100.64936118
_cell_angle_gamma   99.65142698
_symmetry_Int_Tables_number   1
_chemical_formula_structural   Sc11PaMn3I16
_chemical_formula_sum   'Sc11 Pa1 Mn3 I16'
_cell_volume   1160.54108187
_cell_formula_units_Z   1
loop_
 _symmetry_equiv_pos_site_id
 _symmetry_equiv_pos_as_xyz
  1  'x, y, z'
loop_
 _atom_site_type_symbol
 _atom_site_label
 _atom_site_symmetry_multiplicity
 _atom_site_fract_x
 _atom_site_fract_y
 _atom_site_fract_z
 _atom_site_occupancy
  Sc  Sc0  1  0.911379  0.703811  0.625305  1
  Sc  Sc1  1  0.774583  0.524170  0.329966  1
  Sc  Sc2  1  0.240469  0.478998  0.695247  1
  Sc  Sc3  1  0.282290  0.729235  0.640208  1
  Sc  Sc4  1  0.701270  0.264861  0.356120  1
  Sc  Sc5  1  0.159597  0.555755  0.325278  1
  Sc  Sc6  1  0.846395  0.455636  0.658313  1
  Sc  Sc7  1  0.414968  0.364627  0.285087  1
  Sc  Sc8  1  0.594321  0.627155  0.703718  1
  Sc  Sc9  1  0.465935  0.316428  0.519031  1
  Sc  Sc10  1  0.545303  0.673069  0.480784  1
  Pa  Pa11  1  0.098811  0.319106  0.388871  1
  Mn  Mn12  1  0.010172  0.488726  0.493074  1
  Mn  Mn13  1  0.318009  0.490816  0.494105  1
  Mn  Mn14  1  0.658948  0.488957  0.493258  1
  I  I15  1  0.401953  0.751912  0.886185  1
  I  I16  1  0.602622  0.248898  0.113644  1
  I  I17  1  0.178362  0.957686  0.779483  1
  I  I18  1  0.834952  0.047940  0.223855  1
  I  I19  1  0.322281  0.096823  0.252639  1
  I  I20  1  0.645069  0.896638  0.743351  1
  I  I21  1  0.562269  0.441129  0.794268  1
  I  I22  1  0.434391  0.562880  0.208125  1
  I  I23  1  0.312937  0.836989  0.474545  1
  I  I24  1  0.691669  0.163062  0.526240  1
  I  I25  1  0.169537  0.183155  0.543227  1
  I  I26  1  0.836203  0.819815  0.470512  1
  I  I27  1  0.917194  0.575463  0.163285  1
  I  I28  1  0.066709  0.429203  0.839573  1
  I  I29  1  0.924994  0.736319  0.871563  1
  I  I30  1  0.076407  0.270737  0.121140  1
