# generated using pymatgen
data_Ac(LuSe2)2
_symmetry_space_group_name_H-M   'P 1'
_cell_length_a   4.06447300
_cell_length_b   12.44393700
_cell_length_c   14.86826300
_cell_angle_alpha   90.00000000
_cell_angle_beta   90.00000000
_cell_angle_gamma   90.00000000
_symmetry_Int_Tables_number   1
_chemical_formula_structural   Ac(LuSe2)2
_chemical_formula_sum   'Ac4 Lu8 Se16'
_cell_volume   752.00768921
_cell_formula_units_Z   4
loop_
 _symmetry_equiv_pos_site_id
 _symmetry_equiv_pos_as_xyz
  1  'x, y, z'
loop_
 _atom_site_type_symbol
 _atom_site_label
 _atom_site_symmetry_multiplicity
 _atom_site_fract_x
 _atom_site_fract_y
 _atom_site_fract_z
 _atom_site_occupancy
  Ac  Ac0  1  0.250000  0.760256  0.329601  1
  Ac  Ac1  1  0.250000  0.260256  0.170399  1
  Ac  Ac2  1  0.750000  0.239744  0.670399  1
  Ac  Ac3  1  0.750000  0.739744  0.829601  1
  Lu  Lu4  1  0.250000  0.438651  0.390224  1
  Lu  Lu5  1  0.250000  0.938651  0.109776  1
  Lu  Lu6  1  0.750000  0.561349  0.609776  1
  Lu  Lu7  1  0.750000  0.061349  0.890224  1
  Lu  Lu8  1  0.250000  0.415602  0.904577  1
  Lu  Lu9  1  0.250000  0.915602  0.595423  1
  Lu  Lu10  1  0.750000  0.584398  0.095423  1
  Lu  Lu11  1  0.750000  0.084398  0.404577  1
  Se  Se12  1  0.250000  0.204033  0.833163  1
  Se  Se13  1  0.250000  0.704033  0.666837  1
  Se  Se14  1  0.750000  0.795967  0.166837  1
  Se  Se15  1  0.750000  0.295967  0.333163  1
  Se  Se16  1  0.250000  0.127969  0.530460  1
  Se  Se17  1  0.250000  0.627969  0.969540  1
  Se  Se18  1  0.750000  0.872031  0.469540  1
  Se  Se19  1  0.750000  0.372031  0.030460  1
  Se  Se20  1  0.250000  0.028386  0.283472  1
  Se  Se21  1  0.250000  0.528386  0.216528  1
  Se  Se22  1  0.750000  0.971614  0.716528  1
  Se  Se23  1  0.750000  0.471614  0.783472  1
  Se  Se24  1  0.250000  0.407470  0.575658  1
  Se  Se25  1  0.250000  0.907470  0.924342  1
  Se  Se26  1  0.750000  0.592530  0.424342  1
  Se  Se27  1  0.750000  0.092530  0.075658  1
