# generated using pymatgen
data_Er16In4IrPdRh2
_symmetry_space_group_name_H-M   'P 1'
_cell_length_a   9.58868319
_cell_length_b   9.58610839
_cell_length_c   9.61461274
_cell_angle_alpha   60.03263885
_cell_angle_beta   60.08916659
_cell_angle_gamma   59.99111774
_symmetry_Int_Tables_number   1
_chemical_formula_structural   Er16In4IrPdRh2
_chemical_formula_sum   'Er16 In4 Ir1 Pd1 Rh2'
_cell_volume   625.44316577
_cell_formula_units_Z   1
loop_
 _symmetry_equiv_pos_site_id
 _symmetry_equiv_pos_as_xyz
  1  'x, y, z'
loop_
 _atom_site_type_symbol
 _atom_site_label
 _atom_site_symmetry_multiplicity
 _atom_site_fract_x
 _atom_site_fract_y
 _atom_site_fract_z
 _atom_site_occupancy
  Er  Er0  1  0.193593  0.185916  0.810256  1
  Er  Er1  1  0.437778  0.062865  0.061580  1
  Er  Er2  1  0.439504  0.062605  0.436655  1
  Er  Er3  1  0.062043  0.439691  0.062153  1
  Er  Er4  1  0.651526  0.047543  0.649407  1
  Er  Er5  1  0.189221  0.811614  0.809942  1
  Er  Er6  1  0.061236  0.062605  0.436655  1
  Er  Er7  1  0.809996  0.185853  0.194154  1
  Er  Er8  1  0.809698  0.811120  0.190177  1
  Er  Er9  1  0.647083  0.651688  0.054148  1
  Er  Er10  1  0.648836  0.652905  0.646866  1
  Er  Er11  1  0.061733  0.441518  0.435017  1
  Er  Er12  1  0.051394  0.652905  0.646866  1
  Er  Er13  1  0.810235  0.185916  0.810256  1
  Er  Er14  1  0.436114  0.439691  0.062153  1
  Er  Er15  1  0.189004  0.811120  0.190177  1
  In  In16  1  0.416399  0.750822  0.416381  1
  In  In17  1  0.417739  0.415424  0.749099  1
  In  In18  1  0.750203  0.415182  0.417509  1
  In  In19  1  0.417106  0.415182  0.417509  1
  Ir  Ir20  1  0.858111  0.855777  0.428001  1
  Pd  Pd21  1  0.856136  0.430569  0.857158  1
  Rh  Rh22  1  0.427769  0.855744  0.858941  1
  Rh  Rh23  1  0.857545  0.855744  0.858941  1
