# generated using pymatgen
data_EuHoLuSe4
_symmetry_space_group_name_H-M   'P 1'
_cell_length_a   4.09081700
_cell_length_b   12.42044200
_cell_length_c   14.76585900
_cell_angle_alpha   90.00000000
_cell_angle_beta   90.00000000
_cell_angle_gamma   90.00000000
_symmetry_Int_Tables_number   1
_chemical_formula_structural   EuHoLuSe4
_chemical_formula_sum   'Eu4 Ho4 Lu4 Se16'
_cell_volume   750.24968231
_cell_formula_units_Z   4
loop_
 _symmetry_equiv_pos_site_id
 _symmetry_equiv_pos_as_xyz
  1  'x, y, z'
loop_
 _atom_site_type_symbol
 _atom_site_label
 _atom_site_symmetry_multiplicity
 _atom_site_fract_x
 _atom_site_fract_y
 _atom_site_fract_z
 _atom_site_occupancy
  Eu  Eu0  1  0.750000  0.741046  0.164588  1
  Eu  Eu1  1  0.750000  0.241046  0.335412  1
  Eu  Eu2  1  0.250000  0.258954  0.835412  1
  Eu  Eu3  1  0.250000  0.758954  0.664588  1
  Ho  Ho4  1  0.750000  0.064947  0.111445  1
  Ho  Ho5  1  0.750000  0.564947  0.388555  1
  Ho  Ho6  1  0.250000  0.935053  0.888555  1
  Ho  Ho7  1  0.250000  0.435054  0.611445  1
  Lu  Lu8  1  0.750000  0.081394  0.597125  1
  Lu  Lu9  1  0.750000  0.581394  0.902875  1
  Lu  Lu10  1  0.250000  0.918606  0.402875  1
  Lu  Lu11  1  0.250000  0.418606  0.097125  1
  Se  Se12  1  0.750000  0.290742  0.675073  1
  Se  Se13  1  0.750000  0.790742  0.824927  1
  Se  Se14  1  0.250000  0.709258  0.324927  1
  Se  Se15  1  0.250000  0.209258  0.175073  1
  Se  Se16  1  0.750000  0.369346  0.970048  1
  Se  Se17  1  0.750000  0.869346  0.529952  1
  Se  Se18  1  0.250000  0.630654  0.029952  1
  Se  Se19  1  0.250000  0.130654  0.470048  1
  Se  Se20  1  0.750000  0.975150  0.287007  1
  Se  Se21  1  0.750000  0.475150  0.212993  1
  Se  Se22  1  0.250000  0.024850  0.712993  1
  Se  Se23  1  0.250000  0.524850  0.787007  1
  Se  Se24  1  0.750000  0.091361  0.920705  1
  Se  Se25  1  0.750000  0.591361  0.579295  1
  Se  Se26  1  0.250000  0.908639  0.079295  1
  Se  Se27  1  0.250000  0.408639  0.420705  1
