# generated using pymatgen
data_Nd7Ho13(InBi)8
_symmetry_space_group_name_H-M   'P 1'
_cell_length_a   8.34163727
_cell_length_b   8.34488948
_cell_length_c   15.67457200
_cell_angle_alpha   90.04392163
_cell_angle_beta   90.33697787
_cell_angle_gamma   89.88745744
_symmetry_Int_Tables_number   1
_chemical_formula_structural   Nd7Ho13(InBi)8
_chemical_formula_sum   'Nd7 Ho13 In8 Bi8'
_cell_volume   1091.08631402
_cell_formula_units_Z   1
loop_
 _symmetry_equiv_pos_site_id
 _symmetry_equiv_pos_as_xyz
  1  'x, y, z'
loop_
 _atom_site_type_symbol
 _atom_site_label
 _atom_site_symmetry_multiplicity
 _atom_site_fract_x
 _atom_site_fract_y
 _atom_site_fract_z
 _atom_site_occupancy
  Nd  Nd0  1  0.972881  0.819024  0.898196  1
  Nd  Nd1  1  0.526392  0.319636  0.100126  1
  Nd  Nd2  1  0.030250  0.180111  0.399248  1
  Nd  Nd3  1  0.528290  0.321298  0.399109  1
  Nd  Nd4  1  0.026250  0.180693  0.100094  1
  Nd  Nd5  1  0.474159  0.679938  0.899679  1
  Nd  Nd6  1  0.972059  0.820095  0.600877  1
  Ho  Ho7  1  0.627376  0.161838  0.624272  1
  Ho  Ho8  1  0.128640  0.338547  0.874190  1
  Ho  Ho9  1  0.372321  0.838369  0.124487  1
  Ho  Ho10  1  0.874638  0.662090  0.375663  1
  Ho  Ho11  1  0.375811  0.838276  0.376266  1
  Ho  Ho12  1  0.871823  0.661367  0.124681  1
  Ho  Ho13  1  0.627456  0.160588  0.873895  1
  Ho  Ho14  1  0.125206  0.337921  0.624623  1
  Ho  Ho15  1  0.465473  0.675025  0.606345  1
  Ho  Ho16  1  0.792368  0.497708  0.749765  1
  Ho  Ho17  1  0.294178  0.001472  0.749522  1
  Ho  Ho18  1  0.206643  0.503176  0.250492  1
  Ho  Ho19  1  0.706826  0.997823  0.249837  1
  In  In20  1  0.426886  0.382085  0.749034  1
  In  In21  1  0.926474  0.117397  0.749460  1
  In  In22  1  0.573644  0.618364  0.250270  1
  In  In23  1  0.074395  0.881457  0.250284  1
  In  In24  1  0.668613  0.859963  0.748217  1
  In  In25  1  0.171935  0.638095  0.749334  1
  In  In26  1  0.328781  0.137710  0.249929  1
  In  In27  1  0.829410  0.362632  0.250116  1
  Bi  Bi28  1  0.714573  0.966732  0.456270  1
  Bi  Bi29  1  0.211210  0.536753  0.042552  1
  Bi  Bi30  1  0.288383  0.036483  0.956604  1
  Bi  Bi31  1  0.780888  0.471121  0.543871  1
  Bi  Bi32  1  0.289828  0.032622  0.543878  1
  Bi  Bi33  1  0.789520  0.461773  0.956770  1
  Bi  Bi34  1  0.711393  0.963169  0.042193  1
  Bi  Bi35  1  0.215025  0.538653  0.459848  1
