# generated using pymatgen
data_Tc2Te4WI
_symmetry_space_group_name_H-M   'P 1'
_cell_length_a   12.90766200
_cell_length_b   6.89886354
_cell_length_c   12.12449541
_cell_angle_alpha   71.99418066
_cell_angle_beta   90.00000000
_cell_angle_gamma   90.00000000
_symmetry_Int_Tables_number   1
_chemical_formula_structural   Tc2Te4WI
_chemical_formula_sum   'Tc8 Te16 W4 I4'
_cell_volume   1026.78804476
_cell_formula_units_Z   4
loop_
 _symmetry_equiv_pos_site_id
 _symmetry_equiv_pos_as_xyz
  1  'x, y, z'
loop_
 _atom_site_type_symbol
 _atom_site_label
 _atom_site_symmetry_multiplicity
 _atom_site_fract_x
 _atom_site_fract_y
 _atom_site_fract_z
 _atom_site_occupancy
  Tc  Tc0  1  0.363637  0.969285  0.437083  1
  Tc  Tc1  1  0.136363  0.969285  0.937083  1
  Tc  Tc2  1  0.636363  0.030715  0.562917  1
  Tc  Tc3  1  0.863637  0.030715  0.062917  1
  Tc  Tc4  1  0.515815  0.715959  0.548939  1
  Tc  Tc5  1  0.984185  0.715959  0.048939  1
  Tc  Tc6  1  0.484185  0.284041  0.451061  1
  Tc  Tc7  1  0.015815  0.284041  0.951061  1
  Te  Te8  1  0.441974  0.703566  0.334085  1
  Te  Te9  1  0.058026  0.703566  0.834085  1
  Te  Te10  1  0.558026  0.296434  0.665915  1
  Te  Te11  1  0.941974  0.296434  0.165915  1
  Te  Te12  1  0.317432  0.660514  0.629022  1
  Te  Te13  1  0.182568  0.660514  0.129022  1
  Te  Te14  1  0.682568  0.339486  0.370978  1
  Te  Te15  1  0.817432  0.339486  0.870978  1
  Te  Te16  1  0.412026  0.267469  0.240796  1
  Te  Te17  1  0.087974  0.267469  0.740796  1
  Te  Te18  1  0.587974  0.732531  0.759204  1
  Te  Te19  1  0.912026  0.732531  0.259204  1
  Te  Te20  1  0.714089  0.748630  0.467744  1
  Te  Te21  1  0.785911  0.748630  0.967744  1
  Te  Te22  1  0.285911  0.251370  0.532256  1
  Te  Te23  1  0.214089  0.251370  0.032256  1
  W  W24  1  0.565736  0.014523  0.355601  1
  W  W25  1  0.934264  0.014523  0.855601  1
  W  W26  1  0.434264  0.985477  0.644399  1
  W  W27  1  0.065736  0.985477  0.144399  1
  I  I28  1  0.152786  0.928856  0.371808  1
  I  I29  1  0.347214  0.928856  0.871808  1
  I  I30  1  0.847214  0.071144  0.628192  1
  I  I31  1  0.652786  0.071144  0.128192  1
