# generated using pymatgen
data_Yb4Th4GePd24
_symmetry_space_group_name_H-M   'P 1'
_cell_length_a   8.39173069
_cell_length_b   8.41412634
_cell_length_c   8.41412634
_cell_angle_alpha   90.00071716
_cell_angle_beta   89.93521705
_cell_angle_gamma   89.93521705
_symmetry_Int_Tables_number   1
_chemical_formula_structural   Yb4Th4GePd24
_chemical_formula_sum   'Yb4 Th4 Ge1 Pd24'
_cell_volume   594.11297922
_cell_formula_units_Z   1
loop_
 _symmetry_equiv_pos_site_id
 _symmetry_equiv_pos_as_xyz
  1  'x, y, z'
loop_
 _atom_site_type_symbol
 _atom_site_label
 _atom_site_symmetry_multiplicity
 _atom_site_fract_x
 _atom_site_fract_y
 _atom_site_fract_z
 _atom_site_occupancy
  Yb  Yb0  1  0.252235  0.252938  0.747347  1
  Yb  Yb1  1  0.252235  0.747347  0.252938  1
  Yb  Yb2  1  0.252050  0.747219  0.747219  1
  Yb  Yb3  1  0.747797  0.251892  0.251892  1
  Th  Th4  1  0.255238  0.256305  0.256305  1
  Th  Th5  1  0.744531  0.745498  0.745498  1
  Th  Th6  1  0.745000  0.745664  0.254059  1
  Th  Th7  1  0.745000  0.254059  0.745664  1
  Ge  Ge8  1  0.003010  0.000039  0.000039  1
  Pd  Pd9  1  0.259586  0.498925  0.001205  1
  Pd  Pd10  1  0.741475  0.499453  0.001011  1
  Pd  Pd11  1  0.999240  0.258745  0.500115  1
  Pd  Pd12  1  0.499872  0.259124  0.999757  1
  Pd  Pd13  1  0.999709  0.740910  0.499863  1
  Pd  Pd14  1  0.499754  0.740920  0.000216  1
  Pd  Pd15  1  0.499872  0.999757  0.259124  1
  Pd  Pd16  1  0.259586  0.001205  0.498925  1
  Pd  Pd17  1  0.499754  0.000216  0.740920  1
  Pd  Pd18  1  0.741475  0.001011  0.499453  1
  Pd  Pd19  1  0.999240  0.500115  0.258745  1
  Pd  Pd20  1  0.999709  0.499863  0.740910  1
  Pd  Pd21  1  0.252420  0.500291  0.500291  1
  Pd  Pd22  1  0.746666  0.497856  0.497856  1
  Pd  Pd23  1  0.500716  0.252843  0.500372  1
  Pd  Pd24  1  0.497507  0.747214  0.499977  1
  Pd  Pd25  1  0.500716  0.500372  0.252843  1
  Pd  Pd26  1  0.497507  0.499977  0.747214  1
  Pd  Pd27  1  0.289482  0.999277  0.999277  1
  Pd  Pd28  1  0.712016  0.001606  0.001606  1
  Pd  Pd29  1  0.000319  0.288213  0.999762  1
  Pd  Pd30  1  0.002984  0.711657  0.999726  1
  Pd  Pd31  1  0.000319  0.999762  0.288213  1
  Pd  Pd32  1  0.002984  0.999726  0.711657  1
