# generated using pymatgen
data_Hf18Re7GeOsW
_symmetry_space_group_name_H-M   'P 1'
_cell_length_a   8.63863100
_cell_length_b   8.63863184
_cell_length_c   8.60991900
_cell_angle_alpha   90.00000000
_cell_angle_beta   90.00000000
_cell_angle_gamma   120.00000828
_symmetry_Int_Tables_number   1
_chemical_formula_structural   Hf18Re7GeOsW
_chemical_formula_sum   'Hf18 Re7 Ge1 Os1 W1'
_cell_volume   556.44154805
_cell_formula_units_Z   1
loop_
 _symmetry_equiv_pos_site_id
 _symmetry_equiv_pos_as_xyz
  1  'x, y, z'
loop_
 _atom_site_type_symbol
 _atom_site_label
 _atom_site_symmetry_multiplicity
 _atom_site_fract_x
 _atom_site_fract_y
 _atom_site_fract_z
 _atom_site_occupancy
  Hf  Hf0  1  0.198232  0.801768  0.448100  1
  Hf  Hf1  1  0.198232  0.396465  0.448100  1
  Hf  Hf2  1  0.603535  0.801768  0.448100  1
  Hf  Hf3  1  0.805441  0.194559  0.546265  1
  Hf  Hf4  1  0.805441  0.610882  0.546265  1
  Hf  Hf5  1  0.389118  0.194559  0.546265  1
  Hf  Hf6  1  0.807281  0.192719  0.953433  1
  Hf  Hf7  1  0.807281  0.614561  0.953433  1
  Hf  Hf8  1  0.385439  0.192719  0.953433  1
  Hf  Hf9  1  0.197610  0.802390  0.052025  1
  Hf  Hf10  1  0.197610  0.395221  0.052025  1
  Hf  Hf11  1  0.604779  0.802390  0.052025  1
  Hf  Hf12  1  0.540043  0.459957  0.249608  1
  Hf  Hf13  1  0.540043  0.080082  0.249608  1
  Hf  Hf14  1  0.919918  0.459957  0.249608  1
  Hf  Hf15  1  0.461187  0.538813  0.750351  1
  Hf  Hf16  1  0.461187  0.922376  0.750351  1
  Hf  Hf17  1  0.077624  0.538813  0.750351  1
  Re  Re18  1  0.889024  0.110976  0.250615  1
  Re  Re19  1  0.889024  0.778046  0.250615  1
  Re  Re20  1  0.221954  0.110976  0.250615  1
  Re  Re21  1  0.110186  0.889814  0.749455  1
  Re  Re22  1  0.110186  0.220372  0.749455  1
  Re  Re23  1  0.779628  0.889814  0.749455  1
  Re  Re24  1  0.000000  0.000000  0.000950  1
  Ge  Ge25  1  0.666667  0.333333  0.751636  1
  Os  Os26  1  0.333333  0.666667  0.249495  1
  W  W27  1  0.000000  0.000000  0.498363  1
