# generated using pymatgen
data_Sc8Ta3Nb8Si16Ag
_symmetry_space_group_name_H-M   'P 1'
_cell_length_a   6.69292415
_cell_length_b   6.91487725
_cell_length_c   13.16996100
_cell_angle_alpha   90.00000000
_cell_angle_beta   90.00000000
_cell_angle_gamma   90.50017186
_symmetry_Int_Tables_number   1
_chemical_formula_structural   Sc8Ta3Nb8Si16Ag
_chemical_formula_sum   'Sc8 Ta3 Nb8 Si16 Ag1'
_cell_volume   609.49243355
_cell_formula_units_Z   1
loop_
 _symmetry_equiv_pos_site_id
 _symmetry_equiv_pos_as_xyz
  1  'x, y, z'
loop_
 _atom_site_type_symbol
 _atom_site_label
 _atom_site_symmetry_multiplicity
 _atom_site_fract_x
 _atom_site_fract_y
 _atom_site_fract_z
 _atom_site_occupancy
  Sc  Sc0  1  0.498873  0.675429  0.592002  1
  Sc  Sc1  1  0.003389  0.827481  0.907339  1
  Sc  Sc2  1  0.496355  0.327085  0.096004  1
  Sc  Sc3  1  0.000551  0.172495  0.401656  1
  Sc  Sc4  1  0.496355  0.327085  0.403996  1
  Sc  Sc5  1  0.000551  0.172495  0.098344  1
  Sc  Sc6  1  0.498873  0.675429  0.907998  1
  Sc  Sc7  1  0.003389  0.827481  0.592661  1
  Ta  Ta8  1  0.337060  0.999838  0.750000  1
  Ta  Ta9  1  0.162213  0.506274  0.250000  1
  Ta  Ta10  1  0.663003  0.995694  0.250000  1
  Nb  Nb11  1  0.667677  0.173165  0.625892  1
  Nb  Nb12  1  0.157378  0.322648  0.874287  1
  Nb  Nb13  1  0.337667  0.826235  0.124973  1
  Nb  Nb14  1  0.836827  0.675336  0.375701  1
  Nb  Nb15  1  0.337667  0.826235  0.375027  1
  Nb  Nb16  1  0.836827  0.675336  0.124299  1
  Nb  Nb17  1  0.667677  0.173165  0.874108  1
  Nb  Nb18  1  0.157378  0.322648  0.625713  1
  Si  Si19  1  0.669776  0.968610  0.460094  1
  Si  Si20  1  0.168180  0.532825  0.039016  1
  Si  Si21  1  0.333642  0.034204  0.959986  1
  Si  Si22  1  0.830770  0.458766  0.531759  1
  Si  Si23  1  0.333642  0.034204  0.540014  1
  Si  Si24  1  0.830770  0.458766  0.968241  1
  Si  Si25  1  0.669776  0.968610  0.039906  1
  Si  Si26  1  0.168180  0.532825  0.460984  1
  Si  Si27  1  0.458532  0.378506  0.750000  1
  Si  Si28  1  0.962742  0.106101  0.750000  1
  Si  Si29  1  0.539520  0.613960  0.250000  1
  Si  Si30  1  0.041026  0.886059  0.250000  1
  Si  Si31  1  0.701396  0.869926  0.750000  1
  Si  Si32  1  0.213965  0.632431  0.750000  1
  Si  Si33  1  0.296891  0.138547  0.250000  1
  Si  Si34  1  0.793296  0.363306  0.250000  1
  Ag  Ag35  1  0.828183  0.520803  0.750000  1
