# generated using pymatgen
data_YErTm(Co3P2)3
_symmetry_space_group_name_H-M   'P 1'
_cell_length_a   3.68941200
_cell_length_b   10.50160900
_cell_length_c   12.15726600
_cell_angle_alpha   90.00000000
_cell_angle_beta   90.00000000
_cell_angle_gamma   90.00000000
_symmetry_Int_Tables_number   1
_chemical_formula_structural   YErTm(Co3P2)3
_chemical_formula_sum   'Y2 Er2 Tm2 Co18 P12'
_cell_volume   471.03038095
_cell_formula_units_Z   2
loop_
 _symmetry_equiv_pos_site_id
 _symmetry_equiv_pos_as_xyz
  1  'x, y, z'
loop_
 _atom_site_type_symbol
 _atom_site_label
 _atom_site_symmetry_multiplicity
 _atom_site_fract_x
 _atom_site_fract_y
 _atom_site_fract_z
 _atom_site_occupancy
  Y  Y0  1  0.750000  0.250000  0.478079  1
  Y  Y1  1  0.250000  0.750000  0.522180  1
  Er  Er2  1  0.750000  0.067758  0.205668  1
  Er  Er3  1  0.750000  0.432242  0.205668  1
  Tm  Tm4  1  0.250000  0.931964  0.794232  1
  Tm  Tm5  1  0.250000  0.568036  0.794232  1
  Co  Co6  1  0.250000  0.250000  0.841427  1
  Co  Co7  1  0.750000  0.750000  0.158631  1
  Co  Co8  1  0.250000  0.250000  0.295616  1
  Co  Co9  1  0.750000  0.750000  0.704502  1
  Co  Co10  1  0.750000  0.250000  0.013193  1
  Co  Co11  1  0.250000  0.750000  0.985890  1
  Co  Co12  1  0.250000  0.416982  0.005067  1
  Co  Co13  1  0.250000  0.083018  0.005067  1
  Co  Co14  1  0.750000  0.583396  0.994325  1
  Co  Co15  1  0.750000  0.916604  0.994325  1
  Co  Co16  1  0.250000  0.452877  0.570092  1
  Co  Co17  1  0.250000  0.047123  0.570092  1
  Co  Co18  1  0.750000  0.547270  0.430488  1
  Co  Co19  1  0.750000  0.952730  0.430488  1
  Co  Co20  1  0.250000  0.871104  0.289738  1
  Co  Co21  1  0.250000  0.628896  0.289738  1
  Co  Co22  1  0.750000  0.128629  0.710552  1
  Co  Co23  1  0.750000  0.371371  0.710552  1
  P  P24  1  0.250000  0.250000  0.117099  1
  P  P25  1  0.750000  0.750000  0.882253  1
  P  P26  1  0.250000  0.250000  0.656767  1
  P  P27  1  0.750000  0.750000  0.343429  1
  P  P28  1  0.250000  0.439493  0.383398  1
  P  P29  1  0.250000  0.060507  0.383398  1
  P  P30  1  0.750000  0.560686  0.617224  1
  P  P31  1  0.750000  0.939314  0.617224  1
  P  P32  1  0.250000  0.902921  0.107022  1
  P  P33  1  0.250000  0.597079  0.107022  1
  P  P34  1  0.750000  0.096383  0.892661  1
  P  P35  1  0.750000  0.403617  0.892661  1
