# generated using pymatgen
data_HoLuInNi7B2
_symmetry_space_group_name_H-M   'P 1'
_cell_length_a   4.98267400
_cell_length_b   4.98267464
_cell_length_c   14.28892000
_cell_angle_alpha   90.00000000
_cell_angle_beta   90.00000000
_cell_angle_gamma   119.99999576
_symmetry_Int_Tables_number   1
_chemical_formula_structural   HoLuInNi7B2
_chemical_formula_sum   'Ho2 Lu2 In2 Ni14 B4'
_cell_volume   307.22394243
_cell_formula_units_Z   2
loop_
 _symmetry_equiv_pos_site_id
 _symmetry_equiv_pos_as_xyz
  1  'x, y, z'
loop_
 _atom_site_type_symbol
 _atom_site_label
 _atom_site_symmetry_multiplicity
 _atom_site_fract_x
 _atom_site_fract_y
 _atom_site_fract_z
 _atom_site_occupancy
  Ho  Ho0  1  0.333333  0.666667  0.531799  1
  Ho  Ho1  1  0.666667  0.333333  0.031799  1
  Lu  Lu2  1  0.333333  0.666667  0.754932  1
  Lu  Lu3  1  0.666667  0.333333  0.254932  1
  In  In4  1  0.666667  0.333333  0.467565  1
  In  In5  1  0.333333  0.666667  0.967565  1
  Ni  Ni6  1  0.000000  0.000000  0.998726  1
  Ni  Ni7  1  0.000000  0.000000  0.498726  1
  Ni  Ni8  1  0.166225  0.332451  0.147912  1
  Ni  Ni9  1  0.833775  0.667549  0.647912  1
  Ni  Ni10  1  0.667549  0.833775  0.147912  1
  Ni  Ni11  1  0.166225  0.833775  0.147912  1
  Ni  Ni12  1  0.833775  0.166225  0.647912  1
  Ni  Ni13  1  0.332451  0.166225  0.647912  1
  Ni  Ni14  1  0.833959  0.667916  0.851912  1
  Ni  Ni15  1  0.833959  0.166041  0.851912  1
  Ni  Ni16  1  0.332084  0.166041  0.851912  1
  Ni  Ni17  1  0.667916  0.833959  0.351912  1
  Ni  Ni18  1  0.166041  0.833959  0.351912  1
  Ni  Ni19  1  0.166041  0.332084  0.351912  1
  B  B20  1  0.333333  0.666667  0.249710  1
  B  B21  1  0.666667  0.333333  0.749710  1
  B  B22  1  0.000000  0.000000  0.247795  1
  B  B23  1  0.000000  0.000000  0.747795  1
