# generated using pymatgen
data_Yb3Tm3(Si3Ru)8
_symmetry_space_group_name_H-M   'P 1'
_cell_length_a   10.15143175
_cell_length_b   10.15213506
_cell_length_c   8.11414032
_cell_angle_alpha   90.06477520
_cell_angle_beta   89.95999216
_cell_angle_gamma   132.84678423
_symmetry_Int_Tables_number   1
_chemical_formula_structural   Yb3Tm3(Si3Ru)8
_chemical_formula_sum   'Yb3 Tm3 Si24 Ru8'
_cell_volume   613.10444809
_cell_formula_units_Z   1
loop_
 _symmetry_equiv_pos_site_id
 _symmetry_equiv_pos_as_xyz
  1  'x, y, z'
loop_
 _atom_site_type_symbol
 _atom_site_label
 _atom_site_symmetry_multiplicity
 _atom_site_fract_x
 _atom_site_fract_y
 _atom_site_fract_z
 _atom_site_occupancy
  Yb  Yb0  1  0.500000  0.500000  0.500000  1
  Yb  Yb1  1  0.497719  0.997687  0.749873  1
  Yb  Yb2  1  0.502281  0.002313  0.250127  1
  Tm  Tm3  1  0.000000  0.000000  0.000000  1
  Tm  Tm4  1  0.001146  0.501160  0.250255  1
  Tm  Tm5  1  0.998854  0.498840  0.749745  1
  Si  Si6  1  0.704561  0.294106  0.999278  1
  Si  Si7  1  0.295439  0.705894  0.000722  1
  Si  Si8  1  0.794264  0.204258  0.500765  1
  Si  Si9  1  0.205736  0.795742  0.499235  1
  Si  Si10  1  0.334991  0.334374  0.168433  1
  Si  Si11  1  0.665009  0.665626  0.831567  1
  Si  Si12  1  0.168012  0.167243  0.665901  1
  Si  Si13  1  0.831988  0.832757  0.334099  1
  Si  Si14  1  0.843863  0.611063  0.006245  1
  Si  Si15  1  0.156137  0.388937  0.993755  1
  Si  Si16  1  0.652342  0.886572  0.505370  1
  Si  Si17  1  0.113008  0.345303  0.493183  1
  Si  Si18  1  0.347658  0.113428  0.494630  1
  Si  Si19  1  0.886992  0.654697  0.506817  1
  Si  Si20  1  0.388547  0.153775  0.995109  1
  Si  Si21  1  0.611453  0.846225  0.004891  1
  Si  Si22  1  0.891004  0.124766  0.271391  1
  Si  Si23  1  0.108996  0.875234  0.728609  1
  Si  Si24  1  0.609969  0.376876  0.769965  1
  Si  Si25  1  0.624149  0.391003  0.229917  1
  Si  Si26  1  0.390031  0.623124  0.230035  1
  Si  Si27  1  0.375851  0.608997  0.770083  1
  Si  Si28  1  0.876168  0.109888  0.728723  1
  Si  Si29  1  0.123832  0.890112  0.271277  1
  Ru  Ru30  1  0.833706  0.173461  0.999937  1
  Ru  Ru31  1  0.166294  0.826539  0.000063  1
  Ru  Ru32  1  0.674606  0.332684  0.500009  1
  Ru  Ru33  1  0.325394  0.667316  0.499991  1
  Ru  Ru34  1  0.125500  0.125014  0.372116  1
  Ru  Ru35  1  0.874500  0.874986  0.627884  1
  Ru  Ru36  1  0.371785  0.371184  0.875222  1
  Ru  Ru37  1  0.628215  0.628816  0.124778  1
