# generated using pymatgen
data_Ca4Dy2Si24OsRu7
_symmetry_space_group_name_H-M   'P 1'
_cell_length_a   10.18100448
_cell_length_b   10.18100561
_cell_length_c   8.16237358
_cell_angle_alpha   90.01420065
_cell_angle_beta   90.01420282
_cell_angle_gamma   132.74168264
_symmetry_Int_Tables_number   1
_chemical_formula_structural   Ca4Dy2Si24OsRu7
_chemical_formula_sum   'Ca4 Dy2 Si24 Os1 Ru7'
_cell_volume   621.35929642
_cell_formula_units_Z   1
loop_
 _symmetry_equiv_pos_site_id
 _symmetry_equiv_pos_as_xyz
  1  'x, y, z'
loop_
 _atom_site_type_symbol
 _atom_site_label
 _atom_site_symmetry_multiplicity
 _atom_site_fract_x
 _atom_site_fract_y
 _atom_site_fract_z
 _atom_site_occupancy
  Ca  Ca0  1  0.499991  0.500009  0.500000  1
  Ca  Ca1  1  0.999925  0.000075  0.000000  1
  Ca  Ca2  1  0.500612  0.000344  0.749927  1
  Ca  Ca3  1  0.999656  0.499388  0.250073  1
  Dy  Dy4  1  0.499563  0.999754  0.250034  1
  Dy  Dy5  1  0.000246  0.500437  0.749966  1
  Si  Si6  1  0.795891  0.204109  0.500000  1
  Si  Si7  1  0.294902  0.705098  0.000000  1
  Si  Si8  1  0.205164  0.794836  0.500000  1
  Si  Si9  1  0.704539  0.295461  0.000000  1
  Si  Si10  1  0.332409  0.336210  0.832325  1
  Si  Si11  1  0.663790  0.667591  0.167675  1
  Si  Si12  1  0.167847  0.163439  0.332111  1
  Si  Si13  1  0.836561  0.832153  0.667889  1
  Si  Si14  1  0.122736  0.889906  0.730154  1
  Si  Si15  1  0.110094  0.877264  0.269846  1
  Si  Si16  1  0.607182  0.374752  0.229292  1
  Si  Si17  1  0.625248  0.392818  0.770708  1
  Si  Si18  1  0.873864  0.106412  0.269234  1
  Si  Si19  1  0.893588  0.126136  0.730766  1
  Si  Si20  1  0.390523  0.623434  0.770077  1
  Si  Si21  1  0.376566  0.609477  0.229923  1
  Si  Si22  1  0.345831  0.112629  0.506092  1
  Si  Si23  1  0.887371  0.654169  0.493908  1
  Si  Si24  1  0.386121  0.153105  0.009680  1
  Si  Si25  1  0.846895  0.613879  0.990320  1
  Si  Si26  1  0.652737  0.885623  0.489199  1
  Si  Si27  1  0.114377  0.347263  0.510801  1
  Si  Si28  1  0.612951  0.846672  0.994117  1
  Si  Si29  1  0.153328  0.387049  0.005883  1
  Os  Os30  1  0.670916  0.329084  0.500000  1
  Ru  Ru31  1  0.170221  0.829779  0.000000  1
  Ru  Ru32  1  0.329880  0.670120  0.500000  1
  Ru  Ru33  1  0.828972  0.171028  0.000000  1
  Ru  Ru34  1  0.126740  0.127073  0.624816  1
  Ru  Ru35  1  0.872927  0.873260  0.375184  1
  Ru  Ru36  1  0.372885  0.373048  0.124655  1
  Ru  Ru37  1  0.626952  0.627115  0.875345  1
