# generated using pymatgen
data_La5Pr5C4I15
_symmetry_space_group_name_H-M   'P 1'
_cell_length_a   9.88615635
_cell_length_b   10.79798357
_cell_length_c   11.92602070
_cell_angle_alpha   93.59728099
_cell_angle_beta   114.46456686
_cell_angle_gamma   109.33196305
_symmetry_Int_Tables_number   1
_chemical_formula_structural   La5Pr5C4I15
_chemical_formula_sum   'La5 Pr5 C4 I15'
_cell_volume   1063.46000701
_cell_formula_units_Z   1
loop_
 _symmetry_equiv_pos_site_id
 _symmetry_equiv_pos_as_xyz
  1  'x, y, z'
loop_
 _atom_site_type_symbol
 _atom_site_label
 _atom_site_symmetry_multiplicity
 _atom_site_fract_x
 _atom_site_fract_y
 _atom_site_fract_z
 _atom_site_occupancy
  La  La0  1  0.399091  0.456377  0.653482  1
  La  La1  1  0.470947  0.817110  0.896583  1
  La  La2  1  0.706805  0.568603  0.045448  1
  La  La3  1  0.294085  0.431739  0.956345  1
  La  La4  1  0.659170  0.253777  0.836053  1
  Pr  Pr5  1  0.597200  0.542339  0.340548  1
  Pr  Pr6  1  0.344840  0.745922  0.164384  1
  Pr  Pr7  1  0.776436  0.883106  0.257849  1
  Pr  Pr8  1  0.527533  0.187351  0.101375  1
  Pr  Pr9  1  0.224970  0.115974  0.745419  1
  C  C10  1  0.483924  0.302730  0.937316  1
  C  C11  1  0.517647  0.700111  0.061099  1
  C  C12  1  0.453462  0.362395  0.832947  1
  C  C13  1  0.546520  0.637499  0.163364  1
  I  I14  1  0.207000  0.908683  0.940483  1
  I  I15  1  0.101716  0.183778  0.470175  1
  I  I16  1  0.150581  0.555968  0.703433  1
  I  I17  1  0.403683  0.969704  0.646158  1
  I  I18  1  0.712605  0.733748  0.820562  1
  I  I19  1  0.289371  0.266411  0.180911  1
  I  I20  1  0.845993  0.442393  0.297852  1
  I  I21  1  0.893613  0.810275  0.530552  1
  I  I22  1  0.359862  0.630816  0.411047  1
  I  I23  1  0.053285  0.833255  0.221372  1
  I  I24  1  0.794284  0.095081  0.067156  1
  I  I25  1  0.642701  0.369616  0.586888  1
  I  I26  1  0.946679  0.164854  0.780363  1
  I  I27  1  0.593012  0.028689  0.349037  1
  I  I28  1  0.002983  0.501696  0.001799  1
