# generated using pymatgen
data_RbIn3Te5
_symmetry_space_group_name_H-M   'P 1'
_cell_length_a   11.46736960
_cell_length_b   11.46736922
_cell_length_c   11.46737054
_cell_angle_alpha   90.15570070
_cell_angle_beta   90.15570133
_cell_angle_gamma   90.15569927
_symmetry_Int_Tables_number   1
_chemical_formula_structural   RbIn3Te5
_chemical_formula_sum   'Rb4 In12 Te20'
_cell_volume   1507.94892881
_cell_formula_units_Z   4
loop_
 _symmetry_equiv_pos_site_id
 _symmetry_equiv_pos_as_xyz
  1  'x, y, z'
loop_
 _atom_site_type_symbol
 _atom_site_label
 _atom_site_symmetry_multiplicity
 _atom_site_fract_x
 _atom_site_fract_y
 _atom_site_fract_z
 _atom_site_occupancy
  Rb  Rb0  1  0.256066  0.000000  0.743934  1
  Rb  Rb1  1  0.743934  0.256066  0.000000  1
  Rb  Rb2  1  0.000000  0.743934  0.256066  1
  Rb  Rb3  1  0.500000  0.500000  0.500000  1
  In  In4  1  0.835436  0.886013  0.576445  1
  In  In5  1  0.576445  0.835436  0.886013  1
  In  In6  1  0.886013  0.576445  0.835436  1
  In  In7  1  0.164564  0.423555  0.113987  1
  In  In8  1  0.113987  0.164564  0.423555  1
  In  In9  1  0.423555  0.113987  0.164564  1
  In  In10  1  0.741435  0.160258  0.348825  1
  In  In11  1  0.348825  0.741435  0.160258  1
  In  In12  1  0.160258  0.348825  0.741435  1
  In  In13  1  0.258565  0.651175  0.839742  1
  In  In14  1  0.839742  0.258565  0.651175  1
  In  In15  1  0.651175  0.839742  0.258565  1
  Te  Te16  1  0.181686  0.818314  0.000000  1
  Te  Te17  1  0.818314  0.000000  0.181686  1
  Te  Te18  1  0.174681  0.174681  0.174681  1
  Te  Te19  1  0.825319  0.825319  0.825319  1
  Te  Te20  1  0.000000  0.181686  0.818314  1
  Te  Te21  1  0.933340  0.500000  0.066660  1
  Te  Te22  1  0.066660  0.933340  0.500000  1
  Te  Te23  1  0.500000  0.066660  0.933340  1
  Te  Te24  1  0.741594  0.702708  0.440104  1
  Te  Te25  1  0.440104  0.741594  0.702708  1
  Te  Te26  1  0.702708  0.440104  0.741594  1
  Te  Te27  1  0.258406  0.559896  0.297292  1
  Te  Te28  1  0.297292  0.258406  0.559896  1
  Te  Te29  1  0.559896  0.297292  0.258406  1
  Te  Te30  1  0.676404  0.078453  0.578079  1
  Te  Te31  1  0.578079  0.676404  0.078453  1
  Te  Te32  1  0.078453  0.578079  0.676404  1
  Te  Te33  1  0.323596  0.421921  0.921547  1
  Te  Te34  1  0.921547  0.323596  0.421921  1
  Te  Te35  1  0.421921  0.921547  0.323596  1
