# generated using pymatgen
data_Ho4TiV3(WO6)4
_symmetry_space_group_name_H-M   'P 1'
_cell_length_a   5.22619460
_cell_length_b   7.42287796
_cell_length_c   11.16047296
_cell_angle_alpha   89.96574478
_cell_angle_beta   90.38665401
_cell_angle_gamma   90.09623985
_symmetry_Int_Tables_number   1
_chemical_formula_structural   Ho4TiV3(WO6)4
_chemical_formula_sum   'Ho4 Ti1 V3 W4 O24'
_cell_volume   432.94220115
_cell_formula_units_Z   1
loop_
 _symmetry_equiv_pos_site_id
 _symmetry_equiv_pos_as_xyz
  1  'x, y, z'
loop_
 _atom_site_type_symbol
 _atom_site_label
 _atom_site_symmetry_multiplicity
 _atom_site_fract_x
 _atom_site_fract_y
 _atom_site_fract_z
 _atom_site_occupancy
  Ho  Ho0  1  0.542730  0.248926  0.046056  1
  Ho  Ho1  1  0.045153  0.752487  0.454439  1
  Ho  Ho2  1  0.954914  0.249763  0.545711  1
  Ho  Ho3  1  0.456670  0.751808  0.954339  1
  Ti  Ti4  1  0.052180  0.995396  0.144423  1
  V  V5  1  0.551570  0.498554  0.365910  1
  V  V6  1  0.447452  0.998389  0.635163  1
  V  V7  1  0.948582  0.498052  0.865438  1
  W  W8  1  0.056663  0.505382  0.142930  1
  W  W9  1  0.550776  0.007150  0.361417  1
  W  W10  1  0.443014  0.505803  0.643023  1
  W  W11  1  0.946129  0.006794  0.857892  1
  O  O12  1  0.765070  0.959622  0.022456  1
  O  O13  1  0.763913  0.546768  0.029123  1
  O  O14  1  0.178204  0.751414  0.115214  1
  O  O15  1  0.934818  0.256144  0.142609  1
  O  O16  1  0.377009  0.434360  0.205896  1
  O  O17  1  0.378966  0.070819  0.202717  1
  O  O18  1  0.895266  0.568422  0.285709  1
  O  O19  1  0.887698  0.932202  0.282463  1
  O  O20  1  0.436598  0.758035  0.355931  1
  O  O21  1  0.682356  0.249098  0.382348  1
  O  O22  1  0.251308  0.047278  0.473713  1
  O  O23  1  0.255621  0.459564  0.479685  1
  O  O24  1  0.744844  0.958392  0.520844  1
  O  O25  1  0.736178  0.547449  0.529398  1
  O  O26  1  0.318164  0.749072  0.615221  1
  O  O27  1  0.567200  0.258053  0.642703  1
  O  O28  1  0.124913  0.432023  0.706259  1
  O  O29  1  0.105288  0.068723  0.714404  1
  O  O30  1  0.605780  0.569201  0.787027  1
  O  O31  1  0.624114  0.932030  0.795658  1
  O  O32  1  0.067926  0.757748  0.857652  1
  O  O33  1  0.819550  0.249035  0.885232  1
  O  O34  1  0.238917  0.046308  0.970303  1
  O  O35  1  0.244464  0.460131  0.980689  1
