# generated using pymatgen
data_Dy5YCuRh17
_symmetry_space_group_name_H-M   'P 1'
_cell_length_a   5.28106211
_cell_length_b   5.28145821
_cell_length_c   17.35729800
_cell_angle_alpha   90.00000000
_cell_angle_beta   90.00000000
_cell_angle_gamma   119.99431113
_symmetry_Int_Tables_number   1
_chemical_formula_structural   Dy5YCuRh17
_chemical_formula_sum   'Dy5 Y1 Cu1 Rh17'
_cell_volume   419.28832247
_cell_formula_units_Z   1
loop_
 _symmetry_equiv_pos_site_id
 _symmetry_equiv_pos_as_xyz
  1  'x, y, z'
loop_
 _atom_site_type_symbol
 _atom_site_label
 _atom_site_symmetry_multiplicity
 _atom_site_fract_x
 _atom_site_fract_y
 _atom_site_fract_z
 _atom_site_occupancy
  Dy  Dy0  1  0.333272  0.666595  0.958256  1
  Dy  Dy1  1  0.666677  0.333317  0.042301  1
  Dy  Dy2  1  0.666677  0.333317  0.457699  1
  Dy  Dy3  1  0.333272  0.666595  0.541744  1
  Dy  Dy4  1  0.333342  0.666695  0.750000  1
  Y  Y5  1  0.666662  0.333332  0.250000  1
  Cu  Cu6  1  0.333357  0.666745  0.250000  1
  Rh  Rh7  1  0.168838  0.831214  0.373381  1
  Rh  Rh8  1  0.168864  0.337645  0.373382  1
  Rh  Rh9  1  0.662421  0.831191  0.373375  1
  Rh  Rh10  1  0.832947  0.167123  0.624559  1
  Rh  Rh11  1  0.832926  0.665919  0.624556  1
  Rh  Rh12  1  0.334111  0.167123  0.624572  1
  Rh  Rh13  1  0.832947  0.167123  0.875441  1
  Rh  Rh14  1  0.832926  0.665919  0.875444  1
  Rh  Rh15  1  0.334111  0.167123  0.875428  1
  Rh  Rh16  1  0.168838  0.831214  0.126619  1
  Rh  Rh17  1  0.168864  0.337645  0.126618  1
  Rh  Rh18  1  0.662421  0.831191  0.126625  1
  Rh  Rh19  1  0.666707  0.333391  0.750000  1
  Rh  Rh20  1  0.999975  0.999901  0.250000  1
  Rh  Rh21  1  0.999925  0.999880  0.750000  1
  Rh  Rh22  1  0.999960  0.999901  0.497647  1
  Rh  Rh23  1  0.999960  0.999901  0.002353  1
