# generated using pymatgen
data_Tb9Cd4Ni4Ag
_symmetry_space_group_name_H-M   'P 1'
_cell_length_a   10.72605100
_cell_length_b   10.72605100
_cell_length_c   3.63144500
_cell_angle_alpha   90.00000000
_cell_angle_beta   90.00000000
_cell_angle_gamma   90.00000000
_symmetry_Int_Tables_number   1
_chemical_formula_structural   Tb9Cd4Ni4Ag
_chemical_formula_sum   'Tb9 Cd4 Ni4 Ag1'
_cell_volume   417.79110190
_cell_formula_units_Z   1
loop_
 _symmetry_equiv_pos_site_id
 _symmetry_equiv_pos_as_xyz
  1  'x, y, z'
loop_
 _atom_site_type_symbol
 _atom_site_label
 _atom_site_symmetry_multiplicity
 _atom_site_fract_x
 _atom_site_fract_y
 _atom_site_fract_z
 _atom_site_occupancy
  Tb  Tb0  1  0.328149  0.328149  0.500000  1
  Tb  Tb1  1  0.671851  0.671851  0.500000  1
  Tb  Tb2  1  0.328149  0.671851  0.500000  1
  Tb  Tb3  1  0.671851  0.328149  0.500000  1
  Tb  Tb4  1  0.000000  0.284074  0.500000  1
  Tb  Tb5  1  0.000000  0.715926  0.500000  1
  Tb  Tb6  1  0.284074  0.000000  0.500000  1
  Tb  Tb7  1  0.715926  0.000000  0.500000  1
  Tb  Tb8  1  0.000000  0.000000  0.000000  1
  Cd  Cd9  1  0.500000  0.141607  0.000000  1
  Cd  Cd10  1  0.500000  0.858393  0.000000  1
  Cd  Cd11  1  0.141607  0.500000  0.000000  1
  Cd  Cd12  1  0.858393  0.500000  0.000000  1
  Ni  Ni13  1  0.193114  0.193114  0.000000  1
  Ni  Ni14  1  0.806886  0.806886  0.000000  1
  Ni  Ni15  1  0.193114  0.806886  0.000000  1
  Ni  Ni16  1  0.806886  0.193114  0.000000  1
  Ag  Ag17  1  0.500000  0.500000  0.000000  1
