# generated using pymatgen
data_Tb2YbY17(Cd3Ru)2
_symmetry_space_group_name_H-M   'P 1'
_cell_length_a   9.67424732
_cell_length_b   9.65671791
_cell_length_c   9.86174341
_cell_angle_alpha   90.00000148
_cell_angle_beta   89.94699960
_cell_angle_gamma   119.94008471
_symmetry_Int_Tables_number   1
_chemical_formula_structural   Tb2YbY17(Cd3Ru)2
_chemical_formula_sum   'Tb2 Yb1 Y17 Cd6 Ru2'
_cell_volume   798.34884403
_cell_formula_units_Z   1
loop_
 _symmetry_equiv_pos_site_id
 _symmetry_equiv_pos_as_xyz
  1  'x, y, z'
loop_
 _atom_site_type_symbol
 _atom_site_label
 _atom_site_symmetry_multiplicity
 _atom_site_fract_x
 _atom_site_fract_y
 _atom_site_fract_z
 _atom_site_occupancy
  Tb  Tb0  1  0.210707  0.789409  0.439104  1
  Tb  Tb1  1  0.210707  0.421299  0.439104  1
  Yb  Yb2  1  0.000154  0.000077  0.499788  1
  Y  Y3  1  0.000060  0.000030  0.000111  1
  Y  Y4  1  0.579361  0.789681  0.440133  1
  Y  Y5  1  0.789515  0.210589  0.560178  1
  Y  Y6  1  0.789515  0.578925  0.560178  1
  Y  Y7  1  0.421513  0.210756  0.560221  1
  Y  Y8  1  0.789785  0.210264  0.940353  1
  Y  Y9  1  0.789785  0.579520  0.940353  1
  Y  Y10  1  0.420370  0.210185  0.940270  1
  Y  Y11  1  0.210195  0.789969  0.059493  1
  Y  Y12  1  0.210195  0.420227  0.059493  1
  Y  Y13  1  0.579558  0.789780  0.059581  1
  Y  Y14  1  0.541656  0.458407  0.251049  1
  Y  Y15  1  0.541656  0.083249  0.251049  1
  Y  Y16  1  0.916849  0.458424  0.251127  1
  Y  Y17  1  0.458526  0.541747  0.748984  1
  Y  Y18  1  0.458526  0.916779  0.748984  1
  Y  Y19  1  0.083151  0.541576  0.748844  1
  Cd  Cd20  1  0.884734  0.115053  0.250193  1
  Cd  Cd21  1  0.884734  0.769682  0.250193  1
  Cd  Cd22  1  0.230313  0.115157  0.250040  1
  Cd  Cd23  1  0.115084  0.884894  0.750066  1
  Cd  Cd24  1  0.115084  0.230189  0.750066  1
  Cd  Cd25  1  0.769650  0.884825  0.749821  1
  Ru  Ru26  1  0.331978  0.665990  0.251381  1
  Ru  Ru27  1  0.666641  0.333320  0.749844  1
