# generated using pymatgen
data_SmGd6Ho3(SiB4)4
_symmetry_space_group_name_H-M   'P 1'
_cell_length_a   7.25495507
_cell_length_b   7.25540845
_cell_length_c   8.16168201
_cell_angle_alpha   90.00227279
_cell_angle_beta   89.99182535
_cell_angle_gamma   90.02355743
_symmetry_Int_Tables_number   1
_chemical_formula_structural   SmGd6Ho3(SiB4)4
_chemical_formula_sum   'Sm1 Gd6 Ho3 Si4 B16'
_cell_volume   429.61182041
_cell_formula_units_Z   1
loop_
 _symmetry_equiv_pos_site_id
 _symmetry_equiv_pos_as_xyz
  1  'x, y, z'
loop_
 _atom_site_type_symbol
 _atom_site_label
 _atom_site_symmetry_multiplicity
 _atom_site_fract_x
 _atom_site_fract_y
 _atom_site_fract_z
 _atom_site_occupancy
  Sm  Sm0  1  0.680391  0.180510  0.227593  1
  Gd  Gd1  1  0.319633  0.819617  0.774410  1
  Gd  Gd2  1  0.319167  0.819346  0.225872  1
  Gd  Gd3  1  0.819621  0.680391  0.225494  1
  Gd  Gd4  1  0.819483  0.680555  0.774999  1
  Gd  Gd5  1  0.680353  0.180272  0.774155  1
  Gd  Gd6  1  0.180539  0.319566  0.774805  1
  Ho  Ho7  1  0.180324  0.319731  0.221547  1
  Ho  Ho8  1  0.000667  0.000028  0.499909  1
  Ho  Ho9  1  0.499611  0.500037  0.499900  1
  Si  Si10  1  0.115649  0.614207  0.498456  1
  Si  Si11  1  0.886388  0.384976  0.499305  1
  Si  Si12  1  0.383743  0.115486  0.499514  1
  Si  Si13  1  0.614119  0.885112  0.500151  1
  B  B14  1  0.172807  0.039474  0.000181  1
  B  B15  1  0.827852  0.960530  0.000054  1
  B  B16  1  0.961435  0.172586  0.000083  1
  B  B17  1  0.327134  0.539039  0.000270  1
  B  B18  1  0.039343  0.827470  0.000527  1
  B  B19  1  0.672245  0.461124  0.000299  1
  B  B20  1  0.539019  0.672442  0.000442  1
  B  B21  1  0.460076  0.327455  0.999835  1
  B  B22  1  0.089885  0.589735  0.000846  1
  B  B23  1  0.910362  0.410207  0.000864  1
  B  B24  1  0.409612  0.090073  0.999600  1
  B  B25  1  0.590069  0.909605  0.999730  1
  B  B26  1  0.001390  0.000289  0.160500  1
  B  B27  1  0.000129  0.999729  0.840079  1
  B  B28  1  0.500122  0.500001  0.840084  1
  B  B29  1  0.498832  0.500407  0.160498  1
