# generated using pymatgen
data_Tb2HoTm17Pt16
_symmetry_space_group_name_H-M   'P 1'
_cell_length_a   7.40941501
_cell_length_b   7.49346661
_cell_length_c   14.59537600
_cell_angle_alpha   90.00291316
_cell_angle_beta   89.99786574
_cell_angle_gamma   89.96251129
_symmetry_Int_Tables_number   1
_chemical_formula_structural   Tb2HoTm17Pt16
_chemical_formula_sum   'Tb2 Ho1 Tm17 Pt16'
_cell_volume   810.36726819
_cell_formula_units_Z   1
loop_
 _symmetry_equiv_pos_site_id
 _symmetry_equiv_pos_as_xyz
  1  'x, y, z'
loop_
 _atom_site_type_symbol
 _atom_site_label
 _atom_site_symmetry_multiplicity
 _atom_site_fract_x
 _atom_site_fract_y
 _atom_site_fract_z
 _atom_site_occupancy
  Tb  Tb0  1  0.500797  0.321169  0.907357  1
  Tb  Tb1  1  0.499056  0.678899  0.407587  1
  Ho  Ho2  1  0.998859  0.821123  0.092544  1
  Tm  Tm3  1  0.681073  0.989794  0.250120  1
  Tm  Tm4  1  0.180846  0.510350  0.250036  1
  Tm  Tm5  1  0.819035  0.489575  0.749487  1
  Tm  Tm6  1  0.318936  0.010206  0.749624  1
  Tm  Tm7  1  0.657035  0.833321  0.622345  1
  Tm  Tm8  1  0.155785  0.667356  0.877118  1
  Tm  Tm9  1  0.844801  0.332280  0.377717  1
  Tm  Tm10  1  0.343614  0.167020  0.122640  1
  Tm  Tm11  1  0.343999  0.167414  0.378041  1
  Tm  Tm12  1  0.844215  0.332294  0.122169  1
  Tm  Tm13  1  0.155680  0.667874  0.621944  1
  Tm  Tm14  1  0.656084  0.832382  0.877672  1
  Tm  Tm15  1  0.998059  0.820382  0.407009  1
  Tm  Tm16  1  0.497587  0.680534  0.093430  1
  Tm  Tm17  1  0.502315  0.319132  0.593286  1
  Tm  Tm18  1  0.002122  0.180524  0.906733  1
  Tm  Tm19  1  0.001852  0.179816  0.592700  1
  Pt  Pt20  1  0.818087  0.643658  0.250562  1
  Pt  Pt21  1  0.317267  0.856641  0.249412  1
  Pt  Pt22  1  0.683190  0.143253  0.748673  1
  Pt  Pt23  1  0.180883  0.355667  0.749264  1
  Pt  Pt24  1  0.546687  0.385537  0.249571  1
  Pt  Pt25  1  0.046438  0.114170  0.250466  1
  Pt  Pt26  1  0.953828  0.886508  0.749928  1
  Pt  Pt27  1  0.453009  0.614066  0.749177  1
  Pt  Pt28  1  0.815921  0.531018  0.542745  1
  Pt  Pt29  1  0.314864  0.965949  0.958384  1
  Pt  Pt30  1  0.685143  0.034503  0.458956  1
  Pt  Pt31  1  0.184648  0.467364  0.042013  1
  Pt  Pt32  1  0.181871  0.465809  0.458661  1
  Pt  Pt33  1  0.683042  0.032342  0.042048  1
  Pt  Pt34  1  0.315109  0.968956  0.542456  1
  Pt  Pt35  1  0.818265  0.533114  0.958122  1
