# generated using pymatgen
data_NdCd(NiPt)2
_symmetry_space_group_name_H-M   'P 1'
_cell_length_a   5.14879725
_cell_length_b   5.23466891
_cell_length_c   5.23466922
_cell_angle_alpha   62.64691746
_cell_angle_beta   60.54118876
_cell_angle_gamma   60.54118512
_symmetry_Int_Tables_number   1
_chemical_formula_structural   NdCd(NiPt)2
_chemical_formula_sum   'Nd1 Cd1 Ni2 Pt2'
_cell_volume   102.46150065
_cell_formula_units_Z   1
loop_
 _symmetry_equiv_pos_site_id
 _symmetry_equiv_pos_as_xyz
  1  'x, y, z'
loop_
 _atom_site_type_symbol
 _atom_site_label
 _atom_site_symmetry_multiplicity
 _atom_site_fract_x
 _atom_site_fract_y
 _atom_site_fract_z
 _atom_site_occupancy
  Nd  Nd0  1  0.248030  0.251970  0.251970  1
  Cd  Cd1  1  0.006881  0.993119  0.993119  1
  Ni  Ni2  1  0.121613  0.627922  0.627922  1
  Ni  Ni3  1  0.622544  0.627922  0.627922  1
  Pt  Pt4  1  0.625466  0.626106  0.122963  1
  Pt  Pt5  1  0.625466  0.122963  0.626106  1
