# generated using pymatgen
data_ZnBr35
_symmetry_space_group_name_H-M   'P 1'
_cell_length_a   15.98197694
_cell_length_b   11.40028128
_cell_length_c   10.79188300
_cell_angle_alpha   88.81408278
_cell_angle_beta   66.02770512
_cell_angle_gamma   92.31545406
_symmetry_Int_Tables_number   1
_chemical_formula_structural   ZnBr35
_chemical_formula_sum   'Zn1 Br35'
_cell_volume   1793.71352310
_cell_formula_units_Z   1
loop_
 _symmetry_equiv_pos_site_id
 _symmetry_equiv_pos_as_xyz
  1  'x, y, z'
loop_
 _atom_site_type_symbol
 _atom_site_label
 _atom_site_symmetry_multiplicity
 _atom_site_fract_x
 _atom_site_fract_y
 _atom_site_fract_z
 _atom_site_occupancy
  Zn  Zn0  1  0.242178  0.375244  0.488907  1
  Br  Br1  1  0.519522  0.268885  0.532198  1
  Br  Br2  1  0.748904  0.582823  0.580315  1
  Br  Br3  1  0.474719  0.689749  0.741777  1
  Br  Br4  1  0.056703  0.867942  0.842918  1
  Br  Br5  1  0.909317  0.161822  0.019605  1
  Br  Br6  1  0.654942  0.322479  0.287878  1
  Br  Br7  1  0.611239  0.335474  0.856232  1
  Br  Br8  1  0.340028  0.771877  0.699582  1
  Br  Br9  1  0.361053  0.578034  0.183932  1
  Br  Br10  1  0.666851  0.143735  0.815923  1
  Br  Br11  1  0.899396  0.551371  0.384034  1
  Br  Br12  1  0.076301  0.902169  0.594545  1
  Br  Br13  1  0.907338  0.121437  0.259778  1
  Br  Br14  1  0.909785  0.209909  0.793389  1
  Br  Br15  1  0.651738  0.058626  0.240253  1
  Br  Br16  1  0.025667  0.833566  0.089940  1
  Br  Br17  1  0.366840  0.986066  0.726457  1
  Br  Br18  1  0.901210  0.333279  0.329065  1
  Br  Br19  1  0.887492  0.911416  0.668155  1
  Br  Br20  1  0.835062  0.639707  0.875324  1
  Br  Br21  1  0.340826  0.035633  0.217533  1
  Br  Br22  1  0.333116  0.334171  0.243359  1
  Br  Br23  1  0.603196  0.615189  0.797302  1
  Br  Br24  1  0.103238  0.469521  0.463975  1
  Br  Br25  1  0.723048  0.910764  0.755797  1
  Br  Br26  1  0.869055  0.438741  0.835115  1
  Br  Br27  1  0.498319  0.045964  0.231229  1
  Br  Br28  1  0.157208  0.208319  0.622666  1
  Br  Br29  1  0.676571  0.776556  0.279279  1
  Br  Br30  1  0.849005  0.805209  0.187855  1
  Br  Br31  1  0.395742  0.211518  0.752892  1
  Br  Br32  1  0.322998  0.497261  0.579170  1
  Br  Br33  1  0.656883  0.541744  0.265363  1
  Br  Br34  1  0.092414  0.675396  0.525825  1
  Br  Br35  1  0.332096  0.788404  0.232436  1
