# generated using pymatgen
data_Ac2TmSc(AsPt)4
_symmetry_space_group_name_H-M   'P 1'
_cell_length_a   4.31953400
_cell_length_b   4.31953348
_cell_length_c   16.15439600
_cell_angle_alpha   90.00000000
_cell_angle_beta   90.00000000
_cell_angle_gamma   120.00001929
_symmetry_Int_Tables_number   1
_chemical_formula_structural   Ac2TmSc(AsPt)4
_chemical_formula_sum   'Ac2 Tm1 Sc1 As4 Pt4'
_cell_volume   261.03275882
_cell_formula_units_Z   1
loop_
 _symmetry_equiv_pos_site_id
 _symmetry_equiv_pos_as_xyz
  1  'x, y, z'
loop_
 _atom_site_type_symbol
 _atom_site_label
 _atom_site_symmetry_multiplicity
 _atom_site_fract_x
 _atom_site_fract_y
 _atom_site_fract_z
 _atom_site_occupancy
  Ac  Ac0  1  0.000000  0.000000  0.495759  1
  Ac  Ac1  1  0.000000  0.000000  0.004241  1
  Tm  Tm2  1  0.000000  0.000000  0.750000  1
  Sc  Sc3  1  0.000000  0.000000  0.250000  1
  As  As4  1  0.333333  0.666667  0.874403  1
  As  As5  1  0.666667  0.333333  0.130983  1
  As  As6  1  0.666667  0.333333  0.369017  1
  As  As7  1  0.333333  0.666667  0.625597  1
  Pt  Pt8  1  0.333333  0.666667  0.342708  1
  Pt  Pt9  1  0.666667  0.333333  0.647365  1
  Pt  Pt10  1  0.666667  0.333333  0.852635  1
  Pt  Pt11  1  0.333333  0.666667  0.157292  1
