# generated using pymatgen
data_Cs7RbCr5Tc3N16
_symmetry_space_group_name_H-M   'P 1'
_cell_length_a   5.92449507
_cell_length_b   8.36693948
_cell_length_c   11.87434214
_cell_angle_alpha   89.97607583
_cell_angle_beta   90.00936497
_cell_angle_gamma   89.99035163
_symmetry_Int_Tables_number   1
_chemical_formula_structural   Cs7RbCr5Tc3N16
_chemical_formula_sum   'Cs7 Rb1 Cr5 Tc3 N16'
_cell_volume   588.60978642
_cell_formula_units_Z   1
loop_
 _symmetry_equiv_pos_site_id
 _symmetry_equiv_pos_as_xyz
  1  'x, y, z'
loop_
 _atom_site_type_symbol
 _atom_site_label
 _atom_site_symmetry_multiplicity
 _atom_site_fract_x
 _atom_site_fract_y
 _atom_site_fract_z
 _atom_site_occupancy
  Cs  Cs0  1  0.750954  0.116183  0.999209  1
  Cs  Cs1  1  0.251336  0.883805  0.506939  1
  Cs  Cs2  1  0.251185  0.867293  0.995171  1
  Cs  Cs3  1  0.750885  0.133919  0.500092  1
  Cs  Cs4  1  0.739389  0.381690  0.241211  1
  Cs  Cs5  1  0.239414  0.629645  0.258183  1
  Cs  Cs6  1  0.259429  0.620299  0.744091  1
  Rb  Rb7  1  0.760952  0.366612  0.757603  1
  Cr  Cr8  1  0.750614  0.634646  0.995881  1
  Cr  Cr9  1  0.250622  0.369003  0.505262  1
  Cr  Cr10  1  0.742684  0.867873  0.247171  1
  Cr  Cr11  1  0.755614  0.881734  0.751502  1
  Cr  Cr12  1  0.255562  0.122024  0.748517  1
  Tc  Tc13  1  0.250596  0.380445  0.995454  1
  Tc  Tc14  1  0.750564  0.623278  0.502934  1
  Tc  Tc15  1  0.242618  0.121318  0.252569  1
  N  N16  1  0.981737  0.996219  0.250072  1
  N  N17  1  0.494721  0.987760  0.249635  1
  N  N18  1  0.006958  0.000714  0.750131  1
  N  N19  1  0.508692  0.005221  0.749985  1
  N  N20  1  0.248398  0.245801  0.382314  1
  N  N21  1  0.748299  0.751055  0.122042  1
  N  N22  1  0.752446  0.761912  0.874901  1
  N  N23  1  0.252130  0.244090  0.626333  1
  N  N24  1  0.752719  0.755182  0.629876  1
  N  N25  1  0.252405  0.250127  0.868664  1
  N  N26  1  0.247799  0.254930  0.125747  1
  N  N27  1  0.747712  0.741909  0.369764  1
  N  N28  1  0.495266  0.492178  0.505692  1
  N  N29  1  0.993895  0.510457  0.993756  1
  N  N30  1  0.507866  0.509956  0.993621  1
  N  N31  1  0.006538  0.492722  0.505679  1
