# generated using pymatgen
data_Dy12Y3Tm5Bi12
_symmetry_space_group_name_H-M   'P 1'
_cell_length_a   8.23567593
_cell_length_b   9.50939515
_cell_length_c   12.04094778
_cell_angle_alpha   89.98388730
_cell_angle_beta   90.00426198
_cell_angle_gamma   89.99226212
_symmetry_Int_Tables_number   1
_chemical_formula_structural   Dy12Y3Tm5Bi12
_chemical_formula_sum   'Dy12 Y3 Tm5 Bi12'
_cell_volume   943.00239188
_cell_formula_units_Z   1
loop_
 _symmetry_equiv_pos_site_id
 _symmetry_equiv_pos_as_xyz
  1  'x, y, z'
loop_
 _atom_site_type_symbol
 _atom_site_label
 _atom_site_symmetry_multiplicity
 _atom_site_fract_x
 _atom_site_fract_y
 _atom_site_fract_z
 _atom_site_occupancy
  Dy  Dy0  1  0.186903  0.750082  0.718613  1
  Dy  Dy1  1  0.686954  0.750020  0.781496  1
  Dy  Dy2  1  0.813278  0.250133  0.281184  1
  Dy  Dy3  1  0.312938  0.250404  0.218289  1
  Dy  Dy4  1  0.806676  0.064352  0.559513  1
  Dy  Dy5  1  0.692418  0.935495  0.058977  1
  Dy  Dy6  1  0.193576  0.564248  0.440367  1
  Dy  Dy7  1  0.693622  0.564142  0.059478  1
  Dy  Dy8  1  0.193383  0.935645  0.440297  1
  Dy  Dy9  1  0.306743  0.063627  0.940940  1
  Dy  Dy10  1  0.806585  0.435796  0.559382  1
  Dy  Dy11  1  0.355184  0.750489  0.216319  1
  Y  Y12  1  0.854733  0.750164  0.284000  1
  Y  Y13  1  0.644786  0.250645  0.784437  1
  Y  Y14  1  0.146167  0.250682  0.716064  1
  Tm  Tm15  1  0.025375  0.750142  0.988318  1
  Tm  Tm16  1  0.525002  0.750300  0.511896  1
  Tm  Tm17  1  0.975428  0.250166  0.011716  1
  Tm  Tm18  1  0.474995  0.250037  0.488243  1
  Tm  Tm19  1  0.306522  0.433915  0.940764  1
  Bi  Bi20  1  0.433575  0.003805  0.672860  1
  Bi  Bi21  1  0.934046  0.496587  0.827457  1
  Bi  Bi22  1  0.566053  0.503883  0.327017  1
  Bi  Bi23  1  0.066720  0.996503  0.172736  1
  Bi  Bi24  1  0.566224  0.996483  0.327120  1
  Bi  Bi25  1  0.066587  0.504016  0.172592  1
  Bi  Bi26  1  0.433366  0.496561  0.672873  1
  Bi  Bi27  1  0.933557  0.003937  0.827350  1
  Bi  Bi28  1  0.406189  0.747364  0.956979  1
  Bi  Bi29  1  0.907477  0.750009  0.542735  1
  Bi  Bi30  1  0.592332  0.250432  0.042508  1
  Bi  Bi31  1  0.092606  0.249935  0.457482  1
