# generated using pymatgen
data_Tm2Sc2B12IrW
_symmetry_space_group_name_H-M   'P 1'
_cell_length_a   3.52298800
_cell_length_b   9.02730690
_cell_length_c   11.43440700
_cell_angle_alpha   90.17212494
_cell_angle_beta   90.00000000
_cell_angle_gamma   90.00000000
_symmetry_Int_Tables_number   1
_chemical_formula_structural   Tm2Sc2B12IrW
_chemical_formula_sum   'Tm4 Sc4 B24 Ir2 W2'
_cell_volume   363.64787822
_cell_formula_units_Z   2
loop_
 _symmetry_equiv_pos_site_id
 _symmetry_equiv_pos_as_xyz
  1  'x, y, z'
loop_
 _atom_site_type_symbol
 _atom_site_label
 _atom_site_symmetry_multiplicity
 _atom_site_fract_x
 _atom_site_fract_y
 _atom_site_fract_z
 _atom_site_occupancy
  Tm  Tm0  1  0.500000  0.317123  0.412730  1
  Tm  Tm1  1  0.500000  0.682877  0.587270  1
  Tm  Tm2  1  0.500000  0.178061  0.915903  1
  Tm  Tm3  1  0.500000  0.821939  0.084097  1
  Sc  Sc4  1  0.500000  0.443900  0.125491  1
  Sc  Sc5  1  0.500000  0.556100  0.874509  1
  Sc  Sc6  1  0.500000  0.052810  0.625913  1
  Sc  Sc7  1  0.500000  0.947190  0.374087  1
  B  B8  1  0.000000  0.100818  0.474223  1
  B  B9  1  0.000000  0.899182  0.525777  1
  B  B10  1  0.000000  0.400766  0.972058  1
  B  B11  1  0.000000  0.599234  0.027942  1
  B  B12  1  0.000000  0.130239  0.320694  1
  B  B13  1  0.000000  0.869761  0.679306  1
  B  B14  1  0.000000  0.370526  0.817850  1
  B  B15  1  0.000000  0.629474  0.182150  1
  B  B16  1  0.000000  0.052004  0.065282  1
  B  B17  1  0.000000  0.947996  0.934718  1
  B  B18  1  0.000000  0.445485  0.565817  1
  B  B19  1  0.000000  0.554515  0.434183  1
  B  B20  1  0.000000  0.482116  0.286931  1
  B  B21  1  0.000000  0.517884  0.713069  1
  B  B22  1  0.000000  0.023050  0.784332  1
  B  B23  1  0.000000  0.976950  0.215668  1
  B  B24  1  0.000000  0.255575  0.078161  1
  B  B25  1  0.000000  0.744425  0.921839  1
  B  B26  1  0.000000  0.246032  0.579879  1
  B  B27  1  0.000000  0.753968  0.420121  1
  B  B28  1  0.000000  0.299414  0.237210  1
  B  B29  1  0.000000  0.700586  0.762790  1
  B  B30  1  0.000000  0.206911  0.734742  1
  B  B31  1  0.000000  0.793089  0.265258  1
  Ir  Ir32  1  0.500000  0.360110  0.679895  1
  Ir  Ir33  1  0.500000  0.639890  0.320105  1
  W  W34  1  0.500000  0.141072  0.182648  1
  W  W35  1  0.500000  0.858928  0.817352  1
