# generated using pymatgen
data_Y10Ho6Cd4Co3Ru
_symmetry_space_group_name_H-M   'P 1'
_cell_length_a   9.57365327
_cell_length_b   9.50121527
_cell_length_c   9.54058933
_cell_angle_alpha   59.96409213
_cell_angle_beta   59.87365898
_cell_angle_gamma   60.07935900
_symmetry_Int_Tables_number   1
_chemical_formula_structural   Y10Ho6Cd4Co3Ru
_chemical_formula_sum   'Y10 Ho6 Cd4 Co3 Ru1'
_cell_volume   613.25634410
_cell_formula_units_Z   1
loop_
 _symmetry_equiv_pos_site_id
 _symmetry_equiv_pos_as_xyz
  1  'x, y, z'
loop_
 _atom_site_type_symbol
 _atom_site_label
 _atom_site_symmetry_multiplicity
 _atom_site_fract_x
 _atom_site_fract_y
 _atom_site_fract_z
 _atom_site_occupancy
  Y  Y0  1  0.939077  0.938841  0.560369  1
  Y  Y1  1  0.814451  0.188557  0.188155  1
  Y  Y2  1  0.938373  0.562148  0.562961  1
  Y  Y3  1  0.936786  0.561892  0.937502  1
  Y  Y4  1  0.815143  0.807499  0.186150  1
  Y  Y5  1  0.342502  0.349011  0.350075  1
  Y  Y6  1  0.562406  0.940262  0.940144  1
  Y  Y7  1  0.564183  0.938089  0.559479  1
  Y  Y8  1  0.188972  0.810212  0.810009  1
  Y  Y9  1  0.188460  0.187623  0.810964  1
  Ho  Ho10  1  0.340360  0.350792  0.960566  1
  Ho  Ho11  1  0.342207  0.960381  0.350253  1
  Ho  Ho12  1  0.814750  0.187281  0.806882  1
  Ho  Ho13  1  0.562686  0.556123  0.940950  1
  Ho  Ho14  1  0.189022  0.810459  0.187709  1
  Ho  Ho15  1  0.964960  0.347347  0.345760  1
  Cd  Cd16  1  0.580477  0.580388  0.257504  1
  Cd  Cd17  1  0.258236  0.579703  0.580836  1
  Cd  Cd18  1  0.580138  0.579670  0.579961  1
  Cd  Cd19  1  0.580185  0.258213  0.580888  1
  Co  Co20  1  0.140084  0.139801  0.144352  1
  Co  Co21  1  0.142813  0.577918  0.143013  1
  Co  Co22  1  0.137574  0.143512  0.577875  1
  Ru  Ru23  1  0.576159  0.144279  0.137647  1
