# generated using pymatgen
data_Ca3(YSn2)2
_symmetry_space_group_name_H-M   'P 1'
_cell_length_a   7.89616533
_cell_length_b   8.48206276
_cell_length_c   16.11969467
_cell_angle_alpha   90.02225712
_cell_angle_beta   90.00224270
_cell_angle_gamma   90.09252089
_symmetry_Int_Tables_number   1
_chemical_formula_structural   Ca3(YSn2)2
_chemical_formula_sum   'Ca12 Y8 Sn16'
_cell_volume   1079.62747065
_cell_formula_units_Z   4
loop_
 _symmetry_equiv_pos_site_id
 _symmetry_equiv_pos_as_xyz
  1  'x, y, z'
loop_
 _atom_site_type_symbol
 _atom_site_label
 _atom_site_symmetry_multiplicity
 _atom_site_fract_x
 _atom_site_fract_y
 _atom_site_fract_z
 _atom_site_occupancy
  Ca  Ca0  1  0.178450  0.333511  0.620637  1
  Ca  Ca1  1  0.504004  0.688823  0.592768  1
  Ca  Ca2  1  0.004749  0.814284  0.908726  1
  Ca  Ca3  1  0.492249  0.310473  0.092881  1
  Ca  Ca4  1  0.995349  0.189665  0.407403  1
  Ca  Ca5  1  0.493377  0.310746  0.407577  1
  Ca  Ca6  1  0.994154  0.188379  0.092904  1
  Ca  Ca7  1  0.503913  0.688439  0.907238  1
  Ca  Ca8  1  0.006145  0.813671  0.591042  1
  Ca  Ca9  1  0.335482  0.990662  0.749086  1
  Ca  Ca10  1  0.161798  0.488328  0.249986  1
  Ca  Ca11  1  0.662927  0.009416  0.250577  1
  Y  Y12  1  0.672925  0.165138  0.622083  1
  Y  Y13  1  0.174452  0.331591  0.878666  1
  Y  Y14  1  0.326258  0.832388  0.122258  1
  Y  Y15  1  0.827504  0.664199  0.377816  1
  Y  Y16  1  0.325640  0.833345  0.377547  1
  Y  Y17  1  0.826111  0.665195  0.121831  1
  Y  Y18  1  0.673177  0.165315  0.878570  1
  Y  Y19  1  0.840301  0.511358  0.748256  1
  Sn  Sn20  1  0.673135  0.963153  0.459242  1
  Sn  Sn21  1  0.169749  0.535012  0.040496  1
  Sn  Sn22  1  0.330113  0.034830  0.959615  1
  Sn  Sn23  1  0.827034  0.468244  0.543185  1
  Sn  Sn24  1  0.335171  0.033535  0.540255  1
  Sn  Sn25  1  0.829274  0.467886  0.955623  1
  Sn  Sn26  1  0.670665  0.964106  0.041145  1
  Sn  Sn27  1  0.168634  0.537298  0.457529  1
  Sn  Sn28  1  0.477586  0.382783  0.753586  1
  Sn  Sn29  1  0.968650  0.125463  0.750421  1
  Sn  Sn30  1  0.527827  0.622835  0.249853  1
  Sn  Sn31  1  0.027630  0.875263  0.248972  1
  Sn  Sn32  1  0.719390  0.867998  0.750829  1
  Sn  Sn33  1  0.214070  0.628555  0.752556  1
  Sn  Sn34  1  0.281702  0.126488  0.249442  1
  Sn  Sn35  1  0.780402  0.371622  0.249396  1
