# generated using pymatgen
data_Np2U2TaNb3N8
_symmetry_space_group_name_H-M   'P 1'
_cell_length_a   3.25780800
_cell_length_b   5.67197525
_cell_length_c   11.00462425
_cell_angle_alpha   89.90201590
_cell_angle_beta   90.00000000
_cell_angle_gamma   90.00000000
_symmetry_Int_Tables_number   1
_chemical_formula_structural   Np2U2TaNb3N8
_chemical_formula_sum   'Np2 U2 Ta1 Nb3 N8'
_cell_volume   203.34542038
_cell_formula_units_Z   1
loop_
 _symmetry_equiv_pos_site_id
 _symmetry_equiv_pos_as_xyz
  1  'x, y, z'
loop_
 _atom_site_type_symbol
 _atom_site_label
 _atom_site_symmetry_multiplicity
 _atom_site_fract_x
 _atom_site_fract_y
 _atom_site_fract_z
 _atom_site_occupancy
  Np  Np0  1  0.250000  0.575221  0.857594  1
  Np  Np1  1  0.750000  0.425537  0.142010  1
  U  U2  1  0.750000  0.919818  0.355794  1
  U  U3  1  0.250000  0.077479  0.643839  1
  Ta  Ta4  1  0.250000  0.422458  0.398911  1
  Nb  Nb5  1  0.250000  0.924173  0.100964  1
  Nb  Nb6  1  0.750000  0.076783  0.900271  1
  Nb  Nb7  1  0.750000  0.577136  0.600674  1
  N  N8  1  0.250000  0.662324  0.248526  1
  N  N9  1  0.750000  0.335864  0.752766  1
  N  N10  1  0.750000  0.843461  0.742701  1
  N  N11  1  0.250000  0.159855  0.259215  1
  N  N12  1  0.250000  0.764063  0.502755  1
  N  N13  1  0.750000  0.235349  0.493174  1
  N  N14  1  0.750000  0.736826  0.003782  1
  N  N15  1  0.250000  0.263652  0.997025  1
