# generated using pymatgen
data_Pa4B12MoW
_symmetry_space_group_name_H-M   'P 1'
_cell_length_a   3.76335500
_cell_length_b   9.37826836
_cell_length_c   11.51020890
_cell_angle_alpha   89.91863362
_cell_angle_beta   90.00000000
_cell_angle_gamma   90.00000000
_symmetry_Int_Tables_number   1
_chemical_formula_structural   Pa4B12MoW
_chemical_formula_sum   'Pa8 B24 Mo2 W2'
_cell_volume   406.23806192
_cell_formula_units_Z   2
loop_
 _symmetry_equiv_pos_site_id
 _symmetry_equiv_pos_as_xyz
  1  'x, y, z'
loop_
 _atom_site_type_symbol
 _atom_site_label
 _atom_site_symmetry_multiplicity
 _atom_site_fract_x
 _atom_site_fract_y
 _atom_site_fract_z
 _atom_site_occupancy
  Pa  Pa0  1  0.000000  0.334175  0.408419  1
  Pa  Pa1  1  0.000000  0.665825  0.591581  1
  Pa  Pa2  1  0.000000  0.834132  0.091935  1
  Pa  Pa3  1  0.000000  0.165868  0.908065  1
  Pa  Pa4  1  0.000000  0.952694  0.386905  1
  Pa  Pa5  1  0.000000  0.047306  0.613095  1
  Pa  Pa6  1  0.000000  0.452096  0.112884  1
  Pa  Pa7  1  0.000000  0.547904  0.887116  1
  B  B8  1  0.500000  0.550245  0.432309  1
  B  B9  1  0.500000  0.449755  0.567691  1
  B  B10  1  0.500000  0.050207  0.067634  1
  B  B11  1  0.500000  0.949793  0.932366  1
  B  B12  1  0.500000  0.742188  0.423502  1
  B  B13  1  0.500000  0.257812  0.576498  1
  B  B14  1  0.500000  0.241962  0.076391  1
  B  B15  1  0.500000  0.758038  0.923609  1
  B  B16  1  0.500000  0.800920  0.273787  1
  B  B17  1  0.500000  0.199080  0.726213  1
  B  B18  1  0.500000  0.300847  0.226239  1
  B  B19  1  0.500000  0.699153  0.773761  1
  B  B20  1  0.500000  0.644511  0.188606  1
  B  B21  1  0.500000  0.355489  0.811394  1
  B  B22  1  0.500000  0.144650  0.311370  1
  B  B23  1  0.500000  0.855350  0.688630  1
  B  B24  1  0.500000  0.987410  0.217517  1
  B  B25  1  0.500000  0.012590  0.782483  1
  B  B26  1  0.500000  0.487256  0.282460  1
  B  B27  1  0.500000  0.512744  0.717540  1
  B  B28  1  0.500000  0.643225  0.039921  1
  B  B29  1  0.500000  0.356775  0.960079  1
  B  B30  1  0.500000  0.143111  0.459971  1
  B  B31  1  0.500000  0.856889  0.540029  1
  Mo  Mo32  1  0.000000  0.144549  0.179754  1
  Mo  Mo33  1  0.000000  0.855451  0.820246  1
  W  W34  1  0.000000  0.644497  0.320284  1
  W  W35  1  0.000000  0.355503  0.679716  1
