# generated using pymatgen
data_Hf8V11Si16Pd
_symmetry_space_group_name_H-M   'P 1'
_cell_length_a   6.44751547
_cell_length_b   6.60152415
_cell_length_c   12.55153900
_cell_angle_alpha   90.00000000
_cell_angle_beta   90.00000000
_cell_angle_gamma   89.64784668
_symmetry_Int_Tables_number   1
_chemical_formula_structural   Hf8V11Si16Pd
_chemical_formula_sum   'Hf8 V11 Si16 Pd1'
_cell_volume   534.22644920
_cell_formula_units_Z   1
loop_
 _symmetry_equiv_pos_site_id
 _symmetry_equiv_pos_as_xyz
  1  'x, y, z'
loop_
 _atom_site_type_symbol
 _atom_site_label
 _atom_site_symmetry_multiplicity
 _atom_site_fract_x
 _atom_site_fract_y
 _atom_site_fract_z
 _atom_site_occupancy
  Hf  Hf0  1  0.994301  0.169937  0.095353  1
  Hf  Hf1  1  0.001783  0.832434  0.908721  1
  Hf  Hf2  1  0.507691  0.673231  0.909131  1
  Hf  Hf3  1  0.001783  0.832434  0.591279  1
  Hf  Hf4  1  0.495360  0.330409  0.094483  1
  Hf  Hf5  1  0.994301  0.169937  0.404647  1
  Hf  Hf6  1  0.495360  0.330409  0.405517  1
  Hf  Hf7  1  0.507691  0.673231  0.590869  1
  V  V8  1  0.834817  0.506450  0.250000  1
  V  V9  1  0.336628  0.995039  0.250000  1
  V  V10  1  0.666329  0.000483  0.750000  1
  V  V11  1  0.337108  0.163716  0.623687  1
  V  V12  1  0.664635  0.830856  0.375398  1
  V  V13  1  0.161769  0.667595  0.376732  1
  V  V14  1  0.664635  0.830856  0.124602  1
  V  V15  1  0.833661  0.326895  0.622921  1
  V  V16  1  0.337108  0.163716  0.876313  1
  V  V17  1  0.833661  0.326895  0.877079  1
  V  V18  1  0.161769  0.667595  0.123268  1
  Si  Si19  1  0.036189  0.125534  0.750000  1
  Si  Si20  1  0.964325  0.873306  0.250000  1
  Si  Si21  1  0.461355  0.627057  0.250000  1
  Si  Si22  1  0.539227  0.369384  0.750000  1
  Si  Si23  1  0.303541  0.872889  0.750000  1
  Si  Si24  1  0.697598  0.133831  0.250000  1
  Si  Si25  1  0.198367  0.367078  0.250000  1
  Si  Si26  1  0.797347  0.630836  0.750000  1
  Si  Si27  1  0.169032  0.454026  0.538020  1
  Si  Si28  1  0.832014  0.541728  0.459943  1
  Si  Si29  1  0.331613  0.958117  0.457833  1
  Si  Si30  1  0.832014  0.541728  0.040057  1
  Si  Si31  1  0.666592  0.042793  0.539096  1
  Si  Si32  1  0.169032  0.454026  0.961980  1
  Si  Si33  1  0.666592  0.042793  0.960904  1
  Si  Si34  1  0.331613  0.958117  0.042167  1
  Pd  Pd35  1  0.173159  0.514637  0.750000  1
