# generated using pymatgen
data_Y3Lu(Nb3Si4)2
_symmetry_space_group_name_H-M   'P 1'
_cell_length_a   7.06325133
_cell_length_b   7.06613269
_cell_length_c   13.02965700
_cell_angle_alpha   90.00000000
_cell_angle_beta   90.00000000
_cell_angle_gamma   90.00353257
_symmetry_Int_Tables_number   1
_chemical_formula_structural   Y3Lu(Nb3Si4)2
_chemical_formula_sum   'Y6 Lu2 Nb12 Si16'
_cell_volume   650.30850034
_cell_formula_units_Z   2
loop_
 _symmetry_equiv_pos_site_id
 _symmetry_equiv_pos_as_xyz
  1  'x, y, z'
loop_
 _atom_site_type_symbol
 _atom_site_label
 _atom_site_symmetry_multiplicity
 _atom_site_fract_x
 _atom_site_fract_y
 _atom_site_fract_z
 _atom_site_occupancy
  Y  Y0  1  0.998148  0.340355  0.218020  1
  Y  Y1  1  0.001852  0.659645  0.718020  1
  Y  Y2  1  0.158440  0.498449  0.467763  1
  Y  Y3  1  0.501988  0.841510  0.032173  1
  Y  Y4  1  0.841560  0.501551  0.967763  1
  Y  Y5  1  0.498012  0.158490  0.532173  1
  Lu  Lu6  1  0.341797  0.000432  0.782011  1
  Lu  Lu7  1  0.658203  0.999568  0.282011  1
  Nb  Nb8  1  0.171967  0.170769  0.999696  1
  Nb  Nb9  1  0.828033  0.829231  0.499696  1
  Nb  Nb10  1  0.329466  0.671148  0.250109  1
  Nb  Nb11  1  0.670534  0.328852  0.750109  1
  Nb  Nb12  1  0.152852  0.992313  0.375729  1
  Nb  Nb13  1  0.847148  0.007687  0.875729  1
  Nb  Nb14  1  0.506072  0.654683  0.626703  1
  Nb  Nb15  1  0.346903  0.493104  0.873683  1
  Nb  Nb16  1  0.493928  0.345317  0.126703  1
  Nb  Nb17  1  0.653097  0.506896  0.373683  1
  Nb  Nb18  1  0.992186  0.153322  0.624377  1
  Nb  Nb19  1  0.007814  0.846678  0.124377  1
  Si  Si20  1  0.295564  0.044678  0.186975  1
  Si  Si21  1  0.704436  0.955322  0.686975  1
  Si  Si22  1  0.455538  0.794828  0.435624  1
  Si  Si23  1  0.207150  0.545079  0.063640  1
  Si  Si24  1  0.544462  0.205172  0.935624  1
  Si  Si25  1  0.792850  0.454921  0.563640  1
  Si  Si26  1  0.046705  0.292816  0.813447  1
  Si  Si27  1  0.953295  0.707184  0.313447  1
  Si  Si28  1  0.368684  0.293267  0.317881  1
  Si  Si29  1  0.631316  0.706733  0.817881  1
  Si  Si30  1  0.204876  0.868127  0.568313  1
  Si  Si31  1  0.134522  0.796778  0.931128  1
  Si  Si32  1  0.795124  0.131873  0.068313  1
  Si  Si33  1  0.865478  0.203222  0.431128  1
  Si  Si34  1  0.295616  0.366166  0.682727  1
  Si  Si35  1  0.704384  0.633834  0.182727  1
