# generated using pymatgen
data_NdDyPa2(Al3Rh)6
_symmetry_space_group_name_H-M   'P 1'
_cell_length_a   7.62664974
_cell_length_b   7.62473642
_cell_length_c   9.42589400
_cell_angle_alpha   90.00000000
_cell_angle_beta   90.00000000
_cell_angle_gamma   119.60962567
_symmetry_Int_Tables_number   1
_chemical_formula_structural   NdDyPa2(Al3Rh)6
_chemical_formula_sum   'Nd1 Dy1 Pa2 Al18 Rh6'
_cell_volume   476.54814796
_cell_formula_units_Z   1
loop_
 _symmetry_equiv_pos_site_id
 _symmetry_equiv_pos_as_xyz
  1  'x, y, z'
loop_
 _atom_site_type_symbol
 _atom_site_label
 _atom_site_symmetry_multiplicity
 _atom_site_fract_x
 _atom_site_fract_y
 _atom_site_fract_z
 _atom_site_occupancy
  Nd  Nd0  1  0.669699  0.993632  0.750000  1
  Dy  Dy1  1  0.329256  0.006243  0.250000  1
  Pa  Pa2  1  0.997588  0.671071  0.750000  1
  Pa  Pa3  1  0.002324  0.328785  0.250000  1
  Al  Al4  1  0.131941  0.126729  0.750000  1
  Al  Al5  1  0.870929  0.873818  0.250000  1
  Al  Al6  1  0.002338  0.333965  0.574929  1
  Al  Al7  1  0.999811  0.667802  0.422648  1
  Al  Al8  1  0.999811  0.667802  0.077352  1
  Al  Al9  1  0.335890  0.002723  0.927430  1
  Al  Al10  1  0.002338  0.333965  0.925071  1
  Al  Al11  1  0.661885  0.997066  0.077155  1
  Al  Al12  1  0.661885  0.997066  0.422845  1
  Al  Al13  1  0.335890  0.002723  0.572570  1
  Al  Al14  1  0.334577  0.333288  0.053574  1
  Al  Al15  1  0.665425  0.665243  0.950068  1
  Al  Al16  1  0.665425  0.665243  0.549932  1
  Al  Al17  1  0.334577  0.333288  0.446426  1
  Al  Al18  1  0.337644  0.545918  0.750000  1
  Al  Al19  1  0.660387  0.451568  0.250000  1
  Al  Al20  1  0.550157  0.343925  0.750000  1
  Al  Al21  1  0.448783  0.656948  0.250000  1
  Rh  Rh22  1  0.674913  0.329629  0.498472  1
  Rh  Rh23  1  0.324599  0.670154  0.499447  1
  Rh  Rh24  1  0.324599  0.670154  0.000553  1
  Rh  Rh25  1  0.674913  0.329629  0.001528  1
  Rh  Rh26  1  0.001208  0.000813  0.498588  1
  Rh  Rh27  1  0.001208  0.000813  0.001412  1
