# generated using pymatgen
data_Pr15Nd(TmIr3)4
_symmetry_space_group_name_H-M   'P 1'
_cell_length_a   11.23889605
_cell_length_b   11.23727201
_cell_length_c   6.54414003
_cell_angle_alpha   90.00412627
_cell_angle_beta   89.98955270
_cell_angle_gamma   90.00292665
_symmetry_Int_Tables_number   1
_chemical_formula_structural   Pr15Nd(TmIr3)4
_chemical_formula_sum   'Pr15 Nd1 Tm4 Ir12'
_cell_volume   826.48908579
_cell_formula_units_Z   1
loop_
 _symmetry_equiv_pos_site_id
 _symmetry_equiv_pos_as_xyz
  1  'x, y, z'
loop_
 _atom_site_type_symbol
 _atom_site_label
 _atom_site_symmetry_multiplicity
 _atom_site_fract_x
 _atom_site_fract_y
 _atom_site_fract_z
 _atom_site_occupancy
  Pr  Pr0  1  0.288069  0.087124  0.380856  1
  Pr  Pr1  1  0.288122  0.912989  0.880976  1
  Pr  Pr2  1  0.711874  0.087047  0.880997  1
  Pr  Pr3  1  0.711861  0.912956  0.380989  1
  Pr  Pr4  1  0.587045  0.788139  0.880980  1
  Pr  Pr5  1  0.587037  0.211843  0.380997  1
  Pr  Pr6  1  0.412960  0.788132  0.380988  1
  Pr  Pr7  1  0.412894  0.211863  0.881057  1
  Pr  Pr8  1  0.211778  0.412865  0.619020  1
  Pr  Pr9  1  0.211796  0.586887  0.118997  1
  Pr  Pr10  1  0.788277  0.412927  0.119033  1
  Pr  Pr11  1  0.788137  0.587032  0.619008  1
  Pr  Pr12  1  0.912980  0.711850  0.119029  1
  Pr  Pr13  1  0.913087  0.288137  0.618971  1
  Pr  Pr14  1  0.087026  0.711874  0.619017  1
  Nd  Nd15  1  0.086867  0.288407  0.118642  1
  Tm  Tm16  1  0.000003  0.000027  0.499979  1
  Tm  Tm17  1  0.000071  0.000160  0.000094  1
  Tm  Tm18  1  0.499990  0.499981  0.000044  1
  Tm  Tm19  1  0.500001  0.500001  0.500013  1
  Ir  Ir20  1  0.853162  0.147155  0.249853  1
  Ir  Ir21  1  0.852945  0.852941  0.749982  1
  Ir  Ir22  1  0.146972  0.147214  0.750474  1
  Ir  Ir23  1  0.147055  0.852960  0.250011  1
  Ir  Ir24  1  0.647043  0.352957  0.749991  1
  Ir  Ir25  1  0.647034  0.647055  0.250006  1
  Ir  Ir26  1  0.352751  0.352883  0.249918  1
  Ir  Ir27  1  0.352956  0.647052  0.750008  1
  Ir  Ir28  1  0.499992  0.000009  0.118571  1
  Ir  Ir29  1  0.500014  0.999994  0.618582  1
  Ir  Ir30  1  0.000118  0.499719  0.881684  1
  Ir  Ir31  1  0.000079  0.499817  0.381230  1
