# generated using pymatgen
data_SmTh3(Fe2I)2
_symmetry_space_group_name_H-M   'P 1'
_cell_length_a   3.98623400
_cell_length_b   3.98623321
_cell_length_c   17.79565000
_cell_angle_alpha   90.00000000
_cell_angle_beta   90.00000000
_cell_angle_gamma   120.00000654
_symmetry_Int_Tables_number   1
_chemical_formula_structural   SmTh3(Fe2I)2
_chemical_formula_sum   'Sm1 Th3 Fe4 I2'
_cell_volume   244.88937962
_cell_formula_units_Z   1
loop_
 _symmetry_equiv_pos_site_id
 _symmetry_equiv_pos_as_xyz
  1  'x, y, z'
loop_
 _atom_site_type_symbol
 _atom_site_label
 _atom_site_symmetry_multiplicity
 _atom_site_fract_x
 _atom_site_fract_y
 _atom_site_fract_z
 _atom_site_occupancy
  Sm  Sm0  1  0.000000  0.000000  0.107101  1
  Th  Th1  1  0.000000  0.000000  0.604033  1
  Th  Th2  1  0.000000  0.000000  0.898708  1
  Th  Th3  1  0.000000  0.000000  0.395362  1
  Fe  Fe4  1  0.666667  0.333333  0.000192  1
  Fe  Fe5  1  0.333333  0.666667  0.503042  1
  Fe  Fe6  1  0.333333  0.666667  0.998236  1
  Fe  Fe7  1  0.666667  0.333333  0.496153  1
  I  I8  1  0.666667  0.333333  0.247412  1
  I  I9  1  0.333333  0.666667  0.749760  1
