# generated using pymatgen
data_Ce2CdIn3Ru2
_symmetry_space_group_name_H-M   'P 1'
_cell_length_a   4.78817500
_cell_length_b   5.48128327
_cell_length_c   7.72968350
_cell_angle_alpha   89.86701805
_cell_angle_beta   90.00000000
_cell_angle_gamma   115.89829959
_symmetry_Int_Tables_number   1
_chemical_formula_structural   Ce2CdIn3Ru2
_chemical_formula_sum   'Ce2 Cd1 In3 Ru2'
_cell_volume   182.49368873
_cell_formula_units_Z   1
loop_
 _symmetry_equiv_pos_site_id
 _symmetry_equiv_pos_as_xyz
  1  'x, y, z'
loop_
 _atom_site_type_symbol
 _atom_site_label
 _atom_site_symmetry_multiplicity
 _atom_site_fract_x
 _atom_site_fract_y
 _atom_site_fract_z
 _atom_site_occupancy
  Ce  Ce0  1  0.444994  0.889988  0.247715  1
  Ce  Ce1  1  0.556374  0.112747  0.750753  1
  Cd  Cd2  1  0.146857  0.293715  0.043738  1
  In  In3  1  0.849895  0.699789  0.957022  1
  In  In4  1  0.851983  0.703965  0.547754  1
  In  In5  1  0.148970  0.297940  0.450569  1
  Ru  Ru6  1  0.674034  0.348068  0.255972  1
  Ru  Ru7  1  0.326894  0.653788  0.746478  1
