# generated using pymatgen
data_Sc2Rh6C
_symmetry_space_group_name_H-M   'P 1'
_cell_length_a   5.67001436
_cell_length_b   5.67001526
_cell_length_c   5.67001400
_cell_angle_alpha   59.99999571
_cell_angle_beta   59.99999042
_cell_angle_gamma   59.99999890
_symmetry_Int_Tables_number   1
_chemical_formula_structural   Sc2Rh6C
_chemical_formula_sum   'Sc2 Rh6 C1'
_cell_volume   128.89541554
_cell_formula_units_Z   1
loop_
 _symmetry_equiv_pos_site_id
 _symmetry_equiv_pos_as_xyz
  1  'x, y, z'
loop_
 _atom_site_type_symbol
 _atom_site_label
 _atom_site_symmetry_multiplicity
 _atom_site_fract_x
 _atom_site_fract_y
 _atom_site_fract_z
 _atom_site_occupancy
  Sc  Sc0  1  0.250000  0.250000  0.250000  1
  Sc  Sc1  1  0.750000  0.750000  0.750000  1
  Rh  Rh2  1  0.755386  0.244613  0.244613  1
  Rh  Rh3  1  0.244613  0.755386  0.244613  1
  Rh  Rh4  1  0.755386  0.755386  0.244613  1
  Rh  Rh5  1  0.244613  0.244613  0.755386  1
  Rh  Rh6  1  0.755386  0.244613  0.755386  1
  Rh  Rh7  1  0.244613  0.755386  0.755386  1
  C  C8  1  0.499999  0.499999  0.499999  1
