# generated using pymatgen
data_Pr2Co3Re14C3
_symmetry_space_group_name_H-M   'P 1'
_cell_length_a   6.94213671
_cell_length_b   6.94213641
_cell_length_c   6.94213634
_cell_angle_alpha   82.94088732
_cell_angle_beta   82.94088575
_cell_angle_gamma   82.94089033
_symmetry_Int_Tables_number   1
_chemical_formula_structural   Pr2Co3Re14C3
_chemical_formula_sum   'Pr2 Co3 Re14 C3'
_cell_volume   327.53197302
_cell_formula_units_Z   1
loop_
 _symmetry_equiv_pos_site_id
 _symmetry_equiv_pos_as_xyz
  1  'x, y, z'
loop_
 _atom_site_type_symbol
 _atom_site_label
 _atom_site_symmetry_multiplicity
 _atom_site_fract_x
 _atom_site_fract_y
 _atom_site_fract_z
 _atom_site_occupancy
  Pr  Pr0  1  0.650533  0.650533  0.650533  1
  Pr  Pr1  1  0.349467  0.349467  0.349467  1
  Co  Co2  1  0.000000  0.000000  0.500000  1
  Co  Co3  1  0.500000  0.000000  0.000000  1
  Co  Co4  1  0.000000  0.500000  0.000000  1
  Re  Re5  1  0.722652  0.277348  0.000000  1
  Re  Re6  1  0.000000  0.722652  0.277348  1
  Re  Re7  1  0.277348  0.000000  0.722652  1
  Re  Re8  1  0.000000  0.277348  0.722652  1
  Re  Re9  1  0.722652  0.000000  0.277348  1
  Re  Re10  1  0.277348  0.722652  0.000000  1
  Re  Re11  1  0.344351  0.344351  0.861848  1
  Re  Re12  1  0.861848  0.344351  0.344351  1
  Re  Re13  1  0.344351  0.861848  0.344351  1
  Re  Re14  1  0.655649  0.655649  0.138152  1
  Re  Re15  1  0.138152  0.655649  0.655649  1
  Re  Re16  1  0.655649  0.138152  0.655649  1
  Re  Re17  1  0.898475  0.898475  0.898475  1
  Re  Re18  1  0.101525  0.101525  0.101525  1
  C  C19  1  0.500000  0.500000  0.000000  1
  C  C20  1  0.000000  0.500000  0.500000  1
  C  C21  1  0.500000  0.000000  0.500000  1
