# generated using pymatgen
data_Th7Pa(InCo2)4
_symmetry_space_group_name_H-M   'P 1'
_cell_length_a   7.51849700
_cell_length_b   7.51849705
_cell_length_c   7.33319600
_cell_angle_alpha   90.00000000
_cell_angle_beta   90.00000000
_cell_angle_gamma   91.00737131
_symmetry_Int_Tables_number   1
_chemical_formula_structural   Th7Pa(InCo2)4
_chemical_formula_sum   'Th7 Pa1 In4 Co8'
_cell_volume   414.46534945
_cell_formula_units_Z   1
loop_
 _symmetry_equiv_pos_site_id
 _symmetry_equiv_pos_as_xyz
  1  'x, y, z'
loop_
 _atom_site_type_symbol
 _atom_site_label
 _atom_site_symmetry_multiplicity
 _atom_site_fract_x
 _atom_site_fract_y
 _atom_site_fract_z
 _atom_site_occupancy
  Th  Th0  1  0.830507  0.169493  0.500000  1
  Th  Th1  1  0.162738  0.837262  0.500000  1
  Th  Th2  1  0.330148  0.331577  0.000000  1
  Th  Th3  1  0.668423  0.669852  0.000000  1
  Th  Th4  1  0.667768  0.670196  0.500000  1
  Th  Th5  1  0.329804  0.332232  0.500000  1
  Th  Th6  1  0.171259  0.828742  0.000000  1
  Pa  Pa7  1  0.832238  0.167763  0.000000  1
  In  In8  1  0.500684  0.001264  0.250060  1
  In  In9  1  0.998736  0.499316  0.749940  1
  In  In10  1  0.500684  0.001264  0.749940  1
  In  In11  1  0.998736  0.499316  0.250060  1
  Co  Co12  1  0.645321  0.354679  0.225018  1
  Co  Co13  1  0.373725  0.626275  0.255892  1
  Co  Co14  1  0.119294  0.134202  0.768773  1
  Co  Co15  1  0.865798  0.880706  0.768773  1
  Co  Co16  1  0.373725  0.626275  0.744108  1
  Co  Co17  1  0.645321  0.354679  0.774982  1
  Co  Co18  1  0.865798  0.880706  0.231227  1
  Co  Co19  1  0.119294  0.134202  0.231227  1
