# generated using pymatgen
data_Er11TmInCo4Ru
_symmetry_space_group_name_H-M   'P 1'
_cell_length_a   8.21672063
_cell_length_b   8.21672082
_cell_length_c   8.20248097
_cell_angle_alpha   106.28872098
_cell_angle_beta   110.68844053
_cell_angle_gamma   111.55132079
_symmetry_Int_Tables_number   1
_chemical_formula_structural   Er11TmInCo4Ru
_chemical_formula_sum   'Er11 Tm1 In1 Co4 Ru1'
_cell_volume   424.93463325
_cell_formula_units_Z   1
loop_
 _symmetry_equiv_pos_site_id
 _symmetry_equiv_pos_as_xyz
  1  'x, y, z'
loop_
 _atom_site_type_symbol
 _atom_site_label
 _atom_site_symmetry_multiplicity
 _atom_site_fract_x
 _atom_site_fract_y
 _atom_site_fract_z
 _atom_site_occupancy
  Er  Er0  1  0.306606  0.718505  0.025110  1
  Er  Er1  1  0.693713  0.718499  0.412213  1
  Er  Er2  1  0.306686  0.281625  0.588309  1
  Er  Er3  1  0.805849  0.119776  0.313397  1
  Er  Er4  1  0.806048  0.492197  0.686698  1
  Er  Er5  1  0.194501  0.880650  0.686698  1
  Er  Er6  1  0.193621  0.507548  0.313397  1
  Er  Er7  1  0.600376  0.784866  0.815720  1
  Er  Er8  1  0.968371  0.784196  0.183901  1
  Er  Er9  1  0.030856  0.215344  0.815720  1
  Er  Er10  1  0.399705  0.215528  0.183901  1
  Tm  Tm11  1  0.693790  0.281371  0.975161  1
  In  In12  1  0.500708  0.000392  0.501102  1
  Co  Co13  1  0.876112  0.499815  0.375927  1
  Co  Co14  1  0.123571  0.500191  0.623762  1
  Co  Co15  1  0.999175  0.111871  0.111046  1
  Co  Co16  1  0.999835  0.888106  0.887941  1
  Ru  Ru17  1  0.500476  0.499521  0.999996  1
