# generated using pymatgen
data_SmY15(TmSn4)4
_symmetry_space_group_name_H-M   'P 1'
_cell_length_a   8.03564633
_cell_length_b   8.17342027
_cell_length_c   15.49129931
_cell_angle_alpha   90.00806680
_cell_angle_beta   89.76574414
_cell_angle_gamma   89.94000850
_symmetry_Int_Tables_number   1
_chemical_formula_structural   SmY15(TmSn4)4
_chemical_formula_sum   'Sm1 Y15 Tm4 Sn16'
_cell_volume   1017.43955273
_cell_formula_units_Z   1
loop_
 _symmetry_equiv_pos_site_id
 _symmetry_equiv_pos_as_xyz
  1  'x, y, z'
loop_
 _atom_site_type_symbol
 _atom_site_label
 _atom_site_symmetry_multiplicity
 _atom_site_fract_x
 _atom_site_fract_y
 _atom_site_fract_z
 _atom_site_occupancy
  Sm  Sm0  1  0.018357  0.179367  0.903852  1
  Y  Y1  1  0.366507  0.837077  0.876796  1
  Y  Y2  1  0.868068  0.663324  0.621832  1
  Y  Y3  1  0.631669  0.162786  0.377295  1
  Y  Y4  1  0.133646  0.337465  0.123058  1
  Y  Y5  1  0.633766  0.163054  0.123267  1
  Y  Y6  1  0.131836  0.337114  0.377559  1
  Y  Y7  1  0.368619  0.836893  0.622353  1
  Y  Y8  1  0.867359  0.662657  0.877180  1
  Y  Y9  1  0.521493  0.322079  0.902939  1
  Y  Y10  1  0.022882  0.178669  0.597675  1
  Y  Y11  1  0.477850  0.678458  0.402674  1
  Y  Y12  1  0.979360  0.820311  0.097163  1
  Y  Y13  1  0.478816  0.678904  0.097244  1
  Y  Y14  1  0.977841  0.821558  0.402792  1
  Y  Y15  1  0.522039  0.321800  0.596402  1
  Tm  Tm16  1  0.198584  0.503083  0.749393  1
  Tm  Tm17  1  0.698472  0.996473  0.749223  1
  Tm  Tm18  1  0.801529  0.496812  0.250348  1
  Tm  Tm19  1  0.301732  0.003207  0.250458  1
  Sn  Sn20  1  0.295990  0.034998  0.043029  1
  Sn  Sn21  1  0.792292  0.463731  0.458015  1
  Sn  Sn22  1  0.707967  0.964771  0.541663  1
  Sn  Sn23  1  0.207548  0.538267  0.958661  1
  Sn  Sn24  1  0.702560  0.960099  0.959178  1
  Sn  Sn25  1  0.207556  0.536184  0.541686  1
  Sn  Sn26  1  0.292472  0.035994  0.458265  1
  Sn  Sn27  1  0.793371  0.463630  0.041926  1
  Sn  Sn28  1  0.564312  0.618982  0.749848  1
  Sn  Sn29  1  0.064355  0.880072  0.749568  1
  Sn  Sn30  1  0.435825  0.381796  0.250218  1
  Sn  Sn31  1  0.936094  0.118612  0.250294  1
  Sn  Sn32  1  0.332612  0.149493  0.749527  1
  Sn  Sn33  1  0.828979  0.352124  0.748559  1
  Sn  Sn34  1  0.669001  0.850514  0.249948  1
  Sn  Sn35  1  0.168644  0.649640  0.250114  1
