# generated using pymatgen
data_YZn2CdPt2
_symmetry_space_group_name_H-M   'P 1'
_cell_length_a   5.23363280
_cell_length_b   5.30545243
_cell_length_c   5.30545065
_cell_angle_alpha   63.27228874
_cell_angle_beta   60.44679362
_cell_angle_gamma   60.44680451
_symmetry_Int_Tables_number   1
_chemical_formula_structural   YZn2CdPt2
_chemical_formula_sum   'Y1 Zn2 Cd1 Pt2'
_cell_volume   107.24696192
_cell_formula_units_Z   1
loop_
 _symmetry_equiv_pos_site_id
 _symmetry_equiv_pos_as_xyz
  1  'x, y, z'
loop_
 _atom_site_type_symbol
 _atom_site_label
 _atom_site_symmetry_multiplicity
 _atom_site_fract_x
 _atom_site_fract_y
 _atom_site_fract_z
 _atom_site_occupancy
  Y  Y0  1  0.992151  0.007849  0.007849  1
  Zn  Zn1  1  0.128613  0.620997  0.620997  1
  Zn  Zn2  1  0.629394  0.620997  0.620997  1
  Cd  Cd3  1  0.246351  0.253649  0.253649  1
  Pt  Pt4  1  0.626746  0.622579  0.123930  1
  Pt  Pt5  1  0.626746  0.123930  0.622579  1
