# generated using pymatgen
data_LaFe3Sb12Ir
_symmetry_space_group_name_H-M   'P 1'
_cell_length_a   8.00483638
_cell_length_b   8.00483621
_cell_length_c   8.00483624
_cell_angle_alpha   109.52270586
_cell_angle_beta   109.52270781
_cell_angle_gamma   109.52269964
_symmetry_Int_Tables_number   1
_chemical_formula_structural   LaFe3Sb12Ir
_chemical_formula_sum   'La1 Fe3 Sb12 Ir1'
_cell_volume   394.09858484
_cell_formula_units_Z   1
loop_
 _symmetry_equiv_pos_site_id
 _symmetry_equiv_pos_as_xyz
  1  'x, y, z'
loop_
 _atom_site_type_symbol
 _atom_site_label
 _atom_site_symmetry_multiplicity
 _atom_site_fract_x
 _atom_site_fract_y
 _atom_site_fract_z
 _atom_site_occupancy
  La  La0  1  0.000000  0.000000  0.000000  1
  Fe  Fe1  1  0.500000  0.000000  0.000000  1
  Fe  Fe2  1  0.000000  0.500000  0.000000  1
  Fe  Fe3  1  0.000000  0.000000  0.500000  1
  Sb  Sb4  1  0.171003  0.836857  0.333557  1
  Sb  Sb5  1  0.151493  0.331506  0.497961  1
  Sb  Sb6  1  0.666443  0.828997  0.163143  1
  Sb  Sb7  1  0.668494  0.502039  0.848507  1
  Sb  Sb8  1  0.502039  0.848507  0.668494  1
  Sb  Sb9  1  0.828997  0.163143  0.666443  1
  Sb  Sb10  1  0.333557  0.171003  0.836857  1
  Sb  Sb11  1  0.836857  0.333557  0.171003  1
  Sb  Sb12  1  0.497961  0.151493  0.331506  1
  Sb  Sb13  1  0.331506  0.497961  0.151493  1
  Sb  Sb14  1  0.163143  0.666443  0.828997  1
  Sb  Sb15  1  0.848507  0.668494  0.502039  1
  Ir  Ir16  1  0.500000  0.500000  0.500000  1
