# generated using pymatgen
data_Sm6GaSiBr6
_symmetry_space_group_name_H-M   'P 1'
_cell_length_a   10.33471471
_cell_length_b   10.33471352
_cell_length_c   10.29273105
_cell_angle_alpha   109.47196608
_cell_angle_beta   109.47196811
_cell_angle_gamma   109.63439466
_symmetry_Int_Tables_number   1
_chemical_formula_structural   Sm6GaSiBr6
_chemical_formula_sum   'Sm12 Ga2 Si2 Br12'
_cell_volume   844.53775498
_cell_formula_units_Z   2
loop_
 _symmetry_equiv_pos_site_id
 _symmetry_equiv_pos_as_xyz
  1  'x, y, z'
loop_
 _atom_site_type_symbol
 _atom_site_label
 _atom_site_symmetry_multiplicity
 _atom_site_fract_x
 _atom_site_fract_y
 _atom_site_fract_z
 _atom_site_occupancy
  Sm  Sm0  1  0.478303  0.490497  0.237456  1
  Sm  Sm1  1  0.753041  0.240847  0.262544  1
  Sm  Sm2  1  0.753326  0.011827  0.491253  1
  Sm  Sm3  1  0.237926  0.479426  0.491253  1
  Sm  Sm4  1  0.259153  0.746959  0.237456  1
  Sm  Sm5  1  0.020574  0.262074  0.008747  1
  Sm  Sm6  1  0.009503  0.021697  0.262544  1
  Sm  Sm7  1  0.488173  0.746674  0.008747  1
  Sm  Sm8  1  0.490681  0.240681  0.481361  1
  Sm  Sm9  1  0.012067  0.487933  0.750000  1
  Sm  Sm10  1  0.259319  0.009319  0.018639  1
  Sm  Sm11  1  0.237933  0.262067  0.750000  1
  Ga  Ga12  1  0.250433  0.249567  0.250000  1
  Ga  Ga13  1  0.499567  0.000433  0.250000  1
  Si  Si14  1  0.999483  0.249483  0.498967  1
  Si  Si15  1  0.250517  0.500517  0.001033  1
  Br  Br16  1  0.249905  0.754126  0.745137  1
  Br  Br17  1  0.508988  0.504767  0.754863  1
  Br  Br18  1  0.989187  0.743868  0.994126  1
  Br  Br19  1  0.745874  0.250095  0.754863  1
  Br  Br20  1  0.995233  0.991012  0.745137  1
  Br  Br21  1  0.249742  0.995060  0.505874  1
  Br  Br22  1  0.756132  0.510813  0.505874  1
  Br  Br23  1  0.504940  0.250258  0.994126  1
  Br  Br24  1  0.755314  0.744686  0.250000  1
  Br  Br25  1  0.745535  0.995535  0.991071  1
  Br  Br26  1  0.994686  0.505314  0.250000  1
  Br  Br27  1  0.504465  0.754465  0.508929  1
