# generated using pymatgen
data_Dy3Y13Cd4Ir3Os
_symmetry_space_group_name_H-M   'P 1'
_cell_length_a   9.70950757
_cell_length_b   9.71826189
_cell_length_c   9.71824298
_cell_angle_alpha   59.49894392
_cell_angle_beta   59.46088499
_cell_angle_gamma   59.46081760
_symmetry_Int_Tables_number   1
_chemical_formula_structural   Dy3Y13Cd4Ir3Os
_chemical_formula_sum   'Dy3 Y13 Cd4 Ir3 Os1'
_cell_volume   640.65826929
_cell_formula_units_Z   1
loop_
 _symmetry_equiv_pos_site_id
 _symmetry_equiv_pos_as_xyz
  1  'x, y, z'
loop_
 _atom_site_type_symbol
 _atom_site_label
 _atom_site_symmetry_multiplicity
 _atom_site_fract_x
 _atom_site_fract_y
 _atom_site_fract_z
 _atom_site_occupancy
  Dy  Dy0  1  0.348930  0.349066  0.349067  1
  Dy  Dy1  1  0.348398  0.348412  0.957613  1
  Dy  Dy2  1  0.348396  0.957614  0.348412  1
  Y  Y3  1  0.955793  0.348945  0.348945  1
  Y  Y4  1  0.811443  0.188998  0.188998  1
  Y  Y5  1  0.187738  0.809444  0.809443  1
  Y  Y6  1  0.189093  0.811245  0.189099  1
  Y  Y7  1  0.809499  0.187637  0.809641  1
  Y  Y8  1  0.189093  0.189099  0.811245  1
  Y  Y9  1  0.809500  0.809640  0.187638  1
  Y  Y10  1  0.938663  0.561542  0.561544  1
  Y  Y11  1  0.557843  0.939006  0.939005  1
  Y  Y12  1  0.561215  0.938730  0.561377  1
  Y  Y13  1  0.938927  0.558239  0.938407  1
  Y  Y14  1  0.561214  0.561378  0.938729  1
  Y  Y15  1  0.938926  0.938408  0.558240  1
  Cd  Cd16  1  0.579626  0.579616  0.579616  1
  Cd  Cd17  1  0.580301  0.580320  0.257443  1
  Cd  Cd18  1  0.580301  0.257443  0.580321  1
  Cd  Cd19  1  0.257580  0.580244  0.580243  1
  Ir  Ir20  1  0.144466  0.143192  0.576326  1
  Ir  Ir21  1  0.144467  0.576326  0.143190  1
  Ir  Ir22  1  0.575696  0.143846  0.143845  1
  Os  Os23  1  0.142891  0.141613  0.141612  1
