# generated using pymatgen
data_Ho3ZnIn3NiPt
_symmetry_space_group_name_H-M   'P 1'
_cell_length_a   7.56222100
_cell_length_b   7.56222219
_cell_length_c   3.87838900
_cell_angle_alpha   90.00000000
_cell_angle_beta   90.00000000
_cell_angle_gamma   120.00000793
_symmetry_Int_Tables_number   1
_chemical_formula_structural   Ho3ZnIn3NiPt
_chemical_formula_sum   'Ho3 Zn1 In3 Ni1 Pt1'
_cell_volume   192.07938735
_cell_formula_units_Z   1
loop_
 _symmetry_equiv_pos_site_id
 _symmetry_equiv_pos_as_xyz
  1  'x, y, z'
loop_
 _atom_site_type_symbol
 _atom_site_label
 _atom_site_symmetry_multiplicity
 _atom_site_fract_x
 _atom_site_fract_y
 _atom_site_fract_z
 _atom_site_occupancy
  Ho  Ho0  1  0.604006  0.014522  0.500000  1
  Ho  Ho1  1  0.410516  0.395994  0.500000  1
  Ho  Ho2  1  0.985478  0.589484  0.500000  1
  Zn  Zn3  1  0.333333  0.666667  0.000000  1
  In  In4  1  0.747758  0.754433  0.000000  1
  In  In5  1  0.006675  0.252242  0.000000  1
  In  In6  1  0.245567  0.993325  0.000000  1
  Ni  Ni7  1  0.000000  0.000000  0.500000  1
  Pt  Pt8  1  0.666667  0.333333  0.000000  1
