# generated using pymatgen
data_Dy11Y5(AlPt)4
_symmetry_space_group_name_H-M   'P 1'
_cell_length_a   9.61551366
_cell_length_b   9.61624087
_cell_length_c   9.61624103
_cell_angle_alpha   59.99396863
_cell_angle_beta   60.00250137
_cell_angle_gamma   60.00249860
_symmetry_Int_Tables_number   1
_chemical_formula_structural   Dy11Y5(AlPt)4
_chemical_formula_sum   'Dy11 Y5 Al4 Pt4'
_cell_volume   628.73085422
_cell_formula_units_Z   1
loop_
 _symmetry_equiv_pos_site_id
 _symmetry_equiv_pos_as_xyz
  1  'x, y, z'
loop_
 _atom_site_type_symbol
 _atom_site_label
 _atom_site_symmetry_multiplicity
 _atom_site_fract_x
 _atom_site_fract_y
 _atom_site_fract_z
 _atom_site_occupancy
  Dy  Dy0  1  0.353793  0.353842  0.353842  1
  Dy  Dy1  1  0.353936  0.353846  0.938283  1
  Dy  Dy2  1  0.353936  0.938283  0.353846  1
  Dy  Dy3  1  0.938523  0.353842  0.353842  1
  Dy  Dy4  1  0.806820  0.193180  0.193180  1
  Dy  Dy5  1  0.193268  0.806732  0.806732  1
  Dy  Dy6  1  0.192996  0.806864  0.193367  1
  Dy  Dy7  1  0.806774  0.193367  0.806864  1
  Dy  Dy8  1  0.192996  0.193367  0.806864  1
  Dy  Dy9  1  0.806774  0.806864  0.193367  1
  Dy  Dy10  1  0.936215  0.563785  0.563785  1
  Y  Y11  1  0.563643  0.936357  0.936357  1
  Y  Y12  1  0.563972  0.936119  0.563641  1
  Y  Y13  1  0.936268  0.563641  0.936119  1
  Y  Y14  1  0.563972  0.563641  0.936119  1
  Y  Y15  1  0.936268  0.936119  0.563641  1
  Al  Al16  1  0.577862  0.577971  0.577971  1
  Al  Al17  1  0.577873  0.577930  0.266323  1
  Al  Al18  1  0.577873  0.266323  0.577930  1
  Al  Al19  1  0.266196  0.577971  0.577971  1
  Pt  Pt20  1  0.143451  0.143393  0.143393  1
  Pt  Pt21  1  0.143415  0.143273  0.569899  1
  Pt  Pt22  1  0.143415  0.569899  0.143273  1
  Pt  Pt23  1  0.569764  0.143393  0.143393  1
