# generated using pymatgen
data_CuBi3Ru2(PtO7)2
_symmetry_space_group_name_H-M   'P 1'
_cell_length_a   7.39202408
_cell_length_b   7.39202433
_cell_length_c   7.18654664
_cell_angle_alpha   59.24191871
_cell_angle_beta   59.24191872
_cell_angle_gamma   60.05402466
_symmetry_Int_Tables_number   1
_chemical_formula_structural   CuBi3Ru2(PtO7)2
_chemical_formula_sum   'Cu1 Bi3 Ru2 Pt2 O14'
_cell_volume   274.55685014
_cell_formula_units_Z   1
loop_
 _symmetry_equiv_pos_site_id
 _symmetry_equiv_pos_as_xyz
  1  'x, y, z'
loop_
 _atom_site_type_symbol
 _atom_site_label
 _atom_site_symmetry_multiplicity
 _atom_site_fract_x
 _atom_site_fract_y
 _atom_site_fract_z
 _atom_site_occupancy
  Cu  Cu0  1  0.125000  0.125000  0.625000  1
  Bi  Bi1  1  0.125000  0.625000  0.125000  1
  Bi  Bi2  1  0.625000  0.125000  0.125000  1
  Bi  Bi3  1  0.125000  0.125000  0.125000  1
  Ru  Ru4  1  0.625000  0.125000  0.625000  1
  Ru  Ru5  1  0.125000  0.625000  0.625000  1
  Pt  Pt6  1  0.625000  0.625000  0.125000  1
  Pt  Pt7  1  0.625000  0.625000  0.625000  1
  O  O8  1  0.234004  0.234004  0.295323  1
  O  O9  1  0.015996  0.015996  0.954677  1
  O  O10  1  0.547890  0.957128  0.546787  1
  O  O11  1  0.290896  0.712216  0.288138  1
  O  O12  1  0.536693  0.536693  0.966245  1
  O  O13  1  0.957128  0.547890  0.546787  1
  O  O14  1  0.537784  0.959104  0.961862  1
  O  O15  1  0.941472  0.941472  0.547825  1
  O  O16  1  0.959104  0.537784  0.961862  1
  O  O17  1  0.712216  0.290896  0.288138  1
  O  O18  1  0.292872  0.702110  0.703213  1
  O  O19  1  0.702110  0.292872  0.703213  1
  O  O20  1  0.308528  0.308528  0.702175  1
  O  O21  1  0.713307  0.713307  0.283755  1
