# generated using pymatgen
data_PrU(AsPt)2
_symmetry_space_group_name_H-M   'P 1'
_cell_length_a   4.32328600
_cell_length_b   4.32328470
_cell_length_c   15.97514000
_cell_angle_alpha   90.00000000
_cell_angle_beta   90.00000000
_cell_angle_gamma   120.00000996
_symmetry_Int_Tables_number   1
_chemical_formula_structural   PrU(AsPt)2
_chemical_formula_sum   'Pr2 U2 As4 Pt4'
_cell_volume   258.58484189
_cell_formula_units_Z   2
loop_
 _symmetry_equiv_pos_site_id
 _symmetry_equiv_pos_as_xyz
  1  'x, y, z'
loop_
 _atom_site_type_symbol
 _atom_site_label
 _atom_site_symmetry_multiplicity
 _atom_site_fract_x
 _atom_site_fract_y
 _atom_site_fract_z
 _atom_site_occupancy
  Pr  Pr0  1  0.000000  0.000000  0.500000  1
  Pr  Pr1  1  0.000000  0.000000  0.000000  1
  U  U2  1  0.000000  0.000000  0.250000  1
  U  U3  1  0.000000  0.000000  0.750000  1
  As  As4  1  0.333333  0.666667  0.881943  1
  As  As5  1  0.666667  0.333333  0.118057  1
  As  As6  1  0.666667  0.333333  0.381943  1
  As  As7  1  0.333333  0.666667  0.618057  1
  Pt  Pt8  1  0.333333  0.666667  0.351219  1
  Pt  Pt9  1  0.666667  0.333333  0.648781  1
  Pt  Pt10  1  0.666667  0.333333  0.851219  1
  Pt  Pt11  1  0.333333  0.666667  0.148781  1
