# generated using pymatgen
data_K6InSe4Cl
_symmetry_space_group_name_H-M   'P 1'
_cell_length_a   10.82715100
_cell_length_b   10.82715004
_cell_length_c   7.83447400
_cell_angle_alpha   90.00000000
_cell_angle_beta   90.00000000
_cell_angle_gamma   119.99999987
_symmetry_Int_Tables_number   1
_chemical_formula_structural   K6InSe4Cl
_chemical_formula_sum   'K12 In2 Se8 Cl2'
_cell_volume   795.36930174
_cell_formula_units_Z   2
loop_
 _symmetry_equiv_pos_site_id
 _symmetry_equiv_pos_as_xyz
  1  'x, y, z'
loop_
 _atom_site_type_symbol
 _atom_site_label
 _atom_site_symmetry_multiplicity
 _atom_site_fract_x
 _atom_site_fract_y
 _atom_site_fract_z
 _atom_site_occupancy
  K  K0  1  0.128877  0.871123  0.512970  1
  K  K1  1  0.742245  0.871123  0.512970  1
  K  K2  1  0.946605  0.473302  0.320757  1
  K  K3  1  0.526698  0.473302  0.320757  1
  K  K4  1  0.871123  0.742245  0.012970  1
  K  K5  1  0.257755  0.128877  0.012970  1
  K  K6  1  0.526698  0.053395  0.320757  1
  K  K7  1  0.128877  0.257755  0.512970  1
  K  K8  1  0.871123  0.128877  0.012970  1
  K  K9  1  0.053395  0.526698  0.820757  1
  K  K10  1  0.473302  0.946605  0.820757  1
  K  K11  1  0.473302  0.526698  0.820757  1
  In  In12  1  0.666667  0.333333  0.709139  1
  In  In13  1  0.333333  0.666667  0.209139  1
  Se  Se14  1  0.401235  0.200618  0.603199  1
  Se  Se15  1  0.598765  0.799382  0.103199  1
  Se  Se16  1  0.666667  0.333333  0.046740  1
  Se  Se17  1  0.799382  0.598765  0.603199  1
  Se  Se18  1  0.200618  0.401235  0.103199  1
  Se  Se19  1  0.333333  0.666667  0.546740  1
  Se  Se20  1  0.200618  0.799382  0.103199  1
  Se  Se21  1  0.799382  0.200618  0.603199  1
  Cl  Cl22  1  0.000000  0.000000  0.273944  1
  Cl  Cl23  1  0.000000  0.000000  0.773944  1
