# generated using pymatgen
data_HoHf7Ta7Ti5Si16
_symmetry_space_group_name_H-M   'P 1'
_cell_length_a   6.85132273
_cell_length_b   6.85697769
_cell_length_c   12.62540240
_cell_angle_alpha   89.98230096
_cell_angle_beta   89.96276229
_cell_angle_gamma   89.95453137
_symmetry_Int_Tables_number   1
_chemical_formula_structural   HoHf7Ta7Ti5Si16
_chemical_formula_sum   'Ho1 Hf7 Ta7 Ti5 Si16'
_cell_volume   593.13307387
_cell_formula_units_Z   1
loop_
 _symmetry_equiv_pos_site_id
 _symmetry_equiv_pos_as_xyz
  1  'x, y, z'
loop_
 _atom_site_type_symbol
 _atom_site_label
 _atom_site_symmetry_multiplicity
 _atom_site_fract_x
 _atom_site_fract_y
 _atom_site_fract_z
 _atom_site_occupancy
  Ho  Ho0  1  0.995920  0.660873  0.030550  1
  Hf  Hf1  1  0.343075  0.999272  0.470727  1
  Hf  Hf2  1  0.500713  0.843477  0.718896  1
  Hf  Hf3  1  0.496923  0.157830  0.222004  1
  Hf  Hf4  1  0.841718  0.502726  0.281667  1
  Hf  Hf5  1  0.160780  0.498626  0.779714  1
  Hf  Hf6  1  0.654066  0.002011  0.969176  1
  Hf  Hf7  1  0.999352  0.342520  0.529954  1
  Ta  Ta8  1  0.331510  0.328245  0.999517  1
  Ta  Ta9  1  0.170915  0.830709  0.251163  1
  Ta  Ta10  1  0.829790  0.170146  0.747980  1
  Ta  Ta11  1  0.671048  0.669760  0.499632  1
  Ta  Ta12  1  0.155310  0.003607  0.871375  1
  Ta  Ta13  1  0.496129  0.651288  0.124906  1
  Ta  Ta14  1  0.503851  0.347798  0.622697  1
  Ti  Ti15  1  0.652179  0.492862  0.874997  1
  Ti  Ti16  1  0.348369  0.503574  0.378064  1
  Ti  Ti17  1  0.847691  0.996050  0.374475  1
  Ti  Ti18  1  0.005819  0.152090  0.128305  1
  Ti  Ti19  1  0.994745  0.847638  0.625947  1
  Si  Si20  1  0.205513  0.133706  0.674623  1
  Si  Si21  1  0.370026  0.705223  0.924796  1
  Si  Si22  1  0.635295  0.291712  0.424359  1
  Si  Si23  1  0.705341  0.357190  0.073026  1
  Si  Si24  1  0.291749  0.638939  0.572990  1
  Si  Si25  1  0.791570  0.871275  0.180925  1
  Si  Si26  1  0.135667  0.205727  0.324968  1
  Si  Si27  1  0.859617  0.794340  0.820028  1
  Si  Si28  1  0.297975  0.958142  0.064798  1
  Si  Si29  1  0.544222  0.798369  0.315889  1
  Si  Si30  1  0.456805  0.204003  0.812870  1
  Si  Si31  1  0.799772  0.546728  0.685967  1
  Si  Si32  1  0.202167  0.451765  0.189213  1
  Si  Si33  1  0.705359  0.043348  0.561848  1
  Si  Si34  1  0.953169  0.294449  0.935815  1
  Si  Si35  1  0.045850  0.703982  0.436137  1
