# generated using pymatgen
data_Zr10Sn5Bi2
_symmetry_space_group_name_H-M   'P 1'
_cell_length_a   5.97771954
_cell_length_b   8.74054434
_cell_length_c   8.73801848
_cell_angle_alpha   120.00957748
_cell_angle_beta   89.97916425
_cell_angle_gamma   90.04164409
_symmetry_Int_Tables_number   1
_chemical_formula_structural   Zr10Sn5Bi2
_chemical_formula_sum   'Zr10 Sn5 Bi2'
_cell_volume   395.34438026
_cell_formula_units_Z   1
loop_
 _symmetry_equiv_pos_site_id
 _symmetry_equiv_pos_as_xyz
  1  'x, y, z'
loop_
 _atom_site_type_symbol
 _atom_site_label
 _atom_site_symmetry_multiplicity
 _atom_site_fract_x
 _atom_site_fract_y
 _atom_site_fract_z
 _atom_site_occupancy
  Zr  Zr0  1  0.498528  0.331400  0.664170  1
  Zr  Zr1  1  0.498528  0.667230  0.335830  1
  Zr  Zr2  1  0.001877  0.667259  0.336503  1
  Zr  Zr3  1  0.001877  0.330757  0.663497  1
  Zr  Zr4  1  0.778672  0.266171  0.000000  1
  Zr  Zr5  1  0.775531  0.732465  0.726720  1
  Zr  Zr6  1  0.775531  0.005744  0.273280  1
  Zr  Zr7  1  0.226187  0.729732  0.000000  1
  Zr  Zr8  1  0.223610  0.270152  0.270768  1
  Zr  Zr9  1  0.223610  0.999384  0.729232  1
  Sn  Sn10  1  0.741568  0.388629  0.387654  1
  Sn  Sn11  1  0.741568  0.000975  0.612346  1
  Sn  Sn12  1  0.257331  0.385655  0.000000  1
  Sn  Sn13  1  0.257424  0.612513  0.613674  1
  Sn  Sn14  1  0.257424  0.998839  0.386326  1
  Bi  Bi15  1  0.742175  0.613051  0.000000  1
  Bi  Bi16  1  0.498561  0.000047  0.000000  1
