# generated using pymatgen
data_Cs6TlTe4
_symmetry_space_group_name_H-M   'P 1'
_cell_length_a   12.19427300
_cell_length_b   12.19427258
_cell_length_c   9.39428800
_cell_angle_alpha   90.00000000
_cell_angle_beta   90.00000000
_cell_angle_gamma   119.99999843
_symmetry_Int_Tables_number   1
_chemical_formula_structural   Cs6TlTe4
_chemical_formula_sum   'Cs12 Tl2 Te8'
_cell_volume   1209.77977822
_cell_formula_units_Z   2
loop_
 _symmetry_equiv_pos_site_id
 _symmetry_equiv_pos_as_xyz
  1  'x, y, z'
loop_
 _atom_site_type_symbol
 _atom_site_label
 _atom_site_symmetry_multiplicity
 _atom_site_fract_x
 _atom_site_fract_y
 _atom_site_fract_z
 _atom_site_occupancy
  Cs  Cs0  1  0.148433  0.851567  0.543628  1
  Cs  Cs1  1  0.296864  0.148433  0.043628  1
  Cs  Cs2  1  0.851567  0.703136  0.043628  1
  Cs  Cs3  1  0.148433  0.296864  0.543628  1
  Cs  Cs4  1  0.703136  0.851567  0.543628  1
  Cs  Cs5  1  0.851567  0.148433  0.043628  1
  Cs  Cs6  1  0.526740  0.473260  0.365129  1
  Cs  Cs7  1  0.053478  0.526740  0.865129  1
  Cs  Cs8  1  0.473260  0.946522  0.865129  1
  Cs  Cs9  1  0.526740  0.053478  0.365129  1
  Cs  Cs10  1  0.946522  0.473260  0.365129  1
  Cs  Cs11  1  0.473260  0.526740  0.865129  1
  Tl  Tl12  1  0.333333  0.666667  0.248224  1
  Tl  Tl13  1  0.666667  0.333333  0.748224  1
  Te  Te14  1  0.333333  0.666667  0.584627  1
  Te  Te15  1  0.666667  0.333333  0.084627  1
  Te  Te16  1  0.191148  0.808852  0.147459  1
  Te  Te17  1  0.382295  0.191148  0.647459  1
  Te  Te18  1  0.808852  0.617705  0.647459  1
  Te  Te19  1  0.191148  0.382295  0.147459  1
  Te  Te20  1  0.617705  0.808852  0.147459  1
  Te  Te21  1  0.808852  0.191148  0.647459  1
