# generated using pymatgen
data_Mg(PaRh)2
_symmetry_space_group_name_H-M   'P 1'
_cell_length_a   7.62291900
_cell_length_b   7.62291900
_cell_length_c   3.63358200
_cell_angle_alpha   90.00000000
_cell_angle_beta   90.00000000
_cell_angle_gamma   90.00000000
_symmetry_Int_Tables_number   1
_chemical_formula_structural   Mg(PaRh)2
_chemical_formula_sum   'Mg2 Pa4 Rh4'
_cell_volume   211.14343157
_cell_formula_units_Z   2
loop_
 _symmetry_equiv_pos_site_id
 _symmetry_equiv_pos_as_xyz
  1  'x, y, z'
loop_
 _atom_site_type_symbol
 _atom_site_label
 _atom_site_symmetry_multiplicity
 _atom_site_fract_x
 _atom_site_fract_y
 _atom_site_fract_z
 _atom_site_occupancy
  Mg  Mg0  1  0.000000  0.000000  0.000000  1
  Mg  Mg1  1  0.500000  0.500000  0.000000  1
  Pa  Pa2  1  0.666821  0.166822  0.500000  1
  Pa  Pa3  1  0.166822  0.333179  0.500000  1
  Pa  Pa4  1  0.833179  0.666821  0.500000  1
  Pa  Pa5  1  0.333179  0.833179  0.500000  1
  Rh  Rh6  1  0.361285  0.138716  0.000000  1
  Rh  Rh7  1  0.861284  0.361285  0.000000  1
  Rh  Rh8  1  0.138716  0.638716  0.000000  1
  Rh  Rh9  1  0.638716  0.861284  0.000000  1
