# generated using pymatgen
data_PrNdCu2(TeO6)2
_symmetry_space_group_name_H-M   'P 1'
_cell_length_a   5.20141890
_cell_length_b   5.20015222
_cell_length_c   10.33331369
_cell_angle_alpha   90.02965613
_cell_angle_beta   90.01081901
_cell_angle_gamma   120.07479278
_symmetry_Int_Tables_number   1
_chemical_formula_structural   PrNdCu2(TeO6)2
_chemical_formula_sum   'Pr1 Nd1 Cu2 Te2 O12'
_cell_volume   241.86900142
_cell_formula_units_Z   1
loop_
 _symmetry_equiv_pos_site_id
 _symmetry_equiv_pos_as_xyz
  1  'x, y, z'
loop_
 _atom_site_type_symbol
 _atom_site_label
 _atom_site_symmetry_multiplicity
 _atom_site_fract_x
 _atom_site_fract_y
 _atom_site_fract_z
 _atom_site_occupancy
  Pr  Pr0  1  0.999872  0.999798  0.999996  1
  Nd  Nd1  1  0.999869  0.999820  0.500033  1
  Cu  Cu2  1  0.333360  0.666169  0.250840  1
  Cu  Cu3  1  0.666575  0.333418  0.748861  1
  Te  Te4  1  0.666836  0.333234  0.251172  1
  Te  Te5  1  0.333185  0.666690  0.748998  1
  O  O6  1  0.634219  0.623297  0.143543  1
  O  O7  1  0.990377  0.366042  0.143788  1
  O  O8  1  0.376350  0.010020  0.143253  1
  O  O9  1  0.374249  0.362870  0.358354  1
  O  O10  1  0.990158  0.626756  0.357980  1
  O  O11  1  0.636934  0.010015  0.357653  1
  O  O12  1  0.363180  0.990181  0.642494  1
  O  O13  1  0.626020  0.637392  0.641830  1
  O  O14  1  0.010330  0.373509  0.641852  1
  O  O15  1  0.008989  0.633623  0.855973  1
  O  O16  1  0.623606  0.990281  0.856727  1
  O  O17  1  0.365889  0.376892  0.856654  1
