# generated using pymatgen
data_LiNb5(SiOs)6
_symmetry_space_group_name_H-M   'P 1'
_cell_length_a   7.48333707
_cell_length_b   7.48259074
_cell_length_c   7.48333700
_cell_angle_alpha   128.25647769
_cell_angle_beta   122.82659391
_cell_angle_gamma   80.72138767
_symmetry_Int_Tables_number   1
_chemical_formula_structural   LiNb5(SiOs)6
_chemical_formula_sum   'Li1 Nb5 Si6 Os6'
_cell_volume   266.66264545
_cell_formula_units_Z   1
loop_
 _symmetry_equiv_pos_site_id
 _symmetry_equiv_pos_as_xyz
  1  'x, y, z'
loop_
 _atom_site_type_symbol
 _atom_site_label
 _atom_site_symmetry_multiplicity
 _atom_site_fract_x
 _atom_site_fract_y
 _atom_site_fract_z
 _atom_site_occupancy
  Li  Li0  1  0.751375  0.591830  0.340456  1
  Nb  Nb1  1  0.443483  0.414526  0.471042  1
  Nb  Nb2  1  0.546353  0.990680  0.944329  1
  Nb  Nb3  1  0.037265  0.006497  0.469233  1
  Nb  Nb4  1  0.967962  0.427532  0.959569  1
  Nb  Nb5  1  0.248941  0.578603  0.829663  1
  Si  Si6  1  0.227342  0.995297  0.267954  1
  Si  Si7  1  0.781541  0.994436  0.712894  1
  Si  Si8  1  0.148843  0.668901  0.495535  1
  Si  Si9  1  0.823406  0.345877  0.492627  1
  Si  Si10  1  0.673365  0.668901  0.020057  1
  Si  Si11  1  0.353251  0.345877  0.022471  1
  Os  Os12  1  0.970136  0.253761  0.225786  1
  Os  Os13  1  0.527976  0.253761  0.783625  1
  Os  Os14  1  0.400799  0.752850  0.408456  1
  Os  Os15  1  0.589766  0.007910  0.344109  1
  Os  Os16  1  0.844394  0.752850  0.852051  1
  Os  Os17  1  0.163801  0.007910  0.918144  1
