# generated using pymatgen
data_Ce4Tm(SiB4)2
_symmetry_space_group_name_H-M   'P 1'
_cell_length_a   7.31037300
_cell_length_b   7.31037300
_cell_length_c   8.23327700
_cell_angle_alpha   90.00000000
_cell_angle_beta   90.00000000
_cell_angle_gamma   90.00000000
_symmetry_Int_Tables_number   1
_chemical_formula_structural   Ce4Tm(SiB4)2
_chemical_formula_sum   'Ce8 Tm2 Si4 B16'
_cell_volume   439.99911245
_cell_formula_units_Z   2
loop_
 _symmetry_equiv_pos_site_id
 _symmetry_equiv_pos_as_xyz
  1  'x, y, z'
loop_
 _atom_site_type_symbol
 _atom_site_label
 _atom_site_symmetry_multiplicity
 _atom_site_fract_x
 _atom_site_fract_y
 _atom_site_fract_z
 _atom_site_occupancy
  Ce  Ce0  1  0.681973  0.181973  0.226852  1
  Ce  Ce1  1  0.318027  0.818027  0.773148  1
  Ce  Ce2  1  0.318027  0.818027  0.226852  1
  Ce  Ce3  1  0.818027  0.681973  0.226852  1
  Ce  Ce4  1  0.818027  0.681973  0.773148  1
  Ce  Ce5  1  0.681973  0.181973  0.773148  1
  Ce  Ce6  1  0.181973  0.318027  0.773148  1
  Ce  Ce7  1  0.181973  0.318027  0.226852  1
  Tm  Tm8  1  0.000000  0.000000  0.500000  1
  Tm  Tm9  1  0.500000  0.500000  0.500000  1
  Si  Si10  1  0.116049  0.616049  0.500000  1
  Si  Si11  1  0.883951  0.383951  0.500000  1
  Si  Si12  1  0.383951  0.116049  0.500000  1
  Si  Si13  1  0.616049  0.883951  0.500000  1
  B  B14  1  0.172407  0.039401  0.000000  1
  B  B15  1  0.827593  0.960599  0.000000  1
  B  B16  1  0.960599  0.172407  0.000000  1
  B  B17  1  0.327593  0.539401  0.000000  1
  B  B18  1  0.039401  0.827593  0.000000  1
  B  B19  1  0.672407  0.460599  0.000000  1
  B  B20  1  0.539401  0.672407  0.000000  1
  B  B21  1  0.460599  0.327593  0.000000  1
  B  B22  1  0.091889  0.591889  0.000000  1
  B  B23  1  0.908111  0.408111  0.000000  1
  B  B24  1  0.408111  0.091889  0.000000  1
  B  B25  1  0.591889  0.908111  0.000000  1
  B  B26  1  0.000000  0.000000  0.160222  1
  B  B27  1  0.000000  0.000000  0.839778  1
  B  B28  1  0.500000  0.500000  0.839778  1
  B  B29  1  0.500000  0.500000  0.160222  1
