# generated using pymatgen
data_HoEr11(Tm2Bi3)4
_symmetry_space_group_name_H-M   'P 1'
_cell_length_a   8.19338600
_cell_length_b   9.44631800
_cell_length_c   11.94606900
_cell_angle_alpha   90.00000000
_cell_angle_beta   90.00159336
_cell_angle_gamma   90.00000000
_symmetry_Int_Tables_number   1
_chemical_formula_structural   HoEr11(Tm2Bi3)4
_chemical_formula_sum   'Ho1 Er11 Tm8 Bi12'
_cell_volume   924.59384027
_cell_formula_units_Z   1
loop_
 _symmetry_equiv_pos_site_id
 _symmetry_equiv_pos_as_xyz
  1  'x, y, z'
loop_
 _atom_site_type_symbol
 _atom_site_label
 _atom_site_symmetry_multiplicity
 _atom_site_fract_x
 _atom_site_fract_y
 _atom_site_fract_z
 _atom_site_occupancy
  Ho  Ho0  1  0.185699  0.750000  0.718027  1
  Er  Er1  1  0.353504  0.750000  0.216530  1
  Er  Er2  1  0.853519  0.750000  0.283465  1
  Er  Er3  1  0.646477  0.250000  0.783445  1
  Er  Er4  1  0.146487  0.250000  0.716539  1
  Er  Er5  1  0.476876  0.250000  0.488989  1
  Er  Er6  1  0.976853  0.250000  0.011018  1
  Er  Er7  1  0.523162  0.750000  0.510991  1
  Er  Er8  1  0.023107  0.750000  0.988996  1
  Er  Er9  1  0.314269  0.250000  0.217971  1
  Er  Er10  1  0.814283  0.250000  0.282035  1
  Er  Er11  1  0.685719  0.750000  0.782028  1
  Tm  Tm12  1  0.691992  0.564959  0.059025  1
  Tm  Tm13  1  0.191985  0.935045  0.440962  1
  Tm  Tm14  1  0.308014  0.064959  0.940981  1
  Tm  Tm15  1  0.808024  0.435046  0.559028  1
  Tm  Tm16  1  0.308014  0.435041  0.940981  1
  Tm  Tm17  1  0.808024  0.064954  0.559028  1
  Tm  Tm18  1  0.691992  0.935041  0.059025  1
  Tm  Tm19  1  0.191985  0.564955  0.440962  1
  Bi  Bi20  1  0.405439  0.750000  0.957502  1
  Bi  Bi21  1  0.905328  0.750000  0.542464  1
  Bi  Bi22  1  0.594599  0.250000  0.042519  1
  Bi  Bi23  1  0.094602  0.250000  0.457481  1
  Bi  Bi24  1  0.566141  0.996147  0.325661  1
  Bi  Bi25  1  0.066154  0.503857  0.174331  1
  Bi  Bi26  1  0.433910  0.496089  0.674330  1
  Bi  Bi27  1  0.933818  0.003886  0.825682  1
  Bi  Bi28  1  0.433910  0.003911  0.674330  1
  Bi  Bi29  1  0.933818  0.496114  0.825682  1
  Bi  Bi30  1  0.566141  0.503853  0.325661  1
  Bi  Bi31  1  0.066154  0.996143  0.174331  1
