# generated using pymatgen
data_Ca10Si4Bi2F
_symmetry_space_group_name_H-M   'P 1'
_cell_length_a   9.26947683
_cell_length_b   9.26947667
_cell_length_c   9.26947698
_cell_angle_alpha   130.00741716
_cell_angle_beta   130.00741138
_cell_angle_gamma   73.39490889
_symmetry_Int_Tables_number   1
_chemical_formula_structural   Ca10Si4Bi2F
_chemical_formula_sum   'Ca10 Si4 Bi2 F1'
_cell_volume   456.10926067
_cell_formula_units_Z   1
loop_
 _symmetry_equiv_pos_site_id
 _symmetry_equiv_pos_as_xyz
  1  'x, y, z'
loop_
 _atom_site_type_symbol
 _atom_site_label
 _atom_site_symmetry_multiplicity
 _atom_site_fract_x
 _atom_site_fract_y
 _atom_site_fract_z
 _atom_site_occupancy
  Ca  Ca0  1  0.770460  0.445466  0.000000  1
  Ca  Ca1  1  0.445466  0.770461  0.000000  1
  Ca  Ca2  1  0.946638  0.946638  0.665329  1
  Ca  Ca3  1  0.281309  0.281309  0.334671  1
  Ca  Ca4  1  0.718691  0.053362  0.000000  1
  Ca  Ca5  1  0.053362  0.718691  0.000000  1
  Ca  Ca6  1  0.554534  0.554534  0.324995  1
  Ca  Ca7  1  0.229539  0.229539  0.675005  1
  Ca  Ca8  1  0.250000  0.750000  0.500000  1
  Ca  Ca9  1  0.750000  0.250000  0.500000  1
  Si  Si10  1  0.134554  0.365434  0.000000  1
  Si  Si11  1  0.365434  0.134554  0.000000  1
  Si  Si12  1  0.865446  0.865446  0.230881  1
  Si  Si13  1  0.634566  0.634566  0.769119  1
  Bi  Bi14  1  0.000000  0.500000  0.500000  1
  Bi  Bi15  1  0.500000  0.000000  0.500000  1
  F  F16  1  0.500000  0.500000  0.000000  1
