# generated using pymatgen
data_Pa6Al11Au
_symmetry_space_group_name_H-M   'P 1'
_cell_length_a   9.73827600
_cell_length_b   9.73827465
_cell_length_c   8.68292000
_cell_angle_alpha   90.00000000
_cell_angle_beta   90.00000000
_cell_angle_gamma   119.99999100
_symmetry_Int_Tables_number   1
_chemical_formula_structural   Pa6Al11Au
_chemical_formula_sum   'Pa12 Al22 Au2'
_cell_volume   713.11663697
_cell_formula_units_Z   2
loop_
 _symmetry_equiv_pos_site_id
 _symmetry_equiv_pos_as_xyz
  1  'x, y, z'
loop_
 _atom_site_type_symbol
 _atom_site_label
 _atom_site_symmetry_multiplicity
 _atom_site_fract_x
 _atom_site_fract_y
 _atom_site_fract_z
 _atom_site_occupancy
  Pa  Pa0  1  0.337378  0.000000  0.090779  1
  Pa  Pa1  1  0.662622  0.000000  0.909221  1
  Pa  Pa2  1  0.000000  0.337378  0.090779  1
  Pa  Pa3  1  0.662622  0.000000  0.590779  1
  Pa  Pa4  1  0.000000  0.337378  0.409221  1
  Pa  Pa5  1  0.000000  0.662622  0.909221  1
  Pa  Pa6  1  0.337378  0.000000  0.409221  1
  Pa  Pa7  1  0.000000  0.662622  0.590779  1
  Pa  Pa8  1  0.662622  0.662622  0.090779  1
  Pa  Pa9  1  0.337378  0.337378  0.909221  1
  Pa  Pa10  1  0.337378  0.337378  0.590779  1
  Pa  Pa11  1  0.662622  0.662622  0.409221  1
  Al  Al12  1  0.158849  0.489674  0.750000  1
  Al  Al13  1  0.841151  0.510326  0.250000  1
  Al  Al14  1  0.510326  0.669175  0.750000  1
  Al  Al15  1  0.489674  0.158849  0.750000  1
  Al  Al16  1  0.489674  0.330825  0.250000  1
  Al  Al17  1  0.510326  0.841151  0.250000  1
  Al  Al18  1  0.330825  0.841151  0.750000  1
  Al  Al19  1  0.669175  0.510326  0.750000  1
  Al  Al20  1  0.669175  0.158849  0.250000  1
  Al  Al21  1  0.330825  0.489674  0.250000  1
  Al  Al22  1  0.841151  0.330825  0.750000  1
  Al  Al23  1  0.158849  0.669175  0.250000  1
  Al  Al24  1  0.333333  0.666667  0.500000  1
  Al  Al25  1  0.666667  0.333333  0.500000  1
  Al  Al26  1  0.666667  0.333333  0.000000  1
  Al  Al27  1  0.333333  0.666667  0.000000  1
  Al  Al28  1  0.169345  0.000000  0.750000  1
  Al  Al29  1  0.830655  0.000000  0.250000  1
  Al  Al30  1  0.000000  0.169345  0.750000  1
  Al  Al31  1  0.000000  0.830655  0.250000  1
  Al  Al32  1  0.830655  0.830655  0.750000  1
  Al  Al33  1  0.169345  0.169345  0.250000  1
  Au  Au34  1  0.000000  0.000000  0.500000  1
  Au  Au35  1  0.000000  0.000000  0.000000  1
