# generated using pymatgen
data_Dy3Y2Mn2P12Ir17
_symmetry_space_group_name_H-M   'P 1'
_cell_length_a   12.64112000
_cell_length_b   12.72872429
_cell_length_c   3.97296000
_cell_angle_alpha   90.00000000
_cell_angle_beta   90.00000000
_cell_angle_gamma   119.77259170
_symmetry_Int_Tables_number   1
_chemical_formula_structural   Dy3Y2Mn2P12Ir17
_chemical_formula_sum   'Dy3 Y2 Mn2 P12 Ir17'
_cell_volume   554.88872051
_cell_formula_units_Z   1
loop_
 _symmetry_equiv_pos_site_id
 _symmetry_equiv_pos_as_xyz
  1  'x, y, z'
loop_
 _atom_site_type_symbol
 _atom_site_label
 _atom_site_symmetry_multiplicity
 _atom_site_fract_x
 _atom_site_fract_y
 _atom_site_fract_z
 _atom_site_occupancy
  Dy  Dy0  1  0.332536  0.663763  0.500000  1
  Dy  Dy1  1  0.668772  0.336237  0.500000  1
  Dy  Dy2  1  0.813554  0.000000  0.000000  1
  Y  Y3  1  0.999959  0.811339  0.000000  1
  Y  Y4  1  0.188621  0.188661  0.000000  1
  Mn  Mn5  1  0.999715  0.457863  0.500000  1
  Mn  Mn6  1  0.541851  0.542137  0.500000  1
  P  P7  1  0.999812  0.634994  0.500000  1
  P  P8  1  0.364818  0.365006  0.500000  1
  P  P9  1  0.643487  0.000000  0.500000  1
  P  P10  1  0.515611  0.683967  0.000000  1
  P  P11  1  0.309186  0.824756  0.000000  1
  P  P12  1  0.166788  0.481227  0.000000  1
  P  P13  1  0.484430  0.175244  0.000000  1
  P  P14  1  0.685560  0.518773  0.000000  1
  P  P15  1  0.831643  0.316033  0.000000  1
  P  P16  1  0.999741  0.177967  0.500000  1
  P  P17  1  0.821773  0.822033  0.500000  1
  P  P18  1  0.179062  0.000000  0.500000  1
  Ir  Ir19  1  0.505907  0.866144  0.000000  1
  Ir  Ir20  1  0.129488  0.638385  0.000000  1
  Ir  Ir21  1  0.358539  0.491727  0.000000  1
  Ir  Ir22  1  0.491104  0.361615  0.000000  1
  Ir  Ir23  1  0.866813  0.508273  0.000000  1
  Ir  Ir24  1  0.639764  0.133856  0.000000  1
  Ir  Ir25  1  0.462360  0.000000  0.500000  1
  Ir  Ir26  1  0.998121  0.282717  0.000000  1
  Ir  Ir27  1  0.715404  0.717283  0.000000  1
  Ir  Ir28  1  0.287201  0.000000  0.000000  1
  Ir  Ir29  1  0.622130  0.804039  0.500000  1
  Ir  Ir30  1  0.198382  0.821544  0.500000  1
  Ir  Ir31  1  0.178091  0.373582  0.500000  1
  Ir  Ir32  1  0.376838  0.178456  0.500000  1
  Ir  Ir33  1  0.804509  0.626418  0.500000  1
  Ir  Ir34  1  0.818091  0.195961  0.500000  1
  Ir  Ir35  1  0.000339  0.000000  0.500000  1
