# generated using pymatgen
data_Lu8Sc4InCo4Hg
_symmetry_space_group_name_H-M   'P 1'
_cell_length_a   8.04627338
_cell_length_b   8.04627454
_cell_length_c   8.04627389
_cell_angle_alpha   111.05417919
_cell_angle_beta   110.56345128
_cell_angle_gamma   106.82832453
_symmetry_Int_Tables_number   1
_chemical_formula_structural   Lu8Sc4InCo4Hg
_chemical_formula_sum   'Lu8 Sc4 In1 Co4 Hg1'
_cell_volume   400.37282543
_cell_formula_units_Z   1
loop_
 _symmetry_equiv_pos_site_id
 _symmetry_equiv_pos_as_xyz
  1  'x, y, z'
loop_
 _atom_site_type_symbol
 _atom_site_label
 _atom_site_symmetry_multiplicity
 _atom_site_fract_x
 _atom_site_fract_y
 _atom_site_fract_z
 _atom_site_occupancy
  Lu  Lu0  1  0.192356  0.289264  0.481621  1
  Lu  Lu1  1  0.807644  0.710736  0.518379  1
  Lu  Lu2  1  0.192356  0.710736  0.903094  1
  Lu  Lu3  1  0.807644  0.289264  0.096906  1
  Lu  Lu4  1  0.312970  0.612090  0.299118  1
  Lu  Lu5  1  0.687030  0.387910  0.700882  1
  Lu  Lu6  1  0.312970  0.013851  0.700882  1
  Lu  Lu7  1  0.687030  0.986149  0.299118  1
  Sc  Sc8  1  0.439465  0.225704  0.213761  1
  Sc  Sc9  1  0.560535  0.774296  0.786239  1
  Sc  Sc10  1  0.011944  0.225704  0.786239  1
  Sc  Sc11  1  0.988056  0.774296  0.213761  1
  In  In12  1  0.500000  0.500000  0.000000  1
  Co  Co13  1  0.373292  0.000000  0.373292  1
  Co  Co14  1  0.626708  0.000000  0.626708  1
  Co  Co15  1  0.114925  0.614925  0.500000  1
  Co  Co16  1  0.885075  0.385075  0.500000  1
  Hg  Hg17  1  0.000000  0.000000  0.000000  1
