# generated using pymatgen
data_Nd4Al3(Ga5Ir2)3
_symmetry_space_group_name_H-M   'P 1'
_cell_length_a   7.66184651
_cell_length_b   7.66184649
_cell_length_c   9.62843601
_cell_angle_alpha   89.99766592
_cell_angle_beta   89.99766584
_cell_angle_gamma   119.60687335
_symmetry_Int_Tables_number   1
_chemical_formula_structural   Nd4Al3(Ga5Ir2)3
_chemical_formula_sum   'Nd4 Al3 Ga15 Ir6'
_cell_volume   491.42822202
_cell_formula_units_Z   1
loop_
 _symmetry_equiv_pos_site_id
 _symmetry_equiv_pos_as_xyz
  1  'x, y, z'
loop_
 _atom_site_type_symbol
 _atom_site_label
 _atom_site_symmetry_multiplicity
 _atom_site_fract_x
 _atom_site_fract_y
 _atom_site_fract_z
 _atom_site_occupancy
  Nd  Nd0  1  0.000103  0.669906  0.250108  1
  Nd  Nd1  1  0.999838  0.330565  0.748977  1
  Nd  Nd2  1  0.669906  0.000103  0.250108  1
  Nd  Nd3  1  0.330565  0.999838  0.748977  1
  Al  Al4  1  0.663764  0.663764  0.453709  1
  Al  Al5  1  0.667832  0.667832  0.046180  1
  Al  Al6  1  0.332225  0.332225  0.952749  1
  Ga  Ga7  1  0.126860  0.126860  0.249513  1
  Ga  Ga8  1  0.873331  0.873331  0.749221  1
  Ga  Ga9  1  0.002227  0.335459  0.077793  1
  Ga  Ga10  1  0.998558  0.665088  0.921173  1
  Ga  Ga11  1  0.997698  0.664688  0.578100  1
  Ga  Ga12  1  0.335889  0.003871  0.420289  1
  Ga  Ga13  1  0.003871  0.335889  0.420289  1
  Ga  Ga14  1  0.664688  0.997698  0.578100  1
  Ga  Ga15  1  0.665088  0.998558  0.921173  1
  Ga  Ga16  1  0.335459  0.002227  0.077793  1
  Ga  Ga17  1  0.329436  0.329436  0.560717  1
  Ga  Ga18  1  0.348797  0.549566  0.249923  1
  Ga  Ga19  1  0.654642  0.451548  0.750167  1
  Ga  Ga20  1  0.549566  0.348797  0.249923  1
  Ga  Ga21  1  0.451548  0.654642  0.750167  1
  Ir  Ir22  1  0.668315  0.331902  0.999716  1
  Ir  Ir23  1  0.331902  0.668315  0.999716  1
  Ir  Ir24  1  0.331556  0.671351  0.499101  1
  Ir  Ir25  1  0.671351  0.331556  0.499101  1
  Ir  Ir26  1  0.999773  0.999773  0.999354  1
  Ir  Ir27  1  0.995211  0.995211  0.497860  1
