# generated using pymatgen
data_Tb12CoTcNi3Bi
_symmetry_space_group_name_H-M   'P 1'
_cell_length_a   8.40141309
_cell_length_b   8.40141482
_cell_length_c   8.40141284
_cell_angle_alpha   111.56265294
_cell_angle_beta   109.49857827
_cell_angle_gamma   107.37942711
_symmetry_Int_Tables_number   1
_chemical_formula_structural   Tb12CoTcNi3Bi
_chemical_formula_sum   'Tb12 Co1 Tc1 Ni3 Bi1'
_cell_volume   455.88597433
_cell_formula_units_Z   1
loop_
 _symmetry_equiv_pos_site_id
 _symmetry_equiv_pos_as_xyz
  1  'x, y, z'
loop_
 _atom_site_type_symbol
 _atom_site_label
 _atom_site_symmetry_multiplicity
 _atom_site_fract_x
 _atom_site_fract_y
 _atom_site_fract_z
 _atom_site_occupancy
  Tb  Tb0  1  0.818219  0.712049  0.533118  1
  Tb  Tb1  1  0.178931  0.285101  0.466882  1
  Tb  Tb2  1  0.178931  0.712049  0.893831  1
  Tb  Tb3  1  0.818219  0.285101  0.106169  1
  Tb  Tb4  1  0.687629  0.377477  0.689847  1
  Tb  Tb5  1  0.316322  0.624564  0.308242  1
  Tb  Tb6  1  0.687629  0.997782  0.310153  1
  Tb  Tb7  1  0.316322  0.008080  0.691758  1
  Tb  Tb8  1  0.593528  0.785979  0.807550  1
  Tb  Tb9  1  0.406236  0.213390  0.192845  1
  Tb  Tb10  1  0.978429  0.785979  0.192450  1
  Tb  Tb11  1  0.020546  0.213390  0.807155  1
  Co  Co12  1  0.885262  0.385262  0.500000  1
  Tc  Tc13  1  0.998918  0.998918  0.000000  1
  Ni  Ni14  1  0.632806  0.999187  0.633620  1
  Ni  Ni15  1  0.365567  0.999187  0.366380  1
  Ni  Ni16  1  0.116679  0.616679  0.500000  1
  Bi  Bi17  1  0.499826  0.499826  0.000000  1
