# generated using pymatgen
data_Eu4InAg4Sn3
_symmetry_space_group_name_H-M   'P 1'
_cell_length_a   4.94655900
_cell_length_b   8.03011860
_cell_length_c   8.33414400
_cell_angle_alpha   89.92119269
_cell_angle_beta   90.00000000
_cell_angle_gamma   90.00000000
_symmetry_Int_Tables_number   1
_chemical_formula_structural   Eu4InAg4Sn3
_chemical_formula_sum   'Eu4 In1 Ag4 Sn3'
_cell_volume   331.04401615
_cell_formula_units_Z   1
loop_
 _symmetry_equiv_pos_site_id
 _symmetry_equiv_pos_as_xyz
  1  'x, y, z'
loop_
 _atom_site_type_symbol
 _atom_site_label
 _atom_site_symmetry_multiplicity
 _atom_site_fract_x
 _atom_site_fract_y
 _atom_site_fract_z
 _atom_site_occupancy
  Eu  Eu0  1  0.250000  0.496381  0.205404  1
  Eu  Eu1  1  0.750000  0.505693  0.795128  1
  Eu  Eu2  1  0.250000  0.991967  0.289808  1
  Eu  Eu3  1  0.750000  0.003556  0.711216  1
  In  In4  1  0.250000  0.301319  0.588668  1
  Ag  Ag5  1  0.750000  0.309129  0.418355  1
  Ag  Ag6  1  0.250000  0.191392  0.917267  1
  Ag  Ag7  1  0.750000  0.811248  0.082144  1
  Ag  Ag8  1  0.250000  0.694587  0.581422  1
  Sn  Sn9  1  0.750000  0.199712  0.090907  1
  Sn  Sn10  1  0.250000  0.798598  0.907880  1
  Sn  Sn11  1  0.750000  0.696419  0.411800  1
