# generated using pymatgen
data_Na10ZrSiAs6
_symmetry_space_group_name_H-M   'P 1'
_cell_length_a   7.56388700
_cell_length_b   8.41370180
_cell_length_c   15.92977557
_cell_angle_alpha   59.02895671
_cell_angle_beta   90.00000000
_cell_angle_gamma   90.00000000
_symmetry_Int_Tables_number   1
_chemical_formula_structural   Na10ZrSiAs6
_chemical_formula_sum   'Na20 Zr2 Si2 As12'
_cell_volume   869.23900608
_cell_formula_units_Z   2
loop_
 _symmetry_equiv_pos_site_id
 _symmetry_equiv_pos_as_xyz
  1  'x, y, z'
loop_
 _atom_site_type_symbol
 _atom_site_label
 _atom_site_symmetry_multiplicity
 _atom_site_fract_x
 _atom_site_fract_y
 _atom_site_fract_z
 _atom_site_occupancy
  Na  Na0  1  0.512398  0.560876  0.754025  1
  Na  Na1  1  0.012398  0.439124  0.745975  1
  Na  Na2  1  0.489162  0.438253  0.239816  1
  Na  Na3  1  0.989162  0.561747  0.260184  1
  Na  Na4  1  0.975314  0.255645  0.582728  1
  Na  Na5  1  0.475314  0.744355  0.917272  1
  Na  Na6  1  0.033718  0.758680  0.416318  1
  Na  Na7  1  0.533718  0.241320  0.083682  1
  Na  Na8  1  0.478437  0.078056  0.589715  1
  Na  Na9  1  0.978437  0.921944  0.910285  1
  Na  Na10  1  0.514574  0.919015  0.411618  1
  Na  Na11  1  0.014574  0.080985  0.088382  1
  Na  Na12  1  0.340637  0.160191  0.915905  1
  Na  Na13  1  0.840637  0.839809  0.584095  1
  Na  Na14  1  0.661318  0.850460  0.079660  1
  Na  Na15  1  0.161318  0.149540  0.420340  1
  Na  Na16  1  0.151690  0.835352  0.739320  1
  Na  Na17  1  0.651690  0.164648  0.760680  1
  Na  Na18  1  0.849496  0.164095  0.258322  1
  Na  Na19  1  0.349496  0.835905  0.241678  1
  Zr  Zr20  1  0.135323  0.489375  0.079080  1
  Zr  Zr21  1  0.635323  0.510625  0.420920  1
  Si  Si22  1  0.864247  0.513555  0.917384  1
  Si  Si23  1  0.364247  0.486445  0.582616  1
  As  As24  1  0.243230  0.755365  0.580221  1
  As  As25  1  0.743230  0.244635  0.919779  1
  As  As26  1  0.762079  0.219198  0.422825  1
  As  As27  1  0.262079  0.780802  0.077175  1
  As  As28  1  0.270662  0.194427  0.720195  1
  As  As29  1  0.770662  0.805573  0.779805  1
  As  As30  1  0.737444  0.821887  0.268344  1
  As  As31  1  0.237444  0.178113  0.231656  1
  As  As32  1  0.191530  0.478563  0.919939  1
  As  As33  1  0.691530  0.521437  0.580061  1
  As  As34  1  0.788742  0.522670  0.065659  1
  As  As35  1  0.288742  0.477330  0.434341  1
