# generated using pymatgen
data_Ac3YAu5
_symmetry_space_group_name_H-M   'P 1'
_cell_length_a   8.53621735
_cell_length_b   8.53621655
_cell_length_c   8.53621614
_cell_angle_alpha   65.85518862
_cell_angle_beta   65.85518772
_cell_angle_gamma   65.85516726
_symmetry_Int_Tables_number   1
_chemical_formula_structural   Ac3YAu5
_chemical_formula_sum   'Ac6 Y2 Au10'
_cell_volume   495.63126697
_cell_formula_units_Z   2
loop_
 _symmetry_equiv_pos_site_id
 _symmetry_equiv_pos_as_xyz
  1  'x, y, z'
loop_
 _atom_site_type_symbol
 _atom_site_label
 _atom_site_symmetry_multiplicity
 _atom_site_fract_x
 _atom_site_fract_y
 _atom_site_fract_z
 _atom_site_occupancy
  Ac  Ac0  1  0.890849  0.185186  0.625607  1
  Ac  Ac1  1  0.625607  0.890849  0.185186  1
  Ac  Ac2  1  0.185186  0.625607  0.890849  1
  Ac  Ac3  1  0.109151  0.814814  0.374393  1
  Ac  Ac4  1  0.374393  0.109151  0.814814  1
  Ac  Ac5  1  0.814814  0.374393  0.109151  1
  Y  Y6  1  0.657009  0.657009  0.657009  1
  Y  Y7  1  0.342991  0.342991  0.342991  1
  Au  Au8  1  0.000000  0.000000  0.000000  1
  Au  Au9  1  0.500000  0.500000  0.500000  1
  Au  Au10  1  0.802846  0.802846  0.802846  1
  Au  Au11  1  0.197154  0.197154  0.197154  1
  Au  Au12  1  0.941706  0.545684  0.326241  1
  Au  Au13  1  0.326241  0.941706  0.545684  1
  Au  Au14  1  0.545684  0.326241  0.941706  1
  Au  Au15  1  0.058294  0.454316  0.673759  1
  Au  Au16  1  0.673759  0.058294  0.454316  1
  Au  Au17  1  0.454316  0.673759  0.058294  1
