# generated using pymatgen
data_Er8Ta4Ti8Si15As
_symmetry_space_group_name_H-M   'P 1'
_cell_length_a   7.02031931
_cell_length_b   7.01909101
_cell_length_c   12.91080296
_cell_angle_alpha   89.99198066
_cell_angle_beta   89.91872403
_cell_angle_gamma   89.96627372
_symmetry_Int_Tables_number   1
_chemical_formula_structural   Er8Ta4Ti8Si15As
_chemical_formula_sum   'Er8 Ta4 Ti8 Si15 As1'
_cell_volume   636.19532855
_cell_formula_units_Z   1
loop_
 _symmetry_equiv_pos_site_id
 _symmetry_equiv_pos_as_xyz
  1  'x, y, z'
loop_
 _atom_site_type_symbol
 _atom_site_label
 _atom_site_symmetry_multiplicity
 _atom_site_fract_x
 _atom_site_fract_y
 _atom_site_fract_z
 _atom_site_occupancy
  Er  Er0  1  0.341232  0.000424  0.466162  1
  Er  Er1  1  0.498594  0.841942  0.717981  1
  Er  Er2  1  0.501168  0.158606  0.216843  1
  Er  Er3  1  0.840399  0.497988  0.282781  1
  Er  Er4  1  0.159020  0.500491  0.782969  1
  Er  Er5  1  0.660946  0.996261  0.968014  1
  Er  Er6  1  0.998324  0.343463  0.531616  1
  Er  Er7  1  0.999203  0.659285  0.033010  1
  Ta  Ta8  1  0.326557  0.327267  0.999938  1
  Ta  Ta9  1  0.172548  0.827550  0.249892  1
  Ta  Ta10  1  0.823913  0.173822  0.750092  1
  Ta  Ta11  1  0.672586  0.672834  0.500114  1
  Ti  Ti12  1  0.154640  0.009531  0.874634  1
  Ti  Ti13  1  0.491518  0.652404  0.124681  1
  Ti  Ti14  1  0.509167  0.347444  0.626029  1
  Ti  Ti15  1  0.655059  0.494453  0.875860  1
  Ti  Ti16  1  0.346461  0.508228  0.375261  1
  Ti  Ti17  1  0.846657  0.991768  0.374891  1
  Ti  Ti18  1  0.008447  0.151954  0.125119  1
  Ti  Ti19  1  0.988846  0.843315  0.623764  1
  Si  Si20  1  0.368954  0.703582  0.932992  1
  Si  Si21  1  0.629355  0.297084  0.433745  1
  Si  Si22  1  0.703690  0.368918  0.066967  1
  Si  Si23  1  0.296707  0.631057  0.566652  1
  Si  Si24  1  0.796991  0.868688  0.183655  1
  Si  Si25  1  0.130499  0.202969  0.316685  1
  Si  Si26  1  0.870234  0.797346  0.816270  1
  Si  Si27  1  0.293096  0.953711  0.063730  1
  Si  Si28  1  0.546122  0.792192  0.313739  1
  Si  Si29  1  0.462251  0.209269  0.818905  1
  Si  Si30  1  0.792397  0.546579  0.686166  1
  Si  Si31  1  0.207199  0.453417  0.186186  1
  Si  Si32  1  0.706628  0.046250  0.563757  1
  Si  Si33  1  0.954281  0.292734  0.936077  1
  Si  Si34  1  0.045691  0.707507  0.435293  1
  As  As35  1  0.200617  0.129669  0.679529  1
