# generated using pymatgen
data_Cs7V4F15
_symmetry_space_group_name_H-M   'P 1'
_cell_length_a   8.15690844
_cell_length_b   11.32366300
_cell_length_c   11.92796700
_cell_angle_alpha   90.00000000
_cell_angle_beta   92.47033453
_cell_angle_gamma   90.00000000
_symmetry_Int_Tables_number   1
_chemical_formula_structural   Cs7V4F15
_chemical_formula_sum   'Cs14 V8 F30'
_cell_volume   1100.71570457
_cell_formula_units_Z   2
loop_
 _symmetry_equiv_pos_site_id
 _symmetry_equiv_pos_as_xyz
  1  'x, y, z'
loop_
 _atom_site_type_symbol
 _atom_site_label
 _atom_site_symmetry_multiplicity
 _atom_site_fract_x
 _atom_site_fract_y
 _atom_site_fract_z
 _atom_site_occupancy
  Cs  Cs0  1  0.498540  0.319002  0.530658  1
  Cs  Cs1  1  0.501460  0.680998  0.469342  1
  Cs  Cs2  1  0.498540  0.180998  0.030658  1
  Cs  Cs3  1  0.838018  0.652734  0.199132  1
  Cs  Cs4  1  0.329870  0.003614  0.667145  1
  Cs  Cs5  1  0.161982  0.347266  0.800868  1
  Cs  Cs6  1  0.670130  0.996386  0.332855  1
  Cs  Cs7  1  0.000000  0.000000  0.000000  1
  Cs  Cs8  1  0.838018  0.847266  0.699132  1
  Cs  Cs9  1  0.670130  0.503614  0.832855  1
  Cs  Cs10  1  0.501460  0.819002  0.969342  1
  Cs  Cs11  1  0.000000  0.500000  0.500000  1
  Cs  Cs12  1  0.161982  0.152734  0.300868  1
  Cs  Cs13  1  0.329870  0.496386  0.167145  1
  V  V14  1  0.261924  0.827215  0.227256  1
  V  V15  1  0.074771  0.662873  0.930094  1
  V  V16  1  0.925229  0.162873  0.569906  1
  V  V17  1  0.738076  0.172785  0.772744  1
  V  V18  1  0.074771  0.837127  0.430094  1
  V  V19  1  0.925229  0.337127  0.069906  1
  V  V20  1  0.261924  0.672785  0.727256  1
  V  V21  1  0.738076  0.327215  0.272744  1
  F  F22  1  0.665978  0.474956  0.364268  1
  F  F23  1  0.170904  0.810159  0.836999  1
  F  F24  1  0.665978  0.025044  0.864268  1
  F  F25  1  0.686115  0.407825  0.109161  1
  F  F26  1  0.156461  0.237166  0.550786  1
  F  F27  1  0.313885  0.592175  0.890839  1
  F  F28  1  0.829096  0.310159  0.663001  1
  F  F29  1  0.979530  0.397966  0.239494  1
  F  F30  1  0.494744  0.750262  0.717799  1
  F  F31  1  0.979530  0.102034  0.739494  1
  F  F32  1  0.829096  0.189841  0.163001  1
  F  F33  1  0.313885  0.907825  0.390839  1
  F  F34  1  0.169009  0.732480  0.084421  1
  F  F35  1  0.020470  0.602034  0.760506  1
  F  F36  1  0.505256  0.250262  0.782201  1
  F  F37  1  0.830991  0.232480  0.415579  1
  F  F38  1  0.020470  0.897966  0.260506  1
  F  F39  1  0.830991  0.267520  0.915579  1
  F  F40  1  0.334022  0.974956  0.135732  1
  F  F41  1  0.686115  0.092175  0.609161  1
  F  F42  1  0.156461  0.262834  0.050786  1
  F  F43  1  0.843539  0.762834  0.449214  1
  F  F44  1  0.170904  0.689841  0.336999  1
  F  F45  1  0.843539  0.737166  0.949214  1
  F  F46  1  0.505256  0.249738  0.282201  1
  F  F47  1  0.334022  0.525044  0.635732  1
  F  F48  1  0.494744  0.749738  0.217799  1
  F  F49  1  0.169009  0.767520  0.584421  1
  F  F50  1  0.000000  0.000000  0.500000  1
  F  F51  1  0.000000  0.500000  0.000000  1
