# generated using pymatgen
data_SrCaTbNd(Al3Pd)6
_symmetry_space_group_name_H-M   'P 1'
_cell_length_a   7.69851482
_cell_length_b   7.69202629
_cell_length_c   9.59359400
_cell_angle_alpha   90.00000000
_cell_angle_beta   90.00000000
_cell_angle_gamma   119.52799827
_symmetry_Int_Tables_number   1
_chemical_formula_structural   SrCaTbNd(Al3Pd)6
_chemical_formula_sum   'Sr1 Ca1 Tb1 Nd1 Al18 Pd6'
_cell_volume   494.31715538
_cell_formula_units_Z   1
loop_
 _symmetry_equiv_pos_site_id
 _symmetry_equiv_pos_as_xyz
  1  'x, y, z'
loop_
 _atom_site_type_symbol
 _atom_site_label
 _atom_site_symmetry_multiplicity
 _atom_site_fract_x
 _atom_site_fract_y
 _atom_site_fract_z
 _atom_site_occupancy
  Sr  Sr0  1  0.670700  0.994942  0.250000  1
  Ca  Ca1  1  0.003413  0.329239  0.750000  1
  Tb  Tb2  1  0.330996  0.003544  0.750000  1
  Nd  Nd3  1  0.994008  0.667982  0.250000  1
  Al  Al4  1  0.137308  0.132753  0.250000  1
  Al  Al5  1  0.871873  0.867897  0.750000  1
  Al  Al6  1  0.004808  0.335938  0.069962  1
  Al  Al7  1  0.000074  0.664795  0.921154  1
  Al  Al8  1  0.000074  0.664795  0.578846  1
  Al  Al9  1  0.333490  0.002987  0.429767  1
  Al  Al10  1  0.004808  0.335938  0.430038  1
  Al  Al11  1  0.665533  0.999947  0.580582  1
  Al  Al12  1  0.665533  0.999947  0.919418  1
  Al  Al13  1  0.333490  0.002987  0.070233  1
  Al  Al14  1  0.331918  0.331692  0.562643  1
  Al  Al15  1  0.664695  0.663842  0.454573  1
  Al  Al16  1  0.664695  0.663842  0.045427  1
  Al  Al17  1  0.331918  0.331692  0.937357  1
  Al  Al18  1  0.335057  0.542736  0.250000  1
  Al  Al19  1  0.656870  0.452397  0.750000  1
  Al  Al20  1  0.545006  0.346298  0.250000  1
  Al  Al21  1  0.453356  0.663444  0.750000  1
  Pd  Pd22  1  0.670536  0.327974  0.997439  1
  Pd  Pd23  1  0.328365  0.671299  0.997240  1
  Pd  Pd24  1  0.328365  0.671299  0.502760  1
  Pd  Pd25  1  0.670536  0.327974  0.502561  1
  Pd  Pd26  1  0.001288  0.000909  0.997045  1
  Pd  Pd27  1  0.001288  0.000909  0.502955  1
