# generated using pymatgen
data_Ce2CoNi2Ru
_symmetry_space_group_name_H-M   'P 1'
_cell_length_a   5.04754022
_cell_length_b   5.04754048
_cell_length_c   5.24541806
_cell_angle_alpha   60.71999954
_cell_angle_beta   60.71999466
_cell_angle_gamma   59.00591407
_symmetry_Int_Tables_number   1
_chemical_formula_structural   Ce2CoNi2Ru
_chemical_formula_sum   'Ce2 Co1 Ni2 Ru1'
_cell_volume   94.76092621
_cell_formula_units_Z   1
loop_
 _symmetry_equiv_pos_site_id
 _symmetry_equiv_pos_as_xyz
  1  'x, y, z'
loop_
 _atom_site_type_symbol
 _atom_site_label
 _atom_site_symmetry_multiplicity
 _atom_site_fract_x
 _atom_site_fract_y
 _atom_site_fract_z
 _atom_site_occupancy
  Ce  Ce0  1  0.626370  0.626370  0.623880  1
  Ce  Ce1  1  0.373630  0.373630  0.376120  1
  Co  Co2  1  0.000000  0.000000  0.000000  1
  Ni  Ni3  1  0.000000  0.500000  0.000000  1
  Ni  Ni4  1  0.500000  0.000000  0.000000  1
  Ru  Ru5  1  0.000000  0.000000  0.500000  1
