# generated using pymatgen
data_Y2Co9Ge(As2Ru)3
_symmetry_space_group_name_H-M   'P 1'
_cell_length_a   3.80207800
_cell_length_b   9.37653244
_cell_length_c   9.37653100
_cell_angle_alpha   120.00000360
_cell_angle_beta   90.00000000
_cell_angle_gamma   90.00000000
_symmetry_Int_Tables_number   1
_chemical_formula_structural   Y2Co9Ge(As2Ru)3
_chemical_formula_sum   'Y2 Co9 Ge1 As6 Ru3'
_cell_volume   289.49168396
_cell_formula_units_Z   1
loop_
 _symmetry_equiv_pos_site_id
 _symmetry_equiv_pos_as_xyz
  1  'x, y, z'
loop_
 _atom_site_type_symbol
 _atom_site_label
 _atom_site_symmetry_multiplicity
 _atom_site_fract_x
 _atom_site_fract_y
 _atom_site_fract_z
 _atom_site_occupancy
  Y  Y0  1  0.000000  0.666667  0.333333  1
  Y  Y1  1  0.500000  0.333333  0.666667  1
  Co  Co2  1  0.000000  0.568713  0.940856  1
  Co  Co3  1  0.000000  0.372143  0.431287  1
  Co  Co4  1  0.000000  0.059144  0.627857  1
  Co  Co5  1  0.000000  0.874166  0.160983  1
  Co  Co6  1  0.000000  0.286817  0.125834  1
  Co  Co7  1  0.000000  0.839017  0.713183  1
  Co  Co8  1  0.500000  0.947313  0.383397  1
  Co  Co9  1  0.500000  0.436083  0.052687  1
  Co  Co10  1  0.500000  0.616603  0.563917  1
  Ge  Ge11  1  0.000000  0.000000  0.000000  1
  As  As12  1  0.500000  0.708311  0.116145  1
  As  As13  1  0.500000  0.407834  0.291689  1
  As  As14  1  0.500000  0.883855  0.592166  1
  As  As15  1  0.000000  0.588633  0.702339  1
  As  As16  1  0.000000  0.113707  0.411367  1
  As  As17  1  0.000000  0.297661  0.886293  1
  Ru  Ru18  1  0.500000  0.782191  0.899783  1
  Ru  Ru19  1  0.500000  0.117592  0.217809  1
  Ru  Ru20  1  0.500000  0.100217  0.882408  1
