# generated using pymatgen
data_Ca3ErTi4O12
_symmetry_space_group_name_H-M   'P 1'
_cell_length_a   5.38407529
_cell_length_b   5.54281422
_cell_length_c   7.68327700
_cell_angle_alpha   90.00000000
_cell_angle_beta   90.00000000
_cell_angle_gamma   89.80081182
_symmetry_Int_Tables_number   1
_chemical_formula_structural   Ca3ErTi4O12
_chemical_formula_sum   'Ca3 Er1 Ti4 O12'
_cell_volume   229.29010478
_cell_formula_units_Z   1
loop_
 _symmetry_equiv_pos_site_id
 _symmetry_equiv_pos_as_xyz
  1  'x, y, z'
loop_
 _atom_site_type_symbol
 _atom_site_label
 _atom_site_symmetry_multiplicity
 _atom_site_fract_x
 _atom_site_fract_y
 _atom_site_fract_z
 _atom_site_occupancy
  Ca  Ca0  1  0.491270  0.455408  0.250000  1
  Ca  Ca1  1  0.989445  0.048980  0.750000  1
  Ca  Ca2  1  0.011629  0.950946  0.250000  1
  Er  Er3  1  0.514178  0.562830  0.750000  1
  Ti  Ti4  1  0.003284  0.498621  0.498989  1
  Ti  Ti5  1  0.003284  0.498621  0.001011  1
  Ti  Ti6  1  0.497634  0.003411  0.498926  1
  Ti  Ti7  1  0.497634  0.003411  0.001074  1
  O  O8  1  0.102597  0.476055  0.750000  1
  O  O9  1  0.921830  0.521361  0.250000  1
  O  O10  1  0.416206  0.968734  0.750000  1
  O  O11  1  0.583610  0.024699  0.250000  1
  O  O12  1  0.787668  0.785315  0.949391  1
  O  O13  1  0.201478  0.203614  0.457679  1
  O  O14  1  0.201478  0.203614  0.042321  1
  O  O15  1  0.787668  0.785315  0.550609  1
  O  O16  1  0.697431  0.300360  0.947072  1
  O  O17  1  0.297122  0.704172  0.461942  1
  O  O18  1  0.297122  0.704172  0.038058  1
  O  O19  1  0.697431  0.300360  0.552928  1
