# generated using pymatgen
data_NdSm3(In2Br5)4
_symmetry_space_group_name_H-M   'P 1'
_cell_length_a   8.63674995
_cell_length_b   9.15477300
_cell_length_c   13.52834106
_cell_angle_alpha   90.00000000
_cell_angle_beta   89.92298790
_cell_angle_gamma   90.00000000
_symmetry_Int_Tables_number   1
_chemical_formula_structural   NdSm3(In2Br5)4
_chemical_formula_sum   'Nd1 Sm3 In8 Br20'
_cell_volume   1069.65094065
_cell_formula_units_Z   1
loop_
 _symmetry_equiv_pos_site_id
 _symmetry_equiv_pos_as_xyz
  1  'x, y, z'
loop_
 _atom_site_type_symbol
 _atom_site_label
 _atom_site_symmetry_multiplicity
 _atom_site_fract_x
 _atom_site_fract_y
 _atom_site_fract_z
 _atom_site_occupancy
  Nd  Nd0  1  0.923919  0.750000  0.505961  1
  Sm  Sm1  1  0.575622  0.750000  0.005627  1
  Sm  Sm2  1  0.075735  0.250000  0.494398  1
  Sm  Sm3  1  0.424404  0.250000  0.994438  1
  In  In4  1  0.941045  0.006481  0.828938  1
  In  In5  1  0.058976  0.993565  0.171086  1
  In  In6  1  0.558845  0.493454  0.328799  1
  In  In7  1  0.058976  0.506435  0.171086  1
  In  In8  1  0.941045  0.493519  0.828938  1
  In  In9  1  0.441018  0.506384  0.671189  1
  In  In10  1  0.558845  0.006546  0.328799  1
  In  In11  1  0.441018  0.993616  0.671189  1
  Br  Br12  1  0.577733  0.750000  0.506194  1
  Br  Br13  1  0.169779  0.956585  0.428651  1
  Br  Br14  1  0.831162  0.047852  0.571316  1
  Br  Br15  1  0.332193  0.545080  0.929386  1
  Br  Br16  1  0.169779  0.543415  0.428651  1
  Br  Br17  1  0.345668  0.250000  0.203146  1
  Br  Br18  1  0.332193  0.954920  0.929386  1
  Br  Br19  1  0.831162  0.452148  0.571316  1
  Br  Br20  1  0.392098  0.750000  0.186012  1
  Br  Br21  1  0.667839  0.045098  0.070625  1
  Br  Br22  1  0.154385  0.250000  0.703103  1
  Br  Br23  1  0.607861  0.250000  0.814022  1
  Br  Br24  1  0.419305  0.250000  0.493789  1
  Br  Br25  1  0.110206  0.750000  0.688032  1
  Br  Br26  1  0.667839  0.454902  0.070625  1
  Br  Br27  1  0.080876  0.250000  0.993740  1
  Br  Br28  1  0.919118  0.750000  0.006187  1
  Br  Br29  1  0.844819  0.750000  0.294541  1
  Br  Br30  1  0.654418  0.750000  0.796795  1
  Br  Br31  1  0.892117  0.250000  0.314036  1
