# generated using pymatgen
data_Rb12Na8Sc(VP4)3
_symmetry_space_group_name_H-M   'P 1'
_cell_length_a   10.53733533
_cell_length_b   10.53733288
_cell_length_c   15.44865050
_cell_angle_alpha   89.99934996
_cell_angle_beta   89.99934489
_cell_angle_gamma   142.54976754
_symmetry_Int_Tables_number   1
_chemical_formula_structural   Rb12Na8Sc(VP4)3
_chemical_formula_sum   'Rb12 Na8 Sc1 V3 P12'
_cell_volume   1043.05477763
_cell_formula_units_Z   1
loop_
 _symmetry_equiv_pos_site_id
 _symmetry_equiv_pos_as_xyz
  1  'x, y, z'
loop_
 _atom_site_type_symbol
 _atom_site_label
 _atom_site_symmetry_multiplicity
 _atom_site_fract_x
 _atom_site_fract_y
 _atom_site_fract_z
 _atom_site_occupancy
  Rb  Rb0  1  0.945441  0.608026  0.822230  1
  Rb  Rb1  1  0.564118  0.892753  0.324672  1
  Rb  Rb2  1  0.391974  0.054559  0.177770  1
  Rb  Rb3  1  0.057579  0.396815  0.173173  1
  Rb  Rb4  1  0.893357  0.561645  0.326212  1
  Rb  Rb5  1  0.438355  0.106643  0.673788  1
  Rb  Rb6  1  0.603185  0.942421  0.826827  1
  Rb  Rb7  1  0.271128  0.272755  0.313014  1
  Rb  Rb8  1  0.777221  0.774862  0.182253  1
  Rb  Rb9  1  0.225138  0.222779  0.817747  1
  Rb  Rb10  1  0.727245  0.728872  0.686986  1
  Rb  Rb11  1  0.107247  0.435882  0.675328  1
  Na  Na12  1  0.920069  0.079931  0.000000  1
  Na  Na13  1  0.577836  0.422164  0.500000  1
  Na  Na14  1  0.080690  0.919310  0.000000  1
  Na  Na15  1  0.421638  0.578362  0.500000  1
  Na  Na16  1  0.753883  0.246117  0.000000  1
  Na  Na17  1  0.745270  0.254730  0.500000  1
  Na  Na18  1  0.244495  0.755505  0.000000  1
  Na  Na19  1  0.254288  0.745712  0.500000  1
  Sc  Sc20  1  0.585768  0.414232  0.000000  1
  V  V21  1  0.918926  0.081074  0.500000  1
  V  V22  1  0.416653  0.583347  0.000000  1
  V  V23  1  0.080366  0.919634  0.500000  1
  P  P24  1  0.877812  0.561206  0.100794  1
  P  P25  1  0.438794  0.122188  0.899206  1
  P  P26  1  0.650632  0.949781  0.587820  1
  P  P27  1  0.948919  0.651201  0.587567  1
  P  P28  1  0.153357  0.452429  0.910886  1
  P  P29  1  0.547571  0.846643  0.089114  1
  P  P30  1  0.348799  0.051081  0.412433  1
  P  P31  1  0.182337  0.183345  0.580830  1
  P  P32  1  0.682623  0.699584  0.916124  1
  P  P33  1  0.300416  0.317377  0.083876  1
  P  P34  1  0.050219  0.349368  0.412180  1
  P  P35  1  0.816655  0.817663  0.419170  1
