# generated using pymatgen
data_Th7ReOsAu
_symmetry_space_group_name_H-M   'P 1'
_cell_length_a   10.18391012
_cell_length_b   10.16170409
_cell_length_c   6.33129707
_cell_angle_alpha   90.00000688
_cell_angle_beta   89.96938697
_cell_angle_gamma   119.92789786
_symmetry_Int_Tables_number   1
_chemical_formula_structural   Th7ReOsAu
_chemical_formula_sum   'Th14 Re2 Os2 Au2'
_cell_volume   567.83142100
_cell_formula_units_Z   2
loop_
 _symmetry_equiv_pos_site_id
 _symmetry_equiv_pos_as_xyz
  1  'x, y, z'
loop_
 _atom_site_type_symbol
 _atom_site_label
 _atom_site_symmetry_multiplicity
 _atom_site_fract_x
 _atom_site_fract_y
 _atom_site_fract_z
 _atom_site_occupancy
  Th  Th0  1  0.455725  0.531934  0.282224  1
  Th  Th1  1  0.087528  0.543764  0.297576  1
  Th  Th2  1  0.909031  0.454516  0.797515  1
  Th  Th3  1  0.244968  0.122483  0.515716  1
  Th  Th4  1  0.546680  0.078944  0.782398  1
  Th  Th5  1  0.758170  0.879085  0.016573  1
  Th  Th6  1  0.675584  0.337791  0.301661  1
  Th  Th7  1  0.117945  0.857002  0.998508  1
  Th  Th8  1  0.455725  0.923791  0.282224  1
  Th  Th9  1  0.546680  0.467736  0.782398  1
  Th  Th10  1  0.883044  0.142299  0.502252  1
  Th  Th11  1  0.117945  0.260943  0.998508  1
  Th  Th12  1  0.883044  0.740744  0.502252  1
  Th  Th13  1  0.322514  0.661258  0.803726  1
  Re  Re14  1  0.803406  0.624670  0.051682  1
  Re  Re15  1  0.803406  0.178735  0.051682  1
  Os  Os16  1  0.195889  0.376813  0.549758  1
  Os  Os17  1  0.195889  0.819077  0.549758  1
  Au  Au18  1  0.625279  0.812639  0.559963  1
  Au  Au19  1  0.371552  0.185775  0.057623  1
