# generated using pymatgen
data_Nd3In3GeRh2
_symmetry_space_group_name_H-M   'P 1'
_cell_length_a   7.62866100
_cell_length_b   7.62866106
_cell_length_c   4.17137300
_cell_angle_alpha   90.00000000
_cell_angle_beta   90.00000000
_cell_angle_gamma   120.00000409
_symmetry_Int_Tables_number   1
_chemical_formula_structural   Nd3In3GeRh2
_chemical_formula_sum   'Nd3 In3 Ge1 Rh2'
_cell_volume   210.23560809
_cell_formula_units_Z   1
loop_
 _symmetry_equiv_pos_site_id
 _symmetry_equiv_pos_as_xyz
  1  'x, y, z'
loop_
 _atom_site_type_symbol
 _atom_site_label
 _atom_site_symmetry_multiplicity
 _atom_site_fract_x
 _atom_site_fract_y
 _atom_site_fract_z
 _atom_site_occupancy
  Nd  Nd0  1  0.593467  0.010053  0.500000  1
  Nd  Nd1  1  0.416586  0.406533  0.500000  1
  Nd  Nd2  1  0.989947  0.583414  0.500000  1
  In  In3  1  0.252261  0.009379  0.000000  1
  In  In4  1  0.757119  0.747739  0.000000  1
  In  In5  1  0.990621  0.242881  0.000000  1
  Ge  Ge6  1  0.333333  0.666667  0.000000  1
  Rh  Rh7  1  0.000000  0.000000  0.500000  1
  Rh  Rh8  1  0.666667  0.333333  0.000000  1
