# generated using pymatgen
data_Pr4Dy12Cd4RuPt3
_symmetry_space_group_name_H-M   'P 1'
_cell_length_a   9.76715141
_cell_length_b   9.76292668
_cell_length_c   9.76294316
_cell_angle_alpha   59.91390531
_cell_angle_beta   59.76902939
_cell_angle_gamma   59.76938317
_symmetry_Int_Tables_number   1
_chemical_formula_structural   Pr4Dy12Cd4RuPt3
_chemical_formula_sum   'Pr4 Dy12 Cd4 Ru1 Pt3'
_cell_volume   655.55399469
_cell_formula_units_Z   1
loop_
 _symmetry_equiv_pos_site_id
 _symmetry_equiv_pos_as_xyz
  1  'x, y, z'
loop_
 _atom_site_type_symbol
 _atom_site_label
 _atom_site_symmetry_multiplicity
 _atom_site_fract_x
 _atom_site_fract_y
 _atom_site_fract_z
 _atom_site_occupancy
  Pr  Pr0  1  0.565204  0.936120  0.565748  1
  Pr  Pr1  1  0.937853  0.560988  0.934438  1
  Pr  Pr2  1  0.565202  0.565749  0.936117  1
  Pr  Pr3  1  0.937864  0.934440  0.560973  1
  Dy  Dy4  1  0.352168  0.350927  0.350920  1
  Dy  Dy5  1  0.347163  0.349665  0.953273  1
  Dy  Dy6  1  0.347156  0.953285  0.349666  1
  Dy  Dy7  1  0.950444  0.347955  0.347962  1
  Dy  Dy8  1  0.818095  0.185799  0.185800  1
  Dy  Dy9  1  0.188214  0.811737  0.811736  1
  Dy  Dy10  1  0.187863  0.815962  0.188230  1
  Dy  Dy11  1  0.810569  0.185065  0.810529  1
  Dy  Dy12  1  0.187870  0.188227  0.815962  1
  Dy  Dy13  1  0.810567  0.810525  0.185069  1
  Dy  Dy14  1  0.941745  0.557115  0.557111  1
  Dy  Dy15  1  0.552138  0.944066  0.944071  1
  Cd  Cd16  1  0.583918  0.577517  0.577524  1
  Cd  Cd17  1  0.577578  0.584316  0.258400  1
  Cd  Cd18  1  0.577582  0.258394  0.584317  1
  Cd  Cd19  1  0.259533  0.577949  0.577950  1
  Ru  Ru20  1  0.145761  0.140905  0.140903  1
  Pt  Pt21  1  0.141445  0.147307  0.573193  1
  Pt  Pt22  1  0.141446  0.573189  0.147305  1
  Pt  Pt23  1  0.572620  0.142798  0.142797  1
