# generated using pymatgen
data_Pu2NiB10
_symmetry_space_group_name_H-M   'P 1'
_cell_length_a   4.12745800
_cell_length_b   5.56065800
_cell_length_c   11.06160200
_cell_angle_alpha   90.00000000
_cell_angle_beta   90.00000000
_cell_angle_gamma   90.00000000
_symmetry_Int_Tables_number   1
_chemical_formula_structural   Pu2NiB10
_chemical_formula_sum   'Pu4 Ni2 B20'
_cell_volume   253.87905688
_cell_formula_units_Z   2
loop_
 _symmetry_equiv_pos_site_id
 _symmetry_equiv_pos_as_xyz
  1  'x, y, z'
loop_
 _atom_site_type_symbol
 _atom_site_label
 _atom_site_symmetry_multiplicity
 _atom_site_fract_x
 _atom_site_fract_y
 _atom_site_fract_z
 _atom_site_occupancy
  Pu  Pu0  1  0.500000  0.317036  0.860598  1
  Pu  Pu1  1  0.500000  0.682964  0.139402  1
  Pu  Pu2  1  0.500000  0.817036  0.639402  1
  Pu  Pu3  1  0.500000  0.182964  0.360598  1
  Ni  Ni4  1  0.000000  0.500000  0.500000  1
  Ni  Ni5  1  0.000000  0.000000  0.000000  1
  B  B6  1  0.000000  0.125950  0.539927  1
  B  B7  1  0.000000  0.874050  0.460073  1
  B  B8  1  0.000000  0.625950  0.960073  1
  B  B9  1  0.000000  0.374050  0.039927  1
  B  B10  1  0.000000  0.157940  0.698046  1
  B  B11  1  0.000000  0.842060  0.301954  1
  B  B12  1  0.302134  0.200762  0.113608  1
  B  B13  1  0.302134  0.799238  0.886392  1
  B  B14  1  0.697866  0.700762  0.386392  1
  B  B15  1  0.697866  0.299238  0.613608  1
  B  B16  1  0.697866  0.799238  0.886392  1
  B  B17  1  0.697866  0.200762  0.113608  1
  B  B18  1  0.302134  0.299238  0.613608  1
  B  B19  1  0.302134  0.700762  0.386392  1
  B  B20  1  0.000000  0.029676  0.187088  1
  B  B21  1  0.000000  0.970324  0.812912  1
  B  B22  1  0.000000  0.529676  0.312912  1
  B  B23  1  0.000000  0.470324  0.687088  1
  B  B24  1  0.000000  0.342060  0.198046  1
  B  B25  1  0.000000  0.657940  0.801954  1
