# generated using pymatgen
data_Ho6Al24Ir5Os3
_symmetry_space_group_name_H-M   'P 1'
_cell_length_a   8.83034921
_cell_length_b   8.81648303
_cell_length_c   9.49740069
_cell_angle_alpha   90.00000042
_cell_angle_beta   89.77804395
_cell_angle_gamma   119.94807238
_symmetry_Int_Tables_number   1
_chemical_formula_structural   Ho6Al24Ir5Os3
_chemical_formula_sum   'Ho6 Al24 Ir5 Os3'
_cell_volume   640.66546967
_cell_formula_units_Z   1
loop_
 _symmetry_equiv_pos_site_id
 _symmetry_equiv_pos_as_xyz
  1  'x, y, z'
loop_
 _atom_site_type_symbol
 _atom_site_label
 _atom_site_symmetry_multiplicity
 _atom_site_fract_x
 _atom_site_fract_y
 _atom_site_fract_z
 _atom_site_occupancy
  Ho  Ho0  1  0.192116  0.388051  0.251236  1
  Ho  Ho1  1  0.807884  0.611949  0.748764  1
  Ho  Ho2  1  0.612057  0.806029  0.249883  1
  Ho  Ho3  1  0.387943  0.193971  0.750117  1
  Ho  Ho4  1  0.192116  0.804065  0.251236  1
  Ho  Ho5  1  0.807884  0.195935  0.748764  1
  Al  Al6  1  0.333412  0.666706  0.027666  1
  Al  Al7  1  0.666588  0.333294  0.972334  1
  Al  Al8  1  0.667568  0.333784  0.525531  1
  Al  Al9  1  0.332432  0.666216  0.474469  1
  Al  Al10  1  0.163071  0.327354  0.575469  1
  Al  Al11  1  0.836929  0.672646  0.424531  1
  Al  Al12  1  0.673884  0.836942  0.576027  1
  Al  Al13  1  0.836562  0.673230  0.075054  1
  Al  Al14  1  0.326116  0.163058  0.423973  1
  Al  Al15  1  0.163438  0.326770  0.924946  1
  Al  Al16  1  0.163071  0.835717  0.575469  1
  Al  Al17  1  0.325979  0.162990  0.076258  1
  Al  Al18  1  0.836929  0.164283  0.424531  1
  Al  Al19  1  0.674021  0.837010  0.923742  1
  Al  Al20  1  0.836562  0.163332  0.075054  1
  Al  Al21  1  0.163438  0.836668  0.924946  1
  Al  Al22  1  0.561527  0.123704  0.249544  1
  Al  Al23  1  0.438473  0.876296  0.750456  1
  Al  Al24  1  0.875098  0.437550  0.250462  1
  Al  Al25  1  0.124902  0.562450  0.749538  1
  Al  Al26  1  0.561527  0.437824  0.249544  1
  Al  Al27  1  0.438473  0.562176  0.750456  1
  Al  Al28  1  0.998646  0.999323  0.250010  1
  Al  Al29  1  0.001354  0.000677  0.749990  1
  Ir  Ir30  1  0.500000  0.000000  0.000000  1
  Ir  Ir31  1  0.000000  0.500000  0.000000  1
  Ir  Ir32  1  0.500000  0.000000  0.500000  1
  Ir  Ir33  1  0.500000  0.500000  0.000000  1
  Ir  Ir34  1  0.500000  0.500000  0.500000  1
  Os  Os35  1  0.000000  0.500000  0.500000  1
  Os  Os36  1  0.000000  0.000000  0.000000  1
  Os  Os37  1  0.000000  0.000000  0.500000  1
