# generated using pymatgen
data_Er4Mn3SiOs4
_symmetry_space_group_name_H-M   'P 1'
_cell_length_a   5.19905000
_cell_length_b   5.24323987
_cell_length_c   8.68325000
_cell_angle_alpha   90.00000000
_cell_angle_beta   90.00000000
_cell_angle_gamma   119.00355925
_symmetry_Int_Tables_number   1
_chemical_formula_structural   Er4Mn3SiOs4
_chemical_formula_sum   'Er4 Mn3 Si1 Os4'
_cell_volume   207.01905823
_cell_formula_units_Z   1
loop_
 _symmetry_equiv_pos_site_id
 _symmetry_equiv_pos_as_xyz
  1  'x, y, z'
loop_
 _atom_site_type_symbol
 _atom_site_label
 _atom_site_symmetry_multiplicity
 _atom_site_fract_x
 _atom_site_fract_y
 _atom_site_fract_z
 _atom_site_occupancy
  Er  Er0  1  0.338161  0.668832  0.438051  1
  Er  Er1  1  0.669777  0.336622  0.936544  1
  Er  Er2  1  0.669777  0.336622  0.563456  1
  Er  Er3  1  0.338161  0.668832  0.061949  1
  Mn  Mn4  1  0.650879  0.827091  0.750000  1
  Mn  Mn5  1  0.827215  0.660612  0.250000  1
  Mn  Mn6  1  0.158878  0.829671  0.750000  1
  Si  Si7  1  0.826293  0.165787  0.250000  1
  Os  Os8  1  0.168689  0.339143  0.750000  1
  Os  Os9  1  0.344727  0.168723  0.250000  1
  Os  Os10  1  0.003722  0.999033  0.000560  1
  Os  Os11  1  0.003722  0.999033  0.499440  1
