# generated using pymatgen
data_LiEr3Co7P6Ir
_symmetry_space_group_name_H-M   'P 1'
_cell_length_a   3.72299900
_cell_length_b   10.71469400
_cell_length_c   12.29486000
_cell_angle_alpha   90.00000000
_cell_angle_beta   90.00000000
_cell_angle_gamma   90.00000000
_symmetry_Int_Tables_number   1
_chemical_formula_structural   LiEr3Co7P6Ir
_chemical_formula_sum   'Li2 Er6 Co14 P12 Ir2'
_cell_volume   490.45174040
_cell_formula_units_Z   2
loop_
 _symmetry_equiv_pos_site_id
 _symmetry_equiv_pos_as_xyz
  1  'x, y, z'
loop_
 _atom_site_type_symbol
 _atom_site_label
 _atom_site_symmetry_multiplicity
 _atom_site_fract_x
 _atom_site_fract_y
 _atom_site_fract_z
 _atom_site_occupancy
  Li  Li0  1  0.250000  0.250000  0.847494  1
  Li  Li1  1  0.750000  0.750000  0.152506  1
  Er  Er2  1  0.750000  0.250000  0.481558  1
  Er  Er3  1  0.250000  0.750000  0.518442  1
  Er  Er4  1  0.250000  0.933216  0.795847  1
  Er  Er5  1  0.250000  0.566784  0.795847  1
  Er  Er6  1  0.750000  0.066784  0.204153  1
  Er  Er7  1  0.750000  0.433216  0.204153  1
  Co  Co8  1  0.750000  0.250000  0.010152  1
  Co  Co9  1  0.250000  0.750000  0.989848  1
  Co  Co10  1  0.250000  0.418455  0.002468  1
  Co  Co11  1  0.250000  0.081545  0.002468  1
  Co  Co12  1  0.750000  0.581545  0.997532  1
  Co  Co13  1  0.750000  0.918455  0.997532  1
  Co  Co14  1  0.250000  0.452220  0.568626  1
  Co  Co15  1  0.250000  0.047780  0.568626  1
  Co  Co16  1  0.750000  0.547780  0.431374  1
  Co  Co17  1  0.750000  0.952220  0.431374  1
  Co  Co18  1  0.250000  0.870725  0.292711  1
  Co  Co19  1  0.250000  0.629275  0.292711  1
  Co  Co20  1  0.750000  0.129275  0.707289  1
  Co  Co21  1  0.750000  0.370725  0.707289  1
  P  P22  1  0.250000  0.250000  0.107309  1
  P  P23  1  0.750000  0.750000  0.892691  1
  P  P24  1  0.250000  0.250000  0.655098  1
  P  P25  1  0.750000  0.750000  0.344902  1
  P  P26  1  0.250000  0.447925  0.385654  1
  P  P27  1  0.250000  0.052075  0.385654  1
  P  P28  1  0.750000  0.552075  0.614346  1
  P  P29  1  0.750000  0.947925  0.614346  1
  P  P30  1  0.250000  0.907160  0.107419  1
  P  P31  1  0.250000  0.592840  0.107419  1
  P  P32  1  0.750000  0.092840  0.892581  1
  P  P33  1  0.750000  0.407160  0.892581  1
  Ir  Ir34  1  0.250000  0.250000  0.297143  1
  Ir  Ir35  1  0.750000  0.750000  0.702857  1
