# generated using pymatgen
data_CePaBe26
_symmetry_space_group_name_H-M   'P 1'
_cell_length_a   7.23169115
_cell_length_b   7.23169116
_cell_length_c   7.23169100
_cell_angle_alpha   59.99999617
_cell_angle_beta   59.99999610
_cell_angle_gamma   60.00000011
_symmetry_Int_Tables_number   1
_chemical_formula_structural   CePaBe26
_chemical_formula_sum   'Ce1 Pa1 Be26'
_cell_volume   267.42658529
_cell_formula_units_Z   1
loop_
 _symmetry_equiv_pos_site_id
 _symmetry_equiv_pos_as_xyz
  1  'x, y, z'
loop_
 _atom_site_type_symbol
 _atom_site_label
 _atom_site_symmetry_multiplicity
 _atom_site_fract_x
 _atom_site_fract_y
 _atom_site_fract_z
 _atom_site_occupancy
  Ce  Ce0  1  0.750000  0.750000  0.750000  1
  Pa  Pa1  1  0.250000  0.250000  0.250000  1
  Be  Be2  1  0.061450  0.939870  0.289533  1
  Be  Be3  1  0.289533  0.709147  0.061450  1
  Be  Be4  1  0.000000  0.000000  0.000000  1
  Be  Be5  1  0.500000  0.500000  0.500000  1
  Be  Be6  1  0.709147  0.289533  0.939870  1
  Be  Be7  1  0.438550  0.790853  0.210467  1
  Be  Be8  1  0.210467  0.560130  0.438550  1
  Be  Be9  1  0.438550  0.560130  0.790853  1
  Be  Be10  1  0.560130  0.438550  0.210467  1
  Be  Be11  1  0.560130  0.790853  0.438550  1
  Be  Be12  1  0.210467  0.438550  0.790853  1
  Be  Be13  1  0.939870  0.289533  0.061450  1
  Be  Be14  1  0.061450  0.289533  0.709147  1
  Be  Be15  1  0.289533  0.061450  0.939870  1
  Be  Be16  1  0.061450  0.709147  0.939870  1
  Be  Be17  1  0.289533  0.939870  0.709147  1
  Be  Be18  1  0.939870  0.709147  0.289533  1
  Be  Be19  1  0.709147  0.061450  0.289533  1
  Be  Be20  1  0.709147  0.939870  0.061450  1
  Be  Be21  1  0.210467  0.790853  0.560130  1
  Be  Be22  1  0.790853  0.438550  0.560130  1
  Be  Be23  1  0.790853  0.560130  0.210467  1
  Be  Be24  1  0.438550  0.210467  0.560130  1
  Be  Be25  1  0.560130  0.210467  0.790853  1
  Be  Be26  1  0.790853  0.210467  0.438550  1
  Be  Be27  1  0.939870  0.061450  0.709147  1
