# generated using pymatgen
data_Eu3Mn(Pt2O7)2
_symmetry_space_group_name_H-M   'P 1'
_cell_length_a   7.36793982
_cell_length_b   7.27266453
_cell_length_c   7.36794100
_cell_angle_alpha   59.56568474
_cell_angle_beta   59.99999917
_cell_angle_gamma   59.56568502
_symmetry_Int_Tables_number   1
_chemical_formula_structural   Eu3Mn(Pt2O7)2
_chemical_formula_sum   'Eu3 Mn1 Pt4 O14'
_cell_volume   277.32457074
_cell_formula_units_Z   1
loop_
 _symmetry_equiv_pos_site_id
 _symmetry_equiv_pos_as_xyz
  1  'x, y, z'
loop_
 _atom_site_type_symbol
 _atom_site_label
 _atom_site_symmetry_multiplicity
 _atom_site_fract_x
 _atom_site_fract_y
 _atom_site_fract_z
 _atom_site_occupancy
  Eu  Eu0  1  0.125000  0.125000  0.625000  1
  Eu  Eu1  1  0.625000  0.125000  0.125000  1
  Eu  Eu2  1  0.125000  0.125000  0.125000  1
  Mn  Mn3  1  0.125000  0.625000  0.125000  1
  Pt  Pt4  1  0.625000  0.625000  0.125000  1
  Pt  Pt5  1  0.625000  0.125000  0.625000  1
  Pt  Pt6  1  0.125000  0.625000  0.625000  1
  Pt  Pt7  1  0.625000  0.625000  0.625000  1
  O  O8  1  0.235966  0.292101  0.235966  1
  O  O9  1  0.014034  0.957899  0.014034  1
  O  O10  1  0.536803  0.964077  0.536803  1
  O  O11  1  0.291115  0.702372  0.291115  1
  O  O12  1  0.534602  0.547628  0.958885  1
  O  O13  1  0.958885  0.547628  0.534602  1
  O  O14  1  0.536803  0.964077  0.962316  1
  O  O15  1  0.962316  0.964077  0.536803  1
  O  O16  1  0.958885  0.547628  0.958885  1
  O  O17  1  0.713197  0.285923  0.287684  1
  O  O18  1  0.291115  0.702372  0.715398  1
  O  O19  1  0.713197  0.285923  0.713197  1
  O  O20  1  0.287684  0.285923  0.713197  1
  O  O21  1  0.715398  0.702372  0.291115  1
