# generated using pymatgen
data_LiYb12Si8Ir7
_symmetry_space_group_name_H-M   'P 1'
_cell_length_a   5.51374133
_cell_length_b   7.57144446
_cell_length_c   13.18916300
_cell_angle_alpha   89.92024009
_cell_angle_beta   89.86486943
_cell_angle_gamma   90.14141948
_symmetry_Int_Tables_number   1
_chemical_formula_structural   LiYb12Si8Ir7
_chemical_formula_sum   'Li1 Yb12 Si8 Ir7'
_cell_volume   550.60406040
_cell_formula_units_Z   1
loop_
 _symmetry_equiv_pos_site_id
 _symmetry_equiv_pos_as_xyz
  1  'x, y, z'
loop_
 _atom_site_type_symbol
 _atom_site_label
 _atom_site_symmetry_multiplicity
 _atom_site_fract_x
 _atom_site_fract_y
 _atom_site_fract_z
 _atom_site_occupancy
  Li  Li0  1  0.616884  0.523859  0.089249  1
  Yb  Yb1  1  0.649267  0.234427  0.256536  1
  Yb  Yb2  1  0.359125  0.764832  0.747216  1
  Yb  Yb3  1  0.364226  0.741502  0.253941  1
  Yb  Yb4  1  0.639022  0.263450  0.750626  1
  Yb  Yb5  1  0.118614  0.372503  0.094523  1
  Yb  Yb6  1  0.856519  0.608507  0.896807  1
  Yb  Yb7  1  0.864901  0.607135  0.599345  1
  Yb  Yb8  1  0.865271  0.890846  0.402188  1
  Yb  Yb9  1  0.139074  0.392817  0.402258  1
  Yb  Yb10  1  0.139867  0.110227  0.599213  1
  Yb  Yb11  1  0.139277  0.107275  0.899322  1
  Yb  Yb12  1  0.864128  0.902032  0.099621  1
  Si  Si13  1  0.160280  0.090920  0.251110  1
  Si  Si14  1  0.848501  0.911437  0.748774  1
  Si  Si15  1  0.856940  0.594953  0.249074  1
  Si  Si16  1  0.155844  0.412761  0.753126  1
  Si  Si17  1  0.611893  0.241496  0.993199  1
  Si  Si18  1  0.364272  0.760145  0.994391  1
  Si  Si19  1  0.403423  0.749096  0.501403  1
  Si  Si20  1  0.604013  0.251576  0.500394  1
  Ir  Ir21  1  0.371966  0.029935  0.094395  1
  Ir  Ir22  1  0.634467  0.961179  0.905493  1
  Ir  Ir23  1  0.639489  0.972515  0.592285  1
  Ir  Ir24  1  0.639243  0.528527  0.407335  1
  Ir  Ir25  1  0.362261  0.028165  0.408538  1
  Ir  Ir26  1  0.364952  0.471589  0.593748  1
  Ir  Ir27  1  0.366283  0.476297  0.915892  1
