# generated using pymatgen
data_PrU3(PRh)4
_symmetry_space_group_name_H-M   'P 1'
_cell_length_a   4.13904700
_cell_length_b   4.13904651
_cell_length_c   15.01800700
_cell_angle_alpha   90.00000000
_cell_angle_beta   90.00000000
_cell_angle_gamma   120.00001187
_symmetry_Int_Tables_number   1
_chemical_formula_structural   PrU3(PRh)4
_chemical_formula_sum   'Pr1 U3 P4 Rh4'
_cell_volume   222.81454992
_cell_formula_units_Z   1
loop_
 _symmetry_equiv_pos_site_id
 _symmetry_equiv_pos_as_xyz
  1  'x, y, z'
loop_
 _atom_site_type_symbol
 _atom_site_label
 _atom_site_symmetry_multiplicity
 _atom_site_fract_x
 _atom_site_fract_y
 _atom_site_fract_z
 _atom_site_occupancy
  Pr  Pr0  1  0.000000  0.000000  0.500000  1
  U  U1  1  0.000000  0.000000  0.245039  1
  U  U2  1  0.000000  0.000000  0.754961  1
  U  U3  1  0.000000  0.000000  0.000000  1
  P  P4  1  0.333333  0.666667  0.627537  1
  P  P5  1  0.666667  0.333333  0.372463  1
  P  P6  1  0.666667  0.333333  0.113640  1
  P  P7  1  0.333333  0.666667  0.886360  1
  Rh  Rh8  1  0.333333  0.666667  0.133755  1
  Rh  Rh9  1  0.666667  0.333333  0.866245  1
  Rh  Rh10  1  0.666667  0.333333  0.650614  1
  Rh  Rh11  1  0.333333  0.666667  0.349386  1
