# generated using pymatgen
data_Zr3ScVOs7
_symmetry_space_group_name_H-M   'P 1'
_cell_length_a   5.31495300
_cell_length_b   5.14931455
_cell_length_c   8.64378412
_cell_angle_alpha   90.05000536
_cell_angle_beta   90.00000000
_cell_angle_gamma   121.06991461
_symmetry_Int_Tables_number   1
_chemical_formula_structural   Zr3ScVOs7
_chemical_formula_sum   'Zr3 Sc1 V1 Os7'
_cell_volume   202.62791183
_cell_formula_units_Z   1
loop_
 _symmetry_equiv_pos_site_id
 _symmetry_equiv_pos_as_xyz
  1  'x, y, z'
loop_
 _atom_site_type_symbol
 _atom_site_label
 _atom_site_symmetry_multiplicity
 _atom_site_fract_x
 _atom_site_fract_y
 _atom_site_fract_z
 _atom_site_occupancy
  Zr  Zr0  1  0.331529  0.663060  0.429821  1
  Zr  Zr1  1  0.669171  0.338341  0.568108  1
  Zr  Zr2  1  0.667255  0.334508  0.935599  1
  Sc  Sc3  1  0.331816  0.663634  0.064379  1
  V  V4  1  0.165360  0.330718  0.749595  1
  Os  Os5  1  0.171877  0.820890  0.750439  1
  Os  Os6  1  0.344803  0.170689  0.249706  1
  Os  Os7  1  0.830624  0.661249  0.250635  1
  Os  Os8  1  0.649013  0.820890  0.750439  1
  Os  Os9  1  0.005455  0.010911  0.000310  1
  Os  Os10  1  0.825883  0.170689  0.249706  1
  Os  Os11  1  0.007211  0.014423  0.501264  1
