# generated using pymatgen
data_Pm2CuPtO6
_symmetry_space_group_name_H-M   'P 1'
_cell_length_a   5.34054000
_cell_length_b   5.57543045
_cell_length_c   8.31554700
_cell_angle_alpha   89.75385708
_cell_angle_beta   90.00000000
_cell_angle_gamma   90.00000000
_symmetry_Int_Tables_number   1
_chemical_formula_structural   Pm2CuPtO6
_chemical_formula_sum   'Pm4 Cu2 Pt2 O12'
_cell_volume   247.59985712
_cell_formula_units_Z   2
loop_
 _symmetry_equiv_pos_site_id
 _symmetry_equiv_pos_as_xyz
  1  'x, y, z'
loop_
 _atom_site_type_symbol
 _atom_site_label
 _atom_site_symmetry_multiplicity
 _atom_site_fract_x
 _atom_site_fract_y
 _atom_site_fract_z
 _atom_site_occupancy
  Pm  Pm0  1  0.981969  0.062555  0.278059  1
  Pm  Pm1  1  0.518033  0.562555  0.278059  1
  Pm  Pm2  1  0.481969  0.437445  0.721941  1
  Pm  Pm3  1  0.018032  0.937444  0.721941  1
  Cu  Cu4  1  0.500001  0.000000  0.500000  1
  Cu  Cu5  1  0.000000  0.500000  0.500000  1
  Pt  Pt6  1  0.500001  0.000000  0.000000  1
  Pt  Pt7  1  0.000000  0.500000  0.000000  1
  O  O8  1  0.705311  0.288256  0.083933  1
  O  O9  1  0.794689  0.788257  0.083933  1
  O  O10  1  0.104244  0.468231  0.235081  1
  O  O11  1  0.395757  0.968231  0.235081  1
  O  O12  1  0.701439  0.298057  0.464813  1
  O  O13  1  0.798561  0.798058  0.464813  1
  O  O14  1  0.201438  0.201941  0.535187  1
  O  O15  1  0.298561  0.701941  0.535187  1
  O  O16  1  0.604245  0.031769  0.764919  1
  O  O17  1  0.895756  0.531768  0.764919  1
  O  O18  1  0.205310  0.211742  0.916067  1
  O  O19  1  0.294689  0.711742  0.916067  1
