# generated using pymatgen
data_CaThH5
_symmetry_space_group_name_H-M   'P 1'
_cell_length_a   3.80297800
_cell_length_b   5.42539600
_cell_length_c   15.64466900
_cell_angle_alpha   90.00000000
_cell_angle_beta   90.00000000
_cell_angle_gamma   90.00000000
_symmetry_Int_Tables_number   1
_chemical_formula_structural   CaThH5
_chemical_formula_sum   'Ca4 Th4 H20'
_cell_volume   322.79116178
_cell_formula_units_Z   4
loop_
 _symmetry_equiv_pos_site_id
 _symmetry_equiv_pos_as_xyz
  1  'x, y, z'
loop_
 _atom_site_type_symbol
 _atom_site_label
 _atom_site_symmetry_multiplicity
 _atom_site_fract_x
 _atom_site_fract_y
 _atom_site_fract_z
 _atom_site_occupancy
  Ca  Ca0  1  0.733978  0.502195  0.808011  1
  Ca  Ca1  1  0.233978  0.997805  0.191989  1
  Ca  Ca2  1  0.766022  0.497805  0.308011  1
  Ca  Ca3  1  0.266022  0.002195  0.691989  1
  Th  Th4  1  0.226704  0.000835  0.931076  1
  Th  Th5  1  0.726704  0.499165  0.068924  1
  Th  Th6  1  0.273296  0.999165  0.431076  1
  Th  Th7  1  0.773296  0.500835  0.568924  1
  H  H8  1  0.725256  0.747211  0.946861  1
  H  H9  1  0.225256  0.752789  0.053139  1
  H  H10  1  0.774744  0.252789  0.446861  1
  H  H11  1  0.274744  0.247211  0.553139  1
  H  H12  1  0.233282  0.747558  0.814120  1
  H  H13  1  0.733282  0.752442  0.185880  1
  H  H14  1  0.266718  0.252442  0.314120  1
  H  H15  1  0.766718  0.247558  0.685880  1
  H  H16  1  0.733326  0.243089  0.185244  1
  H  H17  1  0.233326  0.256911  0.814756  1
  H  H18  1  0.766674  0.756911  0.685244  1
  H  H19  1  0.266674  0.743089  0.314756  1
  H  H20  1  0.724441  0.001350  0.840383  1
  H  H21  1  0.224441  0.498650  0.159617  1
  H  H22  1  0.775559  0.998650  0.340383  1
  H  H23  1  0.275559  0.501350  0.659617  1
  H  H24  1  0.225266  0.245906  0.053474  1
  H  H25  1  0.725266  0.254094  0.946526  1
  H  H26  1  0.274734  0.754094  0.553474  1
  H  H27  1  0.774734  0.745906  0.446526  1
