# generated using pymatgen
data_Nd2LuScPt2
_symmetry_space_group_name_H-M   'P 1'
_cell_length_a   4.74925000
_cell_length_b   7.18101700
_cell_length_c   8.65754000
_cell_angle_alpha   90.00000000
_cell_angle_beta   90.00000000
_cell_angle_gamma   90.00000000
_symmetry_Int_Tables_number   1
_chemical_formula_structural   Nd2LuScPt2
_chemical_formula_sum   'Nd4 Lu2 Sc2 Pt4'
_cell_volume   295.26059665
_cell_formula_units_Z   2
loop_
 _symmetry_equiv_pos_site_id
 _symmetry_equiv_pos_as_xyz
  1  'x, y, z'
loop_
 _atom_site_type_symbol
 _atom_site_label
 _atom_site_symmetry_multiplicity
 _atom_site_fract_x
 _atom_site_fract_y
 _atom_site_fract_z
 _atom_site_occupancy
  Nd  Nd0  1  0.750000  0.483379  0.817195  1
  Nd  Nd1  1  0.250000  0.011716  0.329504  1
  Nd  Nd2  1  0.750000  0.983379  0.682805  1
  Nd  Nd3  1  0.250000  0.511716  0.170496  1
  Lu  Lu4  1  0.750000  0.358344  0.422628  1
  Lu  Lu5  1  0.750000  0.858344  0.077372  1
  Sc  Sc6  1  0.250000  0.640039  0.572649  1
  Sc  Sc7  1  0.250000  0.140039  0.927351  1
  Pt  Pt8  1  0.250000  0.764482  0.901644  1
  Pt  Pt9  1  0.250000  0.264482  0.598356  1
  Pt  Pt10  1  0.750000  0.742042  0.414046  1
  Pt  Pt11  1  0.750000  0.242042  0.085954  1
