# generated using pymatgen
data_Sc4Si6NiIr5Rh
_symmetry_space_group_name_H-M   'P 1'
_cell_length_a   6.94254857
_cell_length_b   6.94720068
_cell_length_c   6.94721009
_cell_angle_alpha   109.40317905
_cell_angle_beta   109.17983159
_cell_angle_gamma   109.85855671
_symmetry_Int_Tables_number   1
_chemical_formula_structural   Sc4Si6NiIr5Rh
_chemical_formula_sum   'Sc4 Si6 Ni1 Ir5 Rh1'
_cell_volume   257.84325435
_cell_formula_units_Z   1
loop_
 _symmetry_equiv_pos_site_id
 _symmetry_equiv_pos_as_xyz
  1  'x, y, z'
loop_
 _atom_site_type_symbol
 _atom_site_label
 _atom_site_symmetry_multiplicity
 _atom_site_fract_x
 _atom_site_fract_y
 _atom_site_fract_z
 _atom_site_occupancy
  Sc  Sc0  1  0.001906  0.998725  0.500007  1
  Sc  Sc1  1  0.001907  0.501900  0.003180  1
  Sc  Sc2  1  0.496927  0.997957  0.996435  1
  Sc  Sc3  1  0.496926  0.500493  0.498970  1
  Si  Si4  1  0.683082  0.683716  0.999366  1
  Si  Si5  1  0.323359  0.003981  0.319378  1
  Si  Si6  1  0.995153  0.315310  0.318892  1
  Si  Si7  1  0.317253  0.317266  0.999987  1
  Si  Si8  1  0.685152  0.003217  0.681935  1
  Si  Si9  1  0.995153  0.676261  0.679843  1
  Ni  Ni10  1  0.751641  0.250694  0.500947  1
  Ir  Ir11  1  0.506289  0.253842  0.748948  1
  Ir  Ir12  1  0.242758  0.494940  0.747818  1
  Ir  Ir13  1  0.249224  0.749447  0.499776  1
  Ir  Ir14  1  0.506289  0.757342  0.252447  1
  Ir  Ir15  1  0.000194  0.999955  0.000240  1
  Rh  Rh16  1  0.746786  0.494955  0.251830  1
