# generated using pymatgen
data_DyTh3(GeIr)4
_symmetry_space_group_name_H-M   'P 1'
_cell_length_a   4.38836200
_cell_length_b   7.16221582
_cell_length_c   7.77595130
_cell_angle_alpha   90.29078623
_cell_angle_beta   90.00000000
_cell_angle_gamma   90.00000000
_symmetry_Int_Tables_number   1
_chemical_formula_structural   DyTh3(GeIr)4
_chemical_formula_sum   'Dy1 Th3 Ge4 Ir4'
_cell_volume   244.39807899
_cell_formula_units_Z   1
loop_
 _symmetry_equiv_pos_site_id
 _symmetry_equiv_pos_as_xyz
  1  'x, y, z'
loop_
 _atom_site_type_symbol
 _atom_site_label
 _atom_site_symmetry_multiplicity
 _atom_site_fract_x
 _atom_site_fract_y
 _atom_site_fract_z
 _atom_site_occupancy
  Dy  Dy0  1  0.250000  0.488316  0.201439  1
  Th  Th1  1  0.750000  0.507206  0.801616  1
  Th  Th2  1  0.250000  0.987393  0.299708  1
  Th  Th3  1  0.750000  0.007708  0.699789  1
  Ge  Ge4  1  0.250000  0.813830  0.921038  1
  Ge  Ge5  1  0.250000  0.320519  0.577908  1
  Ge  Ge6  1  0.750000  0.186180  0.088185  1
  Ge  Ge7  1  0.750000  0.668065  0.407791  1
  Ir  Ir8  1  0.250000  0.717634  0.590578  1
  Ir  Ir9  1  0.250000  0.219892  0.910803  1
  Ir  Ir10  1  0.750000  0.795075  0.090005  1
  Ir  Ir11  1  0.750000  0.288181  0.411140  1
