# generated using pymatgen
data_LiTm3In4Ir
_symmetry_space_group_name_H-M   'P 1'
_cell_length_a   8.09765500
_cell_length_b   8.09765480
_cell_length_c   3.64025100
_cell_angle_alpha   90.00000000
_cell_angle_beta   90.00000000
_cell_angle_gamma   119.99999673
_symmetry_Int_Tables_number   1
_chemical_formula_structural   LiTm3In4Ir
_chemical_formula_sum   'Li1 Tm3 In4 Ir1'
_cell_volume   206.71905200
_cell_formula_units_Z   1
loop_
 _symmetry_equiv_pos_site_id
 _symmetry_equiv_pos_as_xyz
  1  'x, y, z'
loop_
 _atom_site_type_symbol
 _atom_site_label
 _atom_site_symmetry_multiplicity
 _atom_site_fract_x
 _atom_site_fract_y
 _atom_site_fract_z
 _atom_site_occupancy
  Li  Li0  1  0.666667  0.333333  0.500000  1
  Tm  Tm1  1  0.710295  0.954294  0.500000  1
  Tm  Tm2  1  0.244000  0.289705  0.500000  1
  Tm  Tm3  1  0.045706  0.756000  0.500000  1
  In  In4  1  0.932335  0.337505  0.000000  1
  In  In5  1  0.405171  0.067665  0.000000  1
  In  In6  1  0.662495  0.594829  0.000000  1
  In  In7  1  0.333333  0.666667  0.000000  1
  Ir  Ir8  1  0.000000  0.000000  0.000000  1
