# generated using pymatgen
data_K4SmUO6
_symmetry_space_group_name_H-M   'P 1'
_cell_length_a   6.25903083
_cell_length_b   6.25900588
_cell_length_c   6.62014479
_cell_angle_alpha   99.18150193
_cell_angle_beta   99.18203137
_cell_angle_gamma   119.93204413
_symmetry_Int_Tables_number   1
_chemical_formula_structural   K4SmUO6
_chemical_formula_sum   'K4 Sm1 U1 O6'
_cell_volume   213.02634384
_cell_formula_units_Z   1
loop_
 _symmetry_equiv_pos_site_id
 _symmetry_equiv_pos_as_xyz
  1  'x, y, z'
loop_
 _atom_site_type_symbol
 _atom_site_label
 _atom_site_symmetry_multiplicity
 _atom_site_fract_x
 _atom_site_fract_y
 _atom_site_fract_z
 _atom_site_occupancy
  K  K0  1  0.499335  0.500656  0.999990  1
  K  K1  1  0.004155  0.995831  0.500003  1
  K  K2  1  0.658064  0.341956  0.500006  1
  K  K3  1  0.342589  0.657409  0.500004  1
  Sm  Sm4  1  0.832265  0.167722  0.999976  1
  U  U5  1  0.166651  0.833338  0.999974  1
  O  O6  1  0.962091  0.588670  0.193354  1
  O  O7  1  0.541538  0.939379  0.194056  1
  O  O8  1  0.191790  0.170450  0.192823  1
  O  O9  1  0.829567  0.808216  0.807197  1
  O  O10  1  0.060628  0.458469  0.805963  1
  O  O11  1  0.411337  0.037913  0.806660  1
