# generated using pymatgen
data_Y3(Hg2Au)2
_symmetry_space_group_name_H-M   'P 1'
_cell_length_a   8.05000100
_cell_length_b   8.05000007
_cell_length_c   3.78173200
_cell_angle_alpha   90.00000000
_cell_angle_beta   90.00000000
_cell_angle_gamma   120.00000794
_symmetry_Int_Tables_number   1
_chemical_formula_structural   Y3(Hg2Au)2
_chemical_formula_sum   'Y3 Hg4 Au2'
_cell_volume   212.23312247
_cell_formula_units_Z   1
loop_
 _symmetry_equiv_pos_site_id
 _symmetry_equiv_pos_as_xyz
  1  'x, y, z'
loop_
 _atom_site_type_symbol
 _atom_site_label
 _atom_site_symmetry_multiplicity
 _atom_site_fract_x
 _atom_site_fract_y
 _atom_site_fract_z
 _atom_site_occupancy
  Y  Y0  1  0.598630  0.598630  0.000000  1
  Y  Y1  1  0.401370  0.000000  0.000000  1
  Y  Y2  1  0.000000  0.401370  0.000000  1
  Hg  Hg3  1  0.281449  0.281449  0.500000  1
  Hg  Hg4  1  0.718551  0.000000  0.500000  1
  Hg  Hg5  1  0.000000  0.718551  0.500000  1
  Hg  Hg6  1  0.000000  0.000000  0.000000  1
  Au  Au7  1  0.333333  0.666667  0.500000  1
  Au  Au8  1  0.666667  0.333333  0.500000  1
