# generated using pymatgen
data_Ba4Y2AlCoO10
_symmetry_space_group_name_H-M   'P 1'
_cell_length_a   6.12144900
_cell_length_b   7.86673726
_cell_length_c   12.61440130
_cell_angle_alpha   91.32164633
_cell_angle_beta   90.00000000
_cell_angle_gamma   90.00000000
_symmetry_Int_Tables_number   1
_chemical_formula_structural   Ba4Y2AlCoO10
_chemical_formula_sum   'Ba8 Y4 Al2 Co2 O20'
_cell_volume   607.29537281
_cell_formula_units_Z   2
loop_
 _symmetry_equiv_pos_site_id
 _symmetry_equiv_pos_as_xyz
  1  'x, y, z'
loop_
 _atom_site_type_symbol
 _atom_site_label
 _atom_site_symmetry_multiplicity
 _atom_site_fract_x
 _atom_site_fract_y
 _atom_site_fract_z
 _atom_site_occupancy
  Ba  Ba0  1  0.756838  0.486368  0.355086  1
  Ba  Ba1  1  0.743162  0.986368  0.855086  1
  Ba  Ba2  1  0.240125  0.510425  0.643796  1
  Ba  Ba3  1  0.259875  0.010425  0.143796  1
  Ba  Ba4  1  0.755228  0.996857  0.377460  1
  Ba  Ba5  1  0.744772  0.496857  0.877460  1
  Ba  Ba6  1  0.246227  0.007288  0.619136  1
  Ba  Ba7  1  0.253773  0.507288  0.119136  1
  Y  Y8  1  0.748843  0.262075  0.628907  1
  Y  Y9  1  0.751157  0.762075  0.128907  1
  Y  Y10  1  0.250865  0.735675  0.374054  1
  Y  Y11  1  0.249135  0.235675  0.874054  1
  Al  Al12  1  0.739983  0.745906  0.583906  1
  Al  Al13  1  0.760017  0.245906  0.083906  1
  Co  Co14  1  0.259226  0.253916  0.410324  1
  Co  Co15  1  0.240774  0.753916  0.910324  1
  O  O16  1  0.759764  0.959537  0.636995  1
  O  O17  1  0.740236  0.459537  0.136995  1
  O  O18  1  0.239214  0.029334  0.366714  1
  O  O19  1  0.260786  0.529334  0.866714  1
  O  O20  1  0.735805  0.068692  0.168970  1
  O  O21  1  0.764195  0.568692  0.668970  1
  O  O22  1  0.264239  0.943557  0.830066  1
  O  O23  1  0.235761  0.443557  0.330066  1
  O  O24  1  0.540086  0.747939  0.270680  1
  O  O25  1  0.959914  0.247939  0.770680  1
  O  O26  1  0.458903  0.253942  0.730832  1
  O  O27  1  0.041097  0.753942  0.230832  1
  O  O28  1  0.544581  0.229715  0.986378  1
  O  O29  1  0.955419  0.729715  0.486378  1
  O  O30  1  0.462937  0.771003  0.016733  1
  O  O31  1  0.037063  0.271003  0.516733  1
  O  O32  1  0.020949  0.234545  0.018405  1
  O  O33  1  0.479051  0.734545  0.518405  1
  O  O34  1  0.966538  0.763227  0.981559  1
  O  O35  1  0.533462  0.263227  0.481559  1
