# generated using pymatgen
data_Li12La7Nd5(WO6)8
_symmetry_space_group_name_H-M   'P 1'
_cell_length_a   11.00827871
_cell_length_b   10.99911482
_cell_length_c   10.99880104
_cell_angle_alpha   109.47971221
_cell_angle_beta   109.44821426
_cell_angle_gamma   109.44839732
_symmetry_Int_Tables_number   1
_chemical_formula_structural   Li12La7Nd5(WO6)8
_chemical_formula_sum   'Li12 La7 Nd5 W8 O48'
_cell_volume   1025.65319579
_cell_formula_units_Z   1
loop_
 _symmetry_equiv_pos_site_id
 _symmetry_equiv_pos_as_xyz
  1  'x, y, z'
loop_
 _atom_site_type_symbol
 _atom_site_label
 _atom_site_symmetry_multiplicity
 _atom_site_fract_x
 _atom_site_fract_y
 _atom_site_fract_z
 _atom_site_occupancy
  Li  Li0  1  0.750072  0.375130  0.125450  1
  Li  Li1  1  0.875987  0.750367  0.125710  1
  Li  Li2  1  0.125335  0.375315  0.249990  1
  Li  Li3  1  0.624582  0.874904  0.249985  1
  Li  Li4  1  0.624269  0.249586  0.373958  1
  Li  Li5  1  0.249658  0.124122  0.374074  1
  Li  Li6  1  0.374407  0.749943  0.624087  1
  Li  Li7  1  0.749673  0.874616  0.624560  1
  Li  Li8  1  0.374689  0.124682  0.749968  1
  Li  Li9  1  0.875422  0.625406  0.750326  1
  Li  Li10  1  0.125870  0.250369  0.875938  1
  Li  Li11  1  0.250055  0.625560  0.875900  1
  La  La12  1  0.749246  0.624527  0.373980  1
  La  La13  1  0.874823  0.249480  0.623923  1
  La  La14  1  0.249231  0.374520  0.623946  1
  La  La15  1  0.624885  0.375012  0.749935  1
  La  La16  1  0.125923  0.875428  0.750637  1
  La  La17  1  0.625374  0.750644  0.875996  1
  La  La18  1  0.750570  0.125277  0.876050  1
  Nd  Nd19  1  0.250461  0.875156  0.125901  1
  Nd  Nd20  1  0.374650  0.250156  0.125538  1
  Nd  Nd21  1  0.875110  0.125062  0.250146  1
  Nd  Nd22  1  0.374220  0.624796  0.249587  1
  Nd  Nd23  1  0.125622  0.749942  0.374285  1
  W  W24  1  0.001642  0.000668  0.002084  1
  W  W25  1  0.500451  0.001360  0.002147  1
  W  W26  1  0.498813  0.499307  0.000507  1
  W  W27  1  0.001614  0.501565  0.001497  1
  W  W28  1  0.498484  0.998371  0.498445  1
  W  W29  1  0.999692  0.499621  0.498320  1
  W  W30  1  0.000334  0.999370  0.498645  1
  W  W31  1  0.498971  0.499757  0.498427  1
  O  O32  1  0.328346  0.407743  0.024635  1
  O  O33  1  0.195889  0.616767  0.024638  1
  O  O34  1  0.886254  0.909553  0.081636  1
  O  O35  1  0.695251  0.172016  0.081563  1
  O  O36  1  0.616251  0.922914  0.094061  1
  O  O37  1  0.977772  0.171212  0.094045  1
  O  O38  1  0.024760  0.696107  0.116880  1
  O  O39  1  0.590313  0.418609  0.114220  1
  O  O40  1  0.196395  0.079381  0.171854  1
  O  O41  1  0.475345  0.092418  0.171948  1
  O  O42  1  0.116881  0.524712  0.196020  1
  O  O43  1  0.577517  0.670997  0.194038  1
  O  O44  1  0.328311  0.420607  0.303705  1
  O  O45  1  0.475284  0.883168  0.303892  1
  O  O46  1  0.922212  0.805454  0.328447  1
  O  O47  1  0.909354  0.523775  0.327674  1
  O  O48  1  0.577485  0.406523  0.383429  1
  O  O49  1  0.304095  0.975346  0.383173  1
  O  O50  1  0.829084  0.022188  0.406114  1
  O  O51  1  0.077617  0.383190  0.406131  1
  O  O52  1  0.090742  0.114480  0.418499  1
  O  O53  1  0.828154  0.304853  0.418433  1
  O  O54  1  0.590274  0.671714  0.476105  1
  O  O55  1  0.383137  0.803994  0.475264  1
  O  O56  1  0.612754  0.192257  0.520830  1
  O  O57  1  0.407747  0.328399  0.521291  1
  O  O58  1  0.170973  0.693211  0.577190  1
  O  O59  1  0.908170  0.886757  0.579220  1
  O  O60  1  0.171927  0.976665  0.590164  1
  O  O61  1  0.920039  0.613017  0.591274  1
  O  O62  1  0.419922  0.591712  0.613296  1
  O  O63  1  0.692126  0.020757  0.612663  1
  O  O64  1  0.079787  0.192868  0.671172  1
  O  O65  1  0.091934  0.478635  0.670992  1
  O  O66  1  0.671149  0.579424  0.692007  1
  O  O67  1  0.520896  0.112786  0.692363  1
  O  O68  1  0.887238  0.479142  0.807744  1
  O  O69  1  0.419956  0.328250  0.806616  1
  O  O70  1  0.520931  0.908424  0.829135  1
  O  O71  1  0.808415  0.920855  0.829266  1
  O  O72  1  0.979153  0.307654  0.887266  1
  O  O73  1  0.407772  0.579378  0.886496  1
  O  O74  1  0.386544  0.081536  0.910009  1
  O  O75  1  0.023472  0.828392  0.910067  1
  O  O76  1  0.116002  0.093676  0.923079  1
  O  O77  1  0.307205  0.829424  0.923109  1
  O  O78  1  0.807850  0.387284  0.979223  1
  O  O79  1  0.671184  0.591757  0.979181  1
