# generated using pymatgen
data_Yb3Te(ClO2)2
_symmetry_space_group_name_H-M   'P 1'
_cell_length_a   6.66088755
_cell_length_b   6.66088763
_cell_length_c   5.39884800
_cell_angle_alpha   90.00000000
_cell_angle_beta   90.00000000
_cell_angle_gamma   132.13671076
_symmetry_Int_Tables_number   1
_chemical_formula_structural   Yb3Te(ClO2)2
_chemical_formula_sum   'Yb3 Te1 Cl2 O4'
_cell_volume   177.62475128
_cell_formula_units_Z   1
loop_
 _symmetry_equiv_pos_site_id
 _symmetry_equiv_pos_as_xyz
  1  'x, y, z'
loop_
 _atom_site_type_symbol
 _atom_site_label
 _atom_site_symmetry_multiplicity
 _atom_site_fract_x
 _atom_site_fract_y
 _atom_site_fract_z
 _atom_site_occupancy
  Yb  Yb0  1  0.588463  0.411537  0.000000  1
  Yb  Yb1  1  0.398901  0.601099  0.500000  1
  Yb  Yb2  1  0.903524  0.096476  0.000000  1
  Te  Te3  1  0.066478  0.933522  0.500000  1
  Cl  Cl4  1  0.272947  0.727053  0.000000  1
  Cl  Cl5  1  0.763883  0.236117  0.500000  1
  O  O6  1  0.761895  0.758993  0.260871  1
  O  O7  1  0.761895  0.758993  0.739129  1
  O  O8  1  0.241007  0.238105  0.260871  1
  O  O9  1  0.241007  0.238105  0.739129  1
