# generated using pymatgen
data_Hf4Mn4Si3P
_symmetry_space_group_name_H-M   'P 1'
_cell_length_a   3.62889700
_cell_length_b   6.49854540
_cell_length_c   7.58362998
_cell_angle_alpha   90.11733874
_cell_angle_beta   90.00000000
_cell_angle_gamma   90.00000000
_symmetry_Int_Tables_number   1
_chemical_formula_structural   Hf4Mn4Si3P
_chemical_formula_sum   'Hf4 Mn4 Si3 P1'
_cell_volume   178.84097270
_cell_formula_units_Z   1
loop_
 _symmetry_equiv_pos_site_id
 _symmetry_equiv_pos_as_xyz
  1  'x, y, z'
loop_
 _atom_site_type_symbol
 _atom_site_label
 _atom_site_symmetry_multiplicity
 _atom_site_fract_x
 _atom_site_fract_y
 _atom_site_fract_z
 _atom_site_occupancy
  Hf  Hf0  1  0.250000  0.531467  0.176156  1
  Hf  Hf1  1  0.750000  0.468330  0.820009  1
  Hf  Hf2  1  0.750000  0.974085  0.676955  1
  Hf  Hf3  1  0.250000  0.031369  0.324833  1
  Mn  Mn4  1  0.250000  0.634097  0.564073  1
  Mn  Mn5  1  0.750000  0.359750  0.439190  1
  Mn  Mn6  1  0.750000  0.861277  0.063216  1
  Mn  Mn7  1  0.250000  0.140334  0.933827  1
  Si  Si8  1  0.250000  0.771386  0.874291  1
  Si  Si9  1  0.750000  0.228841  0.124315  1
  Si  Si10  1  0.750000  0.729486  0.376515  1
  P  P11  1  0.250000  0.269579  0.626619  1
