# generated using pymatgen
data_NbTcTe6Mo
_symmetry_space_group_name_H-M   'P 1'
_cell_length_a   6.20457807
_cell_length_b   6.20465348
_cell_length_c   8.01229200
_cell_angle_alpha   82.58707536
_cell_angle_beta   82.60300156
_cell_angle_gamma   119.99493509
_symmetry_Int_Tables_number   1
_chemical_formula_structural   NbTcTe6Mo
_chemical_formula_sum   'Nb1 Tc1 Te6 Mo1'
_cell_volume   258.11451247
_cell_formula_units_Z   1
loop_
 _symmetry_equiv_pos_site_id
 _symmetry_equiv_pos_as_xyz
  1  'x, y, z'
loop_
 _atom_site_type_symbol
 _atom_site_label
 _atom_site_symmetry_multiplicity
 _atom_site_fract_x
 _atom_site_fract_y
 _atom_site_fract_z
 _atom_site_occupancy
  Nb  Nb0  1  0.499959  0.833334  0.499996  1
  Tc  Tc1  1  0.833317  0.499992  0.500042  1
  Te  Te2  1  0.581463  0.255314  0.266341  1
  Te  Te3  1  0.233646  0.570759  0.266257  1
  Te  Te4  1  0.918180  0.907458  0.266276  1
  Te  Te5  1  0.762683  0.751851  0.733761  1
  Te  Te6  1  0.426011  0.099692  0.733850  1
  Te  Te7  1  0.077933  0.414845  0.733799  1
  Mo  Mo8  1  0.166710  0.166659  0.499978  1
