# generated using pymatgen
data_Y4TaTi7Sn10
_symmetry_space_group_name_H-M   'P 1'
_cell_length_a   10.88033065
_cell_length_b   10.88033200
_cell_length_c   10.88529100
_cell_angle_alpha   149.00625989
_cell_angle_beta   131.82396770
_cell_angle_gamma   58.34773734
_symmetry_Int_Tables_number   1
_chemical_formula_structural   Y4TaTi7Sn10
_chemical_formula_sum   'Y4 Ta1 Ti7 Sn10'
_cell_volume   490.78535214
_cell_formula_units_Z   1
loop_
 _symmetry_equiv_pos_site_id
 _symmetry_equiv_pos_as_xyz
  1  'x, y, z'
loop_
 _atom_site_type_symbol
 _atom_site_label
 _atom_site_symmetry_multiplicity
 _atom_site_fract_x
 _atom_site_fract_y
 _atom_site_fract_z
 _atom_site_occupancy
  Y  Y0  1  0.257327  0.145221  0.114698  1
  Y  Y1  1  0.741698  0.855314  0.884557  1
  Y  Y2  1  0.030523  0.642629  0.385302  1
  Y  Y3  1  0.970758  0.357140  0.615443  1
  Ta  Ta4  1  0.311248  0.561248  0.250000  1
  Ti  Ti5  1  0.688078  0.438078  0.750000  1
  Ti  Ti6  1  0.688762  0.938762  0.250000  1
  Ti  Ti7  1  0.311479  0.061479  0.750000  1
  Ti  Ti8  1  0.674739  0.438083  0.240861  1
  Ti  Ti9  1  0.324522  0.563662  0.760722  1
  Ti  Ti10  1  0.197222  0.933877  0.259139  1
  Ti  Ti11  1  0.802940  0.063801  0.739278  1
  Sn  Sn12  1  0.584705  0.289200  0.295356  1
  Sn  Sn13  1  0.415480  0.710517  0.705125  1
  Sn  Sn14  1  0.993844  0.789350  0.204644  1
  Sn  Sn15  1  0.005392  0.210355  0.794875  1
  Sn  Sn16  1  0.999831  0.249831  0.250000  1
  Sn  Sn17  1  0.999942  0.749942  0.750000  1
  Sn  Sn18  1  0.472162  0.066174  0.404707  1
  Sn  Sn19  1  0.528646  0.936704  0.597470  1
  Sn  Sn20  1  0.661467  0.567455  0.095293  1
  Sn  Sn21  1  0.339235  0.431177  0.902530  1
