# generated using pymatgen
data_CaPr16Y3Sn16
_symmetry_space_group_name_H-M   'P 1'
_cell_length_a   8.27551108
_cell_length_b   8.45796020
_cell_length_c   16.09080200
_cell_angle_alpha   90.00000000
_cell_angle_beta   90.00000000
_cell_angle_gamma   89.82559797
_symmetry_Int_Tables_number   1
_chemical_formula_structural   CaPr16Y3Sn16
_chemical_formula_sum   'Ca1 Pr16 Y3 Sn16'
_cell_volume   1126.25346490
_cell_formula_units_Z   1
loop_
 _symmetry_equiv_pos_site_id
 _symmetry_equiv_pos_as_xyz
  1  'x, y, z'
loop_
 _atom_site_type_symbol
 _atom_site_label
 _atom_site_symmetry_multiplicity
 _atom_site_fract_x
 _atom_site_fract_y
 _atom_site_fract_z
 _atom_site_occupancy
  Ca  Ca0  1  0.198354  0.500413  0.750000  1
  Pr  Pr1  1  0.365950  0.835361  0.879729  1
  Pr  Pr2  1  0.869042  0.662567  0.620431  1
  Pr  Pr3  1  0.634460  0.161348  0.379331  1
  Pr  Pr4  1  0.134051  0.336146  0.122083  1
  Pr  Pr5  1  0.634460  0.161348  0.120669  1
  Pr  Pr6  1  0.134051  0.336146  0.377917  1
  Pr  Pr7  1  0.365950  0.835361  0.620271  1
  Pr  Pr8  1  0.869042  0.662567  0.879569  1
  Pr  Pr9  1  0.514665  0.319325  0.903049  1
  Pr  Pr10  1  0.017168  0.184405  0.597584  1
  Pr  Pr11  1  0.482602  0.680795  0.400926  1
  Pr  Pr12  1  0.982793  0.818265  0.098243  1
  Pr  Pr13  1  0.482602  0.680795  0.099074  1
  Pr  Pr14  1  0.982793  0.818265  0.401757  1
  Pr  Pr15  1  0.514665  0.319325  0.596951  1
  Pr  Pr16  1  0.017168  0.184405  0.902416  1
  Y  Y17  1  0.696527  0.999266  0.750000  1
  Y  Y18  1  0.801845  0.498694  0.250000  1
  Y  Y19  1  0.301765  0.000901  0.250000  1
  Sn  Sn20  1  0.292975  0.033829  0.044092  1
  Sn  Sn21  1  0.793778  0.464354  0.456292  1
  Sn  Sn22  1  0.706866  0.966602  0.545117  1
  Sn  Sn23  1  0.206640  0.537929  0.961043  1
  Sn  Sn24  1  0.706866  0.966602  0.954883  1
  Sn  Sn25  1  0.206640  0.537929  0.538957  1
  Sn  Sn26  1  0.292975  0.033829  0.455908  1
  Sn  Sn27  1  0.793778  0.464354  0.043708  1
  Sn  Sn28  1  0.567714  0.616439  0.750000  1
  Sn  Sn29  1  0.063300  0.891730  0.750000  1
  Sn  Sn30  1  0.437576  0.383689  0.250000  1
  Sn  Sn31  1  0.936835  0.115288  0.250000  1
  Sn  Sn32  1  0.327049  0.139203  0.750000  1
  Sn  Sn33  1  0.814408  0.353280  0.750000  1
  Sn  Sn34  1  0.676006  0.853264  0.250000  1
  Sn  Sn35  1  0.176639  0.645981  0.250000  1
