# generated using pymatgen
data_Hf8Ti11Si11MoP5
_symmetry_space_group_name_H-M   'P 1'
_cell_length_a   6.52166180
_cell_length_b   6.69533075
_cell_length_c   12.88270278
_cell_angle_alpha   89.97065948
_cell_angle_beta   89.94703569
_cell_angle_gamma   89.98719760
_symmetry_Int_Tables_number   1
_chemical_formula_structural   Hf8Ti11Si11MoP5
_chemical_formula_sum   'Hf8 Ti11 Si11 Mo1 P5'
_cell_volume   562.51880169
_cell_formula_units_Z   1
loop_
 _symmetry_equiv_pos_site_id
 _symmetry_equiv_pos_as_xyz
  1  'x, y, z'
loop_
 _atom_site_type_symbol
 _atom_site_label
 _atom_site_symmetry_multiplicity
 _atom_site_fract_x
 _atom_site_fract_y
 _atom_site_fract_z
 _atom_site_occupancy
  Hf  Hf0  1  0.997046  0.170547  0.095276  1
  Hf  Hf1  1  0.004500  0.829944  0.904982  1
  Hf  Hf2  1  0.503022  0.669790  0.905289  1
  Hf  Hf3  1  0.005877  0.826345  0.594025  1
  Hf  Hf4  1  0.497485  0.329012  0.094949  1
  Hf  Hf5  1  0.997732  0.173340  0.406418  1
  Hf  Hf6  1  0.494759  0.328652  0.405589  1
  Hf  Hf7  1  0.502291  0.668026  0.594155  1
  Ti  Ti8  1  0.165633  0.492381  0.748274  1
  Ti  Ti9  1  0.834101  0.507618  0.251208  1
  Ti  Ti10  1  0.334385  0.991646  0.250429  1
  Ti  Ti11  1  0.331632  0.175745  0.624493  1
  Ti  Ti12  1  0.665560  0.827621  0.374657  1
  Ti  Ti13  1  0.166329  0.668821  0.376430  1
  Ti  Ti14  1  0.666129  0.827096  0.126162  1
  Ti  Ti15  1  0.838459  0.329416  0.624836  1
  Ti  Ti16  1  0.333431  0.172255  0.873330  1
  Ti  Ti17  1  0.834529  0.327871  0.873298  1
  Ti  Ti18  1  0.165704  0.673612  0.126760  1
  Si  Si19  1  0.300757  0.860310  0.749540  1
  Si  Si20  1  0.698883  0.138518  0.250273  1
  Si  Si21  1  0.198734  0.360891  0.249795  1
  Si  Si22  1  0.802893  0.639120  0.750032  1
  Si  Si23  1  0.824535  0.538601  0.462414  1
  Si  Si24  1  0.330844  0.961744  0.462899  1
  Si  Si25  1  0.830832  0.537881  0.036868  1
  Si  Si26  1  0.669703  0.038185  0.537851  1
  Si  Si27  1  0.168501  0.462920  0.963161  1
  Si  Si28  1  0.669249  0.038183  0.962970  1
  Si  Si29  1  0.330900  0.962185  0.036764  1
  Mo  Mo30  1  0.665224  0.006655  0.749352  1
  P  P31  1  0.039105  0.120888  0.749514  1
  P  P32  1  0.961023  0.878946  0.250915  1
  P  P33  1  0.460441  0.620641  0.250322  1
  P  P34  1  0.538345  0.381653  0.749558  1
  P  P35  1  0.171427  0.462945  0.537213  1
