# generated using pymatgen
data_Tm7Th9(CdTc)4
_symmetry_space_group_name_H-M   'P 1'
_cell_length_a   9.76547858
_cell_length_b   9.76547835
_cell_length_c   9.76675000
_cell_angle_alpha   59.99569229
_cell_angle_beta   59.99569307
_cell_angle_gamma   60.33888098
_symmetry_Int_Tables_number   1
_chemical_formula_structural   Tm7Th9(CdTc)4
_chemical_formula_sum   'Tm7 Th9 Cd4 Tc4'
_cell_volume   660.22754546
_cell_formula_units_Z   1
loop_
 _symmetry_equiv_pos_site_id
 _symmetry_equiv_pos_as_xyz
  1  'x, y, z'
loop_
 _atom_site_type_symbol
 _atom_site_label
 _atom_site_symmetry_multiplicity
 _atom_site_fract_x
 _atom_site_fract_y
 _atom_site_fract_z
 _atom_site_occupancy
  Tm  Tm0  1  0.804609  0.804609  0.195391  1
  Tm  Tm1  1  0.932719  0.567497  0.564821  1
  Tm  Tm2  1  0.567497  0.932719  0.934963  1
  Tm  Tm3  1  0.567497  0.932719  0.564821  1
  Tm  Tm4  1  0.932719  0.567497  0.934963  1
  Tm  Tm5  1  0.564962  0.564962  0.935038  1
  Tm  Tm6  1  0.936556  0.936556  0.563444  1
  Th  Th7  1  0.348179  0.348179  0.347274  1
  Th  Th8  1  0.348179  0.348179  0.956368  1
  Th  Th9  1  0.351550  0.956806  0.345822  1
  Th  Th10  1  0.956806  0.351550  0.345822  1
  Th  Th11  1  0.808089  0.186807  0.191781  1
  Th  Th12  1  0.186807  0.808089  0.813323  1
  Th  Th13  1  0.186807  0.808089  0.191781  1
  Th  Th14  1  0.808089  0.186807  0.813323  1
  Th  Th15  1  0.189022  0.189022  0.810978  1
  Cd  Cd16  1  0.584010  0.584010  0.580925  1
  Cd  Cd17  1  0.584010  0.584010  0.251055  1
  Cd  Cd18  1  0.583443  0.249593  0.583482  1
  Cd  Cd19  1  0.249593  0.583443  0.583482  1
  Tc  Tc20  1  0.136899  0.136899  0.138562  1
  Tc  Tc21  1  0.136899  0.136899  0.587642  1
  Tc  Tc22  1  0.149363  0.585697  0.132470  1
  Tc  Tc23  1  0.585697  0.149363  0.132470  1
