# generated using pymatgen
data_Sm8Ta12Si15Ge
_symmetry_space_group_name_H-M   'P 1'
_cell_length_a   6.93430705
_cell_length_b   7.12883967
_cell_length_c   13.50623005
_cell_angle_alpha   90.04045963
_cell_angle_beta   89.92815482
_cell_angle_gamma   90.02752477
_symmetry_Int_Tables_number   1
_chemical_formula_structural   Sm8Ta12Si15Ge
_chemical_formula_sum   'Sm8 Ta12 Si15 Ge1'
_cell_volume   667.66030789
_cell_formula_units_Z   1
loop_
 _symmetry_equiv_pos_site_id
 _symmetry_equiv_pos_as_xyz
  1  'x, y, z'
loop_
 _atom_site_type_symbol
 _atom_site_label
 _atom_site_symmetry_multiplicity
 _atom_site_fract_x
 _atom_site_fract_y
 _atom_site_fract_z
 _atom_site_occupancy
  Sm  Sm0  1  0.503319  0.330438  0.095739  1
  Sm  Sm1  1  0.002338  0.169305  0.403893  1
  Sm  Sm2  1  0.499657  0.671540  0.596414  1
  Sm  Sm3  1  0.996578  0.830277  0.904733  1
  Sm  Sm4  1  0.496525  0.669518  0.904603  1
  Sm  Sm5  1  0.996683  0.830806  0.595874  1
  Sm  Sm6  1  0.503689  0.329124  0.403452  1
  Sm  Sm7  1  0.003238  0.169970  0.095491  1
  Ta  Ta8  1  0.663328  0.011706  0.750173  1
  Ta  Ta9  1  0.163302  0.487528  0.752045  1
  Ta  Ta10  1  0.336379  0.988341  0.249767  1
  Ta  Ta11  1  0.836630  0.512092  0.249854  1
  Ta  Ta12  1  0.836016  0.324176  0.626157  1
  Ta  Ta13  1  0.337947  0.175217  0.874490  1
  Ta  Ta14  1  0.161960  0.675395  0.125556  1
  Ta  Ta15  1  0.661566  0.825173  0.373858  1
  Ta  Ta16  1  0.160368  0.677867  0.372650  1
  Ta  Ta17  1  0.661135  0.824493  0.125581  1
  Ta  Ta18  1  0.838100  0.324533  0.874463  1
  Ta  Ta19  1  0.340860  0.171587  0.626972  1
  Si  Si20  1  0.798060  0.621615  0.750216  1
  Si  Si21  1  0.296868  0.877166  0.750616  1
  Si  Si22  1  0.202390  0.378374  0.249718  1
  Si  Si23  1  0.702585  0.121683  0.249563  1
  Si  Si24  1  0.542824  0.373647  0.750396  1
  Si  Si25  1  0.042787  0.126629  0.749979  1
  Si  Si26  1  0.456795  0.626569  0.249896  1
  Si  Si27  1  0.956144  0.874070  0.249079  1
  Si  Si28  1  0.662652  0.039010  0.541009  1
  Si  Si29  1  0.161764  0.461419  0.958647  1
  Si  Si30  1  0.337824  0.961617  0.041508  1
  Si  Si31  1  0.834279  0.539540  0.457647  1
  Si  Si32  1  0.337592  0.960885  0.458643  1
  Si  Si33  1  0.838265  0.538690  0.041684  1
  Si  Si34  1  0.661809  0.038603  0.958573  1
  Ge  Ge35  1  0.167747  0.461400  0.541064  1
