# generated using pymatgen
data_Er10CuSn6As
_symmetry_space_group_name_H-M   'P 1'
_cell_length_a   9.04098900
_cell_length_b   9.04098739
_cell_length_c   6.57711100
_cell_angle_alpha   90.00000000
_cell_angle_beta   90.00000000
_cell_angle_gamma   120.00000955
_symmetry_Int_Tables_number   1
_chemical_formula_structural   Er10CuSn6As
_chemical_formula_sum   'Er10 Cu1 Sn6 As1'
_cell_volume   465.58348368
_cell_formula_units_Z   1
loop_
 _symmetry_equiv_pos_site_id
 _symmetry_equiv_pos_as_xyz
  1  'x, y, z'
loop_
 _atom_site_type_symbol
 _atom_site_label
 _atom_site_symmetry_multiplicity
 _atom_site_fract_x
 _atom_site_fract_y
 _atom_site_fract_z
 _atom_site_occupancy
  Er  Er0  1  0.253147  0.000000  0.244737  1
  Er  Er1  1  0.746853  0.000000  0.755263  1
  Er  Er2  1  0.000000  0.253147  0.244737  1
  Er  Er3  1  0.000000  0.746853  0.755263  1
  Er  Er4  1  0.746853  0.746853  0.244737  1
  Er  Er5  1  0.253147  0.253147  0.755263  1
  Er  Er6  1  0.333333  0.666667  0.000000  1
  Er  Er7  1  0.666667  0.333333  0.000000  1
  Er  Er8  1  0.666667  0.333333  0.500000  1
  Er  Er9  1  0.333333  0.666667  0.500000  1
  Cu  Cu10  1  0.000000  0.000000  0.500000  1
  Sn  Sn11  1  0.606291  0.000000  0.249253  1
  Sn  Sn12  1  0.393709  0.000000  0.750747  1
  Sn  Sn13  1  0.000000  0.606291  0.249253  1
  Sn  Sn14  1  0.000000  0.393709  0.750747  1
  Sn  Sn15  1  0.393709  0.393709  0.249253  1
  Sn  Sn16  1  0.606291  0.606291  0.750747  1
  As  As17  1  0.000000  0.000000  0.000000  1
