# generated using pymatgen
data_Y2Ga9Ru2Rh
_symmetry_space_group_name_H-M   'P 1'
_cell_length_a   7.52424215
_cell_length_b   7.52424297
_cell_length_c   9.68814600
_cell_angle_alpha   90.00000000
_cell_angle_beta   90.00000000
_cell_angle_gamma   119.91618091
_symmetry_Int_Tables_number   1
_chemical_formula_structural   Y2Ga9Ru2Rh
_chemical_formula_sum   'Y4 Ga18 Ru4 Rh2'
_cell_volume   475.40426628
_cell_formula_units_Z   2
loop_
 _symmetry_equiv_pos_site_id
 _symmetry_equiv_pos_as_xyz
  1  'x, y, z'
loop_
 _atom_site_type_symbol
 _atom_site_label
 _atom_site_symmetry_multiplicity
 _atom_site_fract_x
 _atom_site_fract_y
 _atom_site_fract_z
 _atom_site_occupancy
  Y  Y0  1  0.997053  0.666613  0.250000  1
  Y  Y1  1  0.002947  0.333387  0.750000  1
  Y  Y2  1  0.666613  0.997053  0.250000  1
  Y  Y3  1  0.333387  0.002947  0.750000  1
  Ga  Ga4  1  0.337740  0.337741  0.561226  1
  Ga  Ga5  1  0.662259  0.662260  0.438774  1
  Ga  Ga6  1  0.662259  0.662260  0.061226  1
  Ga  Ga7  1  0.337740  0.337741  0.938774  1
  Ga  Ga8  1  0.336618  0.546645  0.250000  1
  Ga  Ga9  1  0.663382  0.453355  0.750000  1
  Ga  Ga10  1  0.546645  0.336618  0.250000  1
  Ga  Ga11  1  0.453355  0.663382  0.750000  1
  Ga  Ga12  1  0.003159  0.335190  0.076723  1
  Ga  Ga13  1  0.996841  0.664810  0.923277  1
  Ga  Ga14  1  0.996841  0.664810  0.576723  1
  Ga  Ga15  1  0.335190  0.003159  0.423277  1
  Ga  Ga16  1  0.003159  0.335190  0.423277  1
  Ga  Ga17  1  0.664810  0.996841  0.576723  1
  Ga  Ga18  1  0.664810  0.996841  0.923277  1
  Ga  Ga19  1  0.335190  0.003159  0.076723  1
  Ga  Ga20  1  0.126372  0.126372  0.250000  1
  Ga  Ga21  1  0.873628  0.873628  0.750000  1
  Ru  Ru22  1  0.673679  0.326321  0.000000  1
  Ru  Ru23  1  0.326321  0.673679  0.000000  1
  Ru  Ru24  1  0.326321  0.673679  0.500000  1
  Ru  Ru25  1  0.673679  0.326321  0.500000  1
  Rh  Rh26  1  0.000000  0.000000  0.000000  1
  Rh  Rh27  1  0.000000  0.000000  0.500000  1
