# generated using pymatgen
data_Tb7YRe2(B12Ru)2
_symmetry_space_group_name_H-M   'P 1'
_cell_length_a   3.68897300
_cell_length_b   9.18328062
_cell_length_c   11.57663356
_cell_angle_alpha   89.79331629
_cell_angle_beta   90.00000000
_cell_angle_gamma   90.00000000
_symmetry_Int_Tables_number   1
_chemical_formula_structural   Tb7YRe2(B12Ru)2
_chemical_formula_sum   'Tb7 Y1 Re2 B24 Ru2'
_cell_volume   392.17760804
_cell_formula_units_Z   1
loop_
 _symmetry_equiv_pos_site_id
 _symmetry_equiv_pos_as_xyz
  1  'x, y, z'
loop_
 _atom_site_type_symbol
 _atom_site_label
 _atom_site_symmetry_multiplicity
 _atom_site_fract_x
 _atom_site_fract_y
 _atom_site_fract_z
 _atom_site_occupancy
  Tb  Tb0  1  0.000000  0.325420  0.415456  1
  Tb  Tb1  1  0.000000  0.674693  0.584688  1
  Tb  Tb2  1  0.000000  0.821644  0.087731  1
  Tb  Tb3  1  0.000000  0.178260  0.912175  1
  Tb  Tb4  1  0.000000  0.943037  0.370604  1
  Tb  Tb5  1  0.000000  0.057041  0.629442  1
  Tb  Tb6  1  0.000000  0.442635  0.129384  1
  Y  Y7  1  0.000000  0.557208  0.870652  1
  Re  Re8  1  0.000000  0.638288  0.320392  1
  Re  Re9  1  0.000000  0.361923  0.679609  1
  B  B10  1  0.500000  0.553225  0.432720  1
  B  B11  1  0.500000  0.446941  0.567412  1
  B  B12  1  0.500000  0.053792  0.067206  1
  B  B13  1  0.500000  0.945916  0.932743  1
  B  B14  1  0.500000  0.748071  0.418695  1
  B  B15  1  0.500000  0.252092  0.581346  1
  B  B16  1  0.500000  0.247662  0.081153  1
  B  B17  1  0.500000  0.751950  0.918861  1
  B  B18  1  0.500000  0.791206  0.265697  1
  B  B19  1  0.500000  0.208967  0.734347  1
  B  B20  1  0.500000  0.290033  0.233532  1
  B  B21  1  0.500000  0.709638  0.766406  1
  B  B22  1  0.500000  0.631499  0.185627  1
  B  B23  1  0.500000  0.368671  0.814529  1
  B  B24  1  0.500000  0.131321  0.313245  1
  B  B25  1  0.500000  0.868592  0.686780  1
  B  B26  1  0.500000  0.983879  0.211721  1
  B  B27  1  0.500000  0.016031  0.788276  1
  B  B28  1  0.500000  0.483434  0.287619  1
  B  B29  1  0.500000  0.516901  0.712570  1
  B  B30  1  0.500000  0.604292  0.028593  1
  B  B31  1  0.500000  0.395873  0.970853  1
  B  B32  1  0.500000  0.104134  0.470905  1
  B  B33  1  0.500000  0.895930  0.529116  1
  Ru  Ru34  1  0.000000  0.137724  0.178112  1
  Ru  Ru35  1  0.000000  0.862076  0.821800  1
