# generated using pymatgen
data_Tb3Tm(Al8Pt3)3
_symmetry_space_group_name_H-M   'P 1'
_cell_length_a   7.53282095
_cell_length_b   7.55038803
_cell_length_c   13.17666961
_cell_angle_alpha   84.57466223
_cell_angle_beta   79.09671794
_cell_angle_gamma   59.99003195
_symmetry_Int_Tables_number   1
_chemical_formula_structural   Tb3Tm(Al8Pt3)3
_chemical_formula_sum   'Tb3 Tm1 Al24 Pt9'
_cell_volume   637.24730693
_cell_formula_units_Z   1
loop_
 _symmetry_equiv_pos_site_id
 _symmetry_equiv_pos_as_xyz
  1  'x, y, z'
loop_
 _atom_site_type_symbol
 _atom_site_label
 _atom_site_symmetry_multiplicity
 _atom_site_fract_x
 _atom_site_fract_y
 _atom_site_fract_z
 _atom_site_occupancy
  Tb  Tb0  1  0.393619  0.168583  0.808092  1
  Tb  Tb1  1  0.606497  0.831499  0.191940  1
  Tb  Tb2  1  0.733595  0.498593  0.808036  1
  Tm  Tm3  1  0.265691  0.501368  0.193101  1
  Al  Al4  1  0.684445  0.833813  0.944670  1
  Al  Al5  1  0.315374  0.167107  0.055930  1
  Al  Al6  1  0.146641  0.832428  0.561442  1
  Al  Al7  1  0.853465  0.167504  0.438299  1
  Al  Al8  1  0.479542  0.166833  0.558513  1
  Al  Al9  1  0.520450  0.833245  0.441246  1
  Al  Al10  1  0.217199  0.165710  0.329542  1
  Al  Al11  1  0.783077  0.834619  0.669831  1
  Al  Al12  1  0.437279  0.506636  0.669977  1
  Al  Al13  1  0.562416  0.493351  0.329417  1
  Al  Al14  1  0.109721  0.159500  0.668810  1
  Al  Al15  1  0.890980  0.840097  0.330508  1
  Al  Al16  1  0.352306  0.499767  0.945273  1
  Al  Al17  1  0.646328  0.500277  0.055924  1
  Al  Al18  1  0.015336  0.167355  0.953338  1
  Al  Al19  1  0.985240  0.831902  0.047374  1
  Al  Al20  1  0.187024  0.499173  0.441149  1
  Al  Al21  1  0.813186  0.500811  0.558494  1
  Al  Al22  1  0.733604  0.165078  0.183543  1
  Al  Al23  1  0.265554  0.835796  0.816449  1
  Al  Al24  1  0.061740  0.631610  0.815369  1
  Al  Al25  1  0.939302  0.368292  0.184596  1
  Al  Al26  1  0.855827  0.041285  0.816016  1
  Al  Al27  1  0.144213  0.957627  0.183941  1
  Pt  Pt28  1  0.119921  0.491970  0.638666  1
  Pt  Pt29  1  0.880729  0.508127  0.360894  1
  Pt  Pt30  1  0.657151  0.171418  0.000050  1
  Pt  Pt31  1  0.342716  0.828603  0.000263  1
  Pt  Pt32  1  0.537418  0.167219  0.360973  1
  Pt  Pt33  1  0.462164  0.833270  0.638585  1
  Pt  Pt34  1  0.778707  0.175005  0.637128  1
  Pt  Pt35  1  0.221613  0.824394  0.362422  1
  Pt  Pt36  1  0.999928  0.500135  0.000199  1
