# generated using pymatgen
data_FeCu(OsO3)4
_symmetry_space_group_name_H-M   'P 1'
_cell_length_a   4.58957203
_cell_length_b   4.58957203
_cell_length_c   9.35316100
_cell_angle_alpha   90.00000000
_cell_angle_beta   90.00000000
_cell_angle_gamma   90.01413178
_symmetry_Int_Tables_number   1
_chemical_formula_structural   FeCu(OsO3)4
_chemical_formula_sum   'Fe1 Cu1 Os4 O12'
_cell_volume   197.01658104
_cell_formula_units_Z   1
loop_
 _symmetry_equiv_pos_site_id
 _symmetry_equiv_pos_as_xyz
  1  'x, y, z'
loop_
 _atom_site_type_symbol
 _atom_site_label
 _atom_site_symmetry_multiplicity
 _atom_site_fract_x
 _atom_site_fract_y
 _atom_site_fract_z
 _atom_site_occupancy
  Fe  Fe0  1  0.000000  0.000000  0.000000  1
  Cu  Cu1  1  0.500000  0.500000  0.500000  1
  Os  Os2  1  0.000000  0.000000  0.668296  1
  Os  Os3  1  0.500000  0.500000  0.169027  1
  Os  Os4  1  0.500000  0.500000  0.830973  1
  Os  Os5  1  0.000000  0.000000  0.331704  1
  O  O6  1  0.199942  0.800058  0.832001  1
  O  O7  1  0.708487  0.708487  0.317539  1
  O  O8  1  0.812296  0.187704  0.500000  1
  O  O9  1  0.291513  0.291513  0.682461  1
  O  O10  1  0.800058  0.199942  0.832001  1
  O  O11  1  0.187704  0.812296  0.500000  1
  O  O12  1  0.312547  0.312547  0.000000  1
  O  O13  1  0.687453  0.687453  0.000000  1
  O  O14  1  0.291513  0.291513  0.317539  1
  O  O15  1  0.199942  0.800058  0.167999  1
  O  O16  1  0.708487  0.708487  0.682461  1
  O  O17  1  0.800058  0.199942  0.167999  1
