# generated using pymatgen
data_Dy3Tm(Si2Rh)2
_symmetry_space_group_name_H-M   'P 1'
_cell_length_a   5.68129149
_cell_length_b   5.68129095
_cell_length_c   10.06114923
_cell_angle_alpha   116.24791938
_cell_angle_beta   116.24791556
_cell_angle_gamma   43.40451148
_symmetry_Int_Tables_number   1
_chemical_formula_structural   Dy3Tm(Si2Rh)2
_chemical_formula_sum   'Dy3 Tm1 Si4 Rh2'
_cell_volume   196.24558917
_cell_formula_units_Z   1
loop_
 _symmetry_equiv_pos_site_id
 _symmetry_equiv_pos_as_xyz
  1  'x, y, z'
loop_
 _atom_site_type_symbol
 _atom_site_label
 _atom_site_symmetry_multiplicity
 _atom_site_fract_x
 _atom_site_fract_y
 _atom_site_fract_z
 _atom_site_occupancy
  Dy  Dy0  1  0.000692  0.000692  0.174192  1
  Dy  Dy1  1  0.814513  0.814513  0.390059  1
  Dy  Dy2  1  0.185859  0.185859  0.610809  1
  Tm  Tm3  1  0.000532  0.000532  0.826636  1
  Si  Si4  1  0.638731  0.638731  0.063951  1
  Si  Si5  1  0.511550  0.511550  0.380322  1
  Si  Si6  1  0.488021  0.488021  0.621356  1
  Si  Si7  1  0.361356  0.361356  0.934708  1
  Rh  Rh8  1  0.273701  0.273701  0.127367  1
  Rh  Rh9  1  0.725046  0.725046  0.870601  1
