# generated using pymatgen
data_SmTiCoO5
_symmetry_space_group_name_H-M   'P 1'
_cell_length_a   5.76201400
_cell_length_b   7.48001900
_cell_length_c   8.57047400
_cell_angle_alpha   90.00000000
_cell_angle_beta   90.00000000
_cell_angle_gamma   90.00000000
_symmetry_Int_Tables_number   1
_chemical_formula_structural   SmTiCoO5
_chemical_formula_sum   'Sm4 Ti4 Co4 O20'
_cell_volume   369.38720827
_cell_formula_units_Z   4
loop_
 _symmetry_equiv_pos_site_id
 _symmetry_equiv_pos_as_xyz
  1  'x, y, z'
loop_
 _atom_site_type_symbol
 _atom_site_label
 _atom_site_symmetry_multiplicity
 _atom_site_fract_x
 _atom_site_fract_y
 _atom_site_fract_z
 _atom_site_occupancy
  Sm  Sm0  1  0.500000  0.361196  0.327597  1
  Sm  Sm1  1  0.500000  0.638804  0.672403  1
  Sm  Sm2  1  0.500000  0.138804  0.827597  1
  Sm  Sm3  1  0.500000  0.861196  0.172403  1
  Ti  Ti4  1  0.000000  0.121970  0.145922  1
  Ti  Ti5  1  0.000000  0.878030  0.854078  1
  Ti  Ti6  1  0.000000  0.378030  0.645922  1
  Ti  Ti7  1  0.000000  0.621970  0.354078  1
  Co  Co8  1  0.252139  0.000000  0.500000  1
  Co  Co9  1  0.747861  0.000000  0.500000  1
  Co  Co10  1  0.747861  0.500000  0.000000  1
  Co  Co11  1  0.252139  0.500000  0.000000  1
  O  O12  1  0.219975  0.000000  0.000000  1
  O  O13  1  0.780025  0.000000  0.000000  1
  O  O14  1  0.780025  0.500000  0.500000  1
  O  O15  1  0.219975  0.500000  0.500000  1
  O  O16  1  0.000000  0.346607  0.070989  1
  O  O17  1  0.000000  0.653393  0.929011  1
  O  O18  1  0.000000  0.153393  0.570989  1
  O  O19  1  0.000000  0.846607  0.429011  1
  O  O20  1  0.248992  0.105189  0.292024  1
  O  O21  1  0.751008  0.894811  0.707976  1
  O  O22  1  0.248992  0.894811  0.707976  1
  O  O23  1  0.751008  0.394811  0.792024  1
  O  O24  1  0.751008  0.105189  0.292024  1
  O  O25  1  0.248992  0.605189  0.207976  1
  O  O26  1  0.751008  0.605189  0.207976  1
  O  O27  1  0.248992  0.394811  0.792024  1
  O  O28  1  0.500000  0.342139  0.054685  1
  O  O29  1  0.500000  0.657861  0.945315  1
  O  O30  1  0.500000  0.157861  0.554685  1
  O  O31  1  0.500000  0.842139  0.445315  1
