# generated using pymatgen
data_Dy3YMg2(Ni7B2)2
_symmetry_space_group_name_H-M   'P 1'
_cell_length_a   5.00333140
_cell_length_b   5.00138505
_cell_length_c   14.17780200
_cell_angle_alpha   90.00013298
_cell_angle_beta   90.00080480
_cell_angle_gamma   119.98604022
_symmetry_Int_Tables_number   1
_chemical_formula_structural   Dy3YMg2(Ni7B2)2
_chemical_formula_sum   'Dy3 Y1 Mg2 Ni14 B4'
_cell_volume   307.29123614
_cell_formula_units_Z   1
loop_
 _symmetry_equiv_pos_site_id
 _symmetry_equiv_pos_as_xyz
  1  'x, y, z'
loop_
 _atom_site_type_symbol
 _atom_site_label
 _atom_site_symmetry_multiplicity
 _atom_site_fract_x
 _atom_site_fract_y
 _atom_site_fract_z
 _atom_site_occupancy
  Dy  Dy0  1  0.333225  0.666610  0.029567  1
  Dy  Dy1  1  0.666638  0.333314  0.755572  1
  Dy  Dy2  1  0.333360  0.666685  0.255454  1
  Y  Y3  1  0.666781  0.333389  0.529600  1
  Mg  Mg4  1  0.333246  0.666618  0.467912  1
  Mg  Mg5  1  0.666757  0.333383  0.967943  1
  Ni  Ni6  1  0.834858  0.669695  0.352573  1
  Ni  Ni7  1  0.330310  0.165161  0.352543  1
  Ni  Ni8  1  0.999914  0.999956  0.999181  1
  Ni  Ni9  1  0.000098  0.000052  0.499086  1
  Ni  Ni10  1  0.833754  0.166211  0.147271  1
  Ni  Ni11  1  0.667644  0.833818  0.647473  1
  Ni  Ni12  1  0.166216  0.332389  0.647424  1
  Ni  Ni13  1  0.833756  0.667549  0.147262  1
  Ni  Ni14  1  0.332416  0.166211  0.147313  1
  Ni  Ni15  1  0.669526  0.834756  0.852690  1
  Ni  Ni16  1  0.165218  0.330462  0.852694  1
  Ni  Ni17  1  0.166215  0.833822  0.647431  1
  Ni  Ni18  1  0.165223  0.834746  0.852694  1
  Ni  Ni19  1  0.834851  0.165175  0.352576  1
  B  B20  1  0.666685  0.333351  0.250141  1
  B  B21  1  0.333318  0.666652  0.750155  1
  B  B22  1  0.000016  0.000009  0.747761  1
  B  B23  1  0.999976  0.999985  0.247683  1
