# generated using pymatgen
data_Pr4Al18RePt4Rh
_symmetry_space_group_name_H-M   'P 1'
_cell_length_a   7.68534475
_cell_length_b   7.68534622
_cell_length_c   9.65615997
_cell_angle_alpha   89.86324196
_cell_angle_beta   89.86323605
_cell_angle_gamma   119.37820030
_symmetry_Int_Tables_number   1
_chemical_formula_structural   Pr4Al18RePt4Rh
_chemical_formula_sum   'Pr4 Al18 Re1 Pt4 Rh1'
_cell_volume   496.98605501
_cell_formula_units_Z   1
loop_
 _symmetry_equiv_pos_site_id
 _symmetry_equiv_pos_as_xyz
  1  'x, y, z'
loop_
 _atom_site_type_symbol
 _atom_site_label
 _atom_site_symmetry_multiplicity
 _atom_site_fract_x
 _atom_site_fract_y
 _atom_site_fract_z
 _atom_site_occupancy
  Pr  Pr0  1  0.993967  0.669421  0.749286  1
  Pr  Pr1  1  0.006033  0.330579  0.250714  1
  Pr  Pr2  1  0.669421  0.993967  0.749286  1
  Pr  Pr3  1  0.330579  0.006033  0.250714  1
  Al  Al4  1  0.128053  0.128053  0.749802  1
  Al  Al5  1  0.871947  0.871947  0.250198  1
  Al  Al6  1  0.001874  0.329526  0.573184  1
  Al  Al7  1  0.998126  0.670474  0.426816  1
  Al  Al8  1  0.997977  0.668842  0.074362  1
  Al  Al9  1  0.331158  0.002023  0.925638  1
  Al  Al10  1  0.002023  0.331158  0.925638  1
  Al  Al11  1  0.668842  0.997977  0.074362  1
  Al  Al12  1  0.670474  0.998126  0.426816  1
  Al  Al13  1  0.329526  0.001874  0.573184  1
  Al  Al14  1  0.331007  0.331007  0.050085  1
  Al  Al15  1  0.668993  0.668993  0.949915  1
  Al  Al16  1  0.669725  0.669725  0.549114  1
  Al  Al17  1  0.330275  0.330275  0.450886  1
  Al  Al18  1  0.341175  0.543791  0.750226  1
  Al  Al19  1  0.658825  0.456209  0.249774  1
  Al  Al20  1  0.543791  0.341175  0.750226  1
  Al  Al21  1  0.456209  0.658825  0.249774  1
  Re  Re22  1  0.000000  0.000000  0.500000  1
  Pt  Pt23  1  0.670822  0.329178  0.500000  1
  Pt  Pt24  1  0.329178  0.670822  0.500000  1
  Pt  Pt25  1  0.328902  0.671098  0.000000  1
  Pt  Pt26  1  0.671098  0.328902  0.000000  1
  Rh  Rh27  1  0.000000  0.000000  0.000000  1
