# generated using pymatgen
data_PrHo2Al12(OsRh)2
_symmetry_space_group_name_H-M   'P 1'
_cell_length_a   8.83622200
_cell_length_b   8.87630430
_cell_length_c   9.60974900
_cell_angle_alpha   90.00000000
_cell_angle_beta   90.00000000
_cell_angle_gamma   119.85073552
_symmetry_Int_Tables_number   1
_chemical_formula_structural   PrHo2Al12(OsRh)2
_chemical_formula_sum   'Pr2 Ho4 Al24 Os4 Rh4'
_cell_volume   653.72144361
_cell_formula_units_Z   2
loop_
 _symmetry_equiv_pos_site_id
 _symmetry_equiv_pos_as_xyz
  1  'x, y, z'
loop_
 _atom_site_type_symbol
 _atom_site_label
 _atom_site_symmetry_multiplicity
 _atom_site_fract_x
 _atom_site_fract_y
 _atom_site_fract_z
 _atom_site_occupancy
  Pr  Pr0  1  0.188165  0.376331  0.250000  1
  Pr  Pr1  1  0.811835  0.623669  0.750000  1
  Ho  Ho2  1  0.612239  0.812807  0.250000  1
  Ho  Ho3  1  0.387761  0.187193  0.750000  1
  Ho  Ho4  1  0.200568  0.812807  0.250000  1
  Ho  Ho5  1  0.799432  0.187193  0.750000  1
  Al  Al6  1  0.333821  0.667642  0.023187  1
  Al  Al7  1  0.666179  0.332358  0.976813  1
  Al  Al8  1  0.666179  0.332358  0.523187  1
  Al  Al9  1  0.333821  0.667642  0.476813  1
  Al  Al10  1  0.162675  0.325349  0.578604  1
  Al  Al11  1  0.837325  0.674651  0.421396  1
  Al  Al12  1  0.671549  0.838058  0.575000  1
  Al  Al13  1  0.837325  0.674651  0.078604  1
  Al  Al14  1  0.328451  0.161942  0.425000  1
  Al  Al15  1  0.162675  0.325349  0.921396  1
  Al  Al16  1  0.166509  0.838058  0.575000  1
  Al  Al17  1  0.328451  0.161942  0.075000  1
  Al  Al18  1  0.833491  0.161942  0.425000  1
  Al  Al19  1  0.671549  0.838058  0.925000  1
  Al  Al20  1  0.833491  0.161942  0.075000  1
  Al  Al21  1  0.166509  0.838058  0.925000  1
  Al  Al22  1  0.563198  0.126397  0.250000  1
  Al  Al23  1  0.436802  0.873603  0.750000  1
  Al  Al24  1  0.877012  0.440473  0.250000  1
  Al  Al25  1  0.122988  0.559527  0.750000  1
  Al  Al26  1  0.563460  0.440473  0.250000  1
  Al  Al27  1  0.436540  0.559527  0.750000  1
  Al  Al28  1  0.997045  0.994091  0.250000  1
  Al  Al29  1  0.002955  0.005909  0.750000  1
  Os  Os30  1  0.500000  0.000000  0.000000  1
  Os  Os31  1  0.500000  0.000000  0.500000  1
  Os  Os32  1  0.000000  0.000000  0.000000  1
  Os  Os33  1  0.000000  0.000000  0.500000  1
  Rh  Rh34  1  0.000000  0.500000  0.000000  1
  Rh  Rh35  1  0.500000  0.500000  0.000000  1
  Rh  Rh36  1  0.000000  0.500000  0.500000  1
  Rh  Rh37  1  0.500000  0.500000  0.500000  1
