# generated using pymatgen
data_Ho12IrOs2Ru
_symmetry_space_group_name_H-M   'P 1'
_cell_length_a   6.34243717
_cell_length_b   7.32850094
_cell_length_c   9.04543200
_cell_angle_alpha   90.00000000
_cell_angle_beta   90.00000000
_cell_angle_gamma   89.90770331
_symmetry_Int_Tables_number   1
_chemical_formula_structural   Ho12IrOs2Ru
_chemical_formula_sum   'Ho12 Ir1 Os2 Ru1'
_cell_volume   420.43617034
_cell_formula_units_Z   1
loop_
 _symmetry_equiv_pos_site_id
 _symmetry_equiv_pos_as_xyz
  1  'x, y, z'
loop_
 _atom_site_type_symbol
 _atom_site_label
 _atom_site_symmetry_multiplicity
 _atom_site_fract_x
 _atom_site_fract_y
 _atom_site_fract_z
 _atom_site_occupancy
  Ho  Ho0  1  0.330933  0.674565  0.063940  1
  Ho  Ho1  1  0.170187  0.176633  0.437642  1
  Ho  Ho2  1  0.668923  0.324680  0.563262  1
  Ho  Ho3  1  0.829548  0.825100  0.935670  1
  Ho  Ho4  1  0.668923  0.324680  0.936738  1
  Ho  Ho5  1  0.829548  0.825100  0.564330  1
  Ho  Ho6  1  0.330933  0.674565  0.436060  1
  Ho  Ho7  1  0.170187  0.176633  0.062358  1
  Ho  Ho8  1  0.869938  0.537897  0.250000  1
  Ho  Ho9  1  0.629781  0.039679  0.250000  1
  Ho  Ho10  1  0.132750  0.460676  0.750000  1
  Ho  Ho11  1  0.368537  0.959073  0.750000  1
  Ir  Ir12  1  0.039468  0.883885  0.250000  1
  Os  Os13  1  0.460477  0.384070  0.250000  1
  Os  Os14  1  0.962326  0.116085  0.750000  1
  Ru  Ru15  1  0.537539  0.616680  0.750000  1
