# generated using pymatgen
data_Ho16Cd4CuRu3
_symmetry_space_group_name_H-M   'P 1'
_cell_length_a   9.53071659
_cell_length_b   9.61969944
_cell_length_c   9.61970000
_cell_angle_alpha   59.99999807
_cell_angle_beta   59.69066792
_cell_angle_gamma   59.69066887
_symmetry_Int_Tables_number   1
_chemical_formula_structural   Ho16Cd4CuRu3
_chemical_formula_sum   'Ho16 Cd4 Cu1 Ru3'
_cell_volume   620.70767613
_cell_formula_units_Z   1
loop_
 _symmetry_equiv_pos_site_id
 _symmetry_equiv_pos_as_xyz
  1  'x, y, z'
loop_
 _atom_site_type_symbol
 _atom_site_label
 _atom_site_symmetry_multiplicity
 _atom_site_fract_x
 _atom_site_fract_y
 _atom_site_fract_z
 _atom_site_occupancy
  Ho  Ho0  1  0.346662  0.350979  0.350979  1
  Ho  Ho1  1  0.346662  0.350979  0.951382  1
  Ho  Ho2  1  0.346662  0.951382  0.350979  1
  Ho  Ho3  1  0.963851  0.345383  0.345383  1
  Ho  Ho4  1  0.816163  0.189041  0.189041  1
  Ho  Ho5  1  0.187008  0.811980  0.811980  1
  Ho  Ho6  1  0.187008  0.811980  0.189033  1
  Ho  Ho7  1  0.816163  0.189041  0.805755  1
  Ho  Ho8  1  0.187008  0.189033  0.811980  1
  Ho  Ho9  1  0.816163  0.805755  0.189041  1
  Ho  Ho10  1  0.935277  0.563267  0.563267  1
  Ho  Ho11  1  0.558054  0.937403  0.937403  1
  Ho  Ho12  1  0.558054  0.937403  0.567140  1
  Ho  Ho13  1  0.935277  0.563267  0.938191  1
  Ho  Ho14  1  0.558054  0.567140  0.937403  1
  Ho  Ho15  1  0.935277  0.938191  0.563267  1
  Cd  Cd16  1  0.580396  0.579953  0.579953  1
  Cd  Cd17  1  0.580396  0.579953  0.259698  1
  Cd  Cd18  1  0.580396  0.259698  0.579953  1
  Cd  Cd19  1  0.256229  0.581256  0.581256  1
  Cu  Cu20  1  0.571771  0.142743  0.142743  1
  Ru  Ru21  1  0.145825  0.139156  0.139156  1
  Ru  Ru22  1  0.145825  0.139156  0.575862  1
  Ru  Ru23  1  0.145825  0.575862  0.139156  1
