# generated using pymatgen
data_Er7Tm3(In2Ni)4
_symmetry_space_group_name_H-M   'P 1'
_cell_length_a   3.56205600
_cell_length_b   7.96766600
_cell_length_c   17.83938700
_cell_angle_alpha   89.99837484
_cell_angle_beta   90.00000000
_cell_angle_gamma   90.00000000
_symmetry_Int_Tables_number   1
_chemical_formula_structural   Er7Tm3(In2Ni)4
_chemical_formula_sum   'Er7 Tm3 In8 Ni4'
_cell_volume   506.30450324
_cell_formula_units_Z   1
loop_
 _symmetry_equiv_pos_site_id
 _symmetry_equiv_pos_as_xyz
  1  'x, y, z'
loop_
 _atom_site_type_symbol
 _atom_site_label
 _atom_site_symmetry_multiplicity
 _atom_site_fract_x
 _atom_site_fract_y
 _atom_site_fract_z
 _atom_site_occupancy
  Er  Er0  1  0.000000  0.500007  0.500001  1
  Er  Er1  1  0.000000  0.000058  0.999999  1
  Er  Er2  1  0.000000  0.746485  0.277855  1
  Er  Er3  1  0.000000  0.253585  0.722179  1
  Er  Er4  1  0.000000  0.753514  0.777851  1
  Er  Er5  1  0.000000  0.246400  0.222189  1
  Er  Er6  1  0.000000  0.617005  0.088352  1
  Tm  Tm7  1  0.000000  0.383126  0.911451  1
  Tm  Tm8  1  0.000000  0.883138  0.588523  1
  Tm  Tm9  1  0.000000  0.116887  0.411498  1
  In  In10  1  0.500000  0.705457  0.930974  1
  In  In11  1  0.500000  0.294267  0.068912  1
  In  In12  1  0.500000  0.794562  0.431104  1
  In  In13  1  0.500000  0.205394  0.568930  1
  In  In14  1  0.500000  0.572581  0.651531  1
  In  In15  1  0.500000  0.427436  0.348496  1
  In  In16  1  0.500000  0.927657  0.151568  1
  In  In17  1  0.500000  0.072580  0.848458  1
  Ni  Ni18  1  0.500000  0.524394  0.195629  1
  Ni  Ni19  1  0.500000  0.475461  0.804505  1
  Ni  Ni20  1  0.500000  0.975470  0.695486  1
  Ni  Ni21  1  0.500000  0.024537  0.304506  1
