# generated using pymatgen
data_Ho15Th(ZnNi)4
_symmetry_space_group_name_H-M   'P 1'
_cell_length_a   9.37819371
_cell_length_b   9.37819272
_cell_length_c   9.37819300
_cell_angle_alpha   60.10229811
_cell_angle_beta   60.10230864
_cell_angle_gamma   60.10229329
_symmetry_Int_Tables_number   1
_chemical_formula_structural   Ho15Th(ZnNi)4
_chemical_formula_sum   'Ho15 Th1 Zn4 Ni4'
_cell_volume   584.58545474
_cell_formula_units_Z   1
loop_
 _symmetry_equiv_pos_site_id
 _symmetry_equiv_pos_as_xyz
  1  'x, y, z'
loop_
 _atom_site_type_symbol
 _atom_site_label
 _atom_site_symmetry_multiplicity
 _atom_site_fract_x
 _atom_site_fract_y
 _atom_site_fract_z
 _atom_site_occupancy
  Ho  Ho0  1  0.603223  0.603223  0.189835  1
  Ho  Ho1  1  0.603223  0.189835  0.603223  1
  Ho  Ho2  1  0.189835  0.603223  0.603223  1
  Ho  Ho3  1  0.059996  0.440533  0.440533  1
  Ho  Ho4  1  0.443352  0.058091  0.058091  1
  Ho  Ho5  1  0.440533  0.059996  0.440533  1
  Ho  Ho6  1  0.058091  0.443352  0.058091  1
  Ho  Ho7  1  0.440533  0.440533  0.059996  1
  Ho  Ho8  1  0.058091  0.058091  0.443352  1
  Ho  Ho9  1  0.186624  0.815446  0.815446  1
  Ho  Ho10  1  0.815209  0.185742  0.185742  1
  Ho  Ho11  1  0.815446  0.186624  0.815446  1
  Ho  Ho12  1  0.185742  0.815209  0.185742  1
  Ho  Ho13  1  0.815446  0.815446  0.186624  1
  Ho  Ho14  1  0.185742  0.185742  0.815209  1
  Th  Th15  1  0.599457  0.599457  0.599457  1
  Zn  Zn16  1  0.828897  0.828897  0.828897  1
  Zn  Zn17  1  0.829643  0.829643  0.511081  1
  Zn  Zn18  1  0.829643  0.511081  0.829643  1
  Zn  Zn19  1  0.511081  0.829643  0.829643  1
  Ni  Ni20  1  0.393755  0.393755  0.393755  1
  Ni  Ni21  1  0.393232  0.393232  0.819974  1
  Ni  Ni22  1  0.393232  0.819974  0.393232  1
  Ni  Ni23  1  0.819974  0.393232  0.393232  1
