# generated using pymatgen
data_U4Re7(GeP2)2
_symmetry_space_group_name_H-M   'P 1'
_cell_length_a   7.12524902
_cell_length_b   7.13723190
_cell_length_c   7.13723202
_cell_angle_alpha   109.76022321
_cell_angle_beta   109.36071272
_cell_angle_gamma   109.36070615
_symmetry_Int_Tables_number   1
_chemical_formula_structural   U4Re7(GeP2)2
_chemical_formula_sum   'U4 Re7 Ge2 P4'
_cell_volume   279.16926380
_cell_formula_units_Z   1
loop_
 _symmetry_equiv_pos_site_id
 _symmetry_equiv_pos_as_xyz
  1  'x, y, z'
loop_
 _atom_site_type_symbol
 _atom_site_label
 _atom_site_symmetry_multiplicity
 _atom_site_fract_x
 _atom_site_fract_y
 _atom_site_fract_z
 _atom_site_occupancy
  U  U0  1  0.500000  0.501137  0.498863  1
  U  U1  1  0.000000  0.002136  0.519807  1
  U  U2  1  0.500000  0.001137  0.998863  1
  U  U3  1  0.000000  0.480193  0.997864  1
  Re  Re4  1  0.750500  0.249313  0.501187  1
  Re  Re5  1  0.500000  0.248429  0.751571  1
  Re  Re6  1  0.500000  0.748429  0.251571  1
  Re  Re7  1  0.249500  0.498813  0.750687  1
  Re  Re8  1  0.753383  0.498238  0.255145  1
  Re  Re9  1  0.246617  0.744855  0.501762  1
  Re  Re10  1  0.000000  0.017696  0.982304  1
  Ge  Ge11  1  0.295059  0.995404  0.299653  1
  Ge  Ge12  1  0.704941  0.700347  0.004596  1
  P  P13  1  0.323734  0.320792  0.002942  1
  P  P14  1  0.000000  0.308046  0.312022  1
  P  P15  1  0.000000  0.687978  0.691954  1
  P  P16  1  0.676266  0.997058  0.679208  1
