# generated using pymatgen
data_Sr8Yb7Ho5Pt16
_symmetry_space_group_name_H-M   'P 1'
_cell_length_a   7.68832270
_cell_length_b   7.81430577
_cell_length_c   14.86076117
_cell_angle_alpha   90.04409935
_cell_angle_beta   90.04325962
_cell_angle_gamma   90.06307864
_symmetry_Int_Tables_number   1
_chemical_formula_structural   Sr8Yb7Ho5Pt16
_chemical_formula_sum   'Sr8 Yb7 Ho5 Pt16'
_cell_volume   892.81718981
_cell_formula_units_Z   1
loop_
 _symmetry_equiv_pos_site_id
 _symmetry_equiv_pos_as_xyz
  1  'x, y, z'
loop_
 _atom_site_type_symbol
 _atom_site_label
 _atom_site_symmetry_multiplicity
 _atom_site_fract_x
 _atom_site_fract_y
 _atom_site_fract_z
 _atom_site_occupancy
  Sr  Sr0  1  0.500113  0.326568  0.902898  1
  Sr  Sr1  1  0.000558  0.174389  0.595674  1
  Sr  Sr2  1  0.498808  0.675049  0.404896  1
  Sr  Sr3  1  0.001061  0.823736  0.095726  1
  Sr  Sr4  1  0.500526  0.675478  0.096675  1
  Sr  Sr5  1  0.001044  0.823100  0.403956  1
  Sr  Sr6  1  0.499365  0.323578  0.596789  1
  Sr  Sr7  1  0.999286  0.176539  0.902508  1
  Yb  Yb8  1  0.161461  0.333089  0.377212  1
  Yb  Yb9  1  0.338893  0.832460  0.623004  1
  Yb  Yb10  1  0.839436  0.667650  0.876908  1
  Yb  Yb11  1  0.177484  0.495874  0.749389  1
  Yb  Yb12  1  0.678116  0.004518  0.749594  1
  Yb  Yb13  1  0.823514  0.506475  0.251021  1
  Yb  Yb14  1  0.320237  0.994087  0.250889  1
  Ho  Ho15  1  0.339731  0.833915  0.875544  1
  Ho  Ho16  1  0.839426  0.666624  0.624337  1
  Ho  Ho17  1  0.659753  0.166956  0.375655  1
  Ho  Ho18  1  0.160076  0.332865  0.124245  1
  Ho  Ho19  1  0.661318  0.167978  0.124269  1
  Pt  Pt20  1  0.333618  0.045527  0.043462  1
  Pt  Pt21  1  0.829982  0.456095  0.457857  1
  Pt  Pt22  1  0.669800  0.955982  0.542115  1
  Pt  Pt23  1  0.168017  0.544219  0.958188  1
  Pt  Pt24  1  0.660469  0.961825  0.957746  1
  Pt  Pt25  1  0.157409  0.540597  0.544385  1
  Pt  Pt26  1  0.342189  0.040784  0.455165  1
  Pt  Pt27  1  0.839033  0.452838  0.044927  1
  Pt  Pt28  1  0.545522  0.635148  0.751928  1
  Pt  Pt29  1  0.045657  0.865766  0.748724  1
  Pt  Pt30  1  0.457045  0.363902  0.248284  1
  Pt  Pt31  1  0.952701  0.135552  0.247535  1
  Pt  Pt32  1  0.302614  0.121260  0.752307  1
  Pt  Pt33  1  0.802590  0.379109  0.747397  1
  Pt  Pt34  1  0.694652  0.880661  0.250593  1
  Pt  Pt35  1  0.198497  0.619805  0.248199  1
