# generated using pymatgen
data_Ca11La7(TbSn8)2
_symmetry_space_group_name_H-M   'P 1'
_cell_length_a   7.99604302
_cell_length_b   8.56718141
_cell_length_c   16.15439500
_cell_angle_alpha   89.96400614
_cell_angle_beta   89.99608046
_cell_angle_gamma   90.11653291
_symmetry_Int_Tables_number   1
_chemical_formula_structural   Ca11La7(TbSn8)2
_chemical_formula_sum   'Ca11 La7 Tb2 Sn16'
_cell_volume   1106.63091362
_cell_formula_units_Z   1
loop_
 _symmetry_equiv_pos_site_id
 _symmetry_equiv_pos_as_xyz
  1  'x, y, z'
loop_
 _atom_site_type_symbol
 _atom_site_label
 _atom_site_symmetry_multiplicity
 _atom_site_fract_x
 _atom_site_fract_y
 _atom_site_fract_z
 _atom_site_occupancy
  Ca  Ca0  1  0.331803  0.827059  0.877747  1
  Ca  Ca1  1  0.831597  0.672193  0.623257  1
  Ca  Ca2  1  0.668413  0.171950  0.376443  1
  Ca  Ca3  1  0.170345  0.327997  0.123647  1
  Ca  Ca4  1  0.667022  0.172777  0.123371  1
  Ca  Ca5  1  0.168262  0.327958  0.376504  1
  Ca  Ca6  1  0.330696  0.827257  0.623088  1
  Ca  Ca7  1  0.161603  0.500210  0.749457  1
  Ca  Ca8  1  0.659394  0.999277  0.749131  1
  Ca  Ca9  1  0.839350  0.497219  0.250133  1
  Ca  Ca10  1  0.339131  0.004003  0.250401  1
  La  La11  1  0.993547  0.185267  0.595681  1
  La  La12  1  0.506638  0.686541  0.403846  1
  La  La13  1  0.008782  0.814478  0.097148  1
  La  La14  1  0.506658  0.685376  0.096357  1
  La  La15  1  0.006330  0.813635  0.403382  1
  La  La16  1  0.492654  0.314095  0.593710  1
  La  La17  1  0.993887  0.184172  0.903995  1
  Tb  Tb18  1  0.832614  0.674161  0.875675  1
  Tb  Tb19  1  0.492060  0.310435  0.904525  1
  Sn  Sn20  1  0.331009  0.036722  0.037887  1
  Sn  Sn21  1  0.830180  0.465920  0.461441  1
  Sn  Sn22  1  0.669556  0.965739  0.538637  1
  Sn  Sn23  1  0.169802  0.532131  0.959053  1
  Sn  Sn24  1  0.671660  0.965061  0.960336  1
  Sn  Sn25  1  0.168538  0.533467  0.538516  1
  Sn  Sn26  1  0.329587  0.034126  0.461494  1
  Sn  Sn27  1  0.827798  0.466564  0.036273  1
  Sn  Sn28  1  0.534207  0.603201  0.753392  1
  Sn  Sn29  1  0.031749  0.895857  0.751402  1
  Sn  Sn30  1  0.467795  0.397984  0.250749  1
  Sn  Sn31  1  0.967286  0.103491  0.249842  1
  Sn  Sn32  1  0.289177  0.142745  0.750971  1
  Sn  Sn33  1  0.784360  0.359954  0.752872  1
  Sn  Sn34  1  0.712636  0.859310  0.249693  1
  Sn  Sn35  1  0.213869  0.641667  0.249940  1
