# generated using pymatgen
data_LuThCdCu9
_symmetry_space_group_name_H-M   'P 1'
_cell_length_a   5.12328500
_cell_length_b   5.12328442
_cell_length_c   16.41381200
_cell_angle_alpha   90.00000000
_cell_angle_beta   90.00000000
_cell_angle_gamma   120.00001022
_symmetry_Int_Tables_number   1
_chemical_formula_structural   LuThCdCu9
_chemical_formula_sum   'Lu2 Th2 Cd2 Cu18'
_cell_volume   373.11011572
_cell_formula_units_Z   2
loop_
 _symmetry_equiv_pos_site_id
 _symmetry_equiv_pos_as_xyz
  1  'x, y, z'
loop_
 _atom_site_type_symbol
 _atom_site_label
 _atom_site_symmetry_multiplicity
 _atom_site_fract_x
 _atom_site_fract_y
 _atom_site_fract_z
 _atom_site_occupancy
  Lu  Lu0  1  0.666667  0.333333  0.469537  1
  Lu  Lu1  1  0.333333  0.666667  0.969537  1
  Th  Th2  1  0.666667  0.333333  0.237655  1
  Th  Th3  1  0.333333  0.666667  0.737655  1
  Cd  Cd4  1  0.666667  0.333333  0.033833  1
  Cd  Cd5  1  0.333333  0.666667  0.533833  1
  Cu  Cu6  1  0.333333  0.666667  0.250996  1
  Cu  Cu7  1  0.666667  0.333333  0.750996  1
  Cu  Cu8  1  0.168112  0.831888  0.376767  1
  Cu  Cu9  1  0.168112  0.336225  0.376767  1
  Cu  Cu10  1  0.000000  0.000000  0.753251  1
  Cu  Cu11  1  0.000000  0.000000  0.253251  1
  Cu  Cu12  1  0.000000  0.000000  0.000877  1
  Cu  Cu13  1  0.000000  0.000000  0.500877  1
  Cu  Cu14  1  0.166252  0.332506  0.124516  1
  Cu  Cu15  1  0.833748  0.166252  0.624516  1
  Cu  Cu16  1  0.332506  0.166252  0.624516  1
  Cu  Cu17  1  0.667494  0.833748  0.124516  1
  Cu  Cu18  1  0.166252  0.833748  0.124516  1
  Cu  Cu19  1  0.831888  0.663775  0.876767  1
  Cu  Cu20  1  0.831888  0.168112  0.876767  1
  Cu  Cu21  1  0.833748  0.667494  0.624516  1
  Cu  Cu22  1  0.336225  0.168112  0.876767  1
  Cu  Cu23  1  0.663775  0.831888  0.376767  1
