# generated using pymatgen
data_Rb2Re(ClO)3
_symmetry_space_group_name_H-M   'P 1'
_cell_length_a   6.89279900
_cell_length_b   10.83225900
_cell_length_c   12.27201300
_cell_angle_alpha   90.00000000
_cell_angle_beta   90.00000000
_cell_angle_gamma   90.00000000
_symmetry_Int_Tables_number   1
_chemical_formula_structural   Rb2Re(ClO)3
_chemical_formula_sum   'Rb8 Re4 Cl12 O12'
_cell_volume   916.28474552
_cell_formula_units_Z   4
loop_
 _symmetry_equiv_pos_site_id
 _symmetry_equiv_pos_as_xyz
  1  'x, y, z'
loop_
 _atom_site_type_symbol
 _atom_site_label
 _atom_site_symmetry_multiplicity
 _atom_site_fract_x
 _atom_site_fract_y
 _atom_site_fract_z
 _atom_site_occupancy
  Rb  Rb0  1  0.250000  0.653634  0.916772  1
  Rb  Rb1  1  0.250000  0.153634  0.583228  1
  Rb  Rb2  1  0.750000  0.346366  0.083228  1
  Rb  Rb3  1  0.750000  0.846366  0.416772  1
  Rb  Rb4  1  0.250000  0.963730  0.178184  1
  Rb  Rb5  1  0.250000  0.463730  0.321816  1
  Rb  Rb6  1  0.750000  0.036270  0.821816  1
  Rb  Rb7  1  0.750000  0.536270  0.678184  1
  Re  Re8  1  0.250000  0.689293  0.567024  1
  Re  Re9  1  0.250000  0.189293  0.932976  1
  Re  Re10  1  0.750000  0.310707  0.432976  1
  Re  Re11  1  0.750000  0.810707  0.067024  1
  Cl  Cl12  1  0.250000  0.882269  0.444610  1
  Cl  Cl13  1  0.250000  0.382269  0.055390  1
  Cl  Cl14  1  0.750000  0.117731  0.555390  1
  Cl  Cl15  1  0.750000  0.617731  0.944610  1
  Cl  Cl16  1  0.013162  0.821437  0.672849  1
  Cl  Cl17  1  0.486838  0.321437  0.827151  1
  Cl  Cl18  1  0.513162  0.178563  0.327151  1
  Cl  Cl19  1  0.986838  0.678563  0.172849  1
  Cl  Cl20  1  0.986838  0.178563  0.327151  1
  Cl  Cl21  1  0.513162  0.678563  0.172849  1
  Cl  Cl22  1  0.486838  0.821437  0.672849  1
  Cl  Cl23  1  0.013162  0.321437  0.827151  1
  O  O24  1  0.250000  0.588307  0.677903  1
  O  O25  1  0.250000  0.088307  0.822097  1
  O  O26  1  0.750000  0.411693  0.322097  1
  O  O27  1  0.750000  0.911693  0.177903  1
  O  O28  1  0.050357  0.639266  0.490107  1
  O  O29  1  0.449643  0.139266  0.009893  1
  O  O30  1  0.550357  0.360734  0.509893  1
  O  O31  1  0.949643  0.860734  0.990107  1
  O  O32  1  0.949643  0.360734  0.509893  1
  O  O33  1  0.550357  0.860734  0.990107  1
  O  O34  1  0.449643  0.639266  0.490107  1
  O  O35  1  0.050357  0.139266  0.009893  1
