# generated using pymatgen
data_Tb2Al2PtRh
_symmetry_space_group_name_H-M   'P 1'
_cell_length_a   4.37664200
_cell_length_b   6.86770500
_cell_length_c   7.86903000
_cell_angle_alpha   90.00000000
_cell_angle_beta   90.00000000
_cell_angle_gamma   90.00000000
_symmetry_Int_Tables_number   1
_chemical_formula_structural   Tb2Al2PtRh
_chemical_formula_sum   'Tb4 Al4 Pt2 Rh2'
_cell_volume   236.52326021
_cell_formula_units_Z   2
loop_
 _symmetry_equiv_pos_site_id
 _symmetry_equiv_pos_as_xyz
  1  'x, y, z'
loop_
 _atom_site_type_symbol
 _atom_site_label
 _atom_site_symmetry_multiplicity
 _atom_site_fract_x
 _atom_site_fract_y
 _atom_site_fract_z
 _atom_site_occupancy
  Tb  Tb0  1  0.250000  0.034566  0.678240  1
  Tb  Tb1  1  0.250000  0.534566  0.821760  1
  Tb  Tb2  1  0.750000  0.969518  0.316938  1
  Tb  Tb3  1  0.750000  0.469518  0.183062  1
  Al  Al4  1  0.250000  0.138561  0.063718  1
  Al  Al5  1  0.250000  0.638561  0.436282  1
  Al  Al6  1  0.750000  0.858429  0.937320  1
  Al  Al7  1  0.750000  0.358429  0.562680  1
  Pt  Pt8  1  0.750000  0.731100  0.618383  1
  Pt  Pt9  1  0.750000  0.231100  0.881617  1
  Rh  Rh10  1  0.250000  0.267825  0.383384  1
  Rh  Rh11  1  0.250000  0.767825  0.116616  1
