# generated using pymatgen
data_AcZnSi2Pd
_symmetry_space_group_name_H-M   'P 1'
_cell_length_a   6.23007022
_cell_length_b   6.23006994
_cell_length_c   6.23007100
_cell_angle_alpha   138.83597208
_cell_angle_beta   138.83596914
_cell_angle_gamma   59.62504838
_symmetry_Int_Tables_number   1
_chemical_formula_structural   AcZnSi2Pd
_chemical_formula_sum   'Ac1 Zn1 Si2 Pd1'
_cell_volume   103.71834851
_cell_formula_units_Z   1
loop_
 _symmetry_equiv_pos_site_id
 _symmetry_equiv_pos_as_xyz
  1  'x, y, z'
loop_
 _atom_site_type_symbol
 _atom_site_label
 _atom_site_symmetry_multiplicity
 _atom_site_fract_x
 _atom_site_fract_y
 _atom_site_fract_z
 _atom_site_occupancy
  Ac  Ac0  1  0.000000  0.000000  0.000000  1
  Zn  Zn1  1  0.250000  0.750000  0.500000  1
  Si  Si2  1  0.619306  0.619306  0.000000  1
  Si  Si3  1  0.380694  0.380694  0.000000  1
  Pd  Pd4  1  0.750000  0.250000  0.500000  1
