# generated using pymatgen
data_Sr(Ge2Rh3)2
_symmetry_space_group_name_H-M   'P 1'
_cell_length_a   7.27443400
_cell_length_b   7.27443258
_cell_length_c   3.89580100
_cell_angle_alpha   90.00000000
_cell_angle_beta   90.00000000
_cell_angle_gamma   120.00000647
_symmetry_Int_Tables_number   1
_chemical_formula_structural   Sr(Ge2Rh3)2
_chemical_formula_sum   'Sr1 Ge4 Rh6'
_cell_volume   178.53595834
_cell_formula_units_Z   1
loop_
 _symmetry_equiv_pos_site_id
 _symmetry_equiv_pos_as_xyz
  1  'x, y, z'
loop_
 _atom_site_type_symbol
 _atom_site_label
 _atom_site_symmetry_multiplicity
 _atom_site_fract_x
 _atom_site_fract_y
 _atom_site_fract_z
 _atom_site_occupancy
  Sr  Sr0  1  0.000000  0.000000  0.000000  1
  Ge  Ge1  1  0.333333  0.666667  0.000000  1
  Ge  Ge2  1  0.800255  0.600510  0.500000  1
  Ge  Ge3  1  0.399490  0.199745  0.500000  1
  Ge  Ge4  1  0.800255  0.199745  0.500000  1
  Rh  Rh5  1  0.533388  0.066775  0.000000  1
  Rh  Rh6  1  0.933225  0.466612  0.000000  1
  Rh  Rh7  1  0.533388  0.466612  0.000000  1
  Rh  Rh8  1  0.201168  0.402336  0.500000  1
  Rh  Rh9  1  0.597664  0.798832  0.500000  1
  Rh  Rh10  1  0.201168  0.798832  0.500000  1
