# generated using pymatgen
data_HoF17
_symmetry_space_group_name_H-M   'P 1'
_cell_length_a   8.99754591
_cell_length_b   7.97917966
_cell_length_c   10.47662618
_cell_angle_alpha   83.39915924
_cell_angle_beta   89.25594089
_cell_angle_gamma   64.79388919
_symmetry_Int_Tables_number   1
_chemical_formula_structural   HoF17
_chemical_formula_sum   'Ho2 F34'
_cell_volume   675.47766314
_cell_formula_units_Z   2
loop_
 _symmetry_equiv_pos_site_id
 _symmetry_equiv_pos_as_xyz
  1  'x, y, z'
loop_
 _atom_site_type_symbol
 _atom_site_label
 _atom_site_symmetry_multiplicity
 _atom_site_fract_x
 _atom_site_fract_y
 _atom_site_fract_z
 _atom_site_occupancy
  Ho  Ho0  1  0.875558  0.234725  0.766587  1
  Ho  Ho1  1  0.124442  0.765275  0.233413  1
  F  F2  1  0.583861  0.199287  0.511722  1
  F  F3  1  0.416139  0.800713  0.488278  1
  F  F4  1  0.845332  0.688925  0.713989  1
  F  F5  1  0.154668  0.311075  0.286011  1
  F  F6  1  0.067620  0.802975  0.850679  1
  F  F7  1  0.932380  0.197025  0.149321  1
  F  F8  1  0.556009  0.166569  0.384829  1
  F  F9  1  0.443991  0.833431  0.615171  1
  F  F10  1  0.618595  0.283401  0.757086  1
  F  F11  1  0.381405  0.716599  0.242914  1
  F  F12  1  0.001502  0.089003  0.607793  1
  F  F13  1  0.998498  0.910997  0.392207  1
  F  F14  1  0.869656  0.367818  0.572309  1
  F  F15  1  0.130344  0.632182  0.427691  1
  F  F16  1  0.847714  0.827905  0.614919  1
  F  F17  1  0.152286  0.172095  0.385081  1
  F  F18  1  0.844536  0.460509  0.879630  1
  F  F19  1  0.155464  0.539491  0.120370  1
  F  F20  1  0.209125  0.713822  0.777592  1
  F  F21  1  0.790875  0.286178  0.222408  1
  F  F22  1  0.937512  0.767539  0.101558  1
  F  F23  1  0.062488  0.232461  0.898442  1
  F  F24  1  0.770587  0.075850  0.887794  1
  F  F25  1  0.229413  0.924150  0.112206  1
  F  F26  1  0.494143  0.589667  0.974850  1
  F  F27  1  0.505857  0.410333  0.025150  1
  F  F28  1  0.430767  0.064709  0.872250  1
  F  F29  1  0.569233  0.935291  0.127750  1
  F  F30  1  0.264225  0.232441  0.624027  1
  F  F31  1  0.735775  0.767559  0.375973  1
  F  F32  1  0.244090  0.396746  0.677794  1
  F  F33  1  0.755910  0.603254  0.322206  1
  F  F34  1  0.554068  0.891689  0.841597  1
  F  F35  1  0.445932  0.108311  0.158403  1
