# generated using pymatgen
data_Tb2Y3FeRuO12
_symmetry_space_group_name_H-M   'P 1'
_cell_length_a   6.84247918
_cell_length_b   6.84171923
_cell_length_c   7.31431800
_cell_angle_alpha   74.43037710
_cell_angle_beta   74.43098994
_cell_angle_gamma   51.14064049
_symmetry_Int_Tables_number   1
_chemical_formula_structural   Tb2Y3FeRuO12
_chemical_formula_sum   'Tb2 Y3 Fe1 Ru1 O12'
_cell_volume   254.55783484
_cell_formula_units_Z   1
loop_
 _symmetry_equiv_pos_site_id
 _symmetry_equiv_pos_as_xyz
  1  'x, y, z'
loop_
 _atom_site_type_symbol
 _atom_site_label
 _atom_site_symmetry_multiplicity
 _atom_site_fract_x
 _atom_site_fract_y
 _atom_site_fract_z
 _atom_site_occupancy
  Tb  Tb0  1  0.299309  0.306984  0.859453  1
  Tb  Tb1  1  0.308510  0.308089  0.330861  1
  Y  Y2  1  0.691815  0.691226  0.669604  1
  Y  Y3  1  0.692989  0.700673  0.140258  1
  Y  Y4  1  0.997004  0.002696  0.000057  1
  Fe  Fe5  1  0.249050  0.751040  0.499998  1
  Ru  Ru6  1  0.760196  0.239822  0.499970  1
  O  O7  1  0.400215  0.905006  0.924925  1
  O  O8  1  0.574218  0.096791  0.582168  1
  O  O9  1  0.902531  0.426538  0.417827  1
  O  O10  1  0.094178  0.600321  0.075131  1
  O  O11  1  0.993707  0.007077  0.316410  1
  O  O12  1  0.510762  0.489363  0.686401  1
  O  O13  1  0.900734  0.405495  0.925012  1
  O  O14  1  0.101639  0.576854  0.580365  1
  O  O15  1  0.423902  0.897682  0.419638  1
  O  O16  1  0.595243  0.098327  0.075019  1
  O  O17  1  0.510867  0.489548  0.313427  1
  O  O18  1  0.993132  0.006468  0.683474  1
