# generated using pymatgen
data_ZrU7H30
_symmetry_space_group_name_H-M   'P 1'
_cell_length_a   7.47061695
_cell_length_b   7.47061796
_cell_length_c   7.47061923
_cell_angle_alpha   109.72368700
_cell_angle_beta   109.72368923
_cell_angle_gamma   109.72369531
_symmetry_Int_Tables_number   1
_chemical_formula_structural   ZrU7H30
_chemical_formula_sum   'Zr1 U7 H30'
_cell_volume   317.92211704
_cell_formula_units_Z   1
loop_
 _symmetry_equiv_pos_site_id
 _symmetry_equiv_pos_as_xyz
  1  'x, y, z'
loop_
 _atom_site_type_symbol
 _atom_site_label
 _atom_site_symmetry_multiplicity
 _atom_site_fract_x
 _atom_site_fract_y
 _atom_site_fract_z
 _atom_site_occupancy
  Zr  Zr0  1  0.910826  0.910826  0.910826  1
  U  U1  1  0.499304  0.000453  0.082090  1
  U  U2  1  0.000453  0.082090  0.499304  1
  U  U3  1  0.082090  0.499304  0.000453  1
  U  U4  1  0.999022  0.584077  0.505405  1
  U  U5  1  0.584077  0.505405  0.999022  1
  U  U6  1  0.505405  0.999022  0.584077  1
  U  U7  1  0.412955  0.412955  0.412955  1
  H  H8  1  0.650487  0.961347  0.365288  1
  H  H9  1  0.219251  0.317850  0.850622  1
  H  H10  1  0.185498  0.403789  0.535440  1
  H  H11  1  0.092159  0.265321  0.112122  1
  H  H12  1  0.265321  0.112122  0.092159  1
  H  H13  1  0.112122  0.092159  0.265321  1
  H  H14  1  0.467917  0.153445  0.867943  1
  H  H15  1  0.717610  0.352433  0.813217  1
  H  H16  1  0.619035  0.374951  0.245973  1
  H  H17  1  0.245973  0.619035  0.374951  1
  H  H18  1  0.750851  0.880826  0.124798  1
  H  H19  1  0.124798  0.750851  0.880826  1
  H  H20  1  0.374951  0.245973  0.619035  1
  H  H21  1  0.880826  0.124798  0.750851  1
  H  H22  1  0.785197  0.605402  0.641238  1
  H  H23  1  0.317850  0.850622  0.219251  1
  H  H24  1  0.365288  0.650487  0.961347  1
  H  H25  1  0.961347  0.365288  0.650487  1
  H  H26  1  0.535440  0.185498  0.403789  1
  H  H27  1  0.403789  0.535440  0.185498  1
  H  H28  1  0.850622  0.219251  0.317850  1
  H  H29  1  0.910423  0.702653  0.032782  1
  H  H30  1  0.813217  0.717610  0.352433  1
  H  H31  1  0.153445  0.867943  0.467917  1
  H  H32  1  0.702653  0.032782  0.910423  1
  H  H33  1  0.352433  0.813217  0.717610  1
  H  H34  1  0.867943  0.467917  0.153445  1
  H  H35  1  0.641238  0.785197  0.605402  1
  H  H36  1  0.605402  0.641238  0.785197  1
  H  H37  1  0.032782  0.910423  0.702653  1
