# generated using pymatgen
data_CdGa2Pd7
_symmetry_space_group_name_H-M   'P 1'
_cell_length_a   7.46648702
_cell_length_b   7.46648775
_cell_length_c   5.61107305
_cell_angle_alpha   71.43484889
_cell_angle_beta   71.43485484
_cell_angle_gamma   32.13197984
_symmetry_Int_Tables_number   1
_chemical_formula_structural   CdGa2Pd7
_chemical_formula_sum   'Cd1 Ga2 Pd7'
_cell_volume   156.97665579
_cell_formula_units_Z   1
loop_
 _symmetry_equiv_pos_site_id
 _symmetry_equiv_pos_as_xyz
  1  'x, y, z'
loop_
 _atom_site_type_symbol
 _atom_site_label
 _atom_site_symmetry_multiplicity
 _atom_site_fract_x
 _atom_site_fract_y
 _atom_site_fract_z
 _atom_site_occupancy
  Cd  Cd0  1  0.000000  0.000000  0.000000  1
  Ga  Ga1  1  0.189279  0.189279  0.346567  1
  Ga  Ga2  1  0.810721  0.810721  0.653433  1
  Pd  Pd3  1  0.000000  0.000000  0.500000  1
  Pd  Pd4  1  0.209729  0.209729  0.857047  1
  Pd  Pd5  1  0.790271  0.790271  0.142953  1
  Pd  Pd6  1  0.377906  0.377906  0.359058  1
  Pd  Pd7  1  0.622094  0.622094  0.640942  1
  Pd  Pd8  1  0.405785  0.405785  0.832246  1
  Pd  Pd9  1  0.594215  0.594215  0.167754  1
