# generated using pymatgen
data_Cs4SnBr6
_symmetry_space_group_name_H-M   'P 1'
_cell_length_a   9.98079045
_cell_length_b   9.98079004
_cell_length_c   9.98079103
_cell_angle_alpha   89.11004362
_cell_angle_beta   89.11004018
_cell_angle_gamma   89.11004593
_symmetry_Int_Tables_number   1
_chemical_formula_structural   Cs4SnBr6
_chemical_formula_sum   'Cs8 Sn2 Br12'
_cell_volume   993.89209044
_cell_formula_units_Z   2
loop_
 _symmetry_equiv_pos_site_id
 _symmetry_equiv_pos_as_xyz
  1  'x, y, z'
loop_
 _atom_site_type_symbol
 _atom_site_label
 _atom_site_symmetry_multiplicity
 _atom_site_fract_x
 _atom_site_fract_y
 _atom_site_fract_z
 _atom_site_occupancy
  Cs  Cs0  1  0.250000  0.250000  0.250000  1
  Cs  Cs1  1  0.750000  0.750000  0.750000  1
  Cs  Cs2  1  0.250000  0.626029  0.873971  1
  Cs  Cs3  1  0.873971  0.250000  0.626029  1
  Cs  Cs4  1  0.626029  0.873971  0.250000  1
  Cs  Cs5  1  0.750000  0.373971  0.126029  1
  Cs  Cs6  1  0.126029  0.750000  0.373971  1
  Cs  Cs7  1  0.373971  0.126029  0.750000  1
  Sn  Sn8  1  0.000000  0.000000  0.000000  1
  Sn  Sn9  1  0.500000  0.500000  0.500000  1
  Br  Br10  1  0.560626  0.209804  0.428363  1
  Br  Br11  1  0.428363  0.560626  0.209804  1
  Br  Br12  1  0.209804  0.428363  0.560626  1
  Br  Br13  1  0.939374  0.071637  0.290196  1
  Br  Br14  1  0.290196  0.939374  0.071637  1
  Br  Br15  1  0.071637  0.290196  0.939374  1
  Br  Br16  1  0.439374  0.790196  0.571637  1
  Br  Br17  1  0.571637  0.439374  0.790196  1
  Br  Br18  1  0.790196  0.571637  0.439374  1
  Br  Br19  1  0.060626  0.928363  0.709804  1
  Br  Br20  1  0.928363  0.709804  0.060626  1
  Br  Br21  1  0.709804  0.060626  0.928363  1
