# generated using pymatgen
data_NdHo2Th3Si4
_symmetry_space_group_name_H-M   'P 1'
_cell_length_a   7.64620648
_cell_length_b   7.64620547
_cell_length_c   4.28573800
_cell_angle_alpha   90.00000000
_cell_angle_beta   90.00000000
_cell_angle_gamma   90.20410513
_symmetry_Int_Tables_number   1
_chemical_formula_structural   NdHo2Th3Si4
_chemical_formula_sum   'Nd1 Ho2 Th3 Si4'
_cell_volume   250.56179291
_cell_formula_units_Z   1
loop_
 _symmetry_equiv_pos_site_id
 _symmetry_equiv_pos_as_xyz
  1  'x, y, z'
loop_
 _atom_site_type_symbol
 _atom_site_label
 _atom_site_symmetry_multiplicity
 _atom_site_fract_x
 _atom_site_fract_y
 _atom_site_fract_z
 _atom_site_occupancy
  Nd  Nd0  1  0.823507  0.676493  0.500000  1
  Ho  Ho1  1  0.999131  0.000849  0.000000  1
  Ho  Ho2  1  0.499151  0.500869  0.000000  1
  Th  Th3  1  0.677738  0.178455  0.500000  1
  Th  Th4  1  0.321545  0.822262  0.500000  1
  Th  Th5  1  0.178008  0.321992  0.500000  1
  Si  Si6  1  0.118769  0.615216  0.000000  1
  Si  Si7  1  0.884784  0.381231  0.000000  1
  Si  Si8  1  0.614786  0.885214  0.000000  1
  Si  Si9  1  0.382581  0.117419  0.000000  1
