# generated using pymatgen
data_Ba9Th(In4Bi5)2
_symmetry_space_group_name_H-M   'P 1'
_cell_length_a   10.72258600
_cell_length_b   10.72258600
_cell_length_c   9.03495300
_cell_angle_alpha   90.00000000
_cell_angle_beta   90.00000000
_cell_angle_gamma   90.00000000
_symmetry_Int_Tables_number   1
_chemical_formula_structural   Ba9Th(In4Bi5)2
_chemical_formula_sum   'Ba9 Th1 In8 Bi10'
_cell_volume   1038.78333574
_cell_formula_units_Z   1
loop_
 _symmetry_equiv_pos_site_id
 _symmetry_equiv_pos_as_xyz
  1  'x, y, z'
loop_
 _atom_site_type_symbol
 _atom_site_label
 _atom_site_symmetry_multiplicity
 _atom_site_fract_x
 _atom_site_fract_y
 _atom_site_fract_z
 _atom_site_occupancy
  Ba  Ba0  1  0.500000  0.500000  0.698700  1
  Ba  Ba1  1  0.188516  0.600325  0.376246  1
  Ba  Ba2  1  0.600325  0.811484  0.376246  1
  Ba  Ba3  1  0.399675  0.188516  0.376246  1
  Ba  Ba4  1  0.811484  0.399675  0.376246  1
  Ba  Ba5  1  0.691822  0.894732  0.870536  1
  Ba  Ba6  1  0.308178  0.105268  0.870536  1
  Ba  Ba7  1  0.894732  0.308178  0.870536  1
  Ba  Ba8  1  0.105268  0.691822  0.870536  1
  Th  Th9  1  0.000000  0.000000  0.202338  1
  In  In10  1  0.685138  0.573449  0.033296  1
  In  In11  1  0.314862  0.426551  0.033296  1
  In  In12  1  0.426551  0.685138  0.033296  1
  In  In13  1  0.573449  0.314862  0.033296  1
  In  In14  1  0.927886  0.817243  0.523010  1
  In  In15  1  0.817243  0.072114  0.523010  1
  In  In16  1  0.182757  0.927886  0.523010  1
  In  In17  1  0.072114  0.182757  0.523010  1
  Bi  Bi18  1  0.000000  0.000000  0.840994  1
  Bi  Bi19  1  0.500000  0.500000  0.316995  1
  Bi  Bi20  1  0.894356  0.707484  0.191969  1
  Bi  Bi21  1  0.105644  0.292516  0.191969  1
  Bi  Bi22  1  0.292516  0.894356  0.191969  1
  Bi  Bi23  1  0.707484  0.105644  0.191969  1
  Bi  Bi24  1  0.810386  0.613920  0.691076  1
  Bi  Bi25  1  0.613920  0.189614  0.691076  1
  Bi  Bi26  1  0.386080  0.810386  0.691076  1
  Bi  Bi27  1  0.189614  0.386080  0.691076  1
