# generated using pymatgen
data_Y10AlCoHg2
_symmetry_space_group_name_H-M   'P 1'
_cell_length_a   9.64126714
_cell_length_b   9.69273752
_cell_length_c   9.60611400
_cell_angle_alpha   90.00000000
_cell_angle_beta   90.00000000
_cell_angle_gamma   120.23499735
_symmetry_Int_Tables_number   1
_chemical_formula_structural   Y10AlCoHg2
_chemical_formula_sum   'Y20 Al2 Co2 Hg4'
_cell_volume   775.57830789
_cell_formula_units_Z   2
loop_
 _symmetry_equiv_pos_site_id
 _symmetry_equiv_pos_as_xyz
  1  'x, y, z'
loop_
 _atom_site_type_symbol
 _atom_site_label
 _atom_site_symmetry_multiplicity
 _atom_site_fract_x
 _atom_site_fract_y
 _atom_site_fract_z
 _atom_site_occupancy
  Y  Y0  1  0.001876  0.001109  0.504549  1
  Y  Y1  1  0.001876  0.001109  0.995451  1
  Y  Y2  1  0.540799  0.455007  0.250000  1
  Y  Y3  1  0.541620  0.085966  0.250000  1
  Y  Y4  1  0.912970  0.455465  0.250000  1
  Y  Y5  1  0.458176  0.544031  0.750000  1
  Y  Y6  1  0.456701  0.911935  0.750000  1
  Y  Y7  1  0.084473  0.542144  0.750000  1
  Y  Y8  1  0.208545  0.788007  0.436094  1
  Y  Y9  1  0.208926  0.421123  0.435333  1
  Y  Y10  1  0.580453  0.790541  0.433613  1
  Y  Y11  1  0.788792  0.210458  0.561291  1
  Y  Y12  1  0.789455  0.578818  0.561424  1
  Y  Y13  1  0.423487  0.211623  0.566574  1
  Y  Y14  1  0.788792  0.210458  0.938709  1
  Y  Y15  1  0.789455  0.578818  0.938576  1
  Y  Y16  1  0.423487  0.211623  0.933426  1
  Y  Y17  1  0.208545  0.788007  0.063906  1
  Y  Y18  1  0.208926  0.421123  0.064667  1
  Y  Y19  1  0.580453  0.790541  0.066387  1
  Al  Al20  1  0.882889  0.111513  0.250000  1
  Al  Al21  1  0.883773  0.771283  0.250000  1
  Co  Co22  1  0.331484  0.665626  0.250000  1
  Co  Co23  1  0.671907  0.335695  0.750000  1
  Hg  Hg24  1  0.229974  0.114935  0.250000  1
  Hg  Hg25  1  0.120770  0.880920  0.750000  1
  Hg  Hg26  1  0.120325  0.240878  0.750000  1
  Hg  Hg27  1  0.761068  0.881243  0.750000  1
