# generated using pymatgen
data_Tm2Fe4P6Ir5Rh
_symmetry_space_group_name_H-M   'P 1'
_cell_length_a   3.83958200
_cell_length_b   10.48251800
_cell_length_c   12.30635300
_cell_angle_alpha   90.00000000
_cell_angle_beta   90.00000000
_cell_angle_gamma   90.00000000
_symmetry_Int_Tables_number   1
_chemical_formula_structural   Tm2Fe4P6Ir5Rh
_chemical_formula_sum   'Tm4 Fe8 P12 Ir10 Rh2'
_cell_volume   495.31209400
_cell_formula_units_Z   2
loop_
 _symmetry_equiv_pos_site_id
 _symmetry_equiv_pos_as_xyz
  1  'x, y, z'
loop_
 _atom_site_type_symbol
 _atom_site_label
 _atom_site_symmetry_multiplicity
 _atom_site_fract_x
 _atom_site_fract_y
 _atom_site_fract_z
 _atom_site_occupancy
  Tm  Tm0  1  0.250000  0.578634  0.713161  1
  Tm  Tm1  1  0.250000  0.921366  0.213161  1
  Tm  Tm2  1  0.750000  0.421195  0.287337  1
  Tm  Tm3  1  0.750000  0.078805  0.787337  1
  Fe  Fe4  1  0.250000  0.874754  0.697752  1
  Fe  Fe5  1  0.250000  0.625246  0.197752  1
  Fe  Fe6  1  0.750000  0.125107  0.302506  1
  Fe  Fe7  1  0.750000  0.374893  0.802506  1
  Fe  Fe8  1  0.250000  0.455986  0.935551  1
  Fe  Fe9  1  0.250000  0.044014  0.435551  1
  Fe  Fe10  1  0.750000  0.540816  0.064871  1
  Fe  Fe11  1  0.750000  0.959184  0.564871  1
  P  P12  1  0.250000  0.442510  0.112028  1
  P  P13  1  0.250000  0.057490  0.612028  1
  P  P14  1  0.750000  0.559230  0.888253  1
  P  P15  1  0.750000  0.940770  0.388253  1
  P  P16  1  0.250000  0.270890  0.862402  1
  P  P17  1  0.250000  0.229110  0.362402  1
  P  P18  1  0.750000  0.728916  0.136608  1
  P  P19  1  0.750000  0.771084  0.636608  1
  P  P20  1  0.250000  0.600597  0.377170  1
  P  P21  1  0.250000  0.899403  0.877170  1
  P  P22  1  0.750000  0.399961  0.623368  1
  P  P23  1  0.750000  0.100039  0.123368  1
  Ir  Ir24  1  0.750000  0.282126  0.009706  1
  Ir  Ir25  1  0.750000  0.217874  0.509706  1
  Ir  Ir26  1  0.250000  0.408971  0.473409  1
  Ir  Ir27  1  0.250000  0.091029  0.973409  1
  Ir  Ir28  1  0.750000  0.590063  0.525822  1
  Ir  Ir29  1  0.750000  0.909937  0.025822  1
  Ir  Ir30  1  0.250000  0.232910  0.173427  1
  Ir  Ir31  1  0.250000  0.267090  0.673427  1
  Ir  Ir32  1  0.750000  0.768474  0.825998  1
  Ir  Ir33  1  0.750000  0.731526  0.325998  1
  Rh  Rh34  1  0.250000  0.718574  0.990632  1
  Rh  Rh35  1  0.250000  0.781426  0.490632  1
