# generated using pymatgen
data_Na2Mo3P7Rh9
_symmetry_space_group_name_H-M   'P 1'
_cell_length_a   9.51423400
_cell_length_b   9.51423457
_cell_length_c   3.94292300
_cell_angle_alpha   90.00000000
_cell_angle_beta   90.00000000
_cell_angle_gamma   119.99999802
_symmetry_Int_Tables_number   1
_chemical_formula_structural   Na2Mo3P7Rh9
_chemical_formula_sum   'Na2 Mo3 P7 Rh9'
_cell_volume   309.09830214
_cell_formula_units_Z   1
loop_
 _symmetry_equiv_pos_site_id
 _symmetry_equiv_pos_as_xyz
  1  'x, y, z'
loop_
 _atom_site_type_symbol
 _atom_site_label
 _atom_site_symmetry_multiplicity
 _atom_site_fract_x
 _atom_site_fract_y
 _atom_site_fract_z
 _atom_site_occupancy
  Na  Na0  1  0.000000  0.000000  0.764615  1
  Na  Na1  1  0.333333  0.666667  0.263412  1
  Mo  Mo2  1  0.790436  0.546947  0.763723  1
  Mo  Mo3  1  0.453053  0.243490  0.763723  1
  Mo  Mo4  1  0.756510  0.209564  0.763723  1
  P  P5  1  0.666667  0.333333  0.263598  1
  P  P6  1  0.070053  0.620879  0.763749  1
  P  P7  1  0.379121  0.449176  0.763749  1
  P  P8  1  0.550824  0.929947  0.763749  1
  P  P9  1  0.251311  0.036720  0.263891  1
  P  P10  1  0.963280  0.214591  0.263891  1
  P  P11  1  0.785409  0.748689  0.263891  1
  Rh  Rh12  1  0.506213  0.059498  0.263741  1
  Rh  Rh13  1  0.940502  0.446715  0.263741  1
  Rh  Rh14  1  0.553285  0.493787  0.263741  1
  Rh  Rh15  1  0.103956  0.380307  0.763825  1
  Rh  Rh16  1  0.619693  0.723649  0.763825  1
  Rh  Rh17  1  0.276351  0.896044  0.763825  1
  Rh  Rh18  1  0.232411  0.268108  0.263842  1
  Rh  Rh19  1  0.731892  0.964304  0.263842  1
  Rh  Rh20  1  0.035696  0.767589  0.263842  1
