# generated using pymatgen
data_UNb(AlI8)2
_symmetry_space_group_name_H-M   'P 1'
_cell_length_a   11.38923717
_cell_length_b   11.38923599
_cell_length_c   10.18209300
_cell_angle_alpha   90.00000000
_cell_angle_beta   90.00000000
_cell_angle_gamma   127.85600893
_symmetry_Int_Tables_number   1
_chemical_formula_structural   UNb(AlI8)2
_chemical_formula_sum   'U1 Nb1 Al2 I16'
_cell_volume   1042.81902964
_cell_formula_units_Z   1
loop_
 _symmetry_equiv_pos_site_id
 _symmetry_equiv_pos_as_xyz
  1  'x, y, z'
loop_
 _atom_site_type_symbol
 _atom_site_label
 _atom_site_symmetry_multiplicity
 _atom_site_fract_x
 _atom_site_fract_y
 _atom_site_fract_z
 _atom_site_occupancy
  U  U0  1  0.618666  0.381334  0.250000  1
  Nb  Nb1  1  0.389057  0.610943  0.750000  1
  Al  Al2  1  0.814386  0.185614  0.250000  1
  Al  Al3  1  0.187781  0.812219  0.750000  1
  I  I4  1  0.526024  0.061882  0.250000  1
  I  I5  1  0.074063  0.530332  0.750000  1
  I  I6  1  0.469668  0.925937  0.750000  1
  I  I7  1  0.938118  0.473976  0.250000  1
  I  I8  1  0.628223  0.371777  0.967191  1
  I  I9  1  0.368585  0.631415  0.012829  1
  I  I10  1  0.628223  0.371777  0.532809  1
  I  I11  1  0.368585  0.631415  0.487171  1
  I  I12  1  0.310883  0.258431  0.250000  1
  I  I13  1  0.262307  0.323821  0.750000  1
  I  I14  1  0.676179  0.737693  0.750000  1
  I  I15  1  0.741569  0.689117  0.250000  1
  I  I16  1  0.878453  0.121547  0.459196  1
  I  I17  1  0.120387  0.879613  0.542623  1
  I  I18  1  0.878453  0.121547  0.040804  1
  I  I19  1  0.120387  0.879613  0.957377  1
