# generated using pymatgen
data_Tb10Ir2Ru3Rh
_symmetry_space_group_name_H-M   'P 1'
_cell_length_a   10.89094220
_cell_length_b   10.88769700
_cell_length_c   6.42506659
_cell_angle_alpha   90.00000000
_cell_angle_beta   89.92507312
_cell_angle_gamma   90.00000000
_symmetry_Int_Tables_number   1
_chemical_formula_structural   Tb10Ir2Ru3Rh
_chemical_formula_sum   'Tb20 Ir4 Ru6 Rh2'
_cell_volume   761.86626082
_cell_formula_units_Z   2
loop_
 _symmetry_equiv_pos_site_id
 _symmetry_equiv_pos_as_xyz
  1  'x, y, z'
loop_
 _atom_site_type_symbol
 _atom_site_label
 _atom_site_symmetry_multiplicity
 _atom_site_fract_x
 _atom_site_fract_y
 _atom_site_fract_z
 _atom_site_occupancy
  Tb  Tb0  1  0.293987  0.087401  0.378837  1
  Tb  Tb1  1  0.293987  0.912599  0.878837  1
  Tb  Tb2  1  0.708213  0.086791  0.878746  1
  Tb  Tb3  1  0.708213  0.913209  0.378746  1
  Tb  Tb4  1  0.587910  0.793425  0.879620  1
  Tb  Tb5  1  0.587910  0.206575  0.379620  1
  Tb  Tb6  1  0.414062  0.793497  0.379082  1
  Tb  Tb7  1  0.414062  0.206503  0.879082  1
  Tb  Tb8  1  0.206364  0.413998  0.620378  1
  Tb  Tb9  1  0.206364  0.586002  0.120378  1
  Tb  Tb10  1  0.793414  0.412246  0.120807  1
  Tb  Tb11  1  0.793414  0.587754  0.620807  1
  Tb  Tb12  1  0.911790  0.706915  0.120295  1
  Tb  Tb13  1  0.911790  0.293085  0.620295  1
  Tb  Tb14  1  0.085811  0.707321  0.622157  1
  Tb  Tb15  1  0.085811  0.292679  0.122157  1
  Tb  Tb16  1  0.998065  0.000724  0.499959  1
  Tb  Tb17  1  0.998065  0.999276  0.999959  1
  Tb  Tb18  1  0.499888  0.500195  0.000074  1
  Tb  Tb19  1  0.499888  0.499805  0.500074  1
  Ir  Ir20  1  0.652231  0.347958  0.749674  1
  Ir  Ir21  1  0.652231  0.652042  0.249674  1
  Ir  Ir22  1  0.347247  0.346757  0.250402  1
  Ir  Ir23  1  0.347247  0.653243  0.750402  1
  Ru  Ru24  1  0.848001  0.152475  0.249697  1
  Ru  Ru25  1  0.848001  0.847525  0.749697  1
  Ru  Ru26  1  0.499226  0.000061  0.122523  1
  Ru  Ru27  1  0.499226  0.999939  0.622523  1
  Ru  Ru28  1  0.000203  0.500314  0.877529  1
  Ru  Ru29  1  0.000203  0.499686  0.377529  1
  Rh  Rh30  1  0.153586  0.152968  0.750218  1
  Rh  Rh31  1  0.153586  0.847032  0.250218  1
