# generated using pymatgen
data_Lu10Si16Ag
_symmetry_space_group_name_H-M   'P 1'
_cell_length_a   6.62705119
_cell_length_b   8.07547055
_cell_length_c   10.94910015
_cell_angle_alpha   111.63997752
_cell_angle_beta   107.61563302
_cell_angle_gamma   89.99999918
_symmetry_Int_Tables_number   1
_chemical_formula_structural   Lu10Si16Ag
_chemical_formula_sum   'Lu10 Si16 Ag1'
_cell_volume   514.98401648
_cell_formula_units_Z   1
loop_
 _symmetry_equiv_pos_site_id
 _symmetry_equiv_pos_as_xyz
  1  'x, y, z'
loop_
 _atom_site_type_symbol
 _atom_site_label
 _atom_site_symmetry_multiplicity
 _atom_site_fract_x
 _atom_site_fract_y
 _atom_site_fract_z
 _atom_site_occupancy
  Lu  Lu0  1  0.238008  0.248251  0.000000  1
  Lu  Lu1  1  0.238008  0.751749  0.000000  1
  Lu  Lu2  1  0.836905  0.359281  0.207614  1
  Lu  Lu3  1  0.836905  0.848333  0.207614  1
  Lu  Lu4  1  0.437338  0.451204  0.400497  1
  Lu  Lu5  1  0.437338  0.949293  0.400497  1
  Lu  Lu6  1  0.036841  0.050707  0.599504  1
  Lu  Lu7  1  0.036841  0.548796  0.599504  1
  Lu  Lu8  1  0.629290  0.151667  0.792385  1
  Lu  Lu9  1  0.629290  0.640720  0.792385  1
  Si  Si10  1  0.929981  0.000000  0.000000  1
  Si  Si11  1  0.616563  0.500000  0.000000  1
  Si  Si12  1  0.120197  0.580288  0.160576  1
  Si  Si13  1  0.500518  0.601199  0.202398  1
  Si  Si14  1  0.498412  0.106586  0.213173  1
  Si  Si15  1  0.156928  0.120453  0.240905  1
  Si  Si16  1  0.821461  0.201225  0.402450  1
  Si  Si17  1  0.101466  0.698698  0.397395  1
  Si  Si18  1  0.757725  0.717270  0.434540  1
  Si  Si19  1  0.323185  0.282730  0.565460  1
  Si  Si20  1  0.704071  0.301302  0.602604  1
  Si  Si21  1  0.419010  0.798775  0.597550  1
  Si  Si22  1  0.916022  0.879547  0.759095  1
  Si  Si23  1  0.285238  0.893413  0.786826  1
  Si  Si24  1  0.298120  0.398801  0.797603  1
  Si  Si25  1  0.959621  0.419712  0.839424  1
  Ag  Ag26  1  0.573221  0.000000  0.000000  1
