# generated using pymatgen
data_Ba2Ir3(Pt2O9)2
_symmetry_space_group_name_H-M   'P 1'
_cell_length_a   6.89657783
_cell_length_b   7.16504749
_cell_length_c   7.66455800
_cell_angle_alpha   93.19100800
_cell_angle_beta   95.09108836
_cell_angle_gamma   114.72240965
_symmetry_Int_Tables_number   1
_chemical_formula_structural   Ba2Ir3(Pt2O9)2
_chemical_formula_sum   'Ba2 Ir3 Pt4 O18'
_cell_volume   340.86179694
_cell_formula_units_Z   1
loop_
 _symmetry_equiv_pos_site_id
 _symmetry_equiv_pos_as_xyz
  1  'x, y, z'
loop_
 _atom_site_type_symbol
 _atom_site_label
 _atom_site_symmetry_multiplicity
 _atom_site_fract_x
 _atom_site_fract_y
 _atom_site_fract_z
 _atom_site_occupancy
  Ba  Ba0  1  0.321190  0.694832  0.623576  1
  Ba  Ba1  1  0.678810  0.305168  0.376424  1
  Ir  Ir2  1  0.000000  0.000000  0.500000  1
  Ir  Ir3  1  0.829184  0.622613  0.805247  1
  Ir  Ir4  1  0.170816  0.377387  0.194753  1
  Pt  Pt5  1  0.400554  0.285894  0.884613  1
  Pt  Pt6  1  0.812378  0.129537  0.818313  1
  Pt  Pt7  1  0.187622  0.870463  0.181687  1
  Pt  Pt8  1  0.599446  0.714106  0.115387  1
  O  O9  1  0.924357  0.729700  0.578238  1
  O  O10  1  0.281064  0.170850  0.114054  1
  O  O11  1  0.308935  0.513706  0.977974  1
  O  O12  1  0.465090  0.552496  0.311955  1
  O  O13  1  0.496731  0.927070  0.179973  1
  O  O14  1  0.906980  0.404871  0.722277  1
  O  O15  1  0.718936  0.829150  0.885946  1
  O  O16  1  0.892467  0.220682  0.075440  1
  O  O17  1  0.691065  0.486294  0.022026  1
  O  O18  1  0.075643  0.270300  0.421762  1
  O  O19  1  0.100093  0.127305  0.749922  1
  O  O20  1  0.728504  0.000653  0.567096  1
  O  O21  1  0.093020  0.595129  0.277723  1
  O  O22  1  0.899907  0.872695  0.250078  1
  O  O23  1  0.107533  0.779318  0.924560  1
  O  O24  1  0.503269  0.072930  0.820027  1
  O  O25  1  0.271496  0.999347  0.432904  1
  O  O26  1  0.534910  0.447504  0.688045  1
