# generated using pymatgen
data_Li2Nd3AlRh3
_symmetry_space_group_name_H-M   'P 1'
_cell_length_a   7.26743440
_cell_length_b   7.26743507
_cell_length_c   4.11225100
_cell_angle_alpha   90.00000000
_cell_angle_beta   90.00000000
_cell_angle_gamma   120.67893526
_symmetry_Int_Tables_number   1
_chemical_formula_structural   Li2Nd3AlRh3
_chemical_formula_sum   'Li2 Nd3 Al1 Rh3'
_cell_volume   186.79295928
_cell_formula_units_Z   1
loop_
 _symmetry_equiv_pos_site_id
 _symmetry_equiv_pos_as_xyz
  1  'x, y, z'
loop_
 _atom_site_type_symbol
 _atom_site_label
 _atom_site_symmetry_multiplicity
 _atom_site_fract_x
 _atom_site_fract_y
 _atom_site_fract_z
 _atom_site_occupancy
  Li  Li0  1  0.232899  0.000458  0.500000  1
  Li  Li1  1  0.000458  0.232899  0.500000  1
  Nd  Nd2  1  0.589592  0.001303  0.000000  1
  Nd  Nd3  1  0.001303  0.589592  0.000000  1
  Nd  Nd4  1  0.415219  0.415219  0.000000  1
  Al  Al5  1  0.764821  0.764821  0.500000  1
  Rh  Rh6  1  0.966776  0.966776  0.000000  1
  Rh  Rh7  1  0.355414  0.673520  0.500000  1
  Rh  Rh8  1  0.673520  0.355414  0.500000  1
