# generated using pymatgen
data_TbYAlSi2
_symmetry_space_group_name_H-M   'P 1'
_cell_length_a   5.61108557
_cell_length_b   5.61108522
_cell_length_c   5.61108515
_cell_angle_alpha   137.01156419
_cell_angle_beta   118.86085037
_cell_angle_gamma   77.63283869
_symmetry_Int_Tables_number   1
_chemical_formula_structural   TbYAlSi2
_chemical_formula_sum   'Tb1 Y1 Al1 Si2'
_cell_volume   102.60143264
_cell_formula_units_Z   1
loop_
 _symmetry_equiv_pos_site_id
 _symmetry_equiv_pos_as_xyz
  1  'x, y, z'
loop_
 _atom_site_type_symbol
 _atom_site_label
 _atom_site_symmetry_multiplicity
 _atom_site_fract_x
 _atom_site_fract_y
 _atom_site_fract_z
 _atom_site_occupancy
  Tb  Tb0  1  0.710650  0.210650  0.500000  1
  Y  Y1  1  0.289289  0.789289  0.500000  1
  Al  Al2  1  0.000012  0.000012  0.000000  1
  Si  Si3  1  0.289876  0.500025  0.789851  1
  Si  Si4  1  0.710173  0.500025  0.210149  1
