# generated using pymatgen
data_Er5In4RuAu
_symmetry_space_group_name_H-M   'P 1'
_cell_length_a   3.60775800
_cell_length_b   8.13716730
_cell_length_c   18.24291945
_cell_angle_alpha   89.97135140
_cell_angle_beta   90.00000000
_cell_angle_gamma   90.00000000
_symmetry_Int_Tables_number   1
_chemical_formula_structural   Er5In4RuAu
_chemical_formula_sum   'Er10 In8 Ru2 Au2'
_cell_volume   535.55605027
_cell_formula_units_Z   2
loop_
 _symmetry_equiv_pos_site_id
 _symmetry_equiv_pos_as_xyz
  1  'x, y, z'
loop_
 _atom_site_type_symbol
 _atom_site_label
 _atom_site_symmetry_multiplicity
 _atom_site_fract_x
 _atom_site_fract_y
 _atom_site_fract_z
 _atom_site_occupancy
  Er  Er0  1  0.000000  0.120473  0.418469  1
  Er  Er1  1  0.000000  0.879527  0.581531  1
  Er  Er2  1  0.000000  0.384955  0.913233  1
  Er  Er3  1  0.000000  0.615045  0.086767  1
  Er  Er4  1  0.000000  0.262205  0.217786  1
  Er  Er5  1  0.000000  0.737795  0.782214  1
  Er  Er6  1  0.000000  0.276621  0.722821  1
  Er  Er7  1  0.000000  0.723379  0.277179  1
  Er  Er8  1  0.000000  0.000000  0.000000  1
  Er  Er9  1  0.000000  0.500000  0.500000  1
  In  In10  1  0.500000  0.426998  0.350905  1
  In  In11  1  0.500000  0.573002  0.649095  1
  In  In12  1  0.500000  0.078866  0.852764  1
  In  In13  1  0.500000  0.921134  0.147236  1
  In  In14  1  0.500000  0.293581  0.067616  1
  In  In15  1  0.500000  0.706419  0.932384  1
  In  In16  1  0.500000  0.209996  0.566358  1
  In  In17  1  0.500000  0.790004  0.433642  1
  Ru  Ru18  1  0.500000  0.476766  0.804439  1
  Ru  Ru19  1  0.500000  0.523234  0.195561  1
  Au  Au20  1  0.500000  0.024387  0.302086  1
  Au  Au21  1  0.500000  0.975613  0.697914  1
