# generated using pymatgen
data_Tb4ZrPt3F28
_symmetry_space_group_name_H-M   'P 1'
_cell_length_a   5.60185173
_cell_length_b   8.98849914
_cell_length_c   12.11657409
_cell_angle_alpha   62.36284835
_cell_angle_beta   90.02360516
_cell_angle_gamma   90.10941793
_symmetry_Int_Tables_number   1
_chemical_formula_structural   Tb4ZrPt3F28
_chemical_formula_sum   'Tb4 Zr1 Pt3 F28'
_cell_volume   540.48537040
_cell_formula_units_Z   1
loop_
 _symmetry_equiv_pos_site_id
 _symmetry_equiv_pos_as_xyz
  1  'x, y, z'
loop_
 _atom_site_type_symbol
 _atom_site_label
 _atom_site_symmetry_multiplicity
 _atom_site_fract_x
 _atom_site_fract_y
 _atom_site_fract_z
 _atom_site_occupancy
  Tb  Tb0  1  0.257798  0.812882  0.268853  1
  Tb  Tb1  1  0.740335  0.187446  0.735448  1
  Tb  Tb2  1  0.760724  0.181621  0.238390  1
  Tb  Tb3  1  0.240411  0.815017  0.760890  1
  Zr  Zr4  1  0.754976  0.725107  0.042700  1
  Pt  Pt5  1  0.240247  0.272846  0.957195  1
  Pt  Pt6  1  0.259299  0.272052  0.457880  1
  Pt  Pt7  1  0.741306  0.726228  0.543237  1
  F  F8  1  0.936180  0.704733  0.416462  1
  F  F9  1  0.063176  0.293982  0.584262  1
  F  F10  1  0.436602  0.293614  0.084469  1
  F  F11  1  0.546285  0.711300  0.911379  1
  F  F12  1  0.466838  0.731331  0.142811  1
  F  F13  1  0.528181  0.274389  0.863537  1
  F  F14  1  0.970125  0.270847  0.365861  1
  F  F15  1  0.031498  0.727657  0.633955  1
  F  F16  1  0.957308  0.748458  0.174610  1
  F  F17  1  0.050514  0.258321  0.825403  1
  F  F18  1  0.452118  0.256391  0.327232  1
  F  F19  1  0.551054  0.742507  0.673638  1
  F  F20  1  0.774451  0.470638  0.141896  1
  F  F21  1  0.226212  0.519481  0.857875  1
  F  F22  1  0.268711  0.518674  0.361136  1
  F  F23  1  0.731710  0.479763  0.640791  1
  F  F24  1  0.944773  0.277232  0.044925  1
  F  F25  1  0.061830  0.723684  0.951024  1
  F  F26  1  0.444228  0.717930  0.458860  1
  F  F27  1  0.555054  0.280696  0.543354  1
  F  F28  1  0.741037  0.972979  0.449911  1
  F  F29  1  0.258928  0.025238  0.549798  1
  F  F30  1  0.242024  0.026087  0.052063  1
  F  F31  1  0.761676  0.979661  0.940718  1
  F  F32  1  0.585497  0.967716  0.233098  1
  F  F33  1  0.416255  0.031124  0.765497  1
  F  F34  1  0.086783  0.030827  0.270089  1
  F  F35  1  0.915852  0.971541  0.730755  1
