# generated using pymatgen
data_YbTh3(CoB10)2
_symmetry_space_group_name_H-M   'P 1'
_cell_length_a   4.17177800
_cell_length_b   5.60348065
_cell_length_c   11.19611428
_cell_angle_alpha   90.13075455
_cell_angle_beta   90.00000000
_cell_angle_gamma   90.00000000
_symmetry_Int_Tables_number   1
_chemical_formula_structural   YbTh3(CoB10)2
_chemical_formula_sum   'Yb1 Th3 Co2 B20'
_cell_volume   261.72502988
_cell_formula_units_Z   1
loop_
 _symmetry_equiv_pos_site_id
 _symmetry_equiv_pos_as_xyz
  1  'x, y, z'
loop_
 _atom_site_type_symbol
 _atom_site_label
 _atom_site_symmetry_multiplicity
 _atom_site_fract_x
 _atom_site_fract_y
 _atom_site_fract_z
 _atom_site_occupancy
  Yb  Yb0  1  0.500000  0.300545  0.865577  1
  Th  Th1  1  0.500000  0.698824  0.131828  1
  Th  Th2  1  0.500000  0.801098  0.635884  1
  Th  Th3  1  0.500000  0.198878  0.365769  1
  Co  Co4  1  0.000000  0.499023  0.500008  1
  Co  Co5  1  0.000000  0.996367  0.000794  1
  B  B6  1  0.000000  0.126938  0.541365  1
  B  B7  1  0.000000  0.873153  0.460447  1
  B  B8  1  0.000000  0.624589  0.957920  1
  B  B9  1  0.000000  0.370760  0.038563  1
  B  B10  1  0.000000  0.154896  0.698988  1
  B  B11  1  0.000000  0.848369  0.302674  1
  B  B12  1  0.299649  0.200661  0.111619  1
  B  B13  1  0.299526  0.797252  0.887171  1
  B  B14  1  0.699820  0.701236  0.386503  1
  B  B15  1  0.699900  0.298953  0.615276  1
  B  B16  1  0.700474  0.797252  0.887171  1
  B  B17  1  0.700351  0.200661  0.111619  1
  B  B18  1  0.300100  0.298953  0.615276  1
  B  B19  1  0.300180  0.701236  0.386503  1
  B  B20  1  0.000000  0.035943  0.187123  1
  B  B21  1  0.000000  0.968455  0.814546  1
  B  B22  1  0.000000  0.535556  0.311775  1
  B  B23  1  0.000000  0.466558  0.687148  1
  B  B24  1  0.000000  0.347841  0.195914  1
  B  B25  1  0.000000  0.656003  0.802537  1
