# generated using pymatgen
data_Pt4(I3Cl)3
_symmetry_space_group_name_H-M   'P 1'
_cell_length_a   6.86214508
_cell_length_b   7.04006994
_cell_length_c   13.33531302
_cell_angle_alpha   83.59827630
_cell_angle_beta   85.65088051
_cell_angle_gamma   119.75126269
_symmetry_Int_Tables_number   1
_chemical_formula_structural   Pt4(I3Cl)3
_chemical_formula_sum   'Pt4 I9 Cl3'
_cell_volume   549.36347912
_cell_formula_units_Z   1
loop_
 _symmetry_equiv_pos_site_id
 _symmetry_equiv_pos_as_xyz
  1  'x, y, z'
loop_
 _atom_site_type_symbol
 _atom_site_label
 _atom_site_symmetry_multiplicity
 _atom_site_fract_x
 _atom_site_fract_y
 _atom_site_fract_z
 _atom_site_occupancy
  Pt  Pt0  1  0.910419  0.092413  0.251018  1
  Pt  Pt1  1  0.089620  0.903586  0.748910  1
  Pt  Pt2  1  0.500221  0.999613  0.497294  1
  Pt  Pt3  1  0.001365  0.491194  0.996440  1
  I  I4  1  0.055914  0.189568  0.862063  1
  I  I5  1  0.157297  0.650278  0.615521  1
  I  I6  1  0.346501  0.843863  0.877298  1
  I  I7  1  0.851102  0.340829  0.376590  1
  I  I8  1  0.652370  0.156937  0.122694  1
  I  I9  1  0.743644  0.555532  0.876839  1
  I  I10  1  0.444154  0.240071  0.619959  1
  I  I11  1  0.255912  0.448196  0.124791  1
  I  I12  1  0.556125  0.752565  0.377597  1
  Cl  Cl13  1  0.167013  0.062762  0.352441  1
  Cl  Cl14  1  0.934905  0.842252  0.152658  1
  Cl  Cl15  1  0.833439  0.930342  0.647885  1
