# generated using pymatgen
data_Ac2Lu3Pb4
_symmetry_space_group_name_H-M   'P 1'
_cell_length_a   8.44059900
_cell_length_b   8.46400000
_cell_length_c   16.08311500
_cell_angle_alpha   90.00000000
_cell_angle_beta   90.00000000
_cell_angle_gamma   90.00000000
_symmetry_Int_Tables_number   1
_chemical_formula_structural   Ac2Lu3Pb4
_chemical_formula_sum   'Ac8 Lu12 Pb16'
_cell_volume   1148.99751680
_cell_formula_units_Z   4
loop_
 _symmetry_equiv_pos_site_id
 _symmetry_equiv_pos_as_xyz
  1  'x, y, z'
loop_
 _atom_site_type_symbol
 _atom_site_label
 _atom_site_symmetry_multiplicity
 _atom_site_fract_x
 _atom_site_fract_y
 _atom_site_fract_z
 _atom_site_occupancy
  Ac  Ac0  1  0.473327  0.677376  0.596583  1
  Ac  Ac1  1  0.973327  0.822624  0.903417  1
  Ac  Ac2  1  0.526673  0.322624  0.096583  1
  Ac  Ac3  1  0.026673  0.177376  0.403417  1
  Ac  Ac4  1  0.526673  0.322624  0.403417  1
  Ac  Ac5  1  0.026673  0.177376  0.096583  1
  Ac  Ac6  1  0.473327  0.677376  0.903417  1
  Ac  Ac7  1  0.973327  0.822624  0.596583  1
  Lu  Lu8  1  0.632542  0.157567  0.623638  1
  Lu  Lu9  1  0.132542  0.342433  0.876362  1
  Lu  Lu10  1  0.367458  0.842433  0.123638  1
  Lu  Lu11  1  0.867458  0.657567  0.376362  1
  Lu  Lu12  1  0.367458  0.842433  0.376362  1
  Lu  Lu13  1  0.867458  0.657567  0.123638  1
  Lu  Lu14  1  0.632542  0.157567  0.876362  1
  Lu  Lu15  1  0.132542  0.342433  0.623638  1
  Lu  Lu16  1  0.800702  0.491142  0.750000  1
  Lu  Lu17  1  0.300702  0.008858  0.750000  1
  Lu  Lu18  1  0.199298  0.508858  0.250000  1
  Lu  Lu19  1  0.699298  0.991142  0.250000  1
  Pb  Pb20  1  0.700032  0.954884  0.454369  1
  Pb  Pb21  1  0.200032  0.545116  0.045631  1
  Pb  Pb22  1  0.299968  0.045116  0.954369  1
  Pb  Pb23  1  0.799968  0.454884  0.545631  1
  Pb  Pb24  1  0.299968  0.045116  0.545631  1
  Pb  Pb25  1  0.799968  0.454884  0.954369  1
  Pb  Pb26  1  0.700032  0.954884  0.045631  1
  Pb  Pb27  1  0.200032  0.545116  0.454369  1
  Pb  Pb28  1  0.438532  0.364876  0.750000  1
  Pb  Pb29  1  0.938532  0.135124  0.750000  1
  Pb  Pb30  1  0.561468  0.635124  0.250000  1
  Pb  Pb31  1  0.061468  0.864876  0.250000  1
  Pb  Pb32  1  0.662935  0.855198  0.750000  1
  Pb  Pb33  1  0.162935  0.644802  0.750000  1
  Pb  Pb34  1  0.337065  0.144802  0.250000  1
  Pb  Pb35  1  0.837065  0.355198  0.250000  1
