# generated using pymatgen
data_Pr2PtN2
_symmetry_space_group_name_H-M   'P 1'
_cell_length_a   3.70149421
_cell_length_b   3.70149370
_cell_length_c   6.91993620
_cell_angle_alpha   105.50571626
_cell_angle_beta   105.50571148
_cell_angle_gamma   90.02502535
_symmetry_Int_Tables_number   1
_chemical_formula_structural   Pr2PtN2
_chemical_formula_sum   'Pr2 Pt1 N2'
_cell_volume   87.77019881
_cell_formula_units_Z   1
loop_
 _symmetry_equiv_pos_site_id
 _symmetry_equiv_pos_as_xyz
  1  'x, y, z'
loop_
 _atom_site_type_symbol
 _atom_site_label
 _atom_site_symmetry_multiplicity
 _atom_site_fract_x
 _atom_site_fract_y
 _atom_site_fract_z
 _atom_site_occupancy
  Pr  Pr0  1  0.151281  0.651281  0.802564  1
  Pr  Pr1  1  0.848719  0.348719  0.197436  1
  Pt  Pt2  1  0.500000  0.000000  0.500000  1
  N  N3  1  0.662699  0.162699  0.825396  1
  N  N4  1  0.337301  0.837301  0.174604  1
