# generated using pymatgen
data_Sc8Cr2B24IrRu
_symmetry_space_group_name_H-M   'P 1'
_cell_length_a   3.42940100
_cell_length_b   8.88627873
_cell_length_c   11.19744413
_cell_angle_alpha   89.90919496
_cell_angle_beta   90.00000000
_cell_angle_gamma   90.00000000
_symmetry_Int_Tables_number   1
_chemical_formula_structural   Sc8Cr2B24IrRu
_chemical_formula_sum   'Sc8 Cr2 B24 Ir1 Ru1'
_cell_volume   341.23734968
_cell_formula_units_Z   1
loop_
 _symmetry_equiv_pos_site_id
 _symmetry_equiv_pos_as_xyz
  1  'x, y, z'
loop_
 _atom_site_type_symbol
 _atom_site_label
 _atom_site_symmetry_multiplicity
 _atom_site_fract_x
 _atom_site_fract_y
 _atom_site_fract_z
 _atom_site_occupancy
  Sc  Sc0  1  0.000000  0.812968  0.086429  1
  Sc  Sc1  1  0.000000  0.184360  0.908675  1
  Sc  Sc2  1  0.000000  0.325617  0.419331  1
  Sc  Sc3  1  0.000000  0.676857  0.585117  1
  Sc  Sc4  1  0.000000  0.446861  0.128867  1
  Sc  Sc5  1  0.000000  0.554629  0.870625  1
  Sc  Sc6  1  0.000000  0.940104  0.373576  1
  Sc  Sc7  1  0.000000  0.058130  0.627892  1
  Cr  Cr8  1  0.000000  0.639782  0.319014  1
  Cr  Cr9  1  0.000000  0.360519  0.680789  1
  B  B10  1  0.500000  0.053296  0.064071  1
  B  B11  1  0.500000  0.946613  0.935095  1
  B  B12  1  0.500000  0.552890  0.434500  1
  B  B13  1  0.500000  0.447192  0.565794  1
  B  B14  1  0.500000  0.253261  0.077742  1
  B  B15  1  0.500000  0.747081  0.920938  1
  B  B16  1  0.500000  0.750453  0.420919  1
  B  B17  1  0.500000  0.249467  0.579376  1
  B  B18  1  0.500000  0.295255  0.236969  1
  B  B19  1  0.500000  0.705312  0.763448  1
  B  B20  1  0.500000  0.793781  0.264061  1
  B  B21  1  0.500000  0.206172  0.735429  1
  B  B22  1  0.500000  0.130385  0.318840  1
  B  B23  1  0.500000  0.869880  0.682463  1
  B  B24  1  0.500000  0.630172  0.182955  1
  B  B25  1  0.500000  0.369880  0.816533  1
  B  B26  1  0.500000  0.480063  0.288229  1
  B  B27  1  0.500000  0.520157  0.711984  1
  B  B28  1  0.500000  0.978421  0.213071  1
  B  B29  1  0.500000  0.021052  0.787095  1
  B  B30  1  0.500000  0.101244  0.472431  1
  B  B31  1  0.500000  0.898735  0.527777  1
  B  B32  1  0.500000  0.600521  0.027419  1
  B  B33  1  0.500000  0.398880  0.972227  1
  Ir  Ir34  1  0.000000  0.138919  0.179414  1
  Ru  Ru35  1  0.000000  0.861092  0.820908  1
