# generated using pymatgen
data_TbTm11Lu8(CoSb2)4
_symmetry_space_group_name_H-M   'P 1'
_cell_length_a   7.69794510
_cell_length_b   8.71630000
_cell_length_c   12.00752004
_cell_angle_alpha   90.00000000
_cell_angle_beta   90.02583719
_cell_angle_gamma   90.00000000
_symmetry_Int_Tables_number   1
_chemical_formula_structural   TbTm11Lu8(CoSb2)4
_chemical_formula_sum   'Tb1 Tm11 Lu8 Co4 Sb8'
_cell_volume   805.67568133
_cell_formula_units_Z   1
loop_
 _symmetry_equiv_pos_site_id
 _symmetry_equiv_pos_as_xyz
  1  'x, y, z'
loop_
 _atom_site_type_symbol
 _atom_site_label
 _atom_site_symmetry_multiplicity
 _atom_site_fract_x
 _atom_site_fract_y
 _atom_site_fract_z
 _atom_site_occupancy
  Tb  Tb0  1  0.876981  0.750000  0.807075  1
  Tm  Tm1  1  0.155228  0.750000  0.204075  1
  Tm  Tm2  1  0.655221  0.250000  0.295982  1
  Tm  Tm3  1  0.844775  0.250000  0.795858  1
  Tm  Tm4  1  0.345459  0.750000  0.703822  1
  Tm  Tm5  1  0.447962  0.750000  0.997580  1
  Tm  Tm6  1  0.948400  0.250000  0.501922  1
  Tm  Tm7  1  0.550993  0.250000  0.002590  1
  Tm  Tm8  1  0.052013  0.750000  0.497825  1
  Tm  Tm9  1  0.621175  0.750000  0.309210  1
  Tm  Tm10  1  0.121430  0.250000  0.191325  1
  Tm  Tm11  1  0.378916  0.250000  0.690673  1
  Lu  Lu12  1  0.824965  0.964078  0.066064  1
  Lu  Lu13  1  0.324843  0.036808  0.434747  1
  Lu  Lu14  1  0.175703  0.461251  0.935515  1
  Lu  Lu15  1  0.675319  0.537069  0.564905  1
  Lu  Lu16  1  0.175703  0.038749  0.935515  1
  Lu  Lu17  1  0.675319  0.962931  0.564905  1
  Lu  Lu18  1  0.824965  0.535922  0.066064  1
  Lu  Lu19  1  0.324843  0.463192  0.434747  1
  Co  Co20  1  0.432664  0.750000  0.491018  1
  Co  Co21  1  0.932482  0.250000  0.009299  1
  Co  Co22  1  0.567323  0.250000  0.508467  1
  Co  Co23  1  0.067322  0.750000  0.991605  1
  Sb  Sb24  1  0.930956  0.991560  0.327971  1
  Sb  Sb25  1  0.430884  0.008169  0.172135  1
  Sb  Sb26  1  0.071047  0.490379  0.671457  1
  Sb  Sb27  1  0.567110  0.507189  0.828042  1
  Sb  Sb28  1  0.071047  0.009621  0.671457  1
  Sb  Sb29  1  0.567110  0.992811  0.828042  1
  Sb  Sb30  1  0.930956  0.508440  0.327971  1
  Sb  Sb31  1  0.430884  0.491831  0.172135  1
