# generated using pymatgen
data_Sm2MnFe10CoP7
_symmetry_space_group_name_H-M   'P 1'
_cell_length_a   9.03374559
_cell_length_b   9.03580366
_cell_length_c   3.65838000
_cell_angle_alpha   90.00000000
_cell_angle_beta   90.00000000
_cell_angle_gamma   120.14337194
_symmetry_Int_Tables_number   1
_chemical_formula_structural   Sm2MnFe10CoP7
_chemical_formula_sum   'Sm2 Mn1 Fe10 Co1 P7'
_cell_volume   258.24079047
_cell_formula_units_Z   1
loop_
 _symmetry_equiv_pos_site_id
 _symmetry_equiv_pos_as_xyz
  1  'x, y, z'
loop_
 _atom_site_type_symbol
 _atom_site_label
 _atom_site_symmetry_multiplicity
 _atom_site_fract_x
 _atom_site_fract_y
 _atom_site_fract_z
 _atom_site_occupancy
  Sm  Sm0  1  0.665507  0.332128  0.000000  1
  Sm  Sm1  1  0.331469  0.666944  0.500000  1
  Mn  Mn2  1  0.887648  0.785676  0.000000  1
  Fe  Fe3  1  0.424340  0.055938  0.500000  1
  Fe  Fe4  1  0.942879  0.366951  0.500000  1
  Fe  Fe5  1  0.629881  0.573920  0.500000  1
  Fe  Fe6  1  0.154885  0.275081  0.500000  1
  Fe  Fe7  1  0.729717  0.881480  0.500000  1
  Fe  Fe8  1  0.118488  0.849054  0.500000  1
  Fe  Fe9  1  0.566787  0.949902  0.000000  1
  Fe  Fe10  1  0.048360  0.615719  0.000000  1
  Fe  Fe11  1  0.218846  0.099445  0.000000  1
  Fe  Fe12  1  0.903590  0.115403  0.000000  1
  Co  Co13  1  0.382603  0.433393  0.000000  1
  P  P14  1  0.105852  0.396529  0.000000  1
  P  P15  1  0.597355  0.710726  0.000000  1
  P  P16  1  0.289576  0.891910  0.000000  1
  P  P17  1  0.003121  0.005508  0.500000  1
  P  P18  1  0.407687  0.298137  0.500000  1
  P  P19  1  0.699122  0.107375  0.500000  1
  P  P20  1  0.892288  0.588778  0.500000  1
