# generated using pymatgen
data_Y2TiCo16
_symmetry_space_group_name_H-M   'P 1'
_cell_length_a   6.29676172
_cell_length_b   6.29576007
_cell_length_c   6.29605706
_cell_angle_alpha   83.01409397
_cell_angle_beta   83.01811916
_cell_angle_gamma   83.01724823
_symmetry_Int_Tables_number   1
_chemical_formula_structural   Y2TiCo16
_chemical_formula_sum   'Y2 Ti1 Co16'
_cell_volume   244.45519524
_cell_formula_units_Z   1
loop_
 _symmetry_equiv_pos_site_id
 _symmetry_equiv_pos_as_xyz
  1  'x, y, z'
loop_
 _atom_site_type_symbol
 _atom_site_label
 _atom_site_symmetry_multiplicity
 _atom_site_fract_x
 _atom_site_fract_y
 _atom_site_fract_z
 _atom_site_occupancy
  Y  Y0  1  0.655980  0.655963  0.655993  1
  Y  Y1  1  0.351291  0.351354  0.351383  1
  Ti  Ti2  1  0.092799  0.092807  0.092761  1
  Co  Co3  1  0.291191  0.708006  0.998032  1
  Co  Co4  1  0.708019  0.998061  0.291198  1
  Co  Co5  1  0.998064  0.291217  0.708020  1
  Co  Co6  1  0.291194  0.998043  0.708016  1
  Co  Co7  1  0.998069  0.708013  0.291213  1
  Co  Co8  1  0.708015  0.291199  0.998044  1
  Co  Co9  1  0.998601  0.998568  0.504573  1
  Co  Co10  1  0.998612  0.504558  0.998555  1
  Co  Co11  1  0.504551  0.998603  0.998578  1
  Co  Co12  1  0.347174  0.347196  0.848799  1
  Co  Co13  1  0.347165  0.848796  0.347196  1
  Co  Co14  1  0.848800  0.347181  0.347190  1
  Co  Co15  1  0.655340  0.655331  0.149272  1
  Co  Co16  1  0.655334  0.149273  0.655340  1
  Co  Co17  1  0.149267  0.655314  0.655327  1
  Co  Co18  1  0.900530  0.900514  0.900506  1
