# generated using pymatgen
data_NdYHo(Co3P2)3
_symmetry_space_group_name_H-M   'P 1'
_cell_length_a   3.73196300
_cell_length_b   10.59310600
_cell_length_c   12.26698700
_cell_angle_alpha   90.00000000
_cell_angle_beta   90.00000000
_cell_angle_gamma   90.00000000
_symmetry_Int_Tables_number   1
_chemical_formula_structural   NdYHo(Co3P2)3
_chemical_formula_sum   'Nd2 Y2 Ho2 Co18 P12'
_cell_volume   484.95177410
_cell_formula_units_Z   2
loop_
 _symmetry_equiv_pos_site_id
 _symmetry_equiv_pos_as_xyz
  1  'x, y, z'
loop_
 _atom_site_type_symbol
 _atom_site_label
 _atom_site_symmetry_multiplicity
 _atom_site_fract_x
 _atom_site_fract_y
 _atom_site_fract_z
 _atom_site_occupancy
  Nd  Nd0  1  0.000000  0.500000  0.522388  1
  Nd  Nd1  1  0.500000  0.000000  0.478070  1
  Y  Y2  1  0.500000  0.817274  0.204796  1
  Y  Y3  1  0.500000  0.182726  0.204796  1
  Ho  Ho4  1  0.000000  0.682193  0.795202  1
  Ho  Ho5  1  0.000000  0.317807  0.795202  1
  Co  Co6  1  0.500000  0.500000  0.156455  1
  Co  Co7  1  0.000000  0.000000  0.843215  1
  Co  Co8  1  0.500000  0.500000  0.706743  1
  Co  Co9  1  0.000000  0.000000  0.293679  1
  Co  Co10  1  0.000000  0.500000  0.986195  1
  Co  Co11  1  0.500000  0.000000  0.012367  1
  Co  Co12  1  0.500000  0.333521  0.994459  1
  Co  Co13  1  0.500000  0.666479  0.994459  1
  Co  Co14  1  0.000000  0.166970  0.004512  1
  Co  Co15  1  0.000000  0.833030  0.004512  1
  Co  Co16  1  0.500000  0.296856  0.429557  1
  Co  Co17  1  0.500000  0.703144  0.429557  1
  Co  Co18  1  0.000000  0.203758  0.571499  1
  Co  Co19  1  0.000000  0.796242  0.571499  1
  Co  Co20  1  0.500000  0.879397  0.712718  1
  Co  Co21  1  0.500000  0.120603  0.712718  1
  Co  Co22  1  0.000000  0.620125  0.287552  1
  Co  Co23  1  0.000000  0.379875  0.287552  1
  P  P24  1  0.500000  0.500000  0.883589  1
  P  P25  1  0.000000  0.000000  0.115494  1
  P  P26  1  0.500000  0.500000  0.339426  1
  P  P27  1  0.000000  0.000000  0.660701  1
  P  P28  1  0.500000  0.307606  0.618030  1
  P  P29  1  0.500000  0.692394  0.618030  1
  P  P30  1  0.000000  0.192910  0.383159  1
  P  P31  1  0.000000  0.807090  0.383159  1
  P  P32  1  0.500000  0.846320  0.893945  1
  P  P33  1  0.500000  0.153680  0.893945  1
  P  P34  1  0.000000  0.652743  0.105411  1
  P  P35  1  0.000000  0.347257  0.105411  1
