# generated using pymatgen
data_Sr2CrGaF10
_symmetry_space_group_name_H-M   'P 1'
_cell_length_a   5.79271883
_cell_length_b   5.78569985
_cell_length_c   7.90083321
_cell_angle_alpha   70.20375407
_cell_angle_beta   70.41333714
_cell_angle_gamma   71.84328671
_symmetry_Int_Tables_number   1
_chemical_formula_structural   Sr2CrGaF10
_chemical_formula_sum   'Sr2 Cr1 Ga1 F10'
_cell_volume   228.79522034
_cell_formula_units_Z   1
loop_
 _symmetry_equiv_pos_site_id
 _symmetry_equiv_pos_as_xyz
  1  'x, y, z'
loop_
 _atom_site_type_symbol
 _atom_site_label
 _atom_site_symmetry_multiplicity
 _atom_site_fract_x
 _atom_site_fract_y
 _atom_site_fract_z
 _atom_site_occupancy
  Sr  Sr0  1  0.546715  0.456303  0.249471  1
  Sr  Sr1  1  0.453285  0.543697  0.750529  1
  Cr  Cr2  1  0.000000  0.000000  0.500000  1
  Ga  Ga3  1  0.000000  0.000000  0.000000  1
  F  F4  1  0.066001  0.933269  0.748445  1
  F  F5  1  0.933999  0.066731  0.251555  1
  F  F6  1  0.202780  0.231354  0.891220  1
  F  F7  1  0.761414  0.791211  0.612108  1
  F  F8  1  0.723827  0.293515  0.529343  1
  F  F9  1  0.710102  0.272790  0.971187  1
  F  F10  1  0.276173  0.706485  0.470657  1
  F  F11  1  0.289898  0.727210  0.028813  1
  F  F12  1  0.238586  0.208789  0.387892  1
  F  F13  1  0.797220  0.768646  0.108780  1
