# generated using pymatgen
data_SmDy3Zr4F28
_symmetry_space_group_name_H-M   'P 1'
_cell_length_a   5.77584134
_cell_length_b   9.14628387
_cell_length_c   12.30360950
_cell_angle_alpha   62.31199115
_cell_angle_beta   89.97340998
_cell_angle_gamma   90.01355252
_symmetry_Int_Tables_number   1
_chemical_formula_structural   SmDy3Zr4F28
_chemical_formula_sum   'Sm1 Dy3 Zr4 F28'
_cell_volume   575.54126178
_cell_formula_units_Z   1
loop_
 _symmetry_equiv_pos_site_id
 _symmetry_equiv_pos_as_xyz
  1  'x, y, z'
loop_
 _atom_site_type_symbol
 _atom_site_label
 _atom_site_symmetry_multiplicity
 _atom_site_fract_x
 _atom_site_fract_y
 _atom_site_fract_z
 _atom_site_occupancy
  Sm  Sm0  1  0.756808  0.816108  0.766362  1
  Dy  Dy1  1  0.743351  0.816631  0.266088  1
  Dy  Dy2  1  0.243237  0.184574  0.233888  1
  Dy  Dy3  1  0.256921  0.187217  0.733533  1
  Zr  Zr4  1  0.744191  0.276330  0.453694  1
  Zr  Zr5  1  0.244874  0.725425  0.047478  1
  Zr  Zr6  1  0.255234  0.725723  0.542448  1
  Zr  Zr7  1  0.755265  0.272006  0.956283  1
  F  F8  1  0.463619  0.710187  0.923423  1
  F  F9  1  0.966312  0.288349  0.578025  1
  F  F10  1  0.532201  0.286796  0.079213  1
  F  F11  1  0.031601  0.711940  0.419637  1
  F  F12  1  0.455200  0.281502  0.549679  1
  F  F13  1  0.956067  0.716775  0.953747  1
  F  F14  1  0.546447  0.719360  0.448622  1
  F  F15  1  0.044635  0.279230  0.051265  1
  F  F16  1  0.767377  0.521963  0.859215  1
  F  F17  1  0.267092  0.474748  0.640681  1
  F  F18  1  0.233969  0.473996  0.142784  1
  F  F19  1  0.733113  0.526800  0.357425  1
  F  F20  1  0.759914  0.022044  0.059443  1
  F  F21  1  0.259726  0.975933  0.440351  1
  F  F22  1  0.239618  0.975069  0.942157  1
  F  F23  1  0.739868  0.026167  0.555715  1
  F  F24  1  0.985913  0.732529  0.646910  1
  F  F25  1  0.485371  0.265460  0.851264  1
  F  F26  1  0.014026  0.265479  0.349910  1
  F  F27  1  0.515514  0.734661  0.150865  1
  F  F28  1  0.032231  0.746832  0.173533  1
  F  F29  1  0.531671  0.253642  0.327634  1
  F  F30  1  0.967275  0.252394  0.828748  1
  F  F31  1  0.462589  0.744717  0.670764  1
  F  F32  1  0.429516  0.974167  0.235303  1
  F  F33  1  0.930755  0.026663  0.264614  1
  F  F34  1  0.569690  0.032566  0.765298  1
  F  F35  1  0.078808  0.976017  0.734000  1
