# generated using pymatgen
data_NdYLuAlPt2
_symmetry_space_group_name_H-M   'P 1'
_cell_length_a   4.52259700
_cell_length_b   7.43056500
_cell_length_c   8.13180200
_cell_angle_alpha   90.00000000
_cell_angle_beta   90.00000000
_cell_angle_gamma   90.00000000
_symmetry_Int_Tables_number   1
_chemical_formula_structural   NdYLuAlPt2
_chemical_formula_sum   'Nd2 Y2 Lu2 Al2 Pt4'
_cell_volume   273.27287347
_cell_formula_units_Z   2
loop_
 _symmetry_equiv_pos_site_id
 _symmetry_equiv_pos_as_xyz
  1  'x, y, z'
loop_
 _atom_site_type_symbol
 _atom_site_label
 _atom_site_symmetry_multiplicity
 _atom_site_fract_x
 _atom_site_fract_y
 _atom_site_fract_z
 _atom_site_occupancy
  Nd  Nd0  1  0.750000  0.986339  0.330425  1
  Nd  Nd1  1  0.250000  0.513661  0.830425  1
  Y  Y2  1  0.750000  0.437507  0.177306  1
  Y  Y3  1  0.250000  0.062493  0.677306  1
  Lu  Lu4  1  0.750000  0.869378  0.932281  1
  Lu  Lu5  1  0.250000  0.630622  0.432281  1
  Al  Al6  1  0.750000  0.356019  0.565641  1
  Al  Al7  1  0.250000  0.143981  0.065641  1
  Pt  Pt8  1  0.750000  0.719447  0.614929  1
  Pt  Pt9  1  0.750000  0.233937  0.879418  1
  Pt  Pt10  1  0.250000  0.266063  0.379418  1
  Pt  Pt11  1  0.250000  0.780553  0.114929  1
