# generated using pymatgen
data_LiMgV4(SeO3)8
_symmetry_space_group_name_H-M   'P 1'
_cell_length_a   8.13690304
_cell_length_b   8.20409790
_cell_length_c   8.26726209
_cell_angle_alpha   87.65108533
_cell_angle_beta   90.31138719
_cell_angle_gamma   90.29379132
_symmetry_Int_Tables_number   1
_chemical_formula_structural   LiMgV4(SeO3)8
_chemical_formula_sum   'Li1 Mg1 V4 Se8 O24'
_cell_volume   551.41042619
_cell_formula_units_Z   1
loop_
 _symmetry_equiv_pos_site_id
 _symmetry_equiv_pos_as_xyz
  1  'x, y, z'
loop_
 _atom_site_type_symbol
 _atom_site_label
 _atom_site_symmetry_multiplicity
 _atom_site_fract_x
 _atom_site_fract_y
 _atom_site_fract_z
 _atom_site_occupancy
  Li  Li0  1  0.605251  0.337213  0.164174  1
  Mg  Mg1  1  0.402277  0.838465  0.163075  1
  V  V2  1  0.756329  0.747955  0.004660  1
  V  V3  1  0.736873  0.244986  0.508353  1
  V  V4  1  0.244782  0.250786  0.002705  1
  V  V5  1  0.263685  0.745465  0.506211  1
  Se  Se6  1  0.094150  0.553307  0.184196  1
  Se  Se7  1  0.907419  0.056414  0.192576  1
  Se  Se8  1  0.569988  0.450948  0.824140  1
  Se  Se9  1  0.322890  0.162838  0.412114  1
  Se  Se10  1  0.052445  0.419751  0.685281  1
  Se  Se11  1  0.427184  0.951940  0.823781  1
  Se  Se12  1  0.680816  0.655394  0.420228  1
  Se  Se13  1  0.947761  0.922080  0.683580  1
  O  O14  1  0.976729  0.711581  0.105740  1
  O  O15  1  0.307722  0.005707  0.990186  1
  O  O16  1  0.160879  0.256782  0.773624  1
  O  O17  1  0.667028  0.448030  0.376779  1
  O  O18  1  0.753485  0.174968  0.276159  1
  O  O19  1  0.195994  0.495691  0.014663  1
  O  O20  1  0.210188  0.516446  0.578811  1
  O  O21  1  0.628181  0.742178  0.229848  1
  O  O22  1  0.718676  0.350714  0.713375  1
  O  O23  1  0.338003  0.953921  0.368043  1
  O  O24  1  0.965685  0.318648  0.518533  1
  O  O25  1  0.481821  0.288633  0.931797  1
  O  O26  1  0.831777  0.766476  0.771406  1
  O  O27  1  0.508421  0.690246  0.527513  1
  O  O28  1  0.278786  0.849293  0.722069  1
  O  O29  1  0.250647  0.673118  0.268667  1
  O  O30  1  0.371656  0.251579  0.226636  1
  O  O31  1  0.026881  0.211557  0.106597  1
  O  O32  1  0.022320  0.824400  0.519214  1
  O  O33  1  0.516039  0.792706  0.941829  1
  O  O34  1  0.697649  0.507629  0.982218  1
  O  O35  1  0.782537  0.031265  0.581837  1
  O  O36  1  0.496892  0.190677  0.524989  1
  O  O37  1  0.800159  0.991610  0.026198  1
