# generated using pymatgen
data_Er16Tl5InCoPt
_symmetry_space_group_name_H-M   'P 1'
_cell_length_a   10.36384385
_cell_length_b   10.36365431
_cell_length_c   6.99846500
_cell_angle_alpha   89.99694039
_cell_angle_beta   90.00304007
_cell_angle_gamma   119.95427629
_symmetry_Int_Tables_number   1
_chemical_formula_structural   Er16Tl5InCoPt
_chemical_formula_sum   'Er16 Tl5 In1 Co1 Pt1'
_cell_volume   651.27906589
_cell_formula_units_Z   1
loop_
 _symmetry_equiv_pos_site_id
 _symmetry_equiv_pos_as_xyz
  1  'x, y, z'
loop_
 _atom_site_type_symbol
 _atom_site_label
 _atom_site_symmetry_multiplicity
 _atom_site_fract_x
 _atom_site_fract_y
 _atom_site_fract_z
 _atom_site_occupancy
  Er  Er0  1  0.530708  0.062872  0.795244  1
  Er  Er1  1  0.937135  0.469294  0.795242  1
  Er  Er2  1  0.531795  0.468199  0.795904  1
  Er  Er3  1  0.462801  0.925865  0.294010  1
  Er  Er4  1  0.074138  0.537200  0.294006  1
  Er  Er5  1  0.462742  0.537264  0.293431  1
  Er  Er6  1  0.824205  0.649181  0.497450  1
  Er  Er7  1  0.350817  0.175793  0.497454  1
  Er  Er8  1  0.824693  0.175297  0.497474  1
  Er  Er9  1  0.177879  0.356181  0.998857  1
  Er  Er10  1  0.643814  0.822121  0.998859  1
  Er  Er11  1  0.178098  0.821914  0.000385  1
  Er  Er12  1  0.666700  0.333286  0.170676  1
  Er  Er13  1  0.333188  0.666823  0.683846  1
  Er  Er14  1  0.000671  0.999343  0.776756  1
  Er  Er15  1  0.000620  0.999370  0.276443  1
  Tl  Tl16  1  0.837550  0.675205  0.038753  1
  Tl  Tl17  1  0.324796  0.162445  0.038770  1
  Tl  Tl18  1  0.837706  0.162285  0.038670  1
  Tl  Tl19  1  0.163042  0.326115  0.540549  1
  Tl  Tl20  1  0.673882  0.836958  0.540549  1
  In  In21  1  0.162826  0.837186  0.539345  1
  Co  Co22  1  0.333411  0.666576  0.066356  1
  Pt  Pt23  1  0.666780  0.333228  0.566874  1
