# generated using pymatgen
data_Tm8Tl3Co
_symmetry_space_group_name_H-M   'P 1'
_cell_length_a   10.23599800
_cell_length_b   10.23599824
_cell_length_c   6.99615100
_cell_angle_alpha   90.00000000
_cell_angle_beta   90.00000000
_cell_angle_gamma   120.00000569
_symmetry_Int_Tables_number   1
_chemical_formula_structural   Tm8Tl3Co
_chemical_formula_sum   'Tm16 Tl6 Co2'
_cell_volume   634.81937925
_cell_formula_units_Z   2
loop_
 _symmetry_equiv_pos_site_id
 _symmetry_equiv_pos_as_xyz
  1  'x, y, z'
loop_
 _atom_site_type_symbol
 _atom_site_label
 _atom_site_symmetry_multiplicity
 _atom_site_fract_x
 _atom_site_fract_y
 _atom_site_fract_z
 _atom_site_occupancy
  Tm  Tm0  1  0.537423  0.074848  0.515409  1
  Tm  Tm1  1  0.925152  0.462577  0.515409  1
  Tm  Tm2  1  0.537423  0.462577  0.515409  1
  Tm  Tm3  1  0.462577  0.925152  0.015409  1
  Tm  Tm4  1  0.074848  0.537423  0.015409  1
  Tm  Tm5  1  0.462577  0.537423  0.015409  1
  Tm  Tm6  1  0.178768  0.357535  0.716738  1
  Tm  Tm7  1  0.642465  0.821232  0.716738  1
  Tm  Tm8  1  0.178768  0.821232  0.716738  1
  Tm  Tm9  1  0.821232  0.642465  0.216738  1
  Tm  Tm10  1  0.357535  0.178768  0.216738  1
  Tm  Tm11  1  0.821232  0.178768  0.216738  1
  Tm  Tm12  1  0.666667  0.333333  0.905423  1
  Tm  Tm13  1  0.333333  0.666667  0.405423  1
  Tm  Tm14  1  0.000000  0.000000  0.499390  1
  Tm  Tm15  1  0.000000  0.000000  0.999390  1
  Tl  Tl16  1  0.837344  0.674687  0.763624  1
  Tl  Tl17  1  0.325313  0.162656  0.763624  1
  Tl  Tl18  1  0.837344  0.162656  0.763624  1
  Tl  Tl19  1  0.162656  0.325313  0.263624  1
  Tl  Tl20  1  0.674687  0.837344  0.263624  1
  Tl  Tl21  1  0.162656  0.837344  0.263624  1
  Co  Co22  1  0.666667  0.333333  0.286878  1
  Co  Co23  1  0.333333  0.666667  0.786878  1
