# generated using pymatgen
data_HoTm3Se4
_symmetry_space_group_name_H-M   'P 1'
_cell_length_a   13.09252848
_cell_length_b   13.09252828
_cell_length_c   13.09252733
_cell_angle_alpha   17.89258958
_cell_angle_beta   17.89259386
_cell_angle_gamma   17.89258949
_symmetry_Int_Tables_number   1
_chemical_formula_structural   HoTm3Se4
_chemical_formula_sum   'Ho1 Tm3 Se4'
_cell_volume   184.94944370
_cell_formula_units_Z   1
loop_
 _symmetry_equiv_pos_site_id
 _symmetry_equiv_pos_as_xyz
  1  'x, y, z'
loop_
 _atom_site_type_symbol
 _atom_site_label
 _atom_site_symmetry_multiplicity
 _atom_site_fract_x
 _atom_site_fract_y
 _atom_site_fract_z
 _atom_site_occupancy
  Ho  Ho0  1  0.000000  0.000000  0.000000  1
  Tm  Tm1  1  0.250171  0.250171  0.250171  1
  Tm  Tm2  1  0.500000  0.500000  0.500000  1
  Tm  Tm3  1  0.749829  0.749829  0.749829  1
  Se  Se4  1  0.375554  0.375554  0.375554  1
  Se  Se5  1  0.124997  0.124997  0.124997  1
  Se  Se6  1  0.624446  0.624446  0.624446  1
  Se  Se7  1  0.875003  0.875003  0.875003  1
