# generated using pymatgen
data_Y8In3Rh
_symmetry_space_group_name_H-M   'P 1'
_cell_length_a   10.48075100
_cell_length_b   10.48075158
_cell_length_c   7.04481600
_cell_angle_alpha   90.00000000
_cell_angle_beta   90.00000000
_cell_angle_gamma   120.00000132
_symmetry_Int_Tables_number   1
_chemical_formula_structural   Y8In3Rh
_chemical_formula_sum   'Y16 In6 Rh2'
_cell_volume   670.17019764
_cell_formula_units_Z   2
loop_
 _symmetry_equiv_pos_site_id
 _symmetry_equiv_pos_as_xyz
  1  'x, y, z'
loop_
 _atom_site_type_symbol
 _atom_site_label
 _atom_site_symmetry_multiplicity
 _atom_site_fract_x
 _atom_site_fract_y
 _atom_site_fract_z
 _atom_site_occupancy
  Y  Y0  1  0.532698  0.065396  0.523092  1
  Y  Y1  1  0.934604  0.467302  0.523092  1
  Y  Y2  1  0.532698  0.467302  0.523092  1
  Y  Y3  1  0.467302  0.934604  0.023092  1
  Y  Y4  1  0.065396  0.532698  0.023092  1
  Y  Y5  1  0.467302  0.532698  0.023092  1
  Y  Y6  1  0.175504  0.351008  0.731099  1
  Y  Y7  1  0.648992  0.824496  0.731099  1
  Y  Y8  1  0.175504  0.824496  0.731099  1
  Y  Y9  1  0.824496  0.648992  0.231099  1
  Y  Y10  1  0.351008  0.175504  0.231099  1
  Y  Y11  1  0.824496  0.175504  0.231099  1
  Y  Y12  1  0.666667  0.333333  0.902028  1
  Y  Y13  1  0.333333  0.666667  0.402028  1
  Y  Y14  1  0.000000  0.000000  0.510419  1
  Y  Y15  1  0.000000  0.000000  0.010419  1
  In  In16  1  0.836722  0.673445  0.768609  1
  In  In17  1  0.326555  0.163278  0.768609  1
  In  In18  1  0.836722  0.163278  0.768609  1
  In  In19  1  0.163278  0.326555  0.268609  1
  In  In20  1  0.673445  0.836722  0.268609  1
  In  In21  1  0.163278  0.836722  0.268609  1
  Rh  Rh22  1  0.666667  0.333333  0.297000  1
  Rh  Rh23  1  0.333333  0.666667  0.797000  1
