# generated using pymatgen
data_Pr2Gd2Se3N2
_symmetry_space_group_name_H-M   'P 1'
_cell_length_a   8.27708270
_cell_length_b   8.27708153
_cell_length_c   6.39168865
_cell_angle_alpha   90.29855391
_cell_angle_beta   90.29855399
_cell_angle_gamma   75.06264599
_symmetry_Int_Tables_number   1
_chemical_formula_structural   Pr2Gd2Se3N2
_chemical_formula_sum   'Pr4 Gd4 Se6 N4'
_cell_volume   423.08877134
_cell_formula_units_Z   2
loop_
 _symmetry_equiv_pos_site_id
 _symmetry_equiv_pos_as_xyz
  1  'x, y, z'
loop_
 _atom_site_type_symbol
 _atom_site_label
 _atom_site_symmetry_multiplicity
 _atom_site_fract_x
 _atom_site_fract_y
 _atom_site_fract_z
 _atom_site_occupancy
  Pr  Pr0  1  0.941650  0.308717  0.530194  1
  Pr  Pr1  1  0.691283  0.058350  0.969806  1
  Pr  Pr2  1  0.058350  0.691283  0.469806  1
  Pr  Pr3  1  0.308717  0.941650  0.030194  1
  Gd  Gd4  1  0.587814  0.741745  0.572997  1
  Gd  Gd5  1  0.258255  0.412186  0.927003  1
  Gd  Gd6  1  0.412186  0.258255  0.427003  1
  Gd  Gd7  1  0.741745  0.587814  0.072997  1
  Se  Se8  1  0.983452  0.252921  0.033588  1
  Se  Se9  1  0.408444  0.591556  0.250000  1
  Se  Se10  1  0.747079  0.016548  0.466412  1
  Se  Se11  1  0.016548  0.747079  0.966412  1
  Se  Se12  1  0.591556  0.408444  0.750000  1
  Se  Se13  1  0.252921  0.983452  0.533588  1
  N  N14  1  0.823679  0.585750  0.412064  1
  N  N15  1  0.585750  0.823679  0.912064  1
  N  N16  1  0.176321  0.414250  0.587936  1
  N  N17  1  0.414250  0.176321  0.087936  1
