# generated using pymatgen
data_Y8Ho4TlZnInFe2
_symmetry_space_group_name_H-M   'P 1'
_cell_length_a   8.43446604
_cell_length_b   8.43446101
_cell_length_c   8.43446500
_cell_angle_alpha   109.77450296
_cell_angle_beta   109.77489494
_cell_angle_gamma   108.86598873
_symmetry_Int_Tables_number   1
_chemical_formula_structural   Y8Ho4TlZnInFe2
_chemical_formula_sum   'Y8 Ho4 Tl1 Zn1 In1 Fe2'
_cell_volume   461.86397696
_cell_formula_units_Z   1
loop_
 _symmetry_equiv_pos_site_id
 _symmetry_equiv_pos_as_xyz
  1  'x, y, z'
loop_
 _atom_site_type_symbol
 _atom_site_label
 _atom_site_symmetry_multiplicity
 _atom_site_fract_x
 _atom_site_fract_y
 _atom_site_fract_z
 _atom_site_occupancy
  Y  Y0  1  0.445269  0.201394  0.243874  1
  Y  Y1  1  0.554731  0.798606  0.756126  1
  Y  Y2  1  0.957520  0.201394  0.756124  1
  Y  Y3  1  0.201040  0.957278  0.756237  1
  Y  Y4  1  0.042480  0.798606  0.243876  1
  Y  Y5  1  0.798960  0.042722  0.243763  1
  Y  Y6  1  0.201042  0.444810  0.243768  1
  Y  Y7  1  0.798958  0.555190  0.756232  1
  Ho  Ho8  1  0.306820  0.307337  0.614156  1
  Ho  Ho9  1  0.693180  0.692663  0.385844  1
  Ho  Ho10  1  0.306819  0.692663  0.999484  1
  Ho  Ho11  1  0.693181  0.307337  0.000516  1
  Tl  Tl12  1  0.500000  0.000000  0.500000  1
  Zn  Zn13  1  0.000000  0.000000  0.000000  1
  In  In14  1  0.000000  0.500000  0.500000  1
  Fe  Fe15  1  0.388181  0.388180  0.000000  1
  Fe  Fe16  1  0.611819  0.611820  0.000000  1
