# generated using pymatgen
data_HoZr2Sn3IrRh2
_symmetry_space_group_name_H-M   'P 1'
_cell_length_a   7.51086560
_cell_length_b   7.51026456
_cell_length_c   7.38066200
_cell_angle_alpha   90.00000000
_cell_angle_beta   90.00000000
_cell_angle_gamma   120.08740609
_symmetry_Int_Tables_number   1
_chemical_formula_structural   HoZr2Sn3IrRh2
_chemical_formula_sum   'Ho2 Zr4 Sn6 Ir2 Rh4'
_cell_volume   360.23672929
_cell_formula_units_Z   2
loop_
 _symmetry_equiv_pos_site_id
 _symmetry_equiv_pos_as_xyz
  1  'x, y, z'
loop_
 _atom_site_type_symbol
 _atom_site_label
 _atom_site_symmetry_multiplicity
 _atom_site_fract_x
 _atom_site_fract_y
 _atom_site_fract_z
 _atom_site_occupancy
  Ho  Ho0  1  0.597582  0.003434  0.250000  1
  Ho  Ho1  1  0.406855  0.401422  0.250000  1
  Zr  Zr2  1  0.608855  0.004573  0.750000  1
  Zr  Zr3  1  0.392668  0.395211  0.750000  1
  Zr  Zr4  1  0.000765  0.603079  0.750000  1
  Zr  Zr5  1  0.990173  0.593421  0.250000  1
  Sn  Sn6  1  0.265181  0.996476  0.993498  1
  Sn  Sn7  1  0.731838  0.734930  0.507012  1
  Sn  Sn8  1  0.003264  0.268568  0.496840  1
  Sn  Sn9  1  0.003264  0.268568  0.003160  1
  Sn  Sn10  1  0.731838  0.734930  0.992988  1
  Sn  Sn11  1  0.265181  0.996476  0.506502  1
  Ir  Ir12  1  0.671849  0.337723  0.973126  1
  Ir  Ir13  1  0.671849  0.337723  0.526874  1
  Rh  Rh14  1  0.329252  0.665665  0.979404  1
  Rh  Rh15  1  0.329252  0.665665  0.520596  1
  Rh  Rh16  1  0.000531  0.003798  0.750000  1
  Rh  Rh17  1  0.999802  0.988336  0.250000  1
