# generated using pymatgen
data_LuSc7Sb16
_symmetry_space_group_name_H-M   'P 1'
_cell_length_a   4.05884300
_cell_length_b   10.33939926
_cell_length_c   14.68142927
_cell_angle_alpha   90.23494298
_cell_angle_beta   90.00000000
_cell_angle_gamma   90.00000000
_symmetry_Int_Tables_number   1
_chemical_formula_structural   LuSc7Sb16
_chemical_formula_sum   'Lu1 Sc7 Sb16'
_cell_volume   616.11565589
_cell_formula_units_Z   1
loop_
 _symmetry_equiv_pos_site_id
 _symmetry_equiv_pos_as_xyz
  1  'x, y, z'
loop_
 _atom_site_type_symbol
 _atom_site_label
 _atom_site_symmetry_multiplicity
 _atom_site_fract_x
 _atom_site_fract_y
 _atom_site_fract_z
 _atom_site_occupancy
  Lu  Lu0  1  0.500000  0.678647  0.991808  1
  Sc  Sc1  1  0.500000  0.519072  0.244749  1
  Sc  Sc2  1  0.500000  0.481463  0.756134  1
  Sc  Sc3  1  0.000000  0.020638  0.258807  1
  Sc  Sc4  1  0.000000  0.982511  0.741015  1
  Sc  Sc5  1  0.000000  0.822906  0.491795  1
  Sc  Sc6  1  0.000000  0.178225  0.508446  1
  Sc  Sc7  1  0.500000  0.319249  0.008678  1
  Sb  Sb8  1  0.000000  0.516442  0.097999  1
  Sb  Sb9  1  0.000000  0.470427  0.903084  1
  Sb  Sb10  1  0.500000  0.024038  0.404463  1
  Sb  Sb11  1  0.500000  0.975321  0.595764  1
  Sb  Sb12  1  0.000000  0.729522  0.297062  1
  Sb  Sb13  1  0.000000  0.271170  0.703976  1
  Sb  Sb14  1  0.500000  0.229176  0.205260  1
  Sb  Sb15  1  0.500000  0.771673  0.791659  1
  Sb  Sb16  1  0.000000  0.889823  0.934795  1
  Sb  Sb17  1  0.000000  0.117058  0.062003  1
  Sb  Sb18  1  0.500000  0.382825  0.560326  1
  Sb  Sb19  1  0.500000  0.618860  0.440088  1
  Sb  Sb20  1  0.000000  0.657462  0.656822  1
  Sb  Sb21  1  0.000000  0.341233  0.341743  1
  Sb  Sb22  1  0.500000  0.158109  0.839943  1
  Sb  Sb23  1  0.500000  0.844152  0.163583  1
