# generated using pymatgen
data_Hf4Ir2Ru10C3
_symmetry_space_group_name_H-M   'P 1'
_cell_length_a   4.07682000
_cell_length_b   4.07682000
_cell_length_c   16.07173800
_cell_angle_alpha   90.00000000
_cell_angle_beta   90.00000000
_cell_angle_gamma   90.00000000
_symmetry_Int_Tables_number   1
_chemical_formula_structural   Hf4Ir2Ru10C3
_chemical_formula_sum   'Hf4 Ir2 Ru10 C3'
_cell_volume   267.11969965
_cell_formula_units_Z   1
loop_
 _symmetry_equiv_pos_site_id
 _symmetry_equiv_pos_as_xyz
  1  'x, y, z'
loop_
 _atom_site_type_symbol
 _atom_site_label
 _atom_site_symmetry_multiplicity
 _atom_site_fract_x
 _atom_site_fract_y
 _atom_site_fract_z
 _atom_site_occupancy
  Hf  Hf0  1  0.000000  0.000000  0.882454  1
  Hf  Hf1  1  0.000000  0.000000  0.117546  1
  Hf  Hf2  1  0.000000  0.000000  0.372647  1
  Hf  Hf3  1  0.000000  0.000000  0.627353  1
  Ir  Ir4  1  0.500000  0.000000  0.000000  1
  Ir  Ir5  1  0.000000  0.500000  0.000000  1
  Ru  Ru6  1  0.500000  0.500000  0.881657  1
  Ru  Ru7  1  0.500000  0.500000  0.118343  1
  Ru  Ru8  1  0.500000  0.500000  0.372882  1
  Ru  Ru9  1  0.500000  0.500000  0.627118  1
  Ru  Ru10  1  0.500000  0.000000  0.248598  1
  Ru  Ru11  1  0.500000  0.000000  0.500000  1
  Ru  Ru12  1  0.500000  0.000000  0.751402  1
  Ru  Ru13  1  0.000000  0.500000  0.248598  1
  Ru  Ru14  1  0.000000  0.500000  0.500000  1
  Ru  Ru15  1  0.000000  0.500000  0.751402  1
  C  C16  1  0.500000  0.500000  0.240352  1
  C  C17  1  0.500000  0.500000  0.500000  1
  C  C18  1  0.500000  0.500000  0.759648  1
