# generated using pymatgen
data_Cs12K5Rb(InSb4)2
_symmetry_space_group_name_H-M   'P 1'
_cell_length_a   11.23889600
_cell_length_b   11.28802482
_cell_length_c   11.88588100
_cell_angle_alpha   90.00000000
_cell_angle_beta   90.00000000
_cell_angle_gamma   119.85612551
_symmetry_Int_Tables_number   1
_chemical_formula_structural   Cs12K5Rb(InSb4)2
_chemical_formula_sum   'Cs12 K5 Rb1 In2 Sb8'
_cell_volume   1307.77015743
_cell_formula_units_Z   1
loop_
 _symmetry_equiv_pos_site_id
 _symmetry_equiv_pos_as_xyz
  1  'x, y, z'
loop_
 _atom_site_type_symbol
 _atom_site_label
 _atom_site_symmetry_multiplicity
 _atom_site_fract_x
 _atom_site_fract_y
 _atom_site_fract_z
 _atom_site_occupancy
  Cs  Cs0  1  0.207988  0.415975  0.542917  1
  Cs  Cs1  1  0.792006  0.208019  0.043026  1
  Cs  Cs2  1  0.416012  0.208019  0.043026  1
  Cs  Cs3  1  0.583511  0.792035  0.542559  1
  Cs  Cs4  1  0.208526  0.792035  0.542559  1
  Cs  Cs5  1  0.791690  0.583380  0.456154  1
  Cs  Cs6  1  0.792006  0.208019  0.456974  1
  Cs  Cs7  1  0.791690  0.583380  0.043846  1
  Cs  Cs8  1  0.416012  0.208019  0.456974  1
  Cs  Cs9  1  0.583511  0.792035  0.957441  1
  Cs  Cs10  1  0.207988  0.415975  0.957083  1
  Cs  Cs11  1  0.208526  0.792035  0.957441  1
  K  K12  1  0.119787  0.239571  0.250000  1
  K  K13  1  0.880428  0.120660  0.750000  1
  K  K14  1  0.240231  0.120660  0.750000  1
  K  K15  1  0.760686  0.880422  0.250000  1
  K  K16  1  0.119738  0.880422  0.250000  1
  Rb  Rb17  1  0.880869  0.761741  0.750000  1
  In  In18  1  0.333514  0.667030  0.250000  1
  In  In19  1  0.666474  0.332946  0.750000  1
  Sb  Sb20  1  0.479401  0.521156  0.250000  1
  Sb  Sb21  1  0.958600  0.475795  0.750000  1
  Sb  Sb22  1  0.521061  0.042123  0.750000  1
  Sb  Sb23  1  0.478773  0.957544  0.250000  1
  Sb  Sb24  1  0.041756  0.521156  0.250000  1
  Sb  Sb25  1  0.517194  0.475795  0.750000  1
  Sb  Sb26  1  0.001013  0.002027  0.002150  1
  Sb  Sb27  1  0.001013  0.002027  0.497850  1
