# generated using pymatgen
data_Nd12Si2I17
_symmetry_space_group_name_H-M   'P 1'
_cell_length_a   9.93901183
_cell_length_b   11.89735656
_cell_length_c   11.75678330
_cell_angle_alpha   93.93455880
_cell_angle_beta   104.73727978
_cell_angle_gamma   115.08887552
_symmetry_Int_Tables_number   1
_chemical_formula_structural   Nd12Si2I17
_chemical_formula_sum   'Nd12 Si2 I17'
_cell_volume   1192.65594257
_cell_formula_units_Z   1
loop_
 _symmetry_equiv_pos_site_id
 _symmetry_equiv_pos_as_xyz
  1  'x, y, z'
loop_
 _atom_site_type_symbol
 _atom_site_label
 _atom_site_symmetry_multiplicity
 _atom_site_fract_x
 _atom_site_fract_y
 _atom_site_fract_z
 _atom_site_occupancy
  Nd  Nd0  1  0.060586  0.520618  0.331714  1
  Nd  Nd1  1  0.992420  0.812963  0.577224  1
  Nd  Nd2  1  0.631587  0.239298  0.282052  1
  Nd  Nd3  1  0.007580  0.187037  0.422776  1
  Nd  Nd4  1  0.224380  0.665750  0.000065  1
  Nd  Nd5  1  0.275921  0.994312  0.906295  1
  Nd  Nd6  1  0.368413  0.760702  0.717948  1
  Nd  Nd7  1  0.939414  0.479382  0.668286  1
  Nd  Nd8  1  0.724079  0.005688  0.093705  1
  Nd  Nd9  1  0.155154  0.290259  0.146407  1
  Nd  Nd10  1  0.775620  0.334250  0.999935  1
  Nd  Nd11  1  0.844846  0.709741  0.853593  1
  Si  Si12  1  0.107868  0.737174  0.786895  1
  Si  Si13  1  0.892132  0.262826  0.213105  1
  I  I14  1  0.775502  0.529155  0.414812  1
  I  I15  1  0.632670  0.416265  0.743462  1
  I  I16  1  0.838008  0.893313  0.317445  1
  I  I17  1  0.319618  0.211415  0.370031  1
  I  I18  1  0.161992  0.106687  0.682555  1
  I  I19  1  0.587739  0.056657  0.830692  1
  I  I20  1  0.740606  0.169780  0.535460  1
  I  I21  1  0.540808  0.691554  0.954961  1
  I  I22  1  0.367330  0.583735  0.256538  1
  I  I23  1  0.224498  0.470845  0.585188  1
  I  I24  1  0.056677  0.364575  0.890203  1
  I  I25  1  0.459192  0.308446  0.045039  1
  I  I26  1  0.000000  0.000000  0.000000  1
  I  I27  1  0.259394  0.830220  0.464540  1
  I  I28  1  0.412261  0.943343  0.169308  1
  I  I29  1  0.680382  0.788585  0.629969  1
  I  I30  1  0.943323  0.635425  0.109797  1
