# generated using pymatgen
data_Dy2YTi(Co4P3)2
_symmetry_space_group_name_H-M   'P 1'
_cell_length_a   3.69202300
_cell_length_b   10.59143000
_cell_length_c   12.28194600
_cell_angle_alpha   90.00000000
_cell_angle_beta   90.00000000
_cell_angle_gamma   90.00000000
_symmetry_Int_Tables_number   1
_chemical_formula_structural   Dy2YTi(Co4P3)2
_chemical_formula_sum   'Dy4 Y2 Ti2 Co16 P12'
_cell_volume   480.27079884
_cell_formula_units_Z   2
loop_
 _symmetry_equiv_pos_site_id
 _symmetry_equiv_pos_as_xyz
  1  'x, y, z'
loop_
 _atom_site_type_symbol
 _atom_site_label
 _atom_site_symmetry_multiplicity
 _atom_site_fract_x
 _atom_site_fract_y
 _atom_site_fract_z
 _atom_site_occupancy
  Dy  Dy0  1  0.500000  0.820268  0.204563  1
  Dy  Dy1  1  0.500000  0.179732  0.204563  1
  Dy  Dy2  1  0.000000  0.679732  0.795437  1
  Dy  Dy3  1  0.000000  0.320268  0.795437  1
  Y  Y4  1  0.000000  0.500000  0.525052  1
  Y  Y5  1  0.500000  0.000000  0.474948  1
  Ti  Ti6  1  0.500000  0.500000  0.153844  1
  Ti  Ti7  1  0.000000  0.000000  0.846156  1
  Co  Co8  1  0.500000  0.500000  0.703438  1
  Co  Co9  1  0.000000  0.000000  0.296562  1
  Co  Co10  1  0.000000  0.500000  0.987492  1
  Co  Co11  1  0.500000  0.000000  0.012508  1
  Co  Co12  1  0.500000  0.332235  0.994131  1
  Co  Co13  1  0.500000  0.667765  0.994131  1
  Co  Co14  1  0.000000  0.167765  0.005869  1
  Co  Co15  1  0.000000  0.832235  0.005869  1
  Co  Co16  1  0.500000  0.295732  0.431846  1
  Co  Co17  1  0.500000  0.704268  0.431846  1
  Co  Co18  1  0.000000  0.204268  0.568154  1
  Co  Co19  1  0.000000  0.795732  0.568154  1
  Co  Co20  1  0.500000  0.878497  0.706196  1
  Co  Co21  1  0.500000  0.121503  0.706196  1
  Co  Co22  1  0.000000  0.621503  0.293804  1
  Co  Co23  1  0.000000  0.378497  0.293804  1
  P  P24  1  0.500000  0.500000  0.883825  1
  P  P25  1  0.000000  0.000000  0.116175  1
  P  P26  1  0.500000  0.500000  0.352977  1
  P  P27  1  0.000000  0.000000  0.647023  1
  P  P28  1  0.500000  0.310337  0.615905  1
  P  P29  1  0.500000  0.689663  0.615905  1
  P  P30  1  0.000000  0.189663  0.384095  1
  P  P31  1  0.000000  0.810337  0.384095  1
  P  P32  1  0.500000  0.842834  0.892208  1
  P  P33  1  0.500000  0.157166  0.892208  1
  P  P34  1  0.000000  0.657166  0.107792  1
  P  P35  1  0.000000  0.342834  0.107792  1
