# generated using pymatgen
data_La5SmTlIn8Ge
_symmetry_space_group_name_H-M   'P 1'
_cell_length_a   8.68812443
_cell_length_b   8.68812411
_cell_length_c   8.68812506
_cell_angle_alpha   119.86602546
_cell_angle_beta   119.86603608
_cell_angle_gamma   90.23221046
_symmetry_Int_Tables_number   1
_chemical_formula_structural   La5SmTlIn8Ge
_chemical_formula_sum   'La5 Sm1 Tl1 In8 Ge1'
_cell_volume   464.66262256
_cell_formula_units_Z   1
loop_
 _symmetry_equiv_pos_site_id
 _symmetry_equiv_pos_as_xyz
  1  'x, y, z'
loop_
 _atom_site_type_symbol
 _atom_site_label
 _atom_site_symmetry_multiplicity
 _atom_site_fract_x
 _atom_site_fract_y
 _atom_site_fract_z
 _atom_site_occupancy
  La  La0  1  0.237656  0.237656  0.000000  1
  La  La1  1  0.323820  0.853563  0.178853  1
  La  La2  1  0.674710  0.144967  0.821147  1
  La  La3  1  0.853563  0.674710  0.529742  1
  La  La4  1  0.144967  0.323820  0.470258  1
  Sm  Sm5  1  0.765022  0.765022  0.000000  1
  Tl  Tl6  1  0.506292  0.506292  0.000000  1
  In  In7  1  0.965376  0.452836  0.788001  1
  In  In8  1  0.664835  0.177375  0.211999  1
  In  In9  1  0.452836  0.664835  0.487461  1
  In  In10  1  0.177375  0.965376  0.512539  1
  In  In11  1  0.029576  0.547873  0.209439  1
  In  In12  1  0.338434  0.820137  0.790561  1
  In  In13  1  0.547873  0.338434  0.518296  1
  In  In14  1  0.820137  0.029576  0.481704  1
  Ge  Ge15  1  0.997528  0.997528  0.000000  1
