# generated using pymatgen
data_Dy2Ga2(SiPt)3
_symmetry_space_group_name_H-M   'P 1'
_cell_length_a   8.32709044
_cell_length_b   8.32709050
_cell_length_c   8.32709048
_cell_angle_alpha   138.11408119
_cell_angle_beta   104.88779453
_cell_angle_gamma   89.91964438
_symmetry_Int_Tables_number   1
_chemical_formula_structural   Dy2Ga2(SiPt)3
_chemical_formula_sum   'Dy4 Ga4 Si6 Pt6'
_cell_volume   356.06647398
_cell_formula_units_Z   2
loop_
 _symmetry_equiv_pos_site_id
 _symmetry_equiv_pos_as_xyz
  1  'x, y, z'
loop_
 _atom_site_type_symbol
 _atom_site_label
 _atom_site_symmetry_multiplicity
 _atom_site_fract_x
 _atom_site_fract_y
 _atom_site_fract_z
 _atom_site_occupancy
  Dy  Dy0  1  0.635169  0.368333  0.266836  1
  Dy  Dy1  1  0.364831  0.631667  0.733164  1
  Dy  Dy2  1  0.101496  0.868333  0.233164  1
  Dy  Dy3  1  0.898504  0.131667  0.766836  1
  Ga  Ga4  1  0.270144  0.520144  0.250000  1
  Ga  Ga5  1  0.729856  0.479856  0.750000  1
  Ga  Ga6  1  0.729856  0.979856  0.250000  1
  Ga  Ga7  1  0.270144  0.020144  0.750000  1
  Si  Si8  1  0.455412  0.107004  0.348407  1
  Si  Si9  1  0.544588  0.892996  0.651593  1
  Si  Si10  1  0.758598  0.607004  0.151593  1
  Si  Si11  1  0.241402  0.392996  0.848407  1
  Si  Si12  1  0.000000  0.250000  0.250000  1
  Si  Si13  1  0.000000  0.750000  0.750000  1
  Pt  Pt14  1  0.247223  0.128271  0.118951  1
  Pt  Pt15  1  0.752777  0.871729  0.881049  1
  Pt  Pt16  1  0.009320  0.628271  0.381049  1
  Pt  Pt17  1  0.990680  0.371729  0.618951  1
  Pt  Pt18  1  0.500000  0.250000  0.750000  1
  Pt  Pt19  1  0.500000  0.750000  0.250000  1
