# generated using pymatgen
data_La3Au4
_symmetry_space_group_name_H-M   'P 1'
_cell_length_a   8.43268882
_cell_length_b   8.43268850
_cell_length_c   8.43268933
_cell_angle_alpha   113.95349121
_cell_angle_beta   113.95349166
_cell_angle_gamma   113.95349125
_symmetry_Int_Tables_number   1
_chemical_formula_structural   La3Au4
_chemical_formula_sum   'La6 Au8'
_cell_volume   365.57169984
_cell_formula_units_Z   2
loop_
 _symmetry_equiv_pos_site_id
 _symmetry_equiv_pos_as_xyz
  1  'x, y, z'
loop_
 _atom_site_type_symbol
 _atom_site_label
 _atom_site_symmetry_multiplicity
 _atom_site_fract_x
 _atom_site_fract_y
 _atom_site_fract_z
 _atom_site_occupancy
  La  La0  1  0.403051  0.022856  0.277763  1
  La  La1  1  0.022856  0.277763  0.403051  1
  La  La2  1  0.277763  0.403051  0.022856  1
  La  La3  1  0.596949  0.977144  0.722237  1
  La  La4  1  0.977144  0.722237  0.596949  1
  La  La5  1  0.722237  0.596949  0.977144  1
  Au  Au6  1  0.000000  0.000000  0.000000  1
  Au  Au7  1  0.500000  0.500000  0.500000  1
  Au  Au8  1  0.224786  0.062765  0.556676  1
  Au  Au9  1  0.062765  0.556676  0.224786  1
  Au  Au10  1  0.556676  0.224786  0.062765  1
  Au  Au11  1  0.775214  0.937235  0.443324  1
  Au  Au12  1  0.937235  0.443324  0.775214  1
  Au  Au13  1  0.443324  0.775214  0.937235  1
