# generated using pymatgen
data_KCu(IO3)3
_symmetry_space_group_name_H-M   'P 1'
_cell_length_a   7.64660783
_cell_length_b   8.16100355
_cell_length_c   8.47331105
_cell_angle_alpha   70.81068586
_cell_angle_beta   73.86795648
_cell_angle_gamma   80.14710958
_symmetry_Int_Tables_number   1
_chemical_formula_structural   KCu(IO3)3
_chemical_formula_sum   'K2 Cu2 I6 O18'
_cell_volume   477.86592427
_cell_formula_units_Z   2
loop_
 _symmetry_equiv_pos_site_id
 _symmetry_equiv_pos_as_xyz
  1  'x, y, z'
loop_
 _atom_site_type_symbol
 _atom_site_label
 _atom_site_symmetry_multiplicity
 _atom_site_fract_x
 _atom_site_fract_y
 _atom_site_fract_z
 _atom_site_occupancy
  K  K0  1  0.680808  0.791886  0.872474  1
  K  K1  1  0.319192  0.208114  0.127526  1
  Cu  Cu2  1  0.000000  0.000000  0.500000  1
  Cu  Cu3  1  0.000000  0.000000  0.000000  1
  I  I4  1  0.288963  0.218772  0.601243  1
  I  I5  1  0.711037  0.781228  0.398757  1
  I  I6  1  0.251528  0.732983  0.244334  1
  I  I7  1  0.245035  0.653618  0.781761  1
  I  I8  1  0.754965  0.346382  0.218239  1
  I  I9  1  0.748472  0.267017  0.755666  1
  O  O10  1  0.447381  0.777893  0.687160  1
  O  O11  1  0.500611  0.295940  0.794815  1
  O  O12  1  0.730065  0.546438  0.476455  1
  O  O13  1  0.750187  0.435394  0.990502  1
  O  O14  1  0.249813  0.564606  0.009498  1
  O  O15  1  0.499389  0.704060  0.205185  1
  O  O16  1  0.157094  0.182673  0.464204  1
  O  O17  1  0.842906  0.817327  0.535796  1
  O  O18  1  0.781038  0.139600  0.600749  1
  O  O19  1  0.241171  0.924750  0.050796  1
  O  O20  1  0.218962  0.860400  0.399251  1
  O  O21  1  0.937154  0.169030  0.211994  1
  O  O22  1  0.900143  0.797680  0.199334  1
  O  O23  1  0.099857  0.202320  0.800666  1
  O  O24  1  0.552619  0.222107  0.312840  1
  O  O25  1  0.758829  0.075250  0.949204  1
  O  O26  1  0.062846  0.830970  0.788006  1
  O  O27  1  0.269935  0.453562  0.523545  1
