# generated using pymatgen
data_Tb13Y3(InCo)4
_symmetry_space_group_name_H-M   'P 1'
_cell_length_a   9.62011894
_cell_length_b   9.61348993
_cell_length_c   9.63480600
_cell_angle_alpha   59.97218593
_cell_angle_beta   59.98397807
_cell_angle_gamma   60.12386872
_symmetry_Int_Tables_number   1
_chemical_formula_structural   Tb13Y3(InCo)4
_chemical_formula_sum   'Tb13 Y3 In4 Co4'
_cell_volume   630.44930162
_cell_formula_units_Z   1
loop_
 _symmetry_equiv_pos_site_id
 _symmetry_equiv_pos_as_xyz
  1  'x, y, z'
loop_
 _atom_site_type_symbol
 _atom_site_label
 _atom_site_symmetry_multiplicity
 _atom_site_fract_x
 _atom_site_fract_y
 _atom_site_fract_z
 _atom_site_occupancy
  Tb  Tb0  1  0.596127  0.596355  0.597774  1
  Tb  Tb1  1  0.597098  0.596250  0.208307  1
  Tb  Tb2  1  0.597774  0.209744  0.596127  1
  Tb  Tb3  1  0.208307  0.598345  0.597098  1
  Tb  Tb4  1  0.061937  0.437571  0.438162  1
  Tb  Tb5  1  0.438162  0.062330  0.061937  1
  Tb  Tb6  1  0.437952  0.062048  0.437952  1
  Tb  Tb7  1  0.062472  0.437528  0.062472  1
  Tb  Tb8  1  0.437455  0.436791  0.063229  1
  Tb  Tb9  1  0.063229  0.062525  0.437455  1
  Tb  Tb10  1  0.188139  0.810850  0.813001  1
  Tb  Tb11  1  0.813001  0.188008  0.188139  1
  Tb  Tb12  1  0.811728  0.188272  0.811728  1
  Y  Y13  1  0.189393  0.810607  0.189393  1
  Y  Y14  1  0.809662  0.809729  0.190459  1
  Y  Y15  1  0.190459  0.190150  0.809662  1
  In  In16  1  0.831889  0.832857  0.832175  1
  In  In17  1  0.832086  0.832412  0.502945  1
  In  In18  1  0.832175  0.503080  0.831889  1
  In  In19  1  0.502945  0.832559  0.832086  1
  Co  Co20  1  0.388304  0.391232  0.392746  1
  Co  Co21  1  0.388901  0.391240  0.828060  1
  Co  Co22  1  0.392746  0.827721  0.388304  1
  Co  Co23  1  0.828060  0.391800  0.388901  1
