# generated using pymatgen
data_YbPrAlIr2
_symmetry_space_group_name_H-M   'P 1'
_cell_length_a   5.73512093
_cell_length_b   5.73512078
_cell_length_c   5.73512041
_cell_angle_alpha   138.84624047
_cell_angle_beta   118.29607445
_cell_angle_gamma   76.88100369
_symmetry_Int_Tables_number   1
_chemical_formula_structural   YbPrAlIr2
_chemical_formula_sum   'Yb1 Pr1 Al1 Ir2'
_cell_volume   106.52155148
_cell_formula_units_Z   1
loop_
 _symmetry_equiv_pos_site_id
 _symmetry_equiv_pos_as_xyz
  1  'x, y, z'
loop_
 _atom_site_type_symbol
 _atom_site_label
 _atom_site_symmetry_multiplicity
 _atom_site_fract_x
 _atom_site_fract_y
 _atom_site_fract_z
 _atom_site_occupancy
  Yb  Yb0  1  0.701363  0.201363  0.500000  1
  Pr  Pr1  1  0.300327  0.800328  0.500001  1
  Al  Al2  1  0.998774  0.998774  0.000000  1
  Ir  Ir3  1  0.734973  0.499768  0.235205  1
  Ir  Ir4  1  0.264563  0.499769  0.764796  1
