# generated using pymatgen
data_Tb8Er12Si15P
_symmetry_space_group_name_H-M   'P 1'
_cell_length_a   7.43446447
_cell_length_b   7.61733811
_cell_length_c   14.51426624
_cell_angle_alpha   89.80634179
_cell_angle_beta   86.85725564
_cell_angle_gamma   89.99862562
_symmetry_Int_Tables_number   1
_chemical_formula_structural   Tb8Er12Si15P
_chemical_formula_sum   'Tb8 Er12 Si15 P1'
_cell_volume   820.71405685
_cell_formula_units_Z   1
loop_
 _symmetry_equiv_pos_site_id
 _symmetry_equiv_pos_as_xyz
  1  'x, y, z'
loop_
 _atom_site_type_symbol
 _atom_site_label
 _atom_site_symmetry_multiplicity
 _atom_site_fract_x
 _atom_site_fract_y
 _atom_site_fract_z
 _atom_site_occupancy
  Tb  Tb0  1  0.022859  0.183233  0.100172  1
  Tb  Tb1  1  0.977893  0.817834  0.899105  1
  Tb  Tb2  1  0.478357  0.682564  0.899687  1
  Tb  Tb3  1  0.997829  0.818643  0.597718  1
  Tb  Tb4  1  0.522165  0.318174  0.099800  1
  Tb  Tb5  1  0.999583  0.177811  0.401234  1
  Tb  Tb6  1  0.499655  0.316638  0.401848  1
  Tb  Tb7  1  0.500108  0.680264  0.597523  1
  Er  Er8  1  0.168509  0.506886  0.746840  1
  Er  Er9  1  0.831875  0.494037  0.254681  1
  Er  Er10  1  0.330017  0.005575  0.254379  1
  Er  Er11  1  0.669448  0.994118  0.745634  1
  Er  Er12  1  0.350247  0.170856  0.620493  1
  Er  Er13  1  0.648939  0.832884  0.378454  1
  Er  Er14  1  0.149969  0.660958  0.384332  1
  Er  Er15  1  0.672728  0.822015  0.123331  1
  Er  Er16  1  0.854398  0.334549  0.617965  1
  Er  Er17  1  0.327042  0.177978  0.876168  1
  Er  Er18  1  0.827487  0.322040  0.876545  1
  Er  Er19  1  0.172469  0.678489  0.122838  1
  Si  Si20  1  0.042560  0.110283  0.750346  1
  Si  Si21  1  0.957974  0.888976  0.249047  1
  Si  Si22  1  0.455883  0.609352  0.249208  1
  Si  Si23  1  0.543806  0.390669  0.750052  1
  Si  Si24  1  0.286205  0.872181  0.750757  1
  Si  Si25  1  0.714867  0.128030  0.248262  1
  Si  Si26  1  0.214645  0.372409  0.248975  1
  Si  Si27  1  0.786216  0.627829  0.750708  1
  Si  Si28  1  0.794933  0.535421  0.456705  1
  Si  Si29  1  0.302796  0.962179  0.459042  1
  Si  Si30  1  0.851945  0.530333  0.040482  1
  Si  Si31  1  0.694961  0.037684  0.541938  1
  Si  Si32  1  0.147897  0.470922  0.958573  1
  Si  Si33  1  0.647165  0.029997  0.958613  1
  Si  Si34  1  0.352823  0.970925  0.041102  1
  P  P35  1  0.203747  0.467267  0.547442  1
