# generated using pymatgen
data_ScV2(Ni10B3)2
_symmetry_space_group_name_H-M   'P 1'
_cell_length_a   7.43311439
_cell_length_b   7.43311381
_cell_length_c   7.43311400
_cell_angle_alpha   59.99999916
_cell_angle_beta   60.00000172
_cell_angle_gamma   60.00000115
_symmetry_Int_Tables_number   1
_chemical_formula_structural   ScV2(Ni10B3)2
_chemical_formula_sum   'Sc1 V2 Ni20 B6'
_cell_volume   290.40052755
_cell_formula_units_Z   1
loop_
 _symmetry_equiv_pos_site_id
 _symmetry_equiv_pos_as_xyz
  1  'x, y, z'
loop_
 _atom_site_type_symbol
 _atom_site_label
 _atom_site_symmetry_multiplicity
 _atom_site_fract_x
 _atom_site_fract_y
 _atom_site_fract_z
 _atom_site_occupancy
  Sc  Sc0  1  0.750000  0.750000  0.750000  1
  V  V1  1  0.000000  0.000000  0.000000  1
  V  V2  1  0.250000  0.250000  0.250000  1
  Ni  Ni3  1  0.611386  0.611386  0.165841  1
  Ni  Ni4  1  0.611386  0.165841  0.611386  1
  Ni  Ni5  1  0.165841  0.611386  0.611386  1
  Ni  Ni6  1  0.611386  0.611386  0.611386  1
  Ni  Ni7  1  0.378691  0.378691  0.863928  1
  Ni  Ni8  1  0.378691  0.863928  0.378691  1
  Ni  Ni9  1  0.863928  0.378691  0.378691  1
  Ni  Ni10  1  0.378691  0.378691  0.378691  1
  Ni  Ni11  1  0.001578  0.001578  0.337909  1
  Ni  Ni12  1  0.658934  0.001578  0.337909  1
  Ni  Ni13  1  0.001578  0.658934  0.337909  1
  Ni  Ni14  1  0.658934  0.337909  0.001578  1
  Ni  Ni15  1  0.001578  0.337909  0.001578  1
  Ni  Ni16  1  0.001578  0.337909  0.658934  1
  Ni  Ni17  1  0.337909  0.658934  0.001578  1
  Ni  Ni18  1  0.337909  0.001578  0.658934  1
  Ni  Ni19  1  0.337909  0.001578  0.001578  1
  Ni  Ni20  1  0.001578  0.001578  0.658934  1
  Ni  Ni21  1  0.001578  0.658934  0.001578  1
  Ni  Ni22  1  0.658934  0.001578  0.001578  1
  B  B23  1  0.731250  0.731250  0.268750  1
  B  B24  1  0.268750  0.731250  0.268750  1
  B  B25  1  0.731250  0.268750  0.268750  1
  B  B26  1  0.268750  0.268750  0.731250  1
  B  B27  1  0.731250  0.268750  0.731250  1
  B  B28  1  0.268750  0.731250  0.731250  1
