# generated using pymatgen
data_Sr2H3Pd16Au
_symmetry_space_group_name_H-M   'P 1'
_cell_length_a   7.02746002
_cell_length_b   7.05504603
_cell_length_c   7.02745900
_cell_angle_alpha   83.20888573
_cell_angle_beta   82.87583110
_cell_angle_gamma   83.20889375
_symmetry_Int_Tables_number   1
_chemical_formula_structural   Sr2H3Pd16Au
_chemical_formula_sum   'Sr2 H3 Pd16 Au1'
_cell_volume   341.39692744
_cell_formula_units_Z   1
loop_
 _symmetry_equiv_pos_site_id
 _symmetry_equiv_pos_as_xyz
  1  'x, y, z'
loop_
 _atom_site_type_symbol
 _atom_site_label
 _atom_site_symmetry_multiplicity
 _atom_site_fract_x
 _atom_site_fract_y
 _atom_site_fract_z
 _atom_site_occupancy
  Sr  Sr0  1  0.659588  0.662223  0.659588  1
  Sr  Sr1  1  0.340412  0.337777  0.340412  1
  H  H2  1  0.500000  0.500000  0.000000  1
  H  H3  1  0.000000  0.500000  0.500000  1
  H  H4  1  0.500000  0.000000  0.500000  1
  Pd  Pd5  1  0.000000  0.000000  0.500000  1
  Pd  Pd6  1  0.500000  0.000000  0.000000  1
  Pd  Pd7  1  0.702166  0.293942  0.000811  1
  Pd  Pd8  1  0.999189  0.706058  0.297834  1
  Pd  Pd9  1  0.294699  0.000000  0.705301  1
  Pd  Pd10  1  0.000811  0.293942  0.702166  1
  Pd  Pd11  1  0.705301  0.000000  0.294699  1
  Pd  Pd12  1  0.297834  0.706058  0.999189  1
  Pd  Pd13  1  0.352456  0.349172  0.846647  1
  Pd  Pd14  1  0.846647  0.349172  0.352456  1
  Pd  Pd15  1  0.348915  0.850765  0.348915  1
  Pd  Pd16  1  0.647544  0.650828  0.153353  1
  Pd  Pd17  1  0.153353  0.650828  0.647544  1
  Pd  Pd18  1  0.651085  0.149235  0.651085  1
  Pd  Pd19  1  0.900020  0.903062  0.900020  1
  Pd  Pd20  1  0.099980  0.096938  0.099980  1
  Au  Au21  1  0.000000  0.500000  0.000000  1
