# generated using pymatgen
data_Dy5Sc3P12(Ir7Rh)2
_symmetry_space_group_name_H-M   'P 1'
_cell_length_a   12.87262710
_cell_length_b   12.85543470
_cell_length_c   3.96026400
_cell_angle_alpha   90.00000000
_cell_angle_beta   90.00000000
_cell_angle_gamma   119.99674976
_symmetry_Int_Tables_number   1
_chemical_formula_structural   Dy5Sc3P12(Ir7Rh)2
_chemical_formula_sum   'Dy5 Sc3 P12 Ir14 Rh2'
_cell_volume   567.57459482
_cell_formula_units_Z   1
loop_
 _symmetry_equiv_pos_site_id
 _symmetry_equiv_pos_as_xyz
  1  'x, y, z'
loop_
 _atom_site_type_symbol
 _atom_site_label
 _atom_site_symmetry_multiplicity
 _atom_site_fract_x
 _atom_site_fract_y
 _atom_site_fract_z
 _atom_site_occupancy
  Dy  Dy0  1  0.333445  0.666374  0.500000  1
  Dy  Dy1  1  0.666456  0.333176  0.500000  1
  Dy  Dy2  1  0.000088  0.811756  0.000000  1
  Dy  Dy3  1  0.188256  0.188267  0.000000  1
  Dy  Dy4  1  0.811527  0.000063  0.000000  1
  Sc  Sc5  1  0.000034  0.444529  0.500000  1
  Sc  Sc6  1  0.555166  0.555408  0.500000  1
  Sc  Sc7  1  0.444648  0.000206  0.500000  1
  P  P8  1  0.999534  0.645355  0.500000  1
  P  P9  1  0.354396  0.354338  0.500000  1
  P  P10  1  0.645695  0.000170  0.500000  1
  P  P11  1  0.517425  0.687386  0.000000  1
  P  P12  1  0.312188  0.829619  0.000000  1
  P  P13  1  0.170339  0.483113  0.000000  1
  P  P14  1  0.483061  0.169457  0.000000  1
  P  P15  1  0.686761  0.517069  0.000000  1
  P  P16  1  0.830446  0.313544  0.000000  1
  P  P17  1  0.999904  0.176669  0.500000  1
  P  P18  1  0.822921  0.823197  0.500000  1
  P  P19  1  0.176743  0.999799  0.500000  1
  Ir  Ir20  1  0.358303  0.489931  0.000000  1
  Ir  Ir21  1  0.490549  0.357964  0.000000  1
  Ir  Ir22  1  0.868062  0.510458  0.000000  1
  Ir  Ir23  1  0.642517  0.132054  0.000000  1
  Ir  Ir24  1  0.000106  0.277853  0.000000  1
  Ir  Ir25  1  0.722202  0.722222  0.000000  1
  Ir  Ir26  1  0.277636  0.999808  0.000000  1
  Ir  Ir27  1  0.627059  0.806372  0.500000  1
  Ir  Ir28  1  0.193732  0.820466  0.500000  1
  Ir  Ir29  1  0.178951  0.372521  0.500000  1
  Ir  Ir30  1  0.372306  0.179020  0.500000  1
  Ir  Ir31  1  0.806527  0.627690  0.500000  1
  Ir  Ir32  1  0.821253  0.193704  0.500000  1
  Ir  Ir33  1  0.000000  0.999922  0.500000  1
  Rh  Rh34  1  0.510661  0.868391  0.000000  1
  Rh  Rh35  1  0.131101  0.642127  0.000000  1
