# generated using pymatgen
data_Ce6Al23SiRu8
_symmetry_space_group_name_H-M   'P 1'
_cell_length_a   8.87581300
_cell_length_b   8.87581178
_cell_length_c   9.55166700
_cell_angle_alpha   90.00000000
_cell_angle_beta   90.00000000
_cell_angle_gamma   119.99999335
_symmetry_Int_Tables_number   1
_chemical_formula_structural   Ce6Al23SiRu8
_chemical_formula_sum   'Ce6 Al23 Si1 Ru8'
_cell_volume   651.66749947
_cell_formula_units_Z   1
loop_
 _symmetry_equiv_pos_site_id
 _symmetry_equiv_pos_as_xyz
  1  'x, y, z'
loop_
 _atom_site_type_symbol
 _atom_site_label
 _atom_site_symmetry_multiplicity
 _atom_site_fract_x
 _atom_site_fract_y
 _atom_site_fract_z
 _atom_site_occupancy
  Ce  Ce0  1  0.806465  0.612930  0.749104  1
  Ce  Ce1  1  0.194649  0.805351  0.251807  1
  Ce  Ce2  1  0.610701  0.805351  0.251807  1
  Ce  Ce3  1  0.387070  0.193535  0.749104  1
  Ce  Ce4  1  0.806465  0.193535  0.749104  1
  Ce  Ce5  1  0.194649  0.389299  0.251807  1
  Al  Al6  1  0.666667  0.333333  0.992264  1
  Al  Al7  1  0.666667  0.333333  0.510498  1
  Al  Al8  1  0.333333  0.666667  0.011637  1
  Al  Al9  1  0.163537  0.327074  0.578356  1
  Al  Al10  1  0.672926  0.836463  0.578356  1
  Al  Al11  1  0.163537  0.836463  0.578356  1
  Al  Al12  1  0.838295  0.161705  0.078858  1
  Al  Al13  1  0.838024  0.161976  0.422763  1
  Al  Al14  1  0.838295  0.676591  0.078858  1
  Al  Al15  1  0.323409  0.161705  0.078858  1
  Al  Al16  1  0.676066  0.838033  0.922779  1
  Al  Al17  1  0.161967  0.323934  0.922779  1
  Al  Al18  1  0.838024  0.676048  0.422763  1
  Al  Al19  1  0.000000  0.000000  0.250628  1
  Al  Al20  1  0.000000  0.000000  0.750284  1
  Al  Al21  1  0.562213  0.124426  0.251549  1
  Al  Al22  1  0.437095  0.562905  0.750363  1
  Al  Al23  1  0.125811  0.562905  0.750363  1
  Al  Al24  1  0.875574  0.437787  0.251549  1
  Al  Al25  1  0.562213  0.437787  0.251549  1
  Al  Al26  1  0.437095  0.874189  0.750363  1
  Al  Al27  1  0.161967  0.838033  0.922779  1
  Al  Al28  1  0.323952  0.161976  0.422763  1
  Si  Si29  1  0.333333  0.666667  0.465865  1
  Ru  Ru30  1  0.000000  0.000000  0.500915  1
  Ru  Ru31  1  0.000000  0.000000  0.000073  1
  Ru  Ru32  1  0.496954  0.993909  0.499656  1
  Ru  Ru33  1  0.500519  0.499481  0.000711  1
  Ru  Ru34  1  0.998962  0.499481  0.000711  1
  Ru  Ru35  1  0.006091  0.503046  0.499656  1
  Ru  Ru36  1  0.496954  0.503046  0.499656  1
  Ru  Ru37  1  0.500519  0.001038  0.000711  1
