# generated using pymatgen
data_Ho2Be2GaIr5
_symmetry_space_group_name_H-M   'P 1'
_cell_length_a   9.64305300
_cell_length_b   9.64305300
_cell_length_c   3.21534100
_cell_angle_alpha   90.00000000
_cell_angle_beta   90.00000000
_cell_angle_gamma   90.00000000
_symmetry_Int_Tables_number   1
_chemical_formula_structural   Ho2Be2GaIr5
_chemical_formula_sum   'Ho4 Be4 Ga2 Ir10'
_cell_volume   298.98964385
_cell_formula_units_Z   2
loop_
 _symmetry_equiv_pos_site_id
 _symmetry_equiv_pos_as_xyz
  1  'x, y, z'
loop_
 _atom_site_type_symbol
 _atom_site_label
 _atom_site_symmetry_multiplicity
 _atom_site_fract_x
 _atom_site_fract_y
 _atom_site_fract_z
 _atom_site_occupancy
  Ho  Ho0  1  0.676290  0.176290  0.000000  1
  Ho  Ho1  1  0.323710  0.823710  0.000000  1
  Ho  Ho2  1  0.176290  0.323710  0.000000  1
  Ho  Ho3  1  0.823710  0.676290  0.000000  1
  Be  Be4  1  0.122454  0.622454  0.000000  1
  Be  Be5  1  0.877546  0.377546  0.000000  1
  Be  Be6  1  0.622454  0.877546  0.000000  1
  Be  Be7  1  0.377546  0.122454  0.000000  1
  Ga  Ga8  1  0.000000  0.000000  0.000000  1
  Ga  Ga9  1  0.500000  0.500000  0.000000  1
  Ir  Ir10  1  0.211884  0.065724  0.500000  1
  Ir  Ir11  1  0.788116  0.934276  0.500000  1
  Ir  Ir12  1  0.065724  0.788116  0.500000  1
  Ir  Ir13  1  0.711884  0.434276  0.500000  1
  Ir  Ir14  1  0.934276  0.211884  0.500000  1
  Ir  Ir15  1  0.288116  0.565724  0.500000  1
  Ir  Ir16  1  0.565724  0.711884  0.500000  1
  Ir  Ir17  1  0.434276  0.288116  0.500000  1
  Ir  Ir18  1  0.500000  0.000000  0.500000  1
  Ir  Ir19  1  0.000000  0.500000  0.500000  1
