# generated using pymatgen
data_Nd7Pa(ZnIr)8
_symmetry_space_group_name_H-M   'P 1'
_cell_length_a   4.03299200
_cell_length_b   7.37491943
_cell_length_c   16.68579800
_cell_angle_alpha   89.61161674
_cell_angle_beta   90.00000000
_cell_angle_gamma   90.00000000
_symmetry_Int_Tables_number   1
_chemical_formula_structural   Nd7Pa(ZnIr)8
_chemical_formula_sum   'Nd7 Pa1 Zn8 Ir8'
_cell_volume   496.27413920
_cell_formula_units_Z   1
loop_
 _symmetry_equiv_pos_site_id
 _symmetry_equiv_pos_as_xyz
  1  'x, y, z'
loop_
 _atom_site_type_symbol
 _atom_site_label
 _atom_site_symmetry_multiplicity
 _atom_site_fract_x
 _atom_site_fract_y
 _atom_site_fract_z
 _atom_site_occupancy
  Nd  Nd0  1  0.750000  0.948574  0.282167  1
  Nd  Nd1  1  0.750000  0.824722  0.060701  1
  Nd  Nd2  1  0.250000  0.049339  0.716332  1
  Nd  Nd3  1  0.250000  0.166894  0.940498  1
  Nd  Nd4  1  0.250000  0.547243  0.783557  1
  Nd  Nd5  1  0.750000  0.336412  0.439751  1
  Nd  Nd6  1  0.250000  0.670799  0.560664  1
  Pa  Pa7  1  0.750000  0.445988  0.215495  1
  Zn  Zn8  1  0.250000  0.004137  0.439121  1
  Zn  Zn9  1  0.750000  0.501279  0.939580  1
  Zn  Zn10  1  0.750000  0.004283  0.560514  1
  Zn  Zn11  1  0.250000  0.624520  0.351503  1
  Zn  Zn12  1  0.750000  0.378480  0.650143  1
  Zn  Zn13  1  0.750000  0.879782  0.849936  1
  Zn  Zn14  1  0.250000  0.496898  0.058429  1
  Zn  Zn15  1  0.250000  0.121423  0.150946  1
  Ir  Ir16  1  0.250000  0.245883  0.564168  1
  Ir  Ir17  1  0.750000  0.264230  0.072182  1
  Ir  Ir18  1  0.250000  0.263301  0.300853  1
  Ir  Ir19  1  0.750000  0.253185  0.816268  1
  Ir  Ir20  1  0.250000  0.745550  0.935520  1
  Ir  Ir21  1  0.750000  0.755001  0.686847  1
  Ir  Ir22  1  0.750000  0.765539  0.434478  1
  Ir  Ir23  1  0.250000  0.706539  0.190347  1
