# generated using pymatgen
data_SmDyEr2(Zn4Ru)2
_symmetry_space_group_name_H-M   'P 1'
_cell_length_a   6.97979200
_cell_length_b   6.97979200
_cell_length_c   5.27849500
_cell_angle_alpha   90.00000000
_cell_angle_beta   90.00000000
_cell_angle_gamma   90.00000000
_symmetry_Int_Tables_number   1
_chemical_formula_structural   SmDyEr2(Zn4Ru)2
_chemical_formula_sum   'Sm1 Dy1 Er2 Zn8 Ru2'
_cell_volume   257.15506097
_cell_formula_units_Z   1
loop_
 _symmetry_equiv_pos_site_id
 _symmetry_equiv_pos_as_xyz
  1  'x, y, z'
loop_
 _atom_site_type_symbol
 _atom_site_label
 _atom_site_symmetry_multiplicity
 _atom_site_fract_x
 _atom_site_fract_y
 _atom_site_fract_z
 _atom_site_occupancy
  Sm  Sm0  1  0.000000  0.500000  0.768435  1
  Dy  Dy1  1  0.500000  0.000000  0.232646  1
  Er  Er2  1  0.000000  0.000000  0.000083  1
  Er  Er3  1  0.500000  0.500000  0.000083  1
  Zn  Zn4  1  0.189049  0.689049  0.288305  1
  Zn  Zn5  1  0.810951  0.689049  0.288305  1
  Zn  Zn6  1  0.810951  0.310951  0.288305  1
  Zn  Zn7  1  0.313661  0.186339  0.711246  1
  Zn  Zn8  1  0.189049  0.310951  0.288305  1
  Zn  Zn9  1  0.686339  0.186339  0.711246  1
  Zn  Zn10  1  0.686339  0.813661  0.711246  1
  Zn  Zn11  1  0.313661  0.813661  0.711246  1
  Ru  Ru12  1  0.500000  0.500000  0.500277  1
  Ru  Ru13  1  0.000000  0.000000  0.500277  1
