# generated using pymatgen
data_Ti7B4Mo3P2
_symmetry_space_group_name_H-M   'P 1'
_cell_length_a   7.08524850
_cell_length_b   7.06371249
_cell_length_c   7.07992323
_cell_angle_alpha   129.62906219
_cell_angle_beta   129.71083939
_cell_angle_gamma   73.87639286
_symmetry_Int_Tables_number   1
_chemical_formula_structural   Ti7B4Mo3P2
_chemical_formula_sum   'Ti7 B4 Mo3 P2'
_cell_volume   204.84168866
_cell_formula_units_Z   1
loop_
 _symmetry_equiv_pos_site_id
 _symmetry_equiv_pos_as_xyz
  1  'x, y, z'
loop_
 _atom_site_type_symbol
 _atom_site_label
 _atom_site_symmetry_multiplicity
 _atom_site_fract_x
 _atom_site_fract_y
 _atom_site_fract_z
 _atom_site_occupancy
  Ti  Ti0  1  0.809044  0.963342  0.500000  1
  Ti  Ti1  1  0.311319  0.810647  0.850497  1
  Ti  Ti2  1  0.190476  0.037605  0.500000  1
  Ti  Ti3  1  0.535833  0.688059  0.500000  1
  Ti  Ti4  1  0.038505  0.539138  0.848198  1
  Ti  Ti5  1  0.690307  0.190940  0.151802  1
  Ti  Ti6  1  0.960822  0.460150  0.149503  1
  B  B7  1  0.390086  0.889530  0.280659  1
  B  B8  1  0.891244  0.611052  0.500000  1
  B  B9  1  0.609428  0.108872  0.719341  1
  B  B10  1  0.110286  0.389957  0.500000  1
  Mo  Mo11  1  0.000296  0.000153  0.999697  1
  Mo  Mo12  1  0.500599  0.500455  0.000303  1
  Mo  Mo13  1  0.462095  0.308427  0.500000  1
  P  P14  1  0.750060  0.751066  0.000459  1
  P  P15  1  0.249601  0.250607  0.999541  1
