# generated using pymatgen
data_Er12Tc2OsRu
_symmetry_space_group_name_H-M   'P 1'
_cell_length_a   6.23580238
_cell_length_b   7.35200842
_cell_length_c   9.03014600
_cell_angle_alpha   90.00000000
_cell_angle_beta   90.00000000
_cell_angle_gamma   89.96058382
_symmetry_Int_Tables_number   1
_chemical_formula_structural   Er12Tc2OsRu
_chemical_formula_sum   'Er12 Tc2 Os1 Ru1'
_cell_volume   413.99301020
_cell_formula_units_Z   1
loop_
 _symmetry_equiv_pos_site_id
 _symmetry_equiv_pos_as_xyz
  1  'x, y, z'
loop_
 _atom_site_type_symbol
 _atom_site_label
 _atom_site_symmetry_multiplicity
 _atom_site_fract_x
 _atom_site_fract_y
 _atom_site_fract_z
 _atom_site_occupancy
  Er  Er0  1  0.335904  0.676517  0.063183  1
  Er  Er1  1  0.162266  0.175851  0.437906  1
  Er  Er2  1  0.662700  0.323833  0.562843  1
  Er  Er3  1  0.837232  0.823987  0.937682  1
  Er  Er4  1  0.662700  0.323833  0.937157  1
  Er  Er5  1  0.837232  0.823987  0.562318  1
  Er  Er6  1  0.335904  0.676517  0.436817  1
  Er  Er7  1  0.162266  0.175851  0.062094  1
  Er  Er8  1  0.873711  0.539799  0.250000  1
  Er  Er9  1  0.625942  0.039591  0.250000  1
  Er  Er10  1  0.130480  0.458764  0.750000  1
  Er  Er11  1  0.372481  0.958090  0.750000  1
  Tc  Tc12  1  0.040531  0.884761  0.250000  1
  Tc  Tc13  1  0.460550  0.385690  0.250000  1
  Os  Os14  1  0.960027  0.116365  0.750000  1
  Ru  Ru15  1  0.540072  0.616565  0.750000  1
