# generated using pymatgen
data_Cu2Ir3PdO12
_symmetry_space_group_name_H-M   'P 1'
_cell_length_a   4.57455288
_cell_length_b   4.51790087
_cell_length_c   9.38464600
_cell_angle_alpha   89.97114857
_cell_angle_beta   90.05200336
_cell_angle_gamma   90.75218840
_symmetry_Int_Tables_number   1
_chemical_formula_structural   Cu2Ir3PdO12
_chemical_formula_sum   'Cu2 Ir3 Pd1 O12'
_cell_volume   193.93919456
_cell_formula_units_Z   1
loop_
 _symmetry_equiv_pos_site_id
 _symmetry_equiv_pos_as_xyz
  1  'x, y, z'
loop_
 _atom_site_type_symbol
 _atom_site_label
 _atom_site_symmetry_multiplicity
 _atom_site_fract_x
 _atom_site_fract_y
 _atom_site_fract_z
 _atom_site_occupancy
  Cu  Cu0  1  0.499903  0.499812  0.502314  1
  Cu  Cu1  1  0.999810  0.000110  0.996326  1
  Ir  Ir2  1  0.999983  0.999046  0.666143  1
  Ir  Ir3  1  0.500159  0.499001  0.834067  1
  Ir  Ir4  1  0.999806  0.000951  0.330375  1
  Pd  Pd5  1  0.499673  0.500927  0.170092  1
  O  O6  1  0.691174  0.704498  0.670528  1
  O  O7  1  0.180667  0.804260  0.168010  1
  O  O8  1  0.303620  0.290279  0.337378  1
  O  O9  1  0.806601  0.206111  0.827969  1
  O  O10  1  0.193614  0.791154  0.827715  1
  O  O11  1  0.695783  0.712339  0.337143  1
  O  O12  1  0.819392  0.199017  0.168150  1
  O  O13  1  0.309192  0.292929  0.670763  1
  O  O14  1  0.183340  0.802883  0.501149  1
  O  O15  1  0.688524  0.702864  0.995154  1
  O  O16  1  0.816847  0.197442  0.501382  1
  O  O17  1  0.311910  0.296378  0.995344  1
