# generated using pymatgen
data_CeAl6Cu7
_symmetry_space_group_name_H-M   'P 1'
_cell_length_a   8.42093822
_cell_length_b   8.42093868
_cell_length_c   8.42093800
_cell_angle_alpha   122.15595221
_cell_angle_beta   118.59040990
_cell_angle_gamma   89.38287830
_symmetry_Int_Tables_number   1
_chemical_formula_structural   CeAl6Cu7
_chemical_formula_sum   'Ce2 Al12 Cu14'
_cell_volume   419.32373780
_cell_formula_units_Z   2
loop_
 _symmetry_equiv_pos_site_id
 _symmetry_equiv_pos_as_xyz
  1  'x, y, z'
loop_
 _atom_site_type_symbol
 _atom_site_label
 _atom_site_symmetry_multiplicity
 _atom_site_fract_x
 _atom_site_fract_y
 _atom_site_fract_z
 _atom_site_occupancy
  Ce  Ce0  1  0.250000  0.750000  0.500000  1
  Ce  Ce1  1  0.750000  0.250000  0.500000  1
  Al  Al2  1  0.554975  0.544809  0.357373  1
  Al  Al3  1  0.445025  0.455191  0.642627  1
  Al  Al4  1  0.187435  0.197599  0.642627  1
  Al  Al5  1  0.312565  0.955191  0.010165  1
  Al  Al6  1  0.812565  0.802401  0.357373  1
  Al  Al7  1  0.687435  0.044809  0.989835  1
  Al  Al8  1  0.945025  0.302401  0.989835  1
  Al  Al9  1  0.054975  0.697599  0.010165  1
  Al  Al10  1  0.051319  0.312351  0.363670  1
  Al  Al11  1  0.948681  0.687649  0.636330  1
  Al  Al12  1  0.551319  0.187649  0.738967  1
  Al  Al13  1  0.448681  0.812351  0.261033  1
  Cu  Cu14  1  0.283797  0.299738  0.232855  1
  Cu  Cu15  1  0.716203  0.700262  0.767145  1
  Cu  Cu16  1  0.066884  0.050943  0.767145  1
  Cu  Cu17  1  0.433116  0.200262  0.984059  1
  Cu  Cu18  1  0.933116  0.949057  0.232855  1
  Cu  Cu19  1  0.566884  0.799738  0.015941  1
  Cu  Cu20  1  0.216203  0.449057  0.015941  1
  Cu  Cu21  1  0.783797  0.550943  0.984059  1
  Cu  Cu22  1  0.000000  0.000000  0.000000  1
  Cu  Cu23  1  0.500000  0.500000  0.000000  1
  Cu  Cu24  1  0.284860  0.067323  0.352184  1
  Cu  Cu25  1  0.715140  0.932677  0.647816  1
  Cu  Cu26  1  0.784860  0.432677  0.217538  1
  Cu  Cu27  1  0.215140  0.567323  0.782462  1
