# generated using pymatgen
data_YbHo(MnB4)2
_symmetry_space_group_name_H-M   'P 1'
_cell_length_a   3.37565800
_cell_length_b   5.89401200
_cell_length_c   11.39465693
_cell_angle_alpha   90.06663615
_cell_angle_beta   90.00000000
_cell_angle_gamma   90.00000000
_symmetry_Int_Tables_number   1
_chemical_formula_structural   YbHo(MnB4)2
_chemical_formula_sum   'Yb2 Ho2 Mn4 B16'
_cell_volume   226.70986371
_cell_formula_units_Z   2
loop_
 _symmetry_equiv_pos_site_id
 _symmetry_equiv_pos_as_xyz
  1  'x, y, z'
loop_
 _atom_site_type_symbol
 _atom_site_label
 _atom_site_symmetry_multiplicity
 _atom_site_fract_x
 _atom_site_fract_y
 _atom_site_fract_z
 _atom_site_occupancy
  Yb  Yb0  1  0.500000  0.625451  0.150171  1
  Yb  Yb1  1  0.500000  0.374549  0.849829  1
  Ho  Ho2  1  0.500000  0.126508  0.348632  1
  Ho  Ho3  1  0.500000  0.873492  0.651368  1
  Mn  Mn4  1  0.500000  0.626576  0.417371  1
  Mn  Mn5  1  0.500000  0.373424  0.582629  1
  Mn  Mn6  1  0.500000  0.122291  0.079846  1
  Mn  Mn7  1  0.500000  0.877709  0.920154  1
  B  B8  1  0.000000  0.976245  0.190461  1
  B  B9  1  0.000000  0.023755  0.809539  1
  B  B10  1  0.000000  0.475471  0.308619  1
  B  B11  1  0.000000  0.524529  0.691381  1
  B  B12  1  0.000000  0.779929  0.316130  1
  B  B13  1  0.000000  0.220071  0.683870  1
  B  B14  1  0.000000  0.280644  0.182731  1
  B  B15  1  0.000000  0.719356  0.817269  1
  B  B16  1  0.000000  0.861923  0.467780  1
  B  B17  1  0.000000  0.138077  0.532220  1
  B  B18  1  0.000000  0.362040  0.032788  1
  B  B19  1  0.000000  0.637960  0.967212  1
  B  B20  1  0.000000  0.886597  0.046440  1
  B  B21  1  0.000000  0.113403  0.953560  1
  B  B22  1  0.000000  0.387829  0.453189  1
  B  B23  1  0.000000  0.612171  0.546811  1
