# generated using pymatgen
data_ZrCd3(Pd2Au)4
_symmetry_space_group_name_H-M   'P 1'
_cell_length_a   5.91565644
_cell_length_b   5.92776547
_cell_length_c   7.81106500
_cell_angle_alpha   89.99735460
_cell_angle_beta   90.00099136
_cell_angle_gamma   89.95522235
_symmetry_Int_Tables_number   1
_chemical_formula_structural   ZrCd3(Pd2Au)4
_chemical_formula_sum   'Zr1 Cd3 Pd8 Au4'
_cell_volume   273.90759515
_cell_formula_units_Z   1
loop_
 _symmetry_equiv_pos_site_id
 _symmetry_equiv_pos_as_xyz
  1  'x, y, z'
loop_
 _atom_site_type_symbol
 _atom_site_label
 _atom_site_symmetry_multiplicity
 _atom_site_fract_x
 _atom_site_fract_y
 _atom_site_fract_z
 _atom_site_occupancy
  Zr  Zr0  1  0.250449  0.250004  0.999985  1
  Cd  Cd1  1  0.749209  0.749999  0.000012  1
  Cd  Cd2  1  0.750692  0.750005  0.499997  1
  Cd  Cd3  1  0.249189  0.250000  0.500008  1
  Pd  Pd4  1  0.003892  0.003128  0.246545  1
  Pd  Pd5  1  0.003816  0.496943  0.246551  1
  Pd  Pd6  1  0.496334  0.003221  0.247657  1
  Pd  Pd7  1  0.496300  0.496770  0.247670  1
  Pd  Pd8  1  0.496276  0.003202  0.752325  1
  Pd  Pd9  1  0.496226  0.496726  0.752347  1
  Pd  Pd10  1  0.003799  0.003088  0.753438  1
  Pd  Pd11  1  0.003773  0.496923  0.753464  1
  Au  Au12  1  0.749166  0.250005  0.999972  1
  Au  Au13  1  0.250762  0.749989  0.000017  1
  Au  Au14  1  0.249482  0.750006  0.499993  1
  Au  Au15  1  0.750631  0.249992  0.500021  1
