# generated using pymatgen
data_YHo15InAg3Rh4
_symmetry_space_group_name_H-M   'P 1'
_cell_length_a   9.55305079
_cell_length_b   9.51052964
_cell_length_c   9.54261400
_cell_angle_alpha   59.88834058
_cell_angle_beta   60.03613331
_cell_angle_gamma   59.90213320
_symmetry_Int_Tables_number   1
_chemical_formula_structural   YHo15InAg3Rh4
_chemical_formula_sum   'Y1 Ho15 In1 Ag3 Rh4'
_cell_volume   612.24844969
_cell_formula_units_Z   1
loop_
 _symmetry_equiv_pos_site_id
 _symmetry_equiv_pos_as_xyz
  1  'x, y, z'
loop_
 _atom_site_type_symbol
 _atom_site_label
 _atom_site_symmetry_multiplicity
 _atom_site_fract_x
 _atom_site_fract_y
 _atom_site_fract_z
 _atom_site_occupancy
  Y  Y0  1  0.187378  0.181829  0.815397  1
  Ho  Ho1  1  0.601416  0.600907  0.197099  1
  Ho  Ho2  1  0.437389  0.062141  0.438021  1
  Ho  Ho3  1  0.440611  0.438288  0.060551  1
  Ho  Ho4  1  0.814131  0.182130  0.814953  1
  Ho  Ho5  1  0.187371  0.811573  0.187171  1
  Ho  Ho6  1  0.437389  0.062141  0.062450  1
  Ho  Ho7  1  0.187371  0.811573  0.813883  1
  Ho  Ho8  1  0.059510  0.439048  0.060816  1
  Ho  Ho9  1  0.814382  0.811945  0.186836  1
  Ho  Ho10  1  0.196888  0.601244  0.600934  1
  Ho  Ho11  1  0.059510  0.439048  0.440626  1
  Ho  Ho12  1  0.061511  0.062487  0.438001  1
  Ho  Ho13  1  0.814131  0.182130  0.188787  1
  Ho  Ho14  1  0.602804  0.195247  0.600974  1
  Ho  Ho15  1  0.601416  0.600907  0.600578  1
  In  In16  1  0.829273  0.511308  0.829710  1
  Ag  Ag17  1  0.832543  0.834593  0.832280  1
  Ag  Ag18  1  0.832543  0.834593  0.500585  1
  Ag  Ag19  1  0.501302  0.833841  0.832429  1
  Rh  Rh20  1  0.393431  0.821443  0.392564  1
  Rh  Rh21  1  0.393095  0.393637  0.391196  1
  Rh  Rh22  1  0.821508  0.394312  0.392090  1
  Rh  Rh23  1  0.393095  0.393637  0.822070  1
