# generated using pymatgen
data_Lu5SiNiPb
_symmetry_space_group_name_H-M   'P 1'
_cell_length_a   8.24298046
_cell_length_b   8.24298074
_cell_length_c   8.48423500
_cell_angle_alpha   124.86678087
_cell_angle_beta   124.86678224
_cell_angle_gamma   79.81635437
_symmetry_Int_Tables_number   1
_chemical_formula_structural   Lu5SiNiPb
_chemical_formula_sum   'Lu10 Si2 Ni2 Pb2'
_cell_volume   378.32290580
_cell_formula_units_Z   2
loop_
 _symmetry_equiv_pos_site_id
 _symmetry_equiv_pos_as_xyz
  1  'x, y, z'
loop_
 _atom_site_type_symbol
 _atom_site_label
 _atom_site_symmetry_multiplicity
 _atom_site_fract_x
 _atom_site_fract_y
 _atom_site_fract_z
 _atom_site_occupancy
  Lu  Lu0  1  0.000000  0.000000  0.000000  1
  Lu  Lu1  1  0.500000  0.500000  0.000000  1
  Lu  Lu2  1  0.782788  0.282788  0.791408  1
  Lu  Lu3  1  0.217212  0.717212  0.208592  1
  Lu  Lu4  1  0.491382  0.991382  0.208592  1
  Lu  Lu5  1  0.299695  0.467192  0.500000  1
  Lu  Lu6  1  0.032808  0.200305  0.500000  1
  Lu  Lu7  1  0.508618  0.008618  0.791408  1
  Lu  Lu8  1  0.700305  0.532808  0.500000  1
  Lu  Lu9  1  0.967192  0.799695  0.500000  1
  Si  Si10  1  0.147320  0.647320  0.794641  1
  Si  Si11  1  0.852680  0.352680  0.205359  1
  Ni  Ni12  1  0.630172  0.869828  0.500000  1
  Ni  Ni13  1  0.369828  0.130172  0.500000  1
  Pb  Pb14  1  0.250000  0.250000  0.000000  1
  Pb  Pb15  1  0.750000  0.750000  0.000000  1
