# generated using pymatgen
data_Y2Lu2SiS3
_symmetry_space_group_name_H-M   'P 1'
_cell_length_a   6.82680638
_cell_length_b   6.82680683
_cell_length_c   6.82680700
_cell_angle_alpha   132.01034130
_cell_angle_beta   132.01034471
_cell_angle_gamma   70.21269562
_symmetry_Int_Tables_number   1
_chemical_formula_structural   Y2Lu2SiS3
_chemical_formula_sum   'Y2 Lu2 Si1 S3'
_cell_volume   172.17190055
_cell_formula_units_Z   1
loop_
 _symmetry_equiv_pos_site_id
 _symmetry_equiv_pos_as_xyz
  1  'x, y, z'
loop_
 _atom_site_type_symbol
 _atom_site_label
 _atom_site_symmetry_multiplicity
 _atom_site_fract_x
 _atom_site_fract_y
 _atom_site_fract_z
 _atom_site_occupancy
  Y  Y0  1  0.247172  0.247172  0.000000  1
  Y  Y1  1  0.752828  0.752828  0.000000  1
  Lu  Lu2  1  0.499999  0.000000  0.499999  1
  Lu  Lu3  1  0.000000  0.499999  0.499999  1
  Si  Si4  1  0.000000  0.000000  0.000000  1
  S  S5  1  0.500000  0.500000  0.000000  1
  S  S6  1  0.749999  0.250000  0.499999  1
  S  S7  1  0.250000  0.749999  0.499999  1
