# generated using pymatgen
data_Tb4Y5ErPb6
_symmetry_space_group_name_H-M   'P 1'
_cell_length_a   9.08583002
_cell_length_b   9.08277678
_cell_length_c   6.66524700
_cell_angle_alpha   90.00078483
_cell_angle_beta   90.00202968
_cell_angle_gamma   119.99232908
_symmetry_Int_Tables_number   1
_chemical_formula_structural   Tb4Y5ErPb6
_chemical_formula_sum   'Tb4 Y5 Er1 Pb6'
_cell_volume   476.39115817
_cell_formula_units_Z   1
loop_
 _symmetry_equiv_pos_site_id
 _symmetry_equiv_pos_as_xyz
  1  'x, y, z'
loop_
 _atom_site_type_symbol
 _atom_site_label
 _atom_site_symmetry_multiplicity
 _atom_site_fract_x
 _atom_site_fract_y
 _atom_site_fract_z
 _atom_site_occupancy
  Tb  Tb0  1  0.333348  0.666658  0.999973  1
  Tb  Tb1  1  0.333347  0.666648  0.500014  1
  Tb  Tb2  1  0.666644  0.333311  0.500026  1
  Tb  Tb3  1  0.999893  0.761305  0.249838  1
  Y  Y4  1  0.761332  0.761225  0.750138  1
  Y  Y5  1  0.238747  0.000094  0.750186  1
  Y  Y6  1  0.999877  0.238546  0.750166  1
  Y  Y7  1  0.238735  0.238636  0.249810  1
  Y  Y8  1  0.761378  0.000117  0.249855  1
  Er  Er9  1  0.666686  0.333378  0.000033  1
  Pb  Pb10  1  0.394552  0.394033  0.750449  1
  Pb  Pb11  1  0.605967  0.000471  0.750438  1
  Pb  Pb12  1  0.999501  0.605603  0.750447  1
  Pb  Pb13  1  0.605678  0.605375  0.249552  1
  Pb  Pb14  1  0.394797  0.000678  0.249536  1
  Pb  Pb15  1  0.999518  0.393921  0.249539  1
