# generated using pymatgen
data_TmLuZr2(Al3Rh)6
_symmetry_space_group_name_H-M   'P 1'
_cell_length_a   7.51063422
_cell_length_b   7.49768707
_cell_length_c   9.33495700
_cell_angle_alpha   90.00000000
_cell_angle_beta   90.00000000
_cell_angle_gamma   119.68372257
_symmetry_Int_Tables_number   1
_chemical_formula_structural   TmLuZr2(Al3Rh)6
_chemical_formula_sum   'Tm1 Lu1 Zr2 Al18 Rh6'
_cell_volume   456.69071007
_cell_formula_units_Z   1
loop_
 _symmetry_equiv_pos_site_id
 _symmetry_equiv_pos_as_xyz
  1  'x, y, z'
loop_
 _atom_site_type_symbol
 _atom_site_label
 _atom_site_symmetry_multiplicity
 _atom_site_fract_x
 _atom_site_fract_y
 _atom_site_fract_z
 _atom_site_occupancy
  Tm  Tm0  1  0.670915  0.993600  0.250000  1
  Lu  Lu1  1  0.328963  0.006363  0.750000  1
  Zr  Zr2  1  0.995025  0.671728  0.250000  1
  Zr  Zr3  1  0.005093  0.328335  0.750000  1
  Al  Al4  1  0.125071  0.123564  0.250000  1
  Al  Al5  1  0.875311  0.876617  0.750000  1
  Al  Al6  1  0.998977  0.337021  0.075553  1
  Al  Al7  1  0.001332  0.663271  0.924168  1
  Al  Al8  1  0.001332  0.663271  0.575832  1
  Al  Al9  1  0.332745  0.998167  0.421633  1
  Al  Al10  1  0.998977  0.337021  0.424447  1
  Al  Al11  1  0.666964  0.001866  0.578859  1
  Al  Al12  1  0.666964  0.001866  0.921141  1
  Al  Al13  1  0.332745  0.998167  0.078367  1
  Al  Al14  1  0.330964  0.332944  0.556034  1
  Al  Al15  1  0.669044  0.666792  0.444227  1
  Al  Al16  1  0.669044  0.666792  0.055773  1
  Al  Al17  1  0.330964  0.332944  0.943966  1
  Al  Al18  1  0.334907  0.549408  0.250000  1
  Al  Al19  1  0.664797  0.450175  0.750000  1
  Al  Al20  1  0.556145  0.343279  0.250000  1
  Al  Al21  1  0.443667  0.656836  0.750000  1
  Rh  Rh22  1  0.672063  0.327050  0.999132  1
  Rh  Rh23  1  0.327753  0.672923  0.000680  1
  Rh  Rh24  1  0.327753  0.672923  0.499320  1
  Rh  Rh25  1  0.672063  0.327050  0.500868  1
  Rh  Rh26  1  0.000212  0.000011  0.999882  1
  Rh  Rh27  1  0.000212  0.000011  0.500118  1
