# generated using pymatgen
data_NdFe7CoP5
_symmetry_space_group_name_H-M   'P 1'
_cell_length_a   3.59506200
_cell_length_b   9.13413400
_cell_length_c   10.52239900
_cell_angle_alpha   90.00000000
_cell_angle_beta   90.00000000
_cell_angle_gamma   90.00000000
_symmetry_Int_Tables_number   1
_chemical_formula_structural   NdFe7CoP5
_chemical_formula_sum   'Nd2 Fe14 Co2 P10'
_cell_volume   345.53220288
_cell_formula_units_Z   2
loop_
 _symmetry_equiv_pos_site_id
 _symmetry_equiv_pos_as_xyz
  1  'x, y, z'
loop_
 _atom_site_type_symbol
 _atom_site_label
 _atom_site_symmetry_multiplicity
 _atom_site_fract_x
 _atom_site_fract_y
 _atom_site_fract_z
 _atom_site_occupancy
  Nd  Nd0  1  0.750000  0.819971  0.750000  1
  Nd  Nd1  1  0.250000  0.180029  0.250000  1
  Fe  Fe2  1  0.750000  0.519015  0.919069  1
  Fe  Fe3  1  0.750000  0.519015  0.580931  1
  Fe  Fe4  1  0.250000  0.480985  0.080931  1
  Fe  Fe5  1  0.250000  0.480985  0.419069  1
  Fe  Fe6  1  0.750000  0.109809  0.991803  1
  Fe  Fe7  1  0.750000  0.109809  0.508197  1
  Fe  Fe8  1  0.250000  0.890191  0.008197  1
  Fe  Fe9  1  0.250000  0.890191  0.491803  1
  Fe  Fe10  1  0.750000  0.693863  0.106196  1
  Fe  Fe11  1  0.750000  0.693863  0.393804  1
  Fe  Fe12  1  0.250000  0.306137  0.893804  1
  Fe  Fe13  1  0.250000  0.306137  0.606196  1
  Fe  Fe14  1  0.750000  0.152456  0.750000  1
  Fe  Fe15  1  0.250000  0.847544  0.250000  1
  Co  Co16  1  0.250000  0.546471  0.750000  1
  Co  Co17  1  0.750000  0.453529  0.250000  1
  P  P18  1  0.750000  0.934167  0.130883  1
  P  P19  1  0.750000  0.934167  0.369117  1
  P  P20  1  0.250000  0.065833  0.869117  1
  P  P21  1  0.250000  0.065833  0.630883  1
  P  P22  1  0.750000  0.338898  0.059751  1
  P  P23  1  0.750000  0.338898  0.440249  1
  P  P24  1  0.250000  0.661102  0.940249  1
  P  P25  1  0.250000  0.661102  0.559751  1
  P  P26  1  0.750000  0.388541  0.750000  1
  P  P27  1  0.250000  0.611459  0.250000  1
