# generated using pymatgen
data_Tm4Mn3TcOs4
_symmetry_space_group_name_H-M   'P 1'
_cell_length_a   5.32633900
_cell_length_b   5.27154788
_cell_length_c   8.57698600
_cell_angle_alpha   90.00000000
_cell_angle_beta   90.00000000
_cell_angle_gamma   120.34145434
_symmetry_Int_Tables_number   1
_chemical_formula_structural   Tm4Mn3TcOs4
_chemical_formula_sum   'Tm4 Mn3 Tc1 Os4'
_cell_volume   207.83931370
_cell_formula_units_Z   1
loop_
 _symmetry_equiv_pos_site_id
 _symmetry_equiv_pos_as_xyz
  1  'x, y, z'
loop_
 _atom_site_type_symbol
 _atom_site_label
 _atom_site_symmetry_multiplicity
 _atom_site_fract_x
 _atom_site_fract_y
 _atom_site_fract_z
 _atom_site_occupancy
  Tm  Tm0  1  0.666934  0.333862  0.565902  1
  Tm  Tm1  1  0.332931  0.665877  0.436986  1
  Tm  Tm2  1  0.332931  0.665877  0.063014  1
  Tm  Tm3  1  0.666934  0.333862  0.934098  1
  Mn  Mn4  1  0.996660  0.993315  0.501830  1
  Mn  Mn5  1  0.996660  0.993315  0.998170  1
  Mn  Mn6  1  0.165412  0.330845  0.750000  1
  Tc  Tc7  1  0.833965  0.667862  0.250000  1
  Os  Os8  1  0.175028  0.834914  0.750000  1
  Os  Os9  1  0.659846  0.834900  0.750000  1
  Os  Os10  1  0.830987  0.172702  0.250000  1
  Os  Os11  1  0.341710  0.172671  0.250000  1
