# generated using pymatgen
data_Zr8Fe2OsRh
_symmetry_space_group_name_H-M   'P 1'
_cell_length_a   8.68784223
_cell_length_b   8.68784279
_cell_length_c   8.67339600
_cell_angle_alpha   60.05499983
_cell_angle_beta   60.05499769
_cell_angle_gamma   60.06291099
_symmetry_Int_Tables_number   1
_chemical_formula_structural   Zr8Fe2OsRh
_chemical_formula_sum   'Zr16 Fe4 Os2 Rh2'
_cell_volume   463.51627895
_cell_formula_units_Z   2
loop_
 _symmetry_equiv_pos_site_id
 _symmetry_equiv_pos_as_xyz
  1  'x, y, z'
loop_
 _atom_site_type_symbol
 _atom_site_label
 _atom_site_symmetry_multiplicity
 _atom_site_fract_x
 _atom_site_fract_y
 _atom_site_fract_z
 _atom_site_occupancy
  Zr  Zr0  1  0.054022  0.647799  0.649090  1
  Zr  Zr1  1  0.647799  0.054022  0.649090  1
  Zr  Zr2  1  0.647526  0.647526  0.055465  1
  Zr  Zr3  1  0.647526  0.647526  0.649484  1
  Zr  Zr4  1  0.801003  0.801003  0.198997  1
  Zr  Zr5  1  0.200133  0.200133  0.799867  1
  Zr  Zr6  1  0.799230  0.199719  0.801828  1
  Zr  Zr7  1  0.199719  0.799230  0.199223  1
  Zr  Zr8  1  0.199719  0.799230  0.801828  1
  Zr  Zr9  1  0.799230  0.199719  0.199223  1
  Zr  Zr10  1  0.437102  0.437102  0.062898  1
  Zr  Zr11  1  0.062561  0.062561  0.437439  1
  Zr  Zr12  1  0.437127  0.066411  0.437133  1
  Zr  Zr13  1  0.066411  0.437127  0.059328  1
  Zr  Zr14  1  0.066411  0.437127  0.437133  1
  Zr  Zr15  1  0.437127  0.066411  0.059328  1
  Fe  Fe16  1  0.418920  0.860152  0.860464  1
  Fe  Fe17  1  0.860152  0.418920  0.860464  1
  Fe  Fe18  1  0.860680  0.860680  0.417564  1
  Fe  Fe19  1  0.860680  0.860680  0.861076  1
  Os  Os20  1  0.416825  0.416825  0.746044  1
  Os  Os21  1  0.416825  0.416825  0.420306  1
  Rh  Rh22  1  0.746861  0.416413  0.418364  1
  Rh  Rh23  1  0.416413  0.746861  0.418364  1
