# generated using pymatgen
data_Er8Ga12Cu3Rh
_symmetry_space_group_name_H-M   'P 1'
_cell_length_a   6.90834900
_cell_length_b   8.80928337
_cell_length_c   8.80928400
_cell_angle_alpha   120.00000238
_cell_angle_beta   90.00000000
_cell_angle_gamma   90.00000000
_symmetry_Int_Tables_number   1
_chemical_formula_structural   Er8Ga12Cu3Rh
_chemical_formula_sum   'Er8 Ga12 Cu3 Rh1'
_cell_volume   464.28652784
_cell_formula_units_Z   1
loop_
 _symmetry_equiv_pos_site_id
 _symmetry_equiv_pos_as_xyz
  1  'x, y, z'
loop_
 _atom_site_type_symbol
 _atom_site_label
 _atom_site_symmetry_multiplicity
 _atom_site_fract_x
 _atom_site_fract_y
 _atom_site_fract_z
 _atom_site_occupancy
  Er  Er0  1  0.748993  0.000000  0.000000  1
  Er  Er1  1  0.250550  0.000000  0.000000  1
  Er  Er2  1  0.749015  0.484351  0.515649  1
  Er  Er3  1  0.254234  0.520914  0.479086  1
  Er  Er4  1  0.749015  0.031297  0.515649  1
  Er  Er5  1  0.254234  0.958171  0.479086  1
  Er  Er6  1  0.749015  0.484351  0.968703  1
  Er  Er7  1  0.254234  0.520914  0.041829  1
  Ga  Ga8  1  0.961001  0.830996  0.169004  1
  Ga  Ga9  1  0.040908  0.170345  0.829655  1
  Ga  Ga10  1  0.961001  0.338010  0.169004  1
  Ga  Ga11  1  0.462146  0.170193  0.829807  1
  Ga  Ga12  1  0.040908  0.659308  0.829655  1
  Ga  Ga13  1  0.542731  0.831454  0.168546  1
  Ga  Ga14  1  0.961001  0.830996  0.661990  1
  Ga  Ga15  1  0.462146  0.659613  0.829807  1
  Ga  Ga16  1  0.040908  0.170345  0.340692  1
  Ga  Ga17  1  0.542731  0.337093  0.168546  1
  Ga  Ga18  1  0.462146  0.170193  0.340387  1
  Ga  Ga19  1  0.542731  0.831454  0.662907  1
  Cu  Cu20  1  0.948093  0.666667  0.333333  1
  Cu  Cu21  1  0.045793  0.333333  0.666667  1
  Cu  Cu22  1  0.456073  0.333333  0.666667  1
  Rh  Rh23  1  0.520389  0.666667  0.333333  1
