# generated using pymatgen
data_Ho16Ag4Ir3Pd
_symmetry_space_group_name_H-M   'P 1'
_cell_length_a   9.46602146
_cell_length_b   9.46601952
_cell_length_c   9.46601900
_cell_angle_alpha   60.75896410
_cell_angle_beta   60.75897066
_cell_angle_gamma   60.75896513
_symmetry_Int_Tables_number   1
_chemical_formula_structural   Ho16Ag4Ir3Pd
_chemical_formula_sum   'Ho16 Ag4 Ir3 Pd1'
_cell_volume   610.04357783
_cell_formula_units_Z   1
loop_
 _symmetry_equiv_pos_site_id
 _symmetry_equiv_pos_as_xyz
  1  'x, y, z'
loop_
 _atom_site_type_symbol
 _atom_site_label
 _atom_site_symmetry_multiplicity
 _atom_site_fract_x
 _atom_site_fract_y
 _atom_site_fract_z
 _atom_site_occupancy
  Ho  Ho0  1  0.598986  0.598986  0.598986  1
  Ho  Ho1  1  0.607914  0.607914  0.182489  1
  Ho  Ho2  1  0.607914  0.182489  0.607914  1
  Ho  Ho3  1  0.182489  0.607914  0.607914  1
  Ho  Ho4  1  0.056497  0.439113  0.439113  1
  Ho  Ho5  1  0.439420  0.061997  0.061997  1
  Ho  Ho6  1  0.439113  0.056497  0.439113  1
  Ho  Ho7  1  0.061997  0.439420  0.061997  1
  Ho  Ho8  1  0.439113  0.439113  0.056497  1
  Ho  Ho9  1  0.061997  0.061997  0.439420  1
  Ho  Ho10  1  0.186095  0.815449  0.815449  1
  Ho  Ho11  1  0.817382  0.187374  0.187374  1
  Ho  Ho12  1  0.815449  0.186095  0.815449  1
  Ho  Ho13  1  0.187374  0.817382  0.187374  1
  Ho  Ho14  1  0.815449  0.815449  0.186095  1
  Ho  Ho15  1  0.187374  0.187374  0.817382  1
  Ag  Ag16  1  0.834025  0.834025  0.834025  1
  Ag  Ag17  1  0.831253  0.831253  0.503852  1
  Ag  Ag18  1  0.831253  0.503852  0.831253  1
  Ag  Ag19  1  0.503852  0.831253  0.831253  1
  Ir  Ir20  1  0.390329  0.390329  0.819989  1
  Ir  Ir21  1  0.390329  0.819989  0.390329  1
  Ir  Ir22  1  0.819989  0.390329  0.390329  1
  Pd  Pd23  1  0.394409  0.394409  0.394409  1
