# generated using pymatgen
data_HoNpScO6
_symmetry_space_group_name_H-M   'P 1'
_cell_length_a   5.43514700
_cell_length_b   7.65030895
_cell_length_c   11.55756428
_cell_angle_alpha   76.43480788
_cell_angle_beta   90.00000000
_cell_angle_gamma   90.00000000
_symmetry_Int_Tables_number   1
_chemical_formula_structural   HoNpScO6
_chemical_formula_sum   'Ho4 Np4 Sc4 O24'
_cell_volume   467.16378691
_cell_formula_units_Z   4
loop_
 _symmetry_equiv_pos_site_id
 _symmetry_equiv_pos_as_xyz
  1  'x, y, z'
loop_
 _atom_site_type_symbol
 _atom_site_label
 _atom_site_symmetry_multiplicity
 _atom_site_fract_x
 _atom_site_fract_y
 _atom_site_fract_z
 _atom_site_occupancy
  Ho  Ho0  1  0.776963  0.000000  0.750000  1
  Ho  Ho1  1  0.223037  0.000000  0.250000  1
  Ho  Ho2  1  0.709214  0.500000  0.750000  1
  Ho  Ho3  1  0.290786  0.500000  0.250000  1
  Np  Np4  1  0.277411  0.731091  0.892712  1
  Np  Np5  1  0.722589  0.731091  0.392712  1
  Np  Np6  1  0.277411  0.268909  0.607288  1
  Np  Np7  1  0.722589  0.268909  0.107288  1
  Sc  Sc8  1  0.208672  0.773235  0.595641  1
  Sc  Sc9  1  0.791328  0.773235  0.095641  1
  Sc  Sc10  1  0.208672  0.226765  0.904359  1
  Sc  Sc11  1  0.791328  0.226765  0.404359  1
  O  O12  1  0.099969  0.970486  0.885960  1
  O  O13  1  0.602202  0.845078  0.938962  1
  O  O14  1  0.900031  0.970486  0.385960  1
  O  O15  1  0.476117  0.794038  0.727832  1
  O  O16  1  0.397798  0.845078  0.438962  1
  O  O17  1  0.987324  0.709742  0.774824  1
  O  O18  1  0.523883  0.794038  0.227832  1
  O  O19  1  0.886363  0.649934  0.558693  1
  O  O20  1  0.397568  0.481147  0.886617  1
  O  O21  1  0.012676  0.709742  0.274824  1
  O  O22  1  0.397568  0.518853  0.613383  1
  O  O23  1  0.886363  0.350066  0.941307  1
  O  O24  1  0.113637  0.649934  0.058693  1
  O  O25  1  0.602432  0.481147  0.386617  1
  O  O26  1  0.987324  0.290258  0.725176  1
  O  O27  1  0.602432  0.518853  0.113383  1
  O  O28  1  0.113637  0.350066  0.441307  1
  O  O29  1  0.476117  0.205962  0.772168  1
  O  O30  1  0.012676  0.290258  0.225176  1
  O  O31  1  0.602202  0.154922  0.561038  1
  O  O32  1  0.523883  0.205962  0.272168  1
  O  O33  1  0.099969  0.029514  0.614040  1
  O  O34  1  0.397798  0.154922  0.061038  1
  O  O35  1  0.900031  0.029514  0.114040  1
