# generated using pymatgen
data_ScZn2P6BrN12
_symmetry_space_group_name_H-M   'P 1'
_cell_length_a   7.28000587
_cell_length_b   7.27899325
_cell_length_c   7.28000555
_cell_angle_alpha   109.44023882
_cell_angle_beta   109.98340904
_cell_angle_gamma   109.44019877
_symmetry_Int_Tables_number   1
_chemical_formula_structural   ScZn2P6BrN12
_chemical_formula_sum   'Sc1 Zn2 P6 Br1 N12'
_cell_volume   295.30211011
_cell_formula_units_Z   1
loop_
 _symmetry_equiv_pos_site_id
 _symmetry_equiv_pos_as_xyz
  1  'x, y, z'
loop_
 _atom_site_type_symbol
 _atom_site_label
 _atom_site_symmetry_multiplicity
 _atom_site_fract_x
 _atom_site_fract_y
 _atom_site_fract_z
 _atom_site_occupancy
  Sc  Sc0  1  0.031092  0.376534  0.031092  1
  Zn  Zn1  1  0.999598  0.999738  0.387975  1
  Zn  Zn2  1  0.387975  0.999738  0.999598  1
  P  P3  1  0.502962  0.258263  0.749547  1
  P  P4  1  0.246454  0.749776  0.494204  1
  P  P5  1  0.738023  0.499838  0.258980  1
  P  P6  1  0.749547  0.258263  0.502962  1
  P  P7  1  0.494204  0.749776  0.246454  1
  P  P8  1  0.258980  0.499838  0.738023  1
  Br  Br9  1  0.018346  0.999600  0.018346  1
  N  N10  1  0.381864  0.669419  0.381864  1
  N  N11  1  0.709668  0.435996  0.439722  1
  N  N12  1  0.439722  0.435996  0.709668  1
  N  N13  1  0.732147  0.283830  0.732147  1
  N  N14  1  0.986542  0.565306  0.280310  1
  N  N15  1  0.280310  0.565306  0.986542  1
  N  N16  1  0.282158  0.001613  0.556140  1
  N  N17  1  0.999440  0.277691  0.556707  1
  N  N18  1  0.719517  0.727087  0.288599  1
  N  N19  1  0.556140  0.001613  0.282158  1
  N  N20  1  0.288599  0.727087  0.719517  1
  N  N21  1  0.556707  0.277691  0.999440  1
