# generated using pymatgen
data_NaDy(PSe3)2
_symmetry_space_group_name_H-M   'P 1'
_cell_length_a   7.35585227
_cell_length_b   7.60667839
_cell_length_c   9.77059900
_cell_angle_alpha   87.52000699
_cell_angle_beta   87.40878301
_cell_angle_gamma   88.02990668
_symmetry_Int_Tables_number   1
_chemical_formula_structural   NaDy(PSe3)2
_chemical_formula_sum   'Na2 Dy2 P4 Se12'
_cell_volume   545.34172407
_cell_formula_units_Z   2
loop_
 _symmetry_equiv_pos_site_id
 _symmetry_equiv_pos_as_xyz
  1  'x, y, z'
loop_
 _atom_site_type_symbol
 _atom_site_label
 _atom_site_symmetry_multiplicity
 _atom_site_fract_x
 _atom_site_fract_y
 _atom_site_fract_z
 _atom_site_occupancy
  Na  Na0  1  0.470803  0.396275  0.269441  1
  Na  Na1  1  0.529197  0.603725  0.730560  1
  Dy  Dy2  1  0.979799  0.117592  0.747327  1
  Dy  Dy3  1  0.020203  0.882408  0.252673  1
  P  P4  1  0.644578  0.034475  0.027650  1
  P  P5  1  0.355422  0.965526  0.972349  1
  P  P6  1  0.939741  0.394337  0.439135  1
  P  P7  1  0.060259  0.605665  0.560865  1
  Se  Se8  1  0.151496  0.177196  0.443082  1
  Se  Se9  1  0.848504  0.822805  0.556918  1
  Se  Se10  1  0.292851  0.703696  0.431144  1
  Se  Se11  1  0.707148  0.296305  0.568857  1
  Se  Se12  1  0.121993  0.478245  0.761289  1
  Se  Se13  1  0.878005  0.521756  0.238711  1
  Se  Se14  1  0.162138  0.170475  0.052915  1
  Se  Se15  1  0.837862  0.829525  0.947085  1
  Se  Se16  1  0.645198  0.029240  0.254378  1
  Se  Se17  1  0.354802  0.970762  0.745622  1
  Se  Se18  1  0.294531  0.708829  0.071824  1
  Se  Se19  1  0.705469  0.291172  0.928176  1
