# generated using pymatgen
data_LiTm8(B8Ir)3
_symmetry_space_group_name_H-M   'P 1'
_cell_length_a   3.61571100
_cell_length_b   9.09743645
_cell_length_c   11.44310861
_cell_angle_alpha   90.16087029
_cell_angle_beta   90.00000000
_cell_angle_gamma   90.00000000
_symmetry_Int_Tables_number   1
_chemical_formula_structural   LiTm8(B8Ir)3
_chemical_formula_sum   'Li1 Tm8 B24 Ir3'
_cell_volume   376.40471002
_cell_formula_units_Z   1
loop_
 _symmetry_equiv_pos_site_id
 _symmetry_equiv_pos_as_xyz
  1  'x, y, z'
loop_
 _atom_site_type_symbol
 _atom_site_label
 _atom_site_symmetry_multiplicity
 _atom_site_fract_x
 _atom_site_fract_y
 _atom_site_fract_z
 _atom_site_occupancy
  Li  Li0  1  0.000000  0.637024  0.322833  1
  Tm  Tm1  1  0.000000  0.326402  0.412487  1
  Tm  Tm2  1  0.000000  0.676758  0.582091  1
  Tm  Tm3  1  0.000000  0.820670  0.088420  1
  Tm  Tm4  1  0.000000  0.179144  0.914308  1
  Tm  Tm5  1  0.000000  0.939732  0.372547  1
  Tm  Tm6  1  0.000000  0.056220  0.625094  1
  Tm  Tm7  1  0.000000  0.446981  0.129595  1
  Tm  Tm8  1  0.000000  0.556297  0.873939  1
  B  B9  1  0.500000  0.551943  0.434218  1
  B  B10  1  0.500000  0.448097  0.563847  1
  B  B11  1  0.500000  0.053683  0.066138  1
  B  B12  1  0.500000  0.947237  0.934251  1
  B  B13  1  0.500000  0.747263  0.420420  1
  B  B14  1  0.500000  0.252049  0.578053  1
  B  B15  1  0.500000  0.251532  0.080517  1
  B  B16  1  0.500000  0.750758  0.921209  1
  B  B17  1  0.500000  0.793207  0.263131  1
  B  B18  1  0.500000  0.206265  0.735812  1
  B  B19  1  0.500000  0.295230  0.235943  1
  B  B20  1  0.500000  0.706330  0.764333  1
  B  B21  1  0.500000  0.634155  0.183803  1
  B  B22  1  0.500000  0.367274  0.817152  1
  B  B23  1  0.500000  0.131399  0.314948  1
  B  B24  1  0.500000  0.867437  0.683000  1
  B  B25  1  0.500000  0.979382  0.212859  1
  B  B26  1  0.500000  0.018909  0.786543  1
  B  B27  1  0.500000  0.481378  0.288555  1
  B  B28  1  0.500000  0.518049  0.712090  1
  B  B29  1  0.500000  0.609545  0.030680  1
  B  B30  1  0.500000  0.393397  0.971471  1
  B  B31  1  0.500000  0.107479  0.469576  1
  B  B32  1  0.500000  0.890059  0.529321  1
  Ir  Ir33  1  0.000000  0.358542  0.682620  1
  Ir  Ir34  1  0.000000  0.137528  0.176364  1
  Ir  Ir35  1  0.000000  0.862643  0.821833  1
