# generated using pymatgen
data_Li2La2Si2Sn
_symmetry_space_group_name_H-M   'P 1'
_cell_length_a   9.90981240
_cell_length_b   9.90981230
_cell_length_c   6.95382000
_cell_angle_alpha   90.00000000
_cell_angle_beta   90.00000000
_cell_angle_gamma   152.83152930
_symmetry_Int_Tables_number   1
_chemical_formula_structural   Li2La2Si2Sn
_chemical_formula_sum   'Li4 La4 Si4 Sn2'
_cell_volume   311.81587568
_cell_formula_units_Z   2
loop_
 _symmetry_equiv_pos_site_id
 _symmetry_equiv_pos_as_xyz
  1  'x, y, z'
loop_
 _atom_site_type_symbol
 _atom_site_label
 _atom_site_symmetry_multiplicity
 _atom_site_fract_x
 _atom_site_fract_y
 _atom_site_fract_z
 _atom_site_occupancy
  Li  Li0  1  0.815698  0.184302  0.442586  1
  Li  Li1  1  0.184302  0.815698  0.557414  1
  Li  Li2  1  0.815698  0.184302  0.057414  1
  Li  Li3  1  0.184302  0.815698  0.942586  1
  La  La4  1  0.547361  0.452639  0.750000  1
  La  La5  1  0.452639  0.547361  0.250000  1
  La  La6  1  0.347705  0.652295  0.750000  1
  La  La7  1  0.652295  0.347705  0.250000  1
  Si  Si8  1  0.943731  0.056269  0.924391  1
  Si  Si9  1  0.056269  0.943731  0.075609  1
  Si  Si10  1  0.943731  0.056269  0.575609  1
  Si  Si11  1  0.056269  0.943731  0.424391  1
  Sn  Sn12  1  0.719238  0.280762  0.750000  1
  Sn  Sn13  1  0.280762  0.719238  0.250000  1
