# generated using pymatgen
data_YbTh2(InPd)3
_symmetry_space_group_name_H-M   'P 1'
_cell_length_a   7.72101829
_cell_length_b   7.72101773
_cell_length_c   4.08848000
_cell_angle_alpha   90.00000000
_cell_angle_beta   90.00000000
_cell_angle_gamma   120.35611827
_symmetry_Int_Tables_number   1
_chemical_formula_structural   YbTh2(InPd)3
_chemical_formula_sum   'Yb1 Th2 In3 Pd3'
_cell_volume   210.31583345
_cell_formula_units_Z   1
loop_
 _symmetry_equiv_pos_site_id
 _symmetry_equiv_pos_as_xyz
  1  'x, y, z'
loop_
 _atom_site_type_symbol
 _atom_site_label
 _atom_site_symmetry_multiplicity
 _atom_site_fract_x
 _atom_site_fract_y
 _atom_site_fract_z
 _atom_site_occupancy
  Yb  Yb0  1  0.408965  0.408965  0.500000  1
  Th  Th1  1  0.998656  0.587402  0.500000  1
  Th  Th2  1  0.587402  0.998656  0.500000  1
  In  In3  1  0.012378  0.253797  0.000000  1
  In  In4  1  0.253797  0.012378  0.000000  1
  In  In5  1  0.737208  0.737208  0.000000  1
  Pd  Pd6  1  0.990549  0.990549  0.500000  1
  Pd  Pd7  1  0.678348  0.332697  0.000000  1
  Pd  Pd8  1  0.332697  0.678348  0.000000  1
