# generated using pymatgen
data_Yb10CdCu3HgIr
_symmetry_space_group_name_H-M   'P 1'
_cell_length_a   9.01559310
_cell_length_b   9.01270252
_cell_length_c   8.99021853
_cell_angle_alpha   129.29570411
_cell_angle_beta   129.30447389
_cell_angle_gamma   74.72802084
_symmetry_Int_Tables_number   1
_chemical_formula_structural   Yb10CdCu3HgIr
_chemical_formula_sum   'Yb10 Cd1 Cu3 Hg1 Ir1'
_cell_volume   425.70789607
_cell_formula_units_Z   1
loop_
 _symmetry_equiv_pos_site_id
 _symmetry_equiv_pos_as_xyz
  1  'x, y, z'
loop_
 _atom_site_type_symbol
 _atom_site_label
 _atom_site_symmetry_multiplicity
 _atom_site_fract_x
 _atom_site_fract_y
 _atom_site_fract_z
 _atom_site_occupancy
  Yb  Yb0  1  0.493335  0.502270  0.995734  1
  Yb  Yb1  1  0.002399  0.993465  0.995734  1
  Yb  Yb2  1  0.531262  0.033542  0.834616  1
  Yb  Yb3  1  0.192519  0.690129  0.149718  1
  Yb  Yb4  1  0.034764  0.206820  0.509926  1
  Yb  Yb5  1  0.704612  0.532543  0.505446  1
  Yb  Yb6  1  0.457199  0.959589  0.149718  1
  Yb  Yb7  1  0.803353  0.301073  0.834616  1
  Yb  Yb8  1  0.975163  0.803107  0.509926  1
  Yb  Yb9  1  0.300834  0.472903  0.505446  1
  Cd  Cd10  1  0.751739  0.751739  0.003476  1
  Cu  Cu11  1  0.879582  0.379582  0.259161  1
  Cu  Cu12  1  0.616157  0.882425  0.498544  1
  Cu  Cu13  1  0.382387  0.116119  0.498544  1
  Hg  Hg14  1  0.251353  0.251353  0.002705  1
  Ir  Ir15  1  0.123341  0.623341  0.746683  1
