# generated using pymatgen
data_K2Cd(SeO4)2
_symmetry_space_group_name_H-M   'P 1'
_cell_length_a   7.17313815
_cell_length_b   7.17313850
_cell_length_c   9.97940954
_cell_angle_alpha   68.46778890
_cell_angle_beta   68.46778360
_cell_angle_gamma   76.95621752
_symmetry_Int_Tables_number   1
_chemical_formula_structural   K2Cd(SeO4)2
_chemical_formula_sum   'K4 Cd2 Se4 O16'
_cell_volume   441.84719537
_cell_formula_units_Z   2
loop_
 _symmetry_equiv_pos_site_id
 _symmetry_equiv_pos_as_xyz
  1  'x, y, z'
loop_
 _atom_site_type_symbol
 _atom_site_label
 _atom_site_symmetry_multiplicity
 _atom_site_fract_x
 _atom_site_fract_y
 _atom_site_fract_z
 _atom_site_occupancy
  K  K0  1  0.423474  0.303885  0.436719  1
  K  K1  1  0.576526  0.696115  0.563281  1
  K  K2  1  0.696115  0.576526  0.063281  1
  K  K3  1  0.303885  0.423474  0.936719  1
  Cd  Cd4  1  0.095247  0.904753  0.250000  1
  Cd  Cd5  1  0.904753  0.095247  0.750000  1
  Se  Se6  1  0.987975  0.385486  0.330048  1
  Se  Se7  1  0.614514  0.012025  0.169952  1
  Se  Se8  1  0.012025  0.614514  0.669952  1
  Se  Se9  1  0.385486  0.987975  0.830048  1
  O  O10  1  0.144736  0.568776  0.246395  1
  O  O11  1  0.956658  0.772701  0.514206  1
  O  O12  1  0.965395  0.740222  0.794200  1
  O  O13  1  0.855264  0.431224  0.753605  1
  O  O14  1  0.772701  0.956658  0.014206  1
  O  O15  1  0.515745  0.251199  0.135595  1
  O  O16  1  0.748801  0.484255  0.364405  1
  O  O17  1  0.251199  0.515745  0.635595  1
  O  O18  1  0.227299  0.043342  0.985794  1
  O  O19  1  0.259778  0.034605  0.705800  1
  O  O20  1  0.431224  0.855264  0.253605  1
  O  O21  1  0.034605  0.259778  0.205800  1
  O  O22  1  0.568776  0.144736  0.746395  1
  O  O23  1  0.740222  0.965395  0.294200  1
  O  O24  1  0.484255  0.748801  0.864405  1
  O  O25  1  0.043342  0.227299  0.485794  1
