# generated using pymatgen
data_Nb3FeTc2Ge3
_symmetry_space_group_name_H-M   'P 1'
_cell_length_a   6.68817191
_cell_length_b   7.20921827
_cell_length_c   7.61209152
_cell_angle_alpha   118.26414783
_cell_angle_beta   116.06001676
_cell_angle_gamma   90.00000029
_symmetry_Int_Tables_number   1
_chemical_formula_structural   Nb3FeTc2Ge3
_chemical_formula_sum   'Nb6 Fe2 Tc4 Ge6'
_cell_volume   280.18646061
_cell_formula_units_Z   2
loop_
 _symmetry_equiv_pos_site_id
 _symmetry_equiv_pos_as_xyz
  1  'x, y, z'
loop_
 _atom_site_type_symbol
 _atom_site_label
 _atom_site_symmetry_multiplicity
 _atom_site_fract_x
 _atom_site_fract_y
 _atom_site_fract_z
 _atom_site_occupancy
  Nb  Nb0  1  0.897290  0.947012  0.394023  1
  Nb  Nb1  1  0.503267  0.052988  0.605977  1
  Nb  Nb2  1  0.499266  0.529856  0.559711  1
  Nb  Nb3  1  0.939555  0.470144  0.440289  1
  Nb  Nb4  1  0.091399  0.748258  0.996516  1
  Nb  Nb5  1  0.094882  0.251742  0.003484  1
  Fe  Fe6  1  0.754649  0.500000  0.000000  1
  Fe  Fe7  1  0.754649  0.000000  0.000000  1
  Tc  Tc8  1  0.251319  0.912457  0.751024  1
  Tc  Tc9  1  0.500296  0.087543  0.248976  1
  Tc  Tc10  1  0.251319  0.338566  0.751024  1
  Tc  Tc11  1  0.500296  0.661434  0.248976  1
  Ge  Ge12  1  0.162943  0.667818  0.328979  1
  Ge  Ge13  1  0.833964  0.332182  0.671021  1
  Ge  Ge14  1  0.162943  0.161160  0.328979  1
  Ge  Ge15  1  0.833964  0.838840  0.671021  1
  Ge  Ge16  1  0.484811  0.721813  0.943628  1
  Ge  Ge17  1  0.541184  0.278187  0.056372  1
