# generated using pymatgen
data_Ca2TmTh(ZnSn)4
_symmetry_space_group_name_H-M   'P 1'
_cell_length_a   4.50300300
_cell_length_b   4.50300326
_cell_length_c   17.02813400
_cell_angle_alpha   90.00000000
_cell_angle_beta   90.00000000
_cell_angle_gamma   120.00000545
_symmetry_Int_Tables_number   1
_chemical_formula_structural   Ca2TmTh(ZnSn)4
_chemical_formula_sum   'Ca2 Tm1 Th1 Zn4 Sn4'
_cell_volume   299.02132694
_cell_formula_units_Z   1
loop_
 _symmetry_equiv_pos_site_id
 _symmetry_equiv_pos_as_xyz
  1  'x, y, z'
loop_
 _atom_site_type_symbol
 _atom_site_label
 _atom_site_symmetry_multiplicity
 _atom_site_fract_x
 _atom_site_fract_y
 _atom_site_fract_z
 _atom_site_occupancy
  Ca  Ca0  1  0.000000  0.000000  0.994195  1
  Ca  Ca1  1  0.000000  0.000000  0.505805  1
  Tm  Tm2  1  0.000000  0.000000  0.750000  1
  Th  Th3  1  0.000000  0.000000  0.250000  1
  Zn  Zn4  1  0.333333  0.666667  0.152337  1
  Zn  Zn5  1  0.666667  0.333333  0.833242  1
  Zn  Zn6  1  0.666667  0.333333  0.666758  1
  Zn  Zn7  1  0.333333  0.666667  0.347663  1
  Sn  Sn8  1  0.333333  0.666667  0.623421  1
  Sn  Sn9  1  0.666667  0.333333  0.384022  1
  Sn  Sn10  1  0.666667  0.333333  0.115978  1
  Sn  Sn11  1  0.333333  0.666667  0.876579  1
