# generated using pymatgen
data_YbY19Cd6CoNi
_symmetry_space_group_name_H-M   'P 1'
_cell_length_a   9.68341300
_cell_length_b   9.68341255
_cell_length_c   9.74334500
_cell_angle_alpha   90.00000000
_cell_angle_beta   90.00000000
_cell_angle_gamma   119.99999129
_symmetry_Int_Tables_number   1
_chemical_formula_structural   YbY19Cd6CoNi
_chemical_formula_sum   'Yb1 Y19 Cd6 Co1 Ni1'
_cell_volume   791.21705548
_cell_formula_units_Z   1
loop_
 _symmetry_equiv_pos_site_id
 _symmetry_equiv_pos_as_xyz
  1  'x, y, z'
loop_
 _atom_site_type_symbol
 _atom_site_label
 _atom_site_symmetry_multiplicity
 _atom_site_fract_x
 _atom_site_fract_y
 _atom_site_fract_z
 _atom_site_occupancy
  Yb  Yb0  1  0.000000  0.000000  0.500027  1
  Y  Y1  1  0.000000  0.000000  0.000076  1
  Y  Y2  1  0.542982  0.457018  0.251144  1
  Y  Y3  1  0.542982  0.085963  0.251144  1
  Y  Y4  1  0.914037  0.457018  0.251144  1
  Y  Y5  1  0.456511  0.543489  0.748830  1
  Y  Y6  1  0.456511  0.913022  0.748830  1
  Y  Y7  1  0.086978  0.543489  0.748830  1
  Y  Y8  1  0.211436  0.788564  0.434299  1
  Y  Y9  1  0.211436  0.422874  0.434299  1
  Y  Y10  1  0.577126  0.788564  0.434299  1
  Y  Y11  1  0.789541  0.210459  0.564804  1
  Y  Y12  1  0.789541  0.579081  0.564804  1
  Y  Y13  1  0.420919  0.210459  0.564804  1
  Y  Y14  1  0.789564  0.210436  0.936808  1
  Y  Y15  1  0.789564  0.579128  0.936808  1
  Y  Y16  1  0.420872  0.210436  0.936808  1
  Y  Y17  1  0.211521  0.788479  0.064075  1
  Y  Y18  1  0.211521  0.423042  0.064075  1
  Y  Y19  1  0.576958  0.788479  0.064075  1
  Cd  Cd20  1  0.884080  0.115920  0.249967  1
  Cd  Cd21  1  0.884080  0.768162  0.249967  1
  Cd  Cd22  1  0.231838  0.115920  0.249967  1
  Cd  Cd23  1  0.116047  0.883953  0.749951  1
  Cd  Cd24  1  0.116047  0.232093  0.749951  1
  Cd  Cd25  1  0.767907  0.883953  0.749951  1
  Co  Co26  1  0.333333  0.666667  0.250765  1
  Ni  Ni27  1  0.666667  0.333333  0.749497  1
