# generated using pymatgen
data_BaDySi4N7
_symmetry_space_group_name_H-M   'P 1'
_cell_length_a   6.10172700
_cell_length_b   6.10172711
_cell_length_c   9.94112900
_cell_angle_alpha   90.00000000
_cell_angle_beta   90.00000000
_cell_angle_gamma   119.99999400
_symmetry_Int_Tables_number   1
_chemical_formula_structural   BaDySi4N7
_chemical_formula_sum   'Ba2 Dy2 Si8 N14'
_cell_volume   320.53238901
_cell_formula_units_Z   2
loop_
 _symmetry_equiv_pos_site_id
 _symmetry_equiv_pos_as_xyz
  1  'x, y, z'
loop_
 _atom_site_type_symbol
 _atom_site_label
 _atom_site_symmetry_multiplicity
 _atom_site_fract_x
 _atom_site_fract_y
 _atom_site_fract_z
 _atom_site_occupancy
  Ba  Ba0  1  0.333333  0.666667  0.362886  1
  Ba  Ba1  1  0.666667  0.333333  0.862886  1
  Dy  Dy2  1  0.333333  0.666667  0.736314  1
  Dy  Dy3  1  0.666667  0.333333  0.236314  1
  Si  Si4  1  0.825584  0.651166  0.546121  1
  Si  Si5  1  0.174416  0.825584  0.046121  1
  Si  Si6  1  0.651166  0.825584  0.046121  1
  Si  Si7  1  0.348834  0.174416  0.546121  1
  Si  Si8  1  0.825584  0.174416  0.546121  1
  Si  Si9  1  0.174416  0.348834  0.046121  1
  Si  Si10  1  0.000000  0.000000  0.814725  1
  Si  Si11  1  0.000000  0.000000  0.314725  1
  N  N12  1  0.000000  0.000000  0.623615  1
  N  N13  1  0.000000  0.000000  0.123615  1
  N  N14  1  0.152674  0.305349  0.873992  1
  N  N15  1  0.847326  0.152674  0.373992  1
  N  N16  1  0.305349  0.152674  0.373992  1
  N  N17  1  0.694651  0.847326  0.873992  1
  N  N18  1  0.152674  0.847326  0.873992  1
  N  N19  1  0.847326  0.694651  0.373992  1
  N  N20  1  0.975203  0.487602  0.598674  1
  N  N21  1  0.487602  0.975203  0.098674  1
  N  N22  1  0.487602  0.512398  0.098674  1
  N  N23  1  0.512398  0.487602  0.598674  1
  N  N24  1  0.024797  0.512398  0.098674  1
  N  N25  1  0.512398  0.024797  0.598674  1
