# generated using pymatgen
data_Y20CoHg6Pt
_symmetry_space_group_name_H-M   'P 1'
_cell_length_a   9.71052700
_cell_length_b   9.71052669
_cell_length_c   9.62244700
_cell_angle_alpha   90.00000000
_cell_angle_beta   90.00000000
_cell_angle_gamma   119.99999764
_symmetry_Int_Tables_number   1
_chemical_formula_structural   Y20CoHg6Pt
_chemical_formula_sum   'Y20 Co1 Hg6 Pt1'
_cell_volume   785.78142121
_cell_formula_units_Z   1
loop_
 _symmetry_equiv_pos_site_id
 _symmetry_equiv_pos_as_xyz
  1  'x, y, z'
loop_
 _atom_site_type_symbol
 _atom_site_label
 _atom_site_symmetry_multiplicity
 _atom_site_fract_x
 _atom_site_fract_y
 _atom_site_fract_z
 _atom_site_occupancy
  Y  Y0  1  0.000000  0.000000  0.500179  1
  Y  Y1  1  0.000000  0.000000  0.999821  1
  Y  Y2  1  0.543044  0.456956  0.250000  1
  Y  Y3  1  0.543044  0.086089  0.250000  1
  Y  Y4  1  0.913911  0.456956  0.250000  1
  Y  Y5  1  0.458046  0.541954  0.750000  1
  Y  Y6  1  0.458046  0.916092  0.750000  1
  Y  Y7  1  0.083908  0.541954  0.750000  1
  Y  Y8  1  0.206865  0.793135  0.440918  1
  Y  Y9  1  0.206865  0.413732  0.440918  1
  Y  Y10  1  0.586268  0.793135  0.440918  1
  Y  Y11  1  0.788615  0.211385  0.564731  1
  Y  Y12  1  0.788615  0.577229  0.564731  1
  Y  Y13  1  0.422771  0.211385  0.564731  1
  Y  Y14  1  0.788615  0.211385  0.935269  1
  Y  Y15  1  0.788615  0.577229  0.935269  1
  Y  Y16  1  0.422771  0.211385  0.935269  1
  Y  Y17  1  0.206865  0.793135  0.059082  1
  Y  Y18  1  0.206865  0.413732  0.059082  1
  Y  Y19  1  0.586268  0.793135  0.059082  1
  Co  Co20  1  0.666667  0.333333  0.750000  1
  Hg  Hg21  1  0.880293  0.119707  0.250000  1
  Hg  Hg22  1  0.880293  0.760586  0.250000  1
  Hg  Hg23  1  0.239414  0.119707  0.250000  1
  Hg  Hg24  1  0.119776  0.880224  0.750000  1
  Hg  Hg25  1  0.119776  0.239553  0.750000  1
  Hg  Hg26  1  0.760447  0.880224  0.750000  1
  Pt  Pt27  1  0.333333  0.666667  0.250000  1
