# generated using pymatgen
data_Hf6FeSn6Ir5
_symmetry_space_group_name_H-M   'P 1'
_cell_length_a   7.39434900
_cell_length_b   7.39434732
_cell_length_c   7.16430700
_cell_angle_alpha   90.00000000
_cell_angle_beta   90.00000000
_cell_angle_gamma   119.99999411
_symmetry_Int_Tables_number   1
_chemical_formula_structural   Hf6FeSn6Ir5
_chemical_formula_sum   'Hf6 Fe1 Sn6 Ir5'
_cell_volume   339.23811043
_cell_formula_units_Z   1
loop_
 _symmetry_equiv_pos_site_id
 _symmetry_equiv_pos_as_xyz
  1  'x, y, z'
loop_
 _atom_site_type_symbol
 _atom_site_label
 _atom_site_symmetry_multiplicity
 _atom_site_fract_x
 _atom_site_fract_y
 _atom_site_fract_z
 _atom_site_occupancy
  Hf  Hf0  1  0.016091  0.405767  0.750000  1
  Hf  Hf1  1  0.594233  0.610325  0.750000  1
  Hf  Hf2  1  0.389675  0.983909  0.750000  1
  Hf  Hf3  1  0.985534  0.382574  0.250000  1
  Hf  Hf4  1  0.617426  0.602959  0.250000  1
  Hf  Hf5  1  0.397041  0.014466  0.250000  1
  Fe  Fe6  1  0.000000  0.000000  0.250000  1
  Sn  Sn7  1  0.266029  0.265636  0.492276  1
  Sn  Sn8  1  0.999607  0.733971  0.492276  1
  Sn  Sn9  1  0.999607  0.733971  0.007724  1
  Sn  Sn10  1  0.734364  0.000393  0.492276  1
  Sn  Sn11  1  0.734364  0.000393  0.007724  1
  Sn  Sn12  1  0.266029  0.265636  0.007724  1
  Ir  Ir13  1  0.333333  0.666667  0.472342  1
  Ir  Ir14  1  0.666667  0.333333  0.529533  1
  Ir  Ir15  1  0.333333  0.666667  0.027658  1
  Ir  Ir16  1  0.000000  0.000000  0.750000  1
  Ir  Ir17  1  0.666667  0.333333  0.970467  1
