# generated using pymatgen
data_Er3V(Co4P3)2
_symmetry_space_group_name_H-M   'P 1'
_cell_length_a   3.67556600
_cell_length_b   10.52652700
_cell_length_c   12.18712400
_cell_angle_alpha   90.00000000
_cell_angle_beta   90.00000000
_cell_angle_gamma   90.00000000
_symmetry_Int_Tables_number   1
_chemical_formula_structural   Er3V(Co4P3)2
_chemical_formula_sum   'Er6 V2 Co16 P12'
_cell_volume   471.53134121
_cell_formula_units_Z   2
loop_
 _symmetry_equiv_pos_site_id
 _symmetry_equiv_pos_as_xyz
  1  'x, y, z'
loop_
 _atom_site_type_symbol
 _atom_site_label
 _atom_site_symmetry_multiplicity
 _atom_site_fract_x
 _atom_site_fract_y
 _atom_site_fract_z
 _atom_site_occupancy
  Er  Er0  1  0.750000  0.250000  0.476499  1
  Er  Er1  1  0.250000  0.750000  0.523501  1
  Er  Er2  1  0.250000  0.931226  0.795757  1
  Er  Er3  1  0.250000  0.568774  0.795757  1
  Er  Er4  1  0.750000  0.068774  0.204243  1
  Er  Er5  1  0.750000  0.431226  0.204243  1
  V  V6  1  0.250000  0.250000  0.845700  1
  V  V7  1  0.750000  0.750000  0.154300  1
  Co  Co8  1  0.250000  0.250000  0.298266  1
  Co  Co9  1  0.750000  0.750000  0.701734  1
  Co  Co10  1  0.750000  0.250000  0.013563  1
  Co  Co11  1  0.250000  0.750000  0.986437  1
  Co  Co12  1  0.250000  0.417596  0.007291  1
  Co  Co13  1  0.250000  0.082404  0.007291  1
  Co  Co14  1  0.750000  0.582404  0.992709  1
  Co  Co15  1  0.750000  0.917596  0.992709  1
  Co  Co16  1  0.250000  0.453943  0.568756  1
  Co  Co17  1  0.250000  0.046057  0.568756  1
  Co  Co18  1  0.750000  0.546057  0.431244  1
  Co  Co19  1  0.750000  0.953943  0.431244  1
  Co  Co20  1  0.250000  0.871752  0.292518  1
  Co  Co21  1  0.250000  0.628248  0.292518  1
  Co  Co22  1  0.750000  0.128248  0.707482  1
  Co  Co23  1  0.750000  0.371752  0.707482  1
  P  P24  1  0.250000  0.250000  0.118601  1
  P  P25  1  0.750000  0.750000  0.881399  1
  P  P26  1  0.250000  0.250000  0.652129  1
  P  P27  1  0.750000  0.750000  0.347871  1
  P  P28  1  0.250000  0.438073  0.383779  1
  P  P29  1  0.250000  0.061927  0.383779  1
  P  P30  1  0.750000  0.561927  0.616221  1
  P  P31  1  0.750000  0.938073  0.616221  1
  P  P32  1  0.250000  0.904308  0.108411  1
  P  P33  1  0.250000  0.595692  0.108411  1
  P  P34  1  0.750000  0.095692  0.891589  1
  P  P35  1  0.750000  0.404308  0.891589  1
