# generated using pymatgen
data_TaCu2Rh3S8
_symmetry_space_group_name_H-M   'P 1'
_cell_length_a   6.82653444
_cell_length_b   6.82653401
_cell_length_c   6.86534232
_cell_angle_alpha   63.40884661
_cell_angle_beta   63.40885264
_cell_angle_gamma   63.83085613
_symmetry_Int_Tables_number   1
_chemical_formula_structural   TaCu2Rh3S8
_chemical_formula_sum   'Ta1 Cu2 Rh3 S8'
_cell_volume   243.97078116
_cell_formula_units_Z   1
loop_
 _symmetry_equiv_pos_site_id
 _symmetry_equiv_pos_as_xyz
  1  'x, y, z'
loop_
 _atom_site_type_symbol
 _atom_site_label
 _atom_site_symmetry_multiplicity
 _atom_site_fract_x
 _atom_site_fract_y
 _atom_site_fract_z
 _atom_site_occupancy
  Ta  Ta0  1  0.342895  0.657105  0.000000  1
  Cu  Cu1  1  0.736609  0.017262  0.379531  1
  Cu  Cu2  1  0.982738  0.263391  0.620469  1
  Rh  Rh3  1  0.899129  0.620733  0.999481  1
  Rh  Rh4  1  0.379267  0.100871  0.000519  1
  Rh  Rh5  1  0.381291  0.618709  0.500000  1
  S  S6  1  0.133055  0.872345  0.735303  1
  S  S7  1  0.146267  0.360324  0.228462  1
  S  S8  1  0.592390  0.373211  0.765621  1
  S  S9  1  0.140759  0.378519  0.761370  1
  S  S10  1  0.626789  0.407610  0.234379  1
  S  S11  1  0.621481  0.859241  0.238630  1
  S  S12  1  0.127655  0.866945  0.264697  1
  S  S13  1  0.639676  0.853733  0.771538  1
