# generated using pymatgen
data_Zr10TcBi4Sb
_symmetry_space_group_name_H-M   'P 1'
_cell_length_a   5.63941748
_cell_length_b   8.53985353
_cell_length_c   8.53985300
_cell_angle_alpha   96.25886084
_cell_angle_beta   109.27984253
_cell_angle_gamma   70.72014939
_symmetry_Int_Tables_number   1
_chemical_formula_structural   Zr10TcBi4Sb
_chemical_formula_sum   'Zr10 Tc1 Bi4 Sb1'
_cell_volume   366.43995066
_cell_formula_units_Z   1
loop_
 _symmetry_equiv_pos_site_id
 _symmetry_equiv_pos_as_xyz
  1  'x, y, z'
loop_
 _atom_site_type_symbol
 _atom_site_label
 _atom_site_symmetry_multiplicity
 _atom_site_fract_x
 _atom_site_fract_y
 _atom_site_fract_z
 _atom_site_occupancy
  Zr  Zr0  1  0.418469  0.862204  0.714472  1
  Zr  Zr1  1  0.566203  0.137796  0.285528  1
  Zr  Zr2  1  0.933797  0.285528  0.137796  1
  Zr  Zr3  1  0.081531  0.714472  0.862204  1
  Zr  Zr4  1  0.703998  0.714472  0.137796  1
  Zr  Zr5  1  0.280675  0.285528  0.862204  1
  Zr  Zr6  1  0.796002  0.137796  0.714472  1
  Zr  Zr7  1  0.219325  0.862204  0.285528  1
  Zr  Zr8  1  0.250000  0.500000  0.500000  1
  Zr  Zr9  1  0.750000  0.500000  0.500000  1
  Tc  Tc10  1  0.250000  0.000000  0.000000  1
  Bi  Bi11  1  0.335097  0.500000  0.170193  1
  Bi  Bi12  1  0.664903  0.500000  0.829807  1
  Bi  Bi13  1  0.835097  0.829807  0.500000  1
  Bi  Bi14  1  0.164903  0.170193  0.500000  1
  Sb  Sb15  1  0.750000  0.000000  0.000000  1
