# generated using pymatgen
data_Er5Tm7GaCo4Ru
_symmetry_space_group_name_H-M   'P 1'
_cell_length_a   8.12112481
_cell_length_b   8.12018487
_cell_length_c   8.12112523
_cell_angle_alpha   106.60748482
_cell_angle_beta   110.81221025
_cell_angle_gamma   111.03602716
_symmetry_Int_Tables_number   1
_chemical_formula_structural   Er5Tm7GaCo4Ru
_chemical_formula_sum   'Er5 Tm7 Ga1 Co4 Ru1'
_cell_volume   411.47187213
_cell_formula_units_Z   1
loop_
 _symmetry_equiv_pos_site_id
 _symmetry_equiv_pos_as_xyz
  1  'x, y, z'
loop_
 _atom_site_type_symbol
 _atom_site_label
 _atom_site_symmetry_multiplicity
 _atom_site_fract_x
 _atom_site_fract_y
 _atom_site_fract_z
 _atom_site_occupancy
  Er  Er0  1  0.197128  0.513493  0.316365  1
  Er  Er1  1  0.596480  0.779459  0.817145  1
  Er  Er2  1  0.962312  0.779459  0.182979  1
  Er  Er3  1  0.037452  0.220462  0.816650  1
  Er  Er4  1  0.403812  0.220462  0.183012  1
  Tm  Tm5  1  0.692916  0.273317  0.966476  1
  Tm  Tm6  1  0.306847  0.726617  0.033223  1
  Tm  Tm7  1  0.693394  0.726617  0.419772  1
  Tm  Tm8  1  0.306840  0.273317  0.580399  1
  Tm  Tm9  1  0.803192  0.119773  0.316581  1
  Tm  Tm10  1  0.803347  0.486829  0.683482  1
  Tm  Tm11  1  0.196602  0.880263  0.683661  1
  Ga  Ga12  1  0.500121  0.000216  0.500096  1
  Co  Co13  1  0.873213  0.500015  0.373538  1
  Co  Co14  1  0.126478  0.500015  0.626803  1
  Co  Co15  1  0.999905  0.113177  0.113272  1
  Co  Co16  1  0.000022  0.886560  0.886538  1
  Ru  Ru17  1  0.499939  0.499948  0.000009  1
