# generated using pymatgen
data_Tb4YIn3Se
_symmetry_space_group_name_H-M   'P 1'
_cell_length_a   9.19404600
_cell_length_b   9.19423082
_cell_length_c   6.65256000
_cell_angle_alpha   90.00111548
_cell_angle_beta   89.99943913
_cell_angle_gamma   120.00066626
_symmetry_Int_Tables_number   1
_chemical_formula_structural   Tb4YIn3Se
_chemical_formula_sum   'Tb8 Y2 In6 Se2'
_cell_volume   487.01079840
_cell_formula_units_Z   2
loop_
 _symmetry_equiv_pos_site_id
 _symmetry_equiv_pos_as_xyz
  1  'x, y, z'
loop_
 _atom_site_type_symbol
 _atom_site_label
 _atom_site_symmetry_multiplicity
 _atom_site_fract_x
 _atom_site_fract_y
 _atom_site_fract_z
 _atom_site_occupancy
  Tb  Tb0  1  0.747930  0.747992  0.249788  1
  Tb  Tb1  1  0.000000  0.747784  0.750225  1
  Tb  Tb2  1  0.747930  0.999940  0.750212  1
  Tb  Tb3  1  0.252070  0.252008  0.750212  1
  Tb  Tb4  1  0.000000  0.252216  0.249775  1
  Tb  Tb5  1  0.252070  0.000060  0.249788  1
  Tb  Tb6  1  0.333292  0.666646  0.000000  1
  Tb  Tb7  1  0.666708  0.333354  0.000000  1
  Y  Y8  1  0.333202  0.666602  0.500000  1
  Y  Y9  1  0.666798  0.333398  0.500000  1
  In  In10  1  0.398376  0.999927  0.749130  1
  In  In11  1  0.000000  0.601313  0.250962  1
  In  In12  1  0.601624  0.000073  0.250870  1
  In  In13  1  0.000000  0.398687  0.749038  1
  In  In14  1  0.398376  0.398450  0.250870  1
  In  In15  1  0.601624  0.601550  0.749130  1
  Se  Se16  1  0.000000  0.000000  0.500000  1
  Se  Se17  1  0.000000  0.000000  0.000000  1
