# generated using pymatgen
data_Cs6TbNpI12
_symmetry_space_group_name_H-M   'P 1'
_cell_length_a   10.81056058
_cell_length_b   10.73941158
_cell_length_c   8.92154100
_cell_angle_alpha   90.00000000
_cell_angle_beta   90.00000000
_cell_angle_gamma   89.22803223
_symmetry_Int_Tables_number   1
_chemical_formula_structural   Cs6TbNpI12
_chemical_formula_sum   'Cs6 Tb1 Np1 I12'
_cell_volume   1035.68850697
_cell_formula_units_Z   1
loop_
 _symmetry_equiv_pos_site_id
 _symmetry_equiv_pos_as_xyz
  1  'x, y, z'
loop_
 _atom_site_type_symbol
 _atom_site_label
 _atom_site_symmetry_multiplicity
 _atom_site_fract_x
 _atom_site_fract_y
 _atom_site_fract_z
 _atom_site_occupancy
  Cs  Cs0  1  0.000000  0.000000  0.500000  1
  Cs  Cs1  1  0.000000  0.000000  0.000000  1
  Cs  Cs2  1  0.232977  0.588039  0.500000  1
  Cs  Cs3  1  0.767023  0.411961  0.500000  1
  Cs  Cs4  1  0.413155  0.233098  0.000000  1
  Cs  Cs5  1  0.586845  0.766902  0.000000  1
  Tb  Tb6  1  0.000000  0.500000  0.000000  1
  Np  Np7  1  0.500000  0.000000  0.500000  1
  I  I8  1  0.696191  0.059066  0.746649  1
  I  I9  1  0.303809  0.940934  0.746649  1
  I  I10  1  0.941507  0.694635  0.243307  1
  I  I11  1  0.058493  0.305365  0.243307  1
  I  I12  1  0.303809  0.940934  0.253351  1
  I  I13  1  0.696191  0.059066  0.253351  1
  I  I14  1  0.058493  0.305365  0.756693  1
  I  I15  1  0.941507  0.694635  0.756693  1
  I  I16  1  0.570275  0.718140  0.500000  1
  I  I17  1  0.429725  0.281860  0.500000  1
  I  I18  1  0.272156  0.568977  0.000000  1
  I  I19  1  0.727844  0.431023  0.000000  1
