# generated using pymatgen
data_Li2HoTm5(Co4P3)4
_symmetry_space_group_name_H-M   'P 1'
_cell_length_a   3.69549800
_cell_length_b   10.53239200
_cell_length_c   12.12135600
_cell_angle_alpha   90.00000000
_cell_angle_beta   90.00000000
_cell_angle_gamma   90.00000000
_symmetry_Int_Tables_number   1
_chemical_formula_structural   Li2HoTm5(Co4P3)4
_chemical_formula_sum   'Li2 Ho1 Tm5 Co16 P12'
_cell_volume   471.79267370
_cell_formula_units_Z   1
loop_
 _symmetry_equiv_pos_site_id
 _symmetry_equiv_pos_as_xyz
  1  'x, y, z'
loop_
 _atom_site_type_symbol
 _atom_site_label
 _atom_site_symmetry_multiplicity
 _atom_site_fract_x
 _atom_site_fract_y
 _atom_site_fract_z
 _atom_site_occupancy
  Li  Li0  1  0.500000  0.500000  0.153194  1
  Li  Li1  1  0.000000  0.000000  0.846370  1
  Ho  Ho2  1  0.000000  0.500000  0.523418  1
  Tm  Tm3  1  0.500000  0.000000  0.476439  1
  Tm  Tm4  1  0.500000  0.820212  0.206164  1
  Tm  Tm5  1  0.500000  0.179788  0.206164  1
  Tm  Tm6  1  0.000000  0.679812  0.794022  1
  Tm  Tm7  1  0.000000  0.320188  0.794022  1
  Co  Co8  1  0.500000  0.500000  0.704612  1
  Co  Co9  1  0.000000  0.000000  0.296056  1
  Co  Co10  1  0.000000  0.500000  0.987188  1
  Co  Co11  1  0.500000  0.000000  0.013030  1
  Co  Co12  1  0.500000  0.332705  0.996907  1
  Co  Co13  1  0.500000  0.667295  0.996907  1
  Co  Co14  1  0.000000  0.167151  0.003166  1
  Co  Co15  1  0.000000  0.832849  0.003166  1
  Co  Co16  1  0.500000  0.295965  0.431069  1
  Co  Co17  1  0.500000  0.704035  0.431069  1
  Co  Co18  1  0.000000  0.202937  0.568823  1
  Co  Co19  1  0.000000  0.797063  0.568823  1
  Co  Co20  1  0.500000  0.878217  0.706410  1
  Co  Co21  1  0.500000  0.121783  0.706410  1
  Co  Co22  1  0.000000  0.622097  0.293393  1
  Co  Co23  1  0.000000  0.377903  0.293393  1
  P  P24  1  0.500000  0.500000  0.884598  1
  P  P25  1  0.000000  0.000000  0.115785  1
  P  P26  1  0.500000  0.500000  0.346322  1
  P  P27  1  0.000000  0.000000  0.652699  1
  P  P28  1  0.500000  0.310273  0.616728  1
  P  P29  1  0.500000  0.689727  0.616728  1
  P  P30  1  0.000000  0.189050  0.383467  1
  P  P31  1  0.000000  0.810950  0.383467  1
  P  P32  1  0.500000  0.842724  0.892483  1
  P  P33  1  0.500000  0.157276  0.892483  1
  P  P34  1  0.000000  0.657460  0.107514  1
  P  P35  1  0.000000  0.342540  0.107514  1
