# generated using pymatgen
data_GdLu15(Ga3Co)2
_symmetry_space_group_name_H-M   'P 1'
_cell_length_a   9.80309700
_cell_length_b   9.80309672
_cell_length_c   6.81544300
_cell_angle_alpha   90.00000000
_cell_angle_beta   90.00000000
_cell_angle_gamma   119.99999758
_symmetry_Int_Tables_number   1
_chemical_formula_structural   GdLu15(Ga3Co)2
_chemical_formula_sum   'Gd1 Lu15 Ga6 Co2'
_cell_volume   567.21971799
_cell_formula_units_Z   1
loop_
 _symmetry_equiv_pos_site_id
 _symmetry_equiv_pos_as_xyz
  1  'x, y, z'
loop_
 _atom_site_type_symbol
 _atom_site_label
 _atom_site_symmetry_multiplicity
 _atom_site_fract_x
 _atom_site_fract_y
 _atom_site_fract_z
 _atom_site_occupancy
  Gd  Gd0  1  0.000000  0.000000  0.269726  1
  Lu  Lu1  1  0.825449  0.650899  0.490819  1
  Lu  Lu2  1  0.349101  0.174551  0.490819  1
  Lu  Lu3  1  0.825449  0.174551  0.490819  1
  Lu  Lu4  1  0.174587  0.349172  0.987824  1
  Lu  Lu5  1  0.650828  0.825413  0.987824  1
  Lu  Lu6  1  0.174587  0.825413  0.987824  1
  Lu  Lu7  1  0.666667  0.333333  0.171334  1
  Lu  Lu8  1  0.333333  0.666667  0.673223  1
  Lu  Lu9  1  0.536341  0.072679  0.792650  1
  Lu  Lu10  1  0.927321  0.463659  0.792650  1
  Lu  Lu11  1  0.536341  0.463659  0.792650  1
  Lu  Lu12  1  0.463613  0.927226  0.292629  1
  Lu  Lu13  1  0.072774  0.536387  0.292629  1
  Lu  Lu14  1  0.463613  0.536387  0.292629  1
  Lu  Lu15  1  0.000000  0.000000  0.768085  1
  Ga  Ga16  1  0.835832  0.671666  0.038004  1
  Ga  Ga17  1  0.328334  0.164168  0.038004  1
  Ga  Ga18  1  0.835832  0.164168  0.038004  1
  Ga  Ga19  1  0.164064  0.328125  0.541737  1
  Ga  Ga20  1  0.671875  0.835936  0.541737  1
  Ga  Ga21  1  0.164064  0.835936  0.541737  1
  Co  Co22  1  0.666667  0.333333  0.555479  1
  Co  Co23  1  0.333333  0.666667  0.057237  1
