# generated using pymatgen
data_Fe4SeS3
_symmetry_space_group_name_H-M   'P 1'
_cell_length_a   6.66011164
_cell_length_b   6.66011190
_cell_length_c   6.66011165
_cell_angle_alpha   134.78701346
_cell_angle_beta   134.78701236
_cell_angle_gamma   65.86131201
_symmetry_Int_Tables_number   1
_chemical_formula_structural   Fe4SeS3
_chemical_formula_sum   'Fe4 Se1 S3'
_cell_volume   146.55595657
_cell_formula_units_Z   1
loop_
 _symmetry_equiv_pos_site_id
 _symmetry_equiv_pos_as_xyz
  1  'x, y, z'
loop_
 _atom_site_type_symbol
 _atom_site_label
 _atom_site_symmetry_multiplicity
 _atom_site_fract_x
 _atom_site_fract_y
 _atom_site_fract_z
 _atom_site_occupancy
  Fe  Fe0  1  0.250882  0.250882  0.496037  1
  Fe  Fe1  1  0.754846  0.754846  0.503963  1
  Fe  Fe2  1  0.250882  0.754846  0.000000  1
  Fe  Fe3  1  0.754846  0.250882  0.000000  1
  Se  Se4  1  0.376545  0.376545  0.000000  1
  S  S5  1  0.894687  0.894687  0.000000  1
  S  S6  1  0.608656  0.108656  0.500000  1
  S  S7  1  0.108656  0.608656  0.500000  1
