# generated using pymatgen
data_Ca2Ho4Si24OsRu7
_symmetry_space_group_name_H-M   'P 1'
_cell_length_a   10.13938547
_cell_length_b   10.13938630
_cell_length_c   8.12498506
_cell_angle_alpha   90.00080992
_cell_angle_beta   90.00080577
_cell_angle_gamma   132.68078767
_symmetry_Int_Tables_number   1
_chemical_formula_structural   Ca2Ho4Si24OsRu7
_chemical_formula_sum   'Ca2 Ho4 Si24 Os1 Ru7'
_cell_volume   614.06887162
_cell_formula_units_Z   1
loop_
 _symmetry_equiv_pos_site_id
 _symmetry_equiv_pos_as_xyz
  1  'x, y, z'
loop_
 _atom_site_type_symbol
 _atom_site_label
 _atom_site_symmetry_multiplicity
 _atom_site_fract_x
 _atom_site_fract_y
 _atom_site_fract_z
 _atom_site_occupancy
  Ca  Ca0  1  0.499954  0.500046  0.500000  1
  Ca  Ca1  1  0.000035  0.999965  0.000000  1
  Ho  Ho2  1  0.501195  0.001268  0.749982  1
  Ho  Ho3  1  0.998732  0.498805  0.250018  1
  Ho  Ho4  1  0.497829  0.997951  0.249974  1
  Ho  Ho5  1  0.002049  0.502171  0.750026  1
  Si  Si6  1  0.796895  0.203105  0.500000  1
  Si  Si7  1  0.296200  0.703800  0.000000  1
  Si  Si8  1  0.203802  0.796198  0.500000  1
  Si  Si9  1  0.703699  0.296301  0.000000  1
  Si  Si10  1  0.332656  0.333384  0.832678  1
  Si  Si11  1  0.666616  0.667344  0.167322  1
  Si  Si12  1  0.167594  0.166476  0.332708  1
  Si  Si13  1  0.833524  0.832406  0.667292  1
  Si  Si14  1  0.123093  0.890228  0.730039  1
  Si  Si15  1  0.109772  0.876907  0.269961  1
  Si  Si16  1  0.609287  0.377215  0.229327  1
  Si  Si17  1  0.622785  0.390713  0.770673  1
  Si  Si18  1  0.876137  0.108493  0.269196  1
  Si  Si19  1  0.891507  0.123863  0.730804  1
  Si  Si20  1  0.390503  0.623284  0.770122  1
  Si  Si21  1  0.376716  0.609497  0.229878  1
  Si  Si22  1  0.345750  0.113722  0.506475  1
  Si  Si23  1  0.886278  0.654250  0.493525  1
  Si  Si24  1  0.385700  0.153116  0.006667  1
  Si  Si25  1  0.846884  0.614300  0.993333  1
  Si  Si26  1  0.652601  0.885084  0.492139  1
  Si  Si27  1  0.114916  0.347399  0.507861  1
  Si  Si28  1  0.614170  0.846542  0.993499  1
  Si  Si29  1  0.153458  0.385830  0.006501  1
  Os  Os30  1  0.671868  0.328132  0.500000  1
  Ru  Ru31  1  0.171525  0.828475  0.000000  1
  Ru  Ru32  1  0.328462  0.671538  0.500000  1
  Ru  Ru33  1  0.828129  0.171871  0.000000  1
  Ru  Ru34  1  0.125911  0.126154  0.626128  1
  Ru  Ru35  1  0.873846  0.874089  0.373872  1
  Ru  Ru36  1  0.373805  0.373885  0.126178  1
  Ru  Ru37  1  0.626115  0.626195  0.873822  1
