# generated using pymatgen
data_Sm8Si12AgAu3
_symmetry_space_group_name_H-M   'P 1'
_cell_length_a   11.07732872
_cell_length_b   9.41204597
_cell_length_c   8.26587842
_cell_angle_alpha   77.30128070
_cell_angle_beta   56.00805924
_cell_angle_gamma   46.71442891
_symmetry_Int_Tables_number   1
_chemical_formula_structural   Sm8Si12AgAu3
_chemical_formula_sum   'Sm8 Si12 Ag1 Au3'
_cell_volume   500.69408015
_cell_formula_units_Z   1
loop_
 _symmetry_equiv_pos_site_id
 _symmetry_equiv_pos_as_xyz
  1  'x, y, z'
loop_
 _atom_site_type_symbol
 _atom_site_label
 _atom_site_symmetry_multiplicity
 _atom_site_fract_x
 _atom_site_fract_y
 _atom_site_fract_z
 _atom_site_occupancy
  Sm  Sm0  1  0.125512  0.124225  0.373269  1
  Sm  Sm1  1  0.875794  0.874122  0.126190  1
  Sm  Sm2  1  0.126190  0.123896  0.875794  1
  Sm  Sm3  1  0.373269  0.376995  0.125512  1
  Sm  Sm4  1  0.620724  0.621656  0.379559  1
  Sm  Sm5  1  0.379559  0.378061  0.620724  1
  Sm  Sm6  1  0.627931  0.629169  0.871343  1
  Sm  Sm7  1  0.871343  0.871557  0.627931  1
  Si  Si8  1  0.335838  0.663784  0.827993  1
  Si  Si9  1  0.172362  0.827749  0.663768  1
  Si  Si10  1  0.827993  0.172383  0.335838  1
  Si  Si11  1  0.663768  0.336120  0.172362  1
  Si  Si12  1  0.915307  0.587238  0.420664  1
  Si  Si13  1  0.076269  0.419650  0.588136  1
  Si  Si14  1  0.420664  0.076791  0.915307  1
  Si  Si15  1  0.913770  0.586230  0.913770  1
  Si  Si16  1  0.663482  0.336518  0.663482  1
  Si  Si17  1  0.336352  0.663648  0.336352  1
  Si  Si18  1  0.586094  0.913906  0.586094  1
  Si  Si19  1  0.588136  0.915946  0.076269  1
  Ag  Ag20  1  0.833145  0.166855  0.833145  1
  Au  Au21  1  0.082902  0.417098  0.082902  1
  Au  Au22  1  0.166754  0.833246  0.166754  1
  Au  Au23  1  0.416839  0.083161  0.416839  1
