# generated using pymatgen
data_DyTi2ZnAu3
_symmetry_space_group_name_H-M   'P 1'
_cell_length_a   5.65100976
_cell_length_b   5.65101020
_cell_length_c   5.62106025
_cell_angle_alpha   101.84399277
_cell_angle_beta   101.84398835
_cell_angle_gamma   126.27636137
_symmetry_Int_Tables_number   1
_chemical_formula_structural   DyTi2ZnAu3
_chemical_formula_sum   'Dy1 Ti2 Zn1 Au3'
_cell_volume   128.91850634
_cell_formula_units_Z   1
loop_
 _symmetry_equiv_pos_site_id
 _symmetry_equiv_pos_as_xyz
  1  'x, y, z'
loop_
 _atom_site_type_symbol
 _atom_site_label
 _atom_site_symmetry_multiplicity
 _atom_site_fract_x
 _atom_site_fract_y
 _atom_site_fract_z
 _atom_site_occupancy
  Dy  Dy0  1  0.002784  0.997216  0.000000  1
  Ti  Ti1  1  0.248509  0.751491  0.500000  1
  Ti  Ti2  1  0.748509  0.251491  0.500000  1
  Zn  Zn3  1  0.305642  0.694358  0.000000  1
  Au  Au4  1  0.307351  0.317261  0.624614  1
  Au  Au5  1  0.682739  0.692649  0.375386  1
  Au  Au6  1  0.704470  0.295530  0.000000  1
