# generated using pymatgen
data_Lu10Si6H
_symmetry_space_group_name_H-M   'P 1'
_cell_length_a   8.25136800
_cell_length_b   8.25136860
_cell_length_c   6.11420100
_cell_angle_alpha   90.00000000
_cell_angle_beta   90.00000000
_cell_angle_gamma   119.99999758
_symmetry_Int_Tables_number   1
_chemical_formula_structural   Lu10Si6H
_chemical_formula_sum   'Lu10 Si6 H1'
_cell_volume   360.51413632
_cell_formula_units_Z   1
loop_
 _symmetry_equiv_pos_site_id
 _symmetry_equiv_pos_as_xyz
  1  'x, y, z'
loop_
 _atom_site_type_symbol
 _atom_site_label
 _atom_site_symmetry_multiplicity
 _atom_site_fract_x
 _atom_site_fract_y
 _atom_site_fract_z
 _atom_site_occupancy
  Lu  Lu0  1  0.333333  0.666667  0.500000  1
  Lu  Lu1  1  0.666667  0.333333  0.500000  1
  Lu  Lu2  1  0.666667  0.333333  0.000000  1
  Lu  Lu3  1  0.333333  0.666667  0.000000  1
  Lu  Lu4  1  0.000000  0.753324  0.247670  1
  Lu  Lu5  1  0.246676  0.246676  0.247670  1
  Lu  Lu6  1  0.753324  0.000000  0.247670  1
  Lu  Lu7  1  0.000000  0.246676  0.752330  1
  Lu  Lu8  1  0.753324  0.753324  0.752330  1
  Lu  Lu9  1  0.246676  0.000000  0.752330  1
  Si  Si10  1  0.000000  0.391489  0.250302  1
  Si  Si11  1  0.608511  0.608511  0.250302  1
  Si  Si12  1  0.391489  0.000000  0.250302  1
  Si  Si13  1  0.000000  0.608511  0.749698  1
  Si  Si14  1  0.391489  0.391489  0.749698  1
  Si  Si15  1  0.608511  0.000000  0.749698  1
  H  H16  1  0.000000  0.000000  0.500000  1
