# generated using pymatgen
data_LaThCo3B8Os5
_symmetry_space_group_name_H-M   'P 1'
_cell_length_a   7.48365977
_cell_length_b   7.38956506
_cell_length_c   3.96069529
_cell_angle_alpha   90.07373068
_cell_angle_beta   89.74628032
_cell_angle_gamma   89.41524755
_symmetry_Int_Tables_number   1
_chemical_formula_structural   LaThCo3B8Os5
_chemical_formula_sum   'La1 Th1 Co3 B8 Os5'
_cell_volume   219.01662504
_cell_formula_units_Z   1
loop_
 _symmetry_equiv_pos_site_id
 _symmetry_equiv_pos_as_xyz
  1  'x, y, z'
loop_
 _atom_site_type_symbol
 _atom_site_label
 _atom_site_symmetry_multiplicity
 _atom_site_fract_x
 _atom_site_fract_y
 _atom_site_fract_z
 _atom_site_occupancy
  La  La0  1  0.249845  0.250263  0.303917  1
  Th  Th1  1  0.756484  0.749327  0.822947  1
  Co  Co2  1  0.376304  0.629940  0.137250  1
  Co  Co3  1  0.109896  0.857910  0.129166  1
  Co  Co4  1  0.130613  0.618646  0.630435  1
  B  B5  1  0.919867  0.017293  0.349216  1
  B  B6  1  0.576198  0.480847  0.350703  1
  B  B7  1  0.522237  0.084557  0.852877  1
  B  B8  1  0.980653  0.420514  0.849020  1
  B  B9  1  0.088855  0.940069  0.631370  1
  B  B10  1  0.408168  0.563420  0.635778  1
  B  B11  1  0.450086  0.911978  0.135327  1
  B  B12  1  0.061263  0.589834  0.133102  1
  Os  Os13  1  0.362859  0.871657  0.633898  1
  Os  Os14  1  0.597936  0.363465  0.850920  1
  Os  Os15  1  0.904619  0.142437  0.850891  1
  Os  Os16  1  0.857060  0.409905  0.351615  1
  Os  Os17  1  0.647056  0.097938  0.351568  1
