# generated using pymatgen
data_Pr16Y4Si15Br
_symmetry_space_group_name_H-M   'P 1'
_cell_length_a   7.91458428
_cell_length_b   7.84052175
_cell_length_c   15.25057018
_cell_angle_alpha   89.68107416
_cell_angle_beta   89.12384262
_cell_angle_gamma   90.31761356
_symmetry_Int_Tables_number   1
_chemical_formula_structural   Pr16Y4Si15Br
_chemical_formula_sum   'Pr16 Y4 Si15 Br1'
_cell_volume   946.22575367
_cell_formula_units_Z   1
loop_
 _symmetry_equiv_pos_site_id
 _symmetry_equiv_pos_as_xyz
  1  'x, y, z'
loop_
 _atom_site_type_symbol
 _atom_site_label
 _atom_site_symmetry_multiplicity
 _atom_site_fract_x
 _atom_site_fract_y
 _atom_site_fract_z
 _atom_site_occupancy
  Pr  Pr0  1  0.378890  0.006444  0.443245  1
  Pr  Pr1  1  0.495256  0.865450  0.699934  1
  Pr  Pr2  1  0.510457  0.122809  0.197083  1
  Pr  Pr3  1  0.872478  0.484564  0.299686  1
  Pr  Pr4  1  0.124282  0.519850  0.803997  1
  Pr  Pr5  1  0.635587  0.984589  0.953090  1
  Pr  Pr6  1  0.998007  0.381305  0.543658  1
  Pr  Pr7  1  0.992511  0.624274  0.052709  1
  Pr  Pr8  1  0.141129  0.986887  0.874963  1
  Pr  Pr9  1  0.521613  0.630078  0.126522  1
  Pr  Pr10  1  0.477647  0.368712  0.631563  1
  Pr  Pr11  1  0.636465  0.524918  0.876276  1
  Pr  Pr12  1  0.367044  0.474749  0.374352  1
  Pr  Pr13  1  0.870768  0.022039  0.377408  1
  Pr  Pr14  1  0.981449  0.127121  0.123087  1
  Pr  Pr15  1  0.015612  0.863831  0.619502  1
  Y  Y16  1  0.313902  0.310823  0.999338  1
  Y  Y17  1  0.186352  0.808793  0.249466  1
  Y  Y18  1  0.794952  0.189710  0.753249  1
  Y  Y19  1  0.684082  0.687451  0.498598  1
  Si  Si20  1  0.331647  0.694456  0.952866  1
  Si  Si21  1  0.662601  0.308639  0.455918  1
  Si  Si22  1  0.698373  0.333210  0.048626  1
  Si  Si23  1  0.308573  0.669029  0.546958  1
  Si  Si24  1  0.808147  0.830058  0.205157  1
  Si  Si25  1  0.168972  0.189813  0.293927  1
  Si  Si26  1  0.840608  0.811262  0.795055  1
  Si  Si27  1  0.288003  0.924381  0.061585  1
  Si  Si28  1  0.575458  0.783862  0.312028  1
  Si  Si29  1  0.456835  0.209337  0.826925  1
  Si  Si30  1  0.789723  0.574097  0.686329  1
  Si  Si31  1  0.211881  0.425366  0.187306  1
  Si  Si32  1  0.705784  0.073753  0.563449  1
  Si  Si33  1  0.931181  0.290510  0.937587  1
  Si  Si34  1  0.074046  0.711415  0.436253  1
  Br  Br35  1  0.149686  0.186411  0.692303  1
