# generated using pymatgen
data_Dy2Rh6S
_symmetry_space_group_name_H-M   'P 1'
_cell_length_a   5.95488552
_cell_length_b   5.95488527
_cell_length_c   5.95488400
_cell_angle_alpha   59.99999597
_cell_angle_beta   59.99999734
_cell_angle_gamma   59.99999044
_symmetry_Int_Tables_number   1
_chemical_formula_structural   Dy2Rh6S
_chemical_formula_sum   'Dy2 Rh6 S1'
_cell_volume   149.31556109
_cell_formula_units_Z   1
loop_
 _symmetry_equiv_pos_site_id
 _symmetry_equiv_pos_as_xyz
  1  'x, y, z'
loop_
 _atom_site_type_symbol
 _atom_site_label
 _atom_site_symmetry_multiplicity
 _atom_site_fract_x
 _atom_site_fract_y
 _atom_site_fract_z
 _atom_site_occupancy
  Dy  Dy0  1  0.250000  0.250000  0.250000  1
  Dy  Dy1  1  0.750000  0.750000  0.750000  1
  Rh  Rh2  1  0.735694  0.264307  0.264307  1
  Rh  Rh3  1  0.264307  0.735694  0.264307  1
  Rh  Rh4  1  0.735693  0.735693  0.264308  1
  Rh  Rh5  1  0.264307  0.264307  0.735694  1
  Rh  Rh6  1  0.735693  0.264308  0.735693  1
  Rh  Rh7  1  0.264308  0.735693  0.735693  1
  S  S8  1  0.000000  0.000000  0.000000  1
