# generated using pymatgen
data_Nd4CuIrRhAu
_symmetry_space_group_name_H-M   'P 1'
_cell_length_a   4.45993000
_cell_length_b   5.81043349
_cell_length_c   7.47234621
_cell_angle_alpha   90.17214102
_cell_angle_beta   90.00000000
_cell_angle_gamma   90.00000000
_symmetry_Int_Tables_number   1
_chemical_formula_structural   Nd4CuIrRhAu
_chemical_formula_sum   'Nd4 Cu1 Ir1 Rh1 Au1'
_cell_volume   193.63845201
_cell_formula_units_Z   1
loop_
 _symmetry_equiv_pos_site_id
 _symmetry_equiv_pos_as_xyz
  1  'x, y, z'
loop_
 _atom_site_type_symbol
 _atom_site_label
 _atom_site_symmetry_multiplicity
 _atom_site_fract_x
 _atom_site_fract_y
 _atom_site_fract_z
 _atom_site_occupancy
  Nd  Nd0  1  0.000000  0.638510  0.322988  1
  Nd  Nd1  1  0.000000  0.866125  0.815623  1
  Nd  Nd2  1  0.500000  0.369014  0.690158  1
  Nd  Nd3  1  0.500000  0.140720  0.166506  1
  Cu  Cu4  1  0.500000  0.630235  0.037801  1
  Ir  Ir5  1  0.000000  0.372979  0.966164  1
  Rh  Rh6  1  0.500000  0.839619  0.545332  1
  Au  Au7  1  0.000000  0.142800  0.455429  1
