# generated using pymatgen
data_Dy3HoSi4RuRh3
_symmetry_space_group_name_H-M   'P 1'
_cell_length_a   4.29357500
_cell_length_b   6.93536956
_cell_length_c   7.26825807
_cell_angle_alpha   90.05690616
_cell_angle_beta   90.00000000
_cell_angle_gamma   90.00000000
_symmetry_Int_Tables_number   1
_chemical_formula_structural   Dy3HoSi4RuRh3
_chemical_formula_sum   'Dy3 Ho1 Si4 Ru1 Rh3'
_cell_volume   216.43066109
_cell_formula_units_Z   1
loop_
 _symmetry_equiv_pos_site_id
 _symmetry_equiv_pos_as_xyz
  1  'x, y, z'
loop_
 _atom_site_type_symbol
 _atom_site_label
 _atom_site_symmetry_multiplicity
 _atom_site_fract_x
 _atom_site_fract_y
 _atom_site_fract_z
 _atom_site_occupancy
  Dy  Dy0  1  0.250000  0.990538  0.811993  1
  Dy  Dy1  1  0.750000  0.007387  0.189206  1
  Dy  Dy2  1  0.250000  0.495466  0.685968  1
  Ho  Ho3  1  0.750000  0.505735  0.313234  1
  Si  Si4  1  0.250000  0.301147  0.104243  1
  Si  Si5  1  0.750000  0.700753  0.900733  1
  Si  Si6  1  0.250000  0.797245  0.387466  1
  Si  Si7  1  0.750000  0.201711  0.607457  1
  Ru  Ru8  1  0.250000  0.652944  0.067132  1
  Rh  Rh9  1  0.750000  0.844937  0.569770  1
  Rh  Rh10  1  0.250000  0.156831  0.430728  1
  Rh  Rh11  1  0.750000  0.345304  0.932071  1
