# generated using pymatgen
data_LuMnCr(FeP)3
_symmetry_space_group_name_H-M   'P 1'
_cell_length_a   3.63074800
_cell_length_b   10.26512700
_cell_length_c   12.03070100
_cell_angle_alpha   90.00000000
_cell_angle_beta   90.00000000
_cell_angle_gamma   90.00000000
_symmetry_Int_Tables_number   1
_chemical_formula_structural   LuMnCr(FeP)3
_chemical_formula_sum   'Lu4 Mn4 Cr4 Fe12 P12'
_cell_volume   448.38530091
_cell_formula_units_Z   4
loop_
 _symmetry_equiv_pos_site_id
 _symmetry_equiv_pos_as_xyz
  1  'x, y, z'
loop_
 _atom_site_type_symbol
 _atom_site_label
 _atom_site_symmetry_multiplicity
 _atom_site_fract_x
 _atom_site_fract_y
 _atom_site_fract_z
 _atom_site_occupancy
  Lu  Lu0  1  0.250000  0.581630  0.710817  1
  Lu  Lu1  1  0.250000  0.918370  0.210817  1
  Lu  Lu2  1  0.750000  0.418370  0.289183  1
  Lu  Lu3  1  0.750000  0.081630  0.789183  1
  Mn  Mn4  1  0.250000  0.409365  0.490719  1
  Mn  Mn5  1  0.250000  0.090635  0.990719  1
  Mn  Mn6  1  0.750000  0.590635  0.509281  1
  Mn  Mn7  1  0.750000  0.909365  0.009281  1
  Cr  Cr8  1  0.250000  0.705172  0.989462  1
  Cr  Cr9  1  0.250000  0.794828  0.489462  1
  Cr  Cr10  1  0.750000  0.294828  0.010538  1
  Cr  Cr11  1  0.750000  0.205172  0.510538  1
  Fe  Fe12  1  0.250000  0.218806  0.174654  1
  Fe  Fe13  1  0.250000  0.281194  0.674654  1
  Fe  Fe14  1  0.750000  0.781194  0.825346  1
  Fe  Fe15  1  0.750000  0.718806  0.325346  1
  Fe  Fe16  1  0.250000  0.877224  0.697093  1
  Fe  Fe17  1  0.250000  0.622776  0.197093  1
  Fe  Fe18  1  0.750000  0.122776  0.302907  1
  Fe  Fe19  1  0.750000  0.377224  0.802907  1
  Fe  Fe20  1  0.250000  0.463525  0.934370  1
  Fe  Fe21  1  0.250000  0.036475  0.434370  1
  Fe  Fe22  1  0.750000  0.536475  0.065630  1
  Fe  Fe23  1  0.750000  0.963525  0.565630  1
  P  P24  1  0.250000  0.422216  0.113334  1
  P  P25  1  0.250000  0.077784  0.613334  1
  P  P26  1  0.750000  0.577784  0.886666  1
  P  P27  1  0.750000  0.922216  0.386666  1
  P  P28  1  0.250000  0.266387  0.865311  1
  P  P29  1  0.250000  0.233613  0.365311  1
  P  P30  1  0.750000  0.733613  0.134689  1
  P  P31  1  0.750000  0.766387  0.634689  1
  P  P32  1  0.250000  0.600044  0.382166  1
  P  P33  1  0.250000  0.899956  0.882166  1
  P  P34  1  0.750000  0.399956  0.617834  1
  P  P35  1  0.750000  0.100044  0.117834  1
