# generated using pymatgen
data_Np2Nb(ZnRu2)3
_symmetry_space_group_name_H-M   'P 1'
_cell_length_a   4.48751800
_cell_length_b   6.27897400
_cell_length_c   13.50430101
_cell_angle_alpha   90.00000000
_cell_angle_beta   90.00396884
_cell_angle_gamma   90.00000000
_symmetry_Int_Tables_number   1
_chemical_formula_structural   Np2Nb(ZnRu2)3
_chemical_formula_sum   'Np4 Nb2 Zn6 Ru12'
_cell_volume   380.51080829
_cell_formula_units_Z   2
loop_
 _symmetry_equiv_pos_site_id
 _symmetry_equiv_pos_as_xyz
  1  'x, y, z'
loop_
 _atom_site_type_symbol
 _atom_site_label
 _atom_site_symmetry_multiplicity
 _atom_site_fract_x
 _atom_site_fract_y
 _atom_site_fract_z
 _atom_site_occupancy
  Np  Np0  1  0.000107  0.000000  0.995286  1
  Np  Np1  1  0.499927  0.500000  0.162431  1
  Np  Np2  1  0.999766  0.000000  0.336923  1
  Np  Np3  1  0.499914  0.500000  0.505502  1
  Nb  Nb4  1  0.000056  0.000000  0.670311  1
  Nb  Nb5  1  0.500110  0.500000  0.829600  1
  Zn  Zn6  1  0.000119  0.500000  0.995001  1
  Zn  Zn7  1  0.499996  0.000000  0.164919  1
  Zn  Zn8  1  0.999841  0.500000  0.333914  1
  Zn  Zn9  1  0.499920  0.000000  0.506596  1
  Zn  Zn10  1  0.000030  0.500000  0.671317  1
  Zn  Zn11  1  0.500148  0.000000  0.828050  1
  Ru  Ru12  1  0.500106  0.253240  0.995254  1
  Ru  Ru13  1  0.500106  0.746762  0.995254  1
  Ru  Ru14  1  0.999987  0.245108  0.166781  1
  Ru  Ru15  1  0.999987  0.754892  0.166781  1
  Ru  Ru16  1  0.499937  0.254088  0.335023  1
  Ru  Ru17  1  0.499937  0.745912  0.335023  1
  Ru  Ru18  1  0.999862  0.247189  0.503321  1
  Ru  Ru19  1  0.999862  0.752811  0.503321  1
  Ru  Ru20  1  0.500038  0.251234  0.668011  1
  Ru  Ru21  1  0.500038  0.748766  0.668011  1
  Ru  Ru22  1  0.000099  0.249460  0.831684  1
  Ru  Ru23  1  0.000099  0.750540  0.831684  1
