# generated using pymatgen
data_MgI35
_symmetry_space_group_name_H-M   'P 1'
_cell_length_a   17.58017498
_cell_length_b   12.54030950
_cell_length_c   11.87107100
_cell_angle_alpha   88.81408644
_cell_angle_beta   66.02770740
_cell_angle_gamma   92.31545562
_symmetry_Int_Tables_number   1
_chemical_formula_structural   MgI35
_chemical_formula_sum   'Mg1 I35'
_cell_volume   2387.43274716
_cell_formula_units_Z   1
loop_
 _symmetry_equiv_pos_site_id
 _symmetry_equiv_pos_as_xyz
  1  'x, y, z'
loop_
 _atom_site_type_symbol
 _atom_site_label
 _atom_site_symmetry_multiplicity
 _atom_site_fract_x
 _atom_site_fract_y
 _atom_site_fract_z
 _atom_site_occupancy
  Mg  Mg0  1  0.240393  0.438187  0.405491  1
  I  I1  1  0.467849  0.311187  0.591864  1
  I  I2  1  0.777582  0.573330  0.576834  1
  I  I3  1  0.489573  0.702906  0.734484  1
  I  I4  1  0.087670  0.887846  0.802921  1
  I  I5  1  0.883671  0.129421  0.005580  1
  I  I6  1  0.575876  0.357687  0.333141  1
  I  I7  1  0.605219  0.312275  0.819452  1
  I  I8  1  0.343276  0.796391  0.722797  1
  I  I9  1  0.327647  0.572527  0.192907  1
  I  I10  1  0.653296  0.101521  0.796880  1
  I  I11  1  0.943514  0.542276  0.367623  1
  I  I12  1  0.084702  0.913298  0.562294  1
  I  I13  1  0.880426  0.082331  0.263852  1
  I  I14  1  0.876818  0.194120  0.783197  1
  I  I15  1  0.640367  0.066877  0.252870  1
  I  I16  1  0.077215  0.852516  0.059117  1
  I  I17  1  0.350914  0.015989  0.791555  1
  I  I18  1  0.895489  0.296621  0.311449  1
  I  I19  1  0.895749  0.896493  0.652928  1
  I  I20  1  0.926786  0.645985  0.870831  1
  I  I21  1  0.306713  0.041595  0.240896  1
  I  I22  1  0.318143  0.302633  0.211907  1
  I  I23  1  0.617881  0.588552  0.779072  1
  I  I24  1  0.045043  0.418570  0.470292  1
  I  I25  1  0.719090  0.873620  0.757661  1
  I  I26  1  0.890533  0.434331  0.838517  1
  I  I27  1  0.482488  0.051067  0.250880  1
  I  I28  1  0.132571  0.285783  0.577142  1
  I  I29  1  0.710992  0.799224  0.261559  1
  I  I30  1  0.894063  0.817354  0.170958  1
  I  I31  1  0.358167  0.240404  0.852363  1
  I  I32  1  0.338082  0.465764  0.584500  1
  I  I33  1  0.650005  0.578989  0.303315  1
  I  I34  1  0.213916  0.604640  0.579752  1
  I  I35  1  0.298284  0.807692  0.223118  1
