# generated using pymatgen
data_Ba2Sb2Se3O2
_symmetry_space_group_name_H-M   'P 1'
_cell_length_a   4.18632200
_cell_length_b   10.22666901
_cell_length_c   11.67760096
_cell_angle_alpha   99.67249457
_cell_angle_beta   90.00000000
_cell_angle_gamma   90.00000000
_symmetry_Int_Tables_number   1
_chemical_formula_structural   Ba2Sb2Se3O2
_chemical_formula_sum   'Ba4 Sb4 Se6 O4'
_cell_volume   492.83589507
_cell_formula_units_Z   2
loop_
 _symmetry_equiv_pos_site_id
 _symmetry_equiv_pos_as_xyz
  1  'x, y, z'
loop_
 _atom_site_type_symbol
 _atom_site_label
 _atom_site_symmetry_multiplicity
 _atom_site_fract_x
 _atom_site_fract_y
 _atom_site_fract_z
 _atom_site_occupancy
  Ba  Ba0  1  0.499868  0.706520  0.592218  1
  Ba  Ba1  1  0.999868  0.793480  0.907782  1
  Ba  Ba2  1  0.500132  0.293480  0.407782  1
  Ba  Ba3  1  0.000132  0.206520  0.092218  1
  Sb  Sb4  1  0.498239  0.460960  0.812587  1
  Sb  Sb5  1  0.998239  0.039040  0.687413  1
  Sb  Sb6  1  0.501761  0.539040  0.187413  1
  Sb  Sb7  1  0.001761  0.960960  0.312587  1
  Se  Se8  1  0.500000  0.000000  0.500000  1
  Se  Se9  1  0.000000  0.500000  0.000000  1
  Se  Se10  1  0.499324  0.067057  0.857517  1
  Se  Se11  1  0.999324  0.432943  0.642483  1
  Se  Se12  1  0.500676  0.932943  0.142483  1
  Se  Se13  1  0.000676  0.567057  0.357517  1
  O  O14  1  0.500733  0.345155  0.184771  1
  O  O15  1  0.000733  0.154845  0.315229  1
  O  O16  1  0.499267  0.654845  0.815229  1
  O  O17  1  0.999267  0.845155  0.684771  1
