# generated using pymatgen
data_LaNdGa3Si
_symmetry_space_group_name_H-M   'P 1'
_cell_length_a   4.37598500
_cell_length_b   4.26182200
_cell_length_c   7.35329600
_cell_angle_alpha   90.00000000
_cell_angle_beta   90.00000000
_cell_angle_gamma   90.00000000
_symmetry_Int_Tables_number   1
_chemical_formula_structural   LaNdGa3Si
_chemical_formula_sum   'La1 Nd1 Ga3 Si1'
_cell_volume   137.13653752
_cell_formula_units_Z   1
loop_
 _symmetry_equiv_pos_site_id
 _symmetry_equiv_pos_as_xyz
  1  'x, y, z'
loop_
 _atom_site_type_symbol
 _atom_site_label
 _atom_site_symmetry_multiplicity
 _atom_site_fract_x
 _atom_site_fract_y
 _atom_site_fract_z
 _atom_site_occupancy
  La  La0  1  0.000000  0.000000  0.496081  1
  Nd  Nd1  1  0.000000  0.500000  0.004641  1
  Ga  Ga2  1  0.500000  0.000000  0.832481  1
  Ga  Ga3  1  0.500000  0.000000  0.165465  1
  Ga  Ga4  1  0.500000  0.500000  0.666922  1
  Si  Si5  1  0.500000  0.500000  0.334409  1
