# generated using pymatgen
data_AlZn9Ag20
_symmetry_space_group_name_H-M   'P 1'
_cell_length_a   2.99576700
_cell_length_b   9.54418252
_cell_length_c   17.69039594
_cell_angle_alpha   89.94810388
_cell_angle_beta   90.00000000
_cell_angle_gamma   90.00000000
_symmetry_Int_Tables_number   1
_chemical_formula_structural   AlZn9Ag20
_chemical_formula_sum   'Al1 Zn9 Ag20'
_cell_volume   505.80619425
_cell_formula_units_Z   1
loop_
 _symmetry_equiv_pos_site_id
 _symmetry_equiv_pos_as_xyz
  1  'x, y, z'
loop_
 _atom_site_type_symbol
 _atom_site_label
 _atom_site_symmetry_multiplicity
 _atom_site_fract_x
 _atom_site_fract_y
 _atom_site_fract_z
 _atom_site_occupancy
  Al  Al0  1  0.500000  0.463073  0.900733  1
  Zn  Zn1  1  0.000000  0.000908  0.000028  1
  Zn  Zn2  1  0.500000  0.499458  0.499651  1
  Zn  Zn3  1  0.000000  0.973746  0.201151  1
  Zn  Zn4  1  0.000000  0.025154  0.798356  1
  Zn  Zn5  1  0.500000  0.473998  0.298797  1
  Zn  Zn6  1  0.500000  0.527543  0.701171  1
  Zn  Zn7  1  0.000000  0.036250  0.400956  1
  Zn  Zn8  1  0.000000  0.964572  0.599362  1
  Zn  Zn9  1  0.500000  0.536218  0.099602  1
  Ag  Ag10  1  0.000000  0.343562  0.015113  1
  Ag  Ag11  1  0.000000  0.654779  0.983766  1
  Ag  Ag12  1  0.500000  0.843475  0.484417  1
  Ag  Ag13  1  0.500000  0.157037  0.515518  1
  Ag  Ag14  1  0.000000  0.354652  0.186662  1
  Ag  Ag15  1  0.000000  0.644211  0.814668  1
  Ag  Ag16  1  0.500000  0.854772  0.313487  1
  Ag  Ag17  1  0.500000  0.145499  0.686694  1
  Ag  Ag18  1  0.000000  0.327209  0.404906  1
  Ag  Ag19  1  0.000000  0.672299  0.594507  1
  Ag  Ag20  1  0.500000  0.827349  0.094441  1
  Ag  Ag21  1  0.500000  0.173151  0.904612  1
  Ag  Ag22  1  0.000000  0.360367  0.606405  1
  Ag  Ag23  1  0.000000  0.639774  0.393996  1
  Ag  Ag24  1  0.500000  0.861073  0.894222  1
  Ag  Ag25  1  0.500000  0.140076  0.106268  1
  Ag  Ag26  1  0.000000  0.334476  0.786893  1
  Ag  Ag27  1  0.000000  0.666514  0.213503  1
  Ag  Ag28  1  0.500000  0.832696  0.713395  1
  Ag  Ag29  1  0.500000  0.166110  0.286724  1
