# generated using pymatgen
data_YbEr8TmPt8
_symmetry_space_group_name_H-M   'P 1'
_cell_length_a   7.42029900
_cell_length_b   7.51494875
_cell_length_c   14.67393112
_cell_angle_alpha   89.95007812
_cell_angle_beta   90.00000000
_cell_angle_gamma   90.00000000
_symmetry_Int_Tables_number   1
_chemical_formula_structural   YbEr8TmPt8
_chemical_formula_sum   'Yb2 Er16 Tm2 Pt16'
_cell_volume   818.26455643
_cell_formula_units_Z   2
loop_
 _symmetry_equiv_pos_site_id
 _symmetry_equiv_pos_as_xyz
  1  'x, y, z'
loop_
 _atom_site_type_symbol
 _atom_site_label
 _atom_site_symmetry_multiplicity
 _atom_site_fract_x
 _atom_site_fract_y
 _atom_site_fract_z
 _atom_site_occupancy
  Yb  Yb0  1  0.494482  0.679649  0.906797  1
  Yb  Yb1  1  0.994482  0.820351  0.593203  1
  Er  Er2  1  0.650649  0.164337  0.622202  1
  Er  Er3  1  0.150649  0.335663  0.877798  1
  Er  Er4  1  0.351261  0.832310  0.121681  1
  Er  Er5  1  0.851261  0.667690  0.378319  1
  Er  Er6  1  0.350489  0.831403  0.377480  1
  Er  Er7  1  0.850489  0.668597  0.122520  1
  Er  Er8  1  0.646971  0.167178  0.878323  1
  Er  Er9  1  0.146971  0.332822  0.621677  1
  Er  Er10  1  0.494640  0.678041  0.593891  1
  Er  Er11  1  0.994640  0.821959  0.906109  1
  Er  Er12  1  0.503920  0.318457  0.095104  1
  Er  Er13  1  0.003920  0.181543  0.404896  1
  Er  Er14  1  0.504267  0.319482  0.406920  1
  Er  Er15  1  0.004267  0.180518  0.093080  1
  Er  Er16  1  0.811342  0.512053  0.750838  1
  Er  Er17  1  0.311342  0.987947  0.749162  1
  Tm  Tm18  1  0.187914  0.489717  0.249794  1
  Tm  Tm19  1  0.687914  0.010283  0.250206  1
  Pt  Pt20  1  0.682936  0.972221  0.453404  1
  Pt  Pt21  1  0.182936  0.527779  0.046596  1
  Pt  Pt22  1  0.306634  0.037787  0.960040  1
  Pt  Pt23  1  0.806634  0.462213  0.539960  1
  Pt  Pt24  1  0.319585  0.037868  0.540394  1
  Pt  Pt25  1  0.819585  0.462132  0.959606  1
  Pt  Pt26  1  0.689945  0.973695  0.043766  1
  Pt  Pt27  1  0.189945  0.526305  0.456234  1
  Pt  Pt28  1  0.447612  0.380301  0.747263  1
  Pt  Pt29  1  0.947612  0.119699  0.752737  1
  Pt  Pt30  1  0.554235  0.614178  0.249541  1
  Pt  Pt31  1  0.054235  0.885822  0.250459  1
  Pt  Pt32  1  0.678455  0.861239  0.748197  1
  Pt  Pt33  1  0.178455  0.638761  0.751803  1
  Pt  Pt34  1  0.324663  0.142417  0.250116  1
  Pt  Pt35  1  0.824663  0.357583  0.249884  1
