# generated using pymatgen
data_LaTb11Tc3Rh
_symmetry_space_group_name_H-M   'P 1'
_cell_length_a   6.36913485
_cell_length_b   7.40366275
_cell_length_c   9.31302300
_cell_angle_alpha   90.00000000
_cell_angle_beta   90.00000000
_cell_angle_gamma   89.98021856
_symmetry_Int_Tables_number   1
_chemical_formula_structural   LaTb11Tc3Rh
_chemical_formula_sum   'La1 Tb11 Tc3 Rh1'
_cell_volume   439.15488854
_cell_formula_units_Z   1
loop_
 _symmetry_equiv_pos_site_id
 _symmetry_equiv_pos_as_xyz
  1  'x, y, z'
loop_
 _atom_site_type_symbol
 _atom_site_label
 _atom_site_symmetry_multiplicity
 _atom_site_fract_x
 _atom_site_fract_y
 _atom_site_fract_z
 _atom_site_occupancy
  La  La0  1  0.127418  0.448003  0.750000  1
  Tb  Tb1  1  0.332978  0.677661  0.068419  1
  Tb  Tb2  1  0.163713  0.174982  0.433748  1
  Tb  Tb3  1  0.661393  0.320902  0.558912  1
  Tb  Tb4  1  0.836919  0.826701  0.938550  1
  Tb  Tb5  1  0.661393  0.320902  0.941088  1
  Tb  Tb6  1  0.836919  0.826701  0.561450  1
  Tb  Tb7  1  0.332978  0.677661  0.431581  1
  Tb  Tb8  1  0.163713  0.174982  0.066252  1
  Tb  Tb9  1  0.871401  0.542475  0.250000  1
  Tb  Tb10  1  0.627162  0.040016  0.250000  1
  Tb  Tb11  1  0.372362  0.958506  0.750000  1
  Tc  Tc12  1  0.037561  0.884710  0.250000  1
  Tc  Tc13  1  0.463083  0.386455  0.250000  1
  Tc  Tc14  1  0.964382  0.123241  0.750000  1
  Rh  Rh15  1  0.546627  0.616101  0.750000  1
