# generated using pymatgen
data_Er2Al2PdPt
_symmetry_space_group_name_H-M   'P 1'
_cell_length_a   4.43422100
_cell_length_b   6.84163109
_cell_length_c   7.72455870
_cell_angle_alpha   89.49787431
_cell_angle_beta   90.00000000
_cell_angle_gamma   90.00000000
_symmetry_Int_Tables_number   1
_chemical_formula_structural   Er2Al2PdPt
_chemical_formula_sum   'Er4 Al4 Pd2 Pt2'
_cell_volume   234.33328844
_cell_formula_units_Z   2
loop_
 _symmetry_equiv_pos_site_id
 _symmetry_equiv_pos_as_xyz
  1  'x, y, z'
loop_
 _atom_site_type_symbol
 _atom_site_label
 _atom_site_symmetry_multiplicity
 _atom_site_fract_x
 _atom_site_fract_y
 _atom_site_fract_z
 _atom_site_occupancy
  Er  Er0  1  0.250000  0.473446  0.181498  1
  Er  Er1  1  0.750000  0.526554  0.818502  1
  Er  Er2  1  0.750000  0.031538  0.683614  1
  Er  Er3  1  0.250000  0.968462  0.316386  1
  Al  Al4  1  0.250000  0.851539  0.936198  1
  Al  Al5  1  0.750000  0.148461  0.063802  1
  Al  Al6  1  0.750000  0.649894  0.436162  1
  Al  Al7  1  0.250000  0.350106  0.563838  1
  Pd  Pd8  1  0.250000  0.726435  0.614971  1
  Pd  Pd9  1  0.750000  0.273565  0.385029  1
  Pt  Pt10  1  0.750000  0.771735  0.114473  1
  Pt  Pt11  1  0.250000  0.228265  0.885527  1
