# generated using pymatgen
data_Hf4TiGaSn3
_symmetry_space_group_name_H-M   'P 1'
_cell_length_a   8.60329700
_cell_length_b   8.60329609
_cell_length_c   5.74185000
_cell_angle_alpha   90.00000000
_cell_angle_beta   90.00000000
_cell_angle_gamma   119.99999964
_symmetry_Int_Tables_number   1
_chemical_formula_structural   Hf4TiGaSn3
_chemical_formula_sum   'Hf8 Ti2 Ga2 Sn6'
_cell_volume   368.05460997
_cell_formula_units_Z   2
loop_
 _symmetry_equiv_pos_site_id
 _symmetry_equiv_pos_as_xyz
  1  'x, y, z'
loop_
 _atom_site_type_symbol
 _atom_site_label
 _atom_site_symmetry_multiplicity
 _atom_site_fract_x
 _atom_site_fract_y
 _atom_site_fract_z
 _atom_site_occupancy
  Hf  Hf0  1  0.732767  0.732767  0.745884  1
  Hf  Hf1  1  0.267233  0.000000  0.745884  1
  Hf  Hf2  1  0.000000  0.267233  0.745884  1
  Hf  Hf3  1  0.267233  0.267233  0.254116  1
  Hf  Hf4  1  0.732767  0.000000  0.254116  1
  Hf  Hf5  1  0.000000  0.732767  0.254116  1
  Hf  Hf6  1  0.333333  0.666667  0.500000  1
  Hf  Hf7  1  0.666667  0.333333  0.500000  1
  Ti  Ti8  1  0.666667  0.333333  0.000000  1
  Ti  Ti9  1  0.333333  0.666667  0.000000  1
  Ga  Ga10  1  0.000000  0.000000  0.000000  1
  Ga  Ga11  1  0.000000  0.000000  0.500000  1
  Sn  Sn12  1  0.390776  0.390776  0.757439  1
  Sn  Sn13  1  0.609224  0.000000  0.757439  1
  Sn  Sn14  1  0.000000  0.609224  0.757439  1
  Sn  Sn15  1  0.609224  0.609224  0.242561  1
  Sn  Sn16  1  0.390776  0.000000  0.242561  1
  Sn  Sn17  1  0.000000  0.390776  0.242561  1
