# generated using pymatgen
data_Er2Mg(AlNi2)3
_symmetry_space_group_name_H-M   'P 1'
_cell_length_a   8.32690625
_cell_length_b   8.32690653
_cell_length_c   8.32690559
_cell_angle_alpha   35.95187826
_cell_angle_beta   35.95187900
_cell_angle_gamma   35.95187757
_symmetry_Int_Tables_number   1
_chemical_formula_structural   Er2Mg(AlNi2)3
_chemical_formula_sum   'Er2 Mg1 Al3 Ni6'
_cell_volume   177.98843816
_cell_formula_units_Z   1
loop_
 _symmetry_equiv_pos_site_id
 _symmetry_equiv_pos_as_xyz
  1  'x, y, z'
loop_
 _atom_site_type_symbol
 _atom_site_label
 _atom_site_symmetry_multiplicity
 _atom_site_fract_x
 _atom_site_fract_y
 _atom_site_fract_z
 _atom_site_occupancy
  Er  Er0  1  0.986267  0.986267  0.986267  1
  Er  Er1  1  0.137438  0.137438  0.137438  1
  Mg  Mg2  1  0.855089  0.855089  0.855089  1
  Al  Al3  1  0.502939  0.502939  0.502939  1
  Al  Al4  1  0.668894  0.668894  0.668894  1
  Al  Al5  1  0.337547  0.337547  0.337547  1
  Ni  Ni6  1  0.415384  0.924787  0.415384  1
  Ni  Ni7  1  0.415384  0.415384  0.924787  1
  Ni  Ni8  1  0.924787  0.415384  0.415384  1
  Ni  Ni9  1  0.587528  0.081215  0.587528  1
  Ni  Ni10  1  0.587528  0.587528  0.081215  1
  Ni  Ni11  1  0.081215  0.587528  0.587528  1
