# generated using pymatgen
data_Pu8Si12IrPt2Rh
_symmetry_space_group_name_H-M   'P 1'
_cell_length_a   8.22411500
_cell_length_b   8.22411567
_cell_length_c   7.96239000
_cell_angle_alpha   90.00000000
_cell_angle_beta   90.00000000
_cell_angle_gamma   120.00000132
_symmetry_Int_Tables_number   1
_chemical_formula_structural   Pu8Si12IrPt2Rh
_chemical_formula_sum   'Pu8 Si12 Ir1 Pt2 Rh1'
_cell_volume   466.39346449
_cell_formula_units_Z   1
loop_
 _symmetry_equiv_pos_site_id
 _symmetry_equiv_pos_as_xyz
  1  'x, y, z'
loop_
 _atom_site_type_symbol
 _atom_site_label
 _atom_site_symmetry_multiplicity
 _atom_site_fract_x
 _atom_site_fract_y
 _atom_site_fract_z
 _atom_site_occupancy
  Pu  Pu0  1  0.000000  0.000000  0.249991  1
  Pu  Pu1  1  0.000000  0.000000  0.749246  1
  Pu  Pu2  1  0.490275  0.509725  0.249447  1
  Pu  Pu3  1  0.490275  0.980550  0.249447  1
  Pu  Pu4  1  0.019450  0.509725  0.249447  1
  Pu  Pu5  1  0.500362  0.499638  0.750648  1
  Pu  Pu6  1  0.999276  0.499638  0.750648  1
  Pu  Pu7  1  0.500362  0.000724  0.750648  1
  Si  Si8  1  0.835139  0.164861  0.503142  1
  Si  Si9  1  0.835139  0.670280  0.503142  1
  Si  Si10  1  0.329720  0.164861  0.503142  1
  Si  Si11  1  0.835014  0.164986  0.996922  1
  Si  Si12  1  0.835014  0.670029  0.996922  1
  Si  Si13  1  0.329971  0.164986  0.996922  1
  Si  Si14  1  0.164014  0.835986  0.002372  1
  Si  Si15  1  0.671974  0.835986  0.002372  1
  Si  Si16  1  0.164014  0.328026  0.002372  1
  Si  Si17  1  0.164963  0.835037  0.496156  1
  Si  Si18  1  0.670075  0.835037  0.496156  1
  Si  Si19  1  0.164963  0.329925  0.496156  1
  Ir  Ir20  1  0.333333  0.666667  0.985519  1
  Pt  Pt21  1  0.666667  0.333333  0.475927  1
  Pt  Pt22  1  0.666667  0.333333  0.020434  1
  Rh  Rh23  1  0.333333  0.666667  0.522819  1
