# generated using pymatgen
data_V17Fe3Si11As
_symmetry_space_group_name_H-M   'P 1'
_cell_length_a   6.99764093
_cell_length_b   6.99876711
_cell_length_c   13.17887900
_cell_angle_alpha   90.00000000
_cell_angle_beta   90.00000000
_cell_angle_gamma   140.59717446
_symmetry_Int_Tables_number   1
_chemical_formula_structural   V17Fe3Si11As
_chemical_formula_sum   'V17 Fe3 Si11 As1'
_cell_volume   409.70108617
_cell_formula_units_Z   1
loop_
 _symmetry_equiv_pos_site_id
 _symmetry_equiv_pos_as_xyz
  1  'x, y, z'
loop_
 _atom_site_type_symbol
 _atom_site_label
 _atom_site_symmetry_multiplicity
 _atom_site_fract_x
 _atom_site_fract_y
 _atom_site_fract_z
 _atom_site_occupancy
  V  V0  1  0.067733  0.423785  0.399448  1
  V  V1  1  0.573685  0.931929  0.901656  1
  V  V2  1  0.420283  0.067648  0.600534  1
  V  V3  1  0.931936  0.573218  0.098106  1
  V  V4  1  0.850675  0.654737  0.678460  1
  V  V5  1  0.349589  0.150600  0.177423  1
  V  V6  1  0.654103  0.850278  0.319858  1
  V  V7  1  0.150543  0.349583  0.823066  1
  V  V8  1  0.654103  0.850278  0.680142  1
  V  V9  1  0.150543  0.349583  0.176934  1
  V  V10  1  0.850675  0.654737  0.321540  1
  V  V11  1  0.349589  0.150600  0.822577  1
  V  V12  1  0.420283  0.067648  0.399466  1
  V  V13  1  0.931936  0.573218  0.901894  1
  V  V14  1  0.067733  0.423785  0.600552  1
  V  V15  1  0.573685  0.931929  0.098344  1
  V  V16  1  0.004396  0.000167  0.500000  1
  Fe  Fe17  1  0.502012  0.502064  0.000000  1
  Fe  Fe18  1  0.495295  0.490061  0.500000  1
  Fe  Fe19  1  0.001975  0.002187  0.000000  1
  Si  Si20  1  0.250034  0.749279  0.751067  1
  Si  Si21  1  0.749622  0.251025  0.249205  1
  Si  Si22  1  0.749622  0.251025  0.750795  1
  Si  Si23  1  0.250034  0.749279  0.248933  1
  Si  Si24  1  0.254535  0.255618  0.663756  1
  Si  Si25  1  0.752929  0.752274  0.157831  1
  Si  Si26  1  0.254535  0.255618  0.336244  1
  Si  Si27  1  0.752929  0.752274  0.842169  1
  Si  Si28  1  0.094311  0.411194  0.000000  1
  Si  Si29  1  0.900669  0.576111  0.500000  1
  Si  Si30  1  0.410896  0.094137  0.000000  1
  As  As31  1  0.579108  0.904133  0.500000  1
