# generated using pymatgen
data_Ti9Al8V3(PtC)4
_symmetry_space_group_name_H-M   'P 1'
_cell_length_a   8.16470135
_cell_length_b   8.18613481
_cell_length_c   8.19282897
_cell_angle_alpha   59.79989904
_cell_angle_beta   60.05932529
_cell_angle_gamma   59.87230818
_symmetry_Int_Tables_number   1
_chemical_formula_structural   Ti9Al8V3(PtC)4
_chemical_formula_sum   'Ti9 Al8 V3 Pt4 C4'
_cell_volume   386.41215355
_cell_formula_units_Z   1
loop_
 _symmetry_equiv_pos_site_id
 _symmetry_equiv_pos_as_xyz
  1  'x, y, z'
loop_
 _atom_site_type_symbol
 _atom_site_label
 _atom_site_symmetry_multiplicity
 _atom_site_fract_x
 _atom_site_fract_y
 _atom_site_fract_z
 _atom_site_occupancy
  Ti  Ti0  1  0.682157  0.682157  0.317843  1
  Ti  Ti1  1  0.684716  0.315763  0.682758  1
  Ti  Ti2  1  0.315763  0.684716  0.316763  1
  Ti  Ti3  1  0.565188  0.936041  0.563394  1
  Ti  Ti4  1  0.568587  0.932301  0.931969  1
  Ti  Ti5  1  0.932301  0.568587  0.567144  1
  Ti  Ti6  1  0.936041  0.565188  0.935377  1
  Ti  Ti7  1  0.318711  0.318711  0.681289  1
  Ti  Ti8  1  0.562154  0.562154  0.937846  1
  Al  Al9  1  0.913720  0.257614  0.915238  1
  Al  Al10  1  0.335148  0.340472  0.989324  1
  Al  Al11  1  0.989697  0.333122  0.335605  1
  Al  Al12  1  0.340472  0.335148  0.335056  1
  Al  Al13  1  0.257614  0.913720  0.913428  1
  Al  Al14  1  0.916973  0.914401  0.908482  1
  Al  Al15  1  0.914401  0.916973  0.260145  1
  Al  Al16  1  0.333122  0.989697  0.341574  1
  V  V17  1  0.930612  0.930612  0.569388  1
  V  V18  1  0.681834  0.318484  0.319795  1
  V  V19  1  0.318484  0.681834  0.679888  1
  Pt  Pt20  1  0.122823  0.625444  0.126895  1
  Pt  Pt21  1  0.124727  0.126961  0.623805  1
  Pt  Pt22  1  0.625444  0.122823  0.124839  1
  Pt  Pt23  1  0.126961  0.124727  0.124507  1
  C  C24  1  0.631080  0.125238  0.618569  1
  C  C25  1  0.626093  0.619939  0.127201  1
  C  C26  1  0.125238  0.631080  0.625114  1
  C  C27  1  0.619939  0.626093  0.626766  1
