# generated using pymatgen
data_KRbPaI6
_symmetry_space_group_name_H-M   'P 1'
_cell_length_a   9.00413300
_cell_length_b   8.40585675
_cell_length_c   14.55779781
_cell_angle_alpha   54.99630812
_cell_angle_beta   90.00000000
_cell_angle_gamma   90.00000000
_symmetry_Int_Tables_number   1
_chemical_formula_structural   KRbPaI6
_chemical_formula_sum   'K2 Rb2 Pa2 I12'
_cell_volume   902.53591403
_cell_formula_units_Z   2
loop_
 _symmetry_equiv_pos_site_id
 _symmetry_equiv_pos_as_xyz
  1  'x, y, z'
loop_
 _atom_site_type_symbol
 _atom_site_label
 _atom_site_symmetry_multiplicity
 _atom_site_fract_x
 _atom_site_fract_y
 _atom_site_fract_z
 _atom_site_occupancy
  K  K0  1  0.413117  0.275258  0.748170  1
  K  K1  1  0.913117  0.724742  0.751830  1
  Rb  Rb2  1  0.585568  0.724835  0.250915  1
  Rb  Rb3  1  0.085568  0.275165  0.249085  1
  Pa  Pa4  1  0.999696  0.001710  0.998604  1
  Pa  Pa5  1  0.499696  0.998290  0.501396  1
  I  I6  1  0.984282  0.848041  0.245416  1
  I  I7  1  0.484282  0.151959  0.254584  1
  I  I8  1  0.020850  0.147223  0.753764  1
  I  I9  1  0.520850  0.852777  0.746236  1
  I  I10  1  0.682293  0.648913  0.554266  1
  I  I11  1  0.182293  0.351087  0.945734  1
  I  I12  1  0.315028  0.343997  0.451404  1
  I  I13  1  0.815028  0.656003  0.048596  1
  I  I14  1  0.711133  0.226490  0.950602  1
  I  I15  1  0.211133  0.773510  0.549398  1
  I  I16  1  0.288032  0.778125  0.044920  1
  I  I17  1  0.788032  0.221875  0.455080  1
