# generated using pymatgen
data_SrInSn5Ir4
_symmetry_space_group_name_H-M   'P 1'
_cell_length_a   7.07900941
_cell_length_b   6.98249013
_cell_length_c   7.02084161
_cell_angle_alpha   119.49656615
_cell_angle_beta   119.95448105
_cell_angle_gamma   90.55659712
_symmetry_Int_Tables_number   1
_chemical_formula_structural   SrInSn5Ir4
_chemical_formula_sum   'Sr1 In1 Sn5 Ir4'
_cell_volume   246.21988001
_cell_formula_units_Z   1
loop_
 _symmetry_equiv_pos_site_id
 _symmetry_equiv_pos_as_xyz
  1  'x, y, z'
loop_
 _atom_site_type_symbol
 _atom_site_label
 _atom_site_symmetry_multiplicity
 _atom_site_fract_x
 _atom_site_fract_y
 _atom_site_fract_z
 _atom_site_occupancy
  Sr  Sr0  1  0.999398  0.998448  0.000000  1
  In  In1  1  0.880960  0.529577  0.000000  1
  Sn  Sn2  1  0.534240  0.873804  0.000000  1
  Sn  Sn3  1  0.467141  0.468112  0.343562  1
  Sn  Sn4  1  0.500072  0.002192  0.502110  1
  Sn  Sn5  1  0.997961  0.500081  0.497890  1
  Sn  Sn6  1  0.123578  0.124549  0.656437  1
  Ir  Ir7  1  0.591312  0.245797  0.000000  1
  Ir  Ir8  1  0.252056  0.597385  0.000000  1
  Ir  Ir9  1  0.754650  0.758038  0.356020  1
  Ir  Ir10  1  0.398629  0.402017  0.643980  1
