# generated using pymatgen
data_Cs4CdSn6HgSe16
_symmetry_space_group_name_H-M   'P 1'
_cell_length_a   8.17734800
_cell_length_b   13.59833701
_cell_length_c   19.01746400
_cell_angle_alpha   90.00000000
_cell_angle_beta   90.00000000
_cell_angle_gamma   89.99693176
_symmetry_Int_Tables_number   1
_chemical_formula_structural   Cs4CdSn6HgSe16
_chemical_formula_sum   'Cs8 Cd2 Sn12 Hg2 Se32'
_cell_volume   2114.71030972
_cell_formula_units_Z   2
loop_
 _symmetry_equiv_pos_site_id
 _symmetry_equiv_pos_as_xyz
  1  'x, y, z'
loop_
 _atom_site_type_symbol
 _atom_site_label
 _atom_site_symmetry_multiplicity
 _atom_site_fract_x
 _atom_site_fract_y
 _atom_site_fract_z
 _atom_site_occupancy
  Cs  Cs0  1  0.750090  0.368835  0.550626  1
  Cs  Cs1  1  0.749910  0.631165  0.050626  1
  Cs  Cs2  1  0.249325  0.131076  0.449085  1
  Cs  Cs3  1  0.250675  0.868924  0.949085  1
  Cs  Cs4  1  0.258002  0.199059  0.839948  1
  Cs  Cs5  1  0.241998  0.800941  0.339948  1
  Cs  Cs6  1  0.758119  0.301916  0.160348  1
  Cs  Cs7  1  0.741881  0.698084  0.660348  1
  Cd  Cd8  1  0.017972  0.001779  0.152982  1
  Cd  Cd9  1  0.482028  0.998221  0.652982  1
  Sn  Sn10  1  0.486265  0.479325  0.347090  1
  Sn  Sn11  1  0.013735  0.520675  0.847090  1
  Sn  Sn12  1  0.986745  0.020250  0.652896  1
  Sn  Sn13  1  0.513255  0.979750  0.152896  1
  Sn  Sn14  1  0.267910  0.434014  0.015344  1
  Sn  Sn15  1  0.232090  0.565986  0.515344  1
  Sn  Sn16  1  0.767716  0.065380  0.984986  1
  Sn  Sn17  1  0.732284  0.934620  0.484986  1
  Sn  Sn18  1  0.264098  0.449172  0.677691  1
  Sn  Sn19  1  0.235902  0.550828  0.177691  1
  Sn  Sn20  1  0.764014  0.050049  0.322046  1
  Sn  Sn21  1  0.735986  0.949951  0.822046  1
  Hg  Hg22  1  0.517577  0.498483  0.847495  1
  Hg  Hg23  1  0.982423  0.501517  0.347495  1
  Se  Se24  1  0.522815  0.382103  0.730113  1
  Se  Se25  1  0.977185  0.617897  0.230113  1
  Se  Se26  1  0.022704  0.116380  0.269252  1
  Se  Se27  1  0.477296  0.883620  0.769252  1
  Se  Se28  1  0.006554  0.901530  0.761422  1
  Se  Se29  1  0.493446  0.098470  0.261422  1
  Se  Se30  1  0.506308  0.598372  0.238797  1
  Se  Se31  1  0.993692  0.401628  0.738797  1
  Se  Se32  1  0.733256  0.125322  0.656853  1
  Se  Se33  1  0.766744  0.874678  0.156853  1
  Se  Se34  1  0.234682  0.372597  0.342314  1
  Se  Se35  1  0.265318  0.627403  0.842314  1
  Se  Se36  1  0.236119  0.129885  0.648264  1
  Se  Se37  1  0.263881  0.870115  0.148264  1
  Se  Se38  1  0.734798  0.368748  0.351893  1
  Se  Se39  1  0.765202  0.631252  0.851893  1
  Se  Se40  1  0.029381  0.122977  0.040588  1
  Se  Se41  1  0.470619  0.877023  0.540588  1
  Se  Se42  1  0.529785  0.375224  0.960197  1
  Se  Se43  1  0.970215  0.624776  0.460197  1
  Se  Se44  1  0.001074  0.891992  0.549886  1
  Se  Se45  1  0.498926  0.108008  0.049886  1
  Se  Se46  1  0.500444  0.607744  0.449895  1
  Se  Se47  1  0.999556  0.392256  0.949895  1
  Se  Se48  1  0.233123  0.380093  0.549843  1
  Se  Se49  1  0.266877  0.619907  0.049843  1
  Se  Se50  1  0.733880  0.120106  0.449667  1
  Se  Se51  1  0.766120  0.879894  0.949667  1
  Se  Se52  1  0.236478  0.365788  0.142428  1
  Se  Se53  1  0.263522  0.634212  0.642428  1
  Se  Se54  1  0.737337  0.134634  0.858051  1
  Se  Se55  1  0.762663  0.865366  0.358051  1
