# generated using pymatgen
data_CaLa(Pr4Ir3)2
_symmetry_space_group_name_H-M   'P 1'
_cell_length_a   11.37149662
_cell_length_b   11.38075800
_cell_length_c   6.56558297
_cell_angle_alpha   90.00000000
_cell_angle_beta   89.85895107
_cell_angle_gamma   90.00000000
_symmetry_Int_Tables_number   1
_chemical_formula_structural   CaLa(Pr4Ir3)2
_chemical_formula_sum   'Ca2 La2 Pr16 Ir12'
_cell_volume   849.69055982
_cell_formula_units_Z   2
loop_
 _symmetry_equiv_pos_site_id
 _symmetry_equiv_pos_as_xyz
  1  'x, y, z'
loop_
 _atom_site_type_symbol
 _atom_site_label
 _atom_site_symmetry_multiplicity
 _atom_site_fract_x
 _atom_site_fract_y
 _atom_site_fract_z
 _atom_site_occupancy
  Ca  Ca0  1  0.999345  0.999736  0.499866  1
  Ca  Ca1  1  0.999345  0.000264  0.999866  1
  La  La2  1  0.288194  0.089442  0.387230  1
  La  La3  1  0.288194  0.910558  0.887230  1
  Pr  Pr4  1  0.711680  0.088332  0.885273  1
  Pr  Pr5  1  0.711680  0.911668  0.385273  1
  Pr  Pr6  1  0.590191  0.791503  0.883871  1
  Pr  Pr7  1  0.590191  0.208497  0.383871  1
  Pr  Pr8  1  0.411083  0.790647  0.383512  1
  Pr  Pr9  1  0.411083  0.209353  0.883512  1
  Pr  Pr10  1  0.208218  0.411027  0.616447  1
  Pr  Pr11  1  0.208218  0.588973  0.116447  1
  Pr  Pr12  1  0.791669  0.410567  0.116254  1
  Pr  Pr13  1  0.791669  0.589433  0.616254  1
  Pr  Pr14  1  0.911449  0.711653  0.114732  1
  Pr  Pr15  1  0.911449  0.288347  0.614732  1
  Pr  Pr16  1  0.087991  0.711438  0.614767  1
  Pr  Pr17  1  0.087991  0.288562  0.114767  1
  Pr  Pr18  1  0.500141  0.499966  0.000336  1
  Pr  Pr19  1  0.500141  0.500034  0.500336  1
  Ir  Ir20  1  0.842461  0.157646  0.249833  1
  Ir  Ir21  1  0.842461  0.842354  0.749833  1
  Ir  Ir22  1  0.158336  0.157213  0.747583  1
  Ir  Ir23  1  0.158336  0.842787  0.247583  1
  Ir  Ir24  1  0.654282  0.345662  0.749972  1
  Ir  Ir25  1  0.654282  0.654338  0.249972  1
  Ir  Ir26  1  0.345648  0.345565  0.250124  1
  Ir  Ir27  1  0.345648  0.654435  0.750124  1
  Ir  Ir28  1  0.499313  0.000448  0.115615  1
  Ir  Ir29  1  0.499313  0.999552  0.615615  1
  Ir  Ir30  1  0.999998  0.499744  0.884585  1
  Ir  Ir31  1  0.999998  0.500256  0.384585  1
