# generated using pymatgen
data_Nd5HoZn4Pd2Pt11
_symmetry_space_group_name_H-M   'P 1'
_cell_length_a   8.36821858
_cell_length_b   8.36821795
_cell_length_c   8.36792800
_cell_angle_alpha   109.42884913
_cell_angle_beta   109.42884509
_cell_angle_gamma   109.54362421
_symmetry_Int_Tables_number   1
_chemical_formula_structural   Nd5HoZn4Pd2Pt11
_chemical_formula_sum   'Nd5 Ho1 Zn4 Pd2 Pt11'
_cell_volume   451.15704904
_cell_formula_units_Z   1
loop_
 _symmetry_equiv_pos_site_id
 _symmetry_equiv_pos_as_xyz
  1  'x, y, z'
loop_
 _atom_site_type_symbol
 _atom_site_label
 _atom_site_symmetry_multiplicity
 _atom_site_fract_x
 _atom_site_fract_y
 _atom_site_fract_z
 _atom_site_occupancy
  Nd  Nd0  1  0.299856  0.999472  0.299644  1
  Nd  Nd1  1  0.999472  0.299856  0.299644  1
  Nd  Nd2  1  0.297759  0.297759  0.999905  1
  Nd  Nd3  1  0.700063  0.000271  0.698984  1
  Nd  Nd4  1  0.000271  0.700063  0.698984  1
  Ho  Ho5  1  0.694678  0.694678  0.004043  1
  Zn  Zn6  1  0.001335  0.001335  0.498932  1
  Zn  Zn7  1  0.000135  0.501699  0.999005  1
  Zn  Zn8  1  0.501699  0.000135  0.999005  1
  Zn  Zn9  1  0.501986  0.501986  0.502126  1
  Pd  Pd10  1  0.670460  0.342041  0.671357  1
  Pd  Pd11  1  0.342041  0.670460  0.671357  1
  Pt  Pt12  1  0.336005  0.336005  0.666773  1
  Pt  Pt13  1  0.672170  0.999656  0.327203  1
  Pt  Pt14  1  0.999656  0.672170  0.327203  1
  Pt  Pt15  1  0.668839  0.334698  0.000007  1
  Pt  Pt16  1  0.330234  0.660116  0.330581  1
  Pt  Pt17  1  0.000824  0.331291  0.670241  1
  Pt  Pt18  1  0.334698  0.668839  0.000007  1
  Pt  Pt19  1  0.331291  0.000824  0.670241  1
  Pt  Pt20  1  0.660116  0.330234  0.330581  1
  Pt  Pt21  1  0.668359  0.668359  0.335088  1
  Pt  Pt22  1  0.988055  0.988055  0.999089  1
