# generated using pymatgen
data_Pa4Cu2Tc5Ge6
_symmetry_space_group_name_H-M   'P 1'
_cell_length_a   7.29588776
_cell_length_b   7.29596685
_cell_length_c   7.29588800
_cell_angle_alpha   109.58759194
_cell_angle_beta   109.23831375
_cell_angle_gamma   109.58757401
_symmetry_Int_Tables_number   1
_chemical_formula_structural   Pa4Cu2Tc5Ge6
_chemical_formula_sum   'Pa4 Cu2 Tc5 Ge6'
_cell_volume   298.96077450
_cell_formula_units_Z   1
loop_
 _symmetry_equiv_pos_site_id
 _symmetry_equiv_pos_as_xyz
  1  'x, y, z'
loop_
 _atom_site_type_symbol
 _atom_site_label
 _atom_site_symmetry_multiplicity
 _atom_site_fract_x
 _atom_site_fract_y
 _atom_site_fract_z
 _atom_site_occupancy
  Pa  Pa0  1  0.007098  0.014194  0.507098  1
  Pa  Pa1  1  0.977505  0.484129  0.977505  1
  Pa  Pa2  1  0.507098  0.014194  0.007098  1
  Pa  Pa3  1  0.506626  0.484129  0.506626  1
  Cu  Cu4  1  0.249765  0.749528  0.499763  1
  Cu  Cu5  1  0.499763  0.749528  0.249765  1
  Tc  Tc6  1  0.748041  0.245483  0.497442  1
  Tc  Tc7  1  0.752895  0.505789  0.252895  1
  Tc  Tc8  1  0.497442  0.245483  0.748041  1
  Tc  Tc9  1  0.252895  0.505789  0.752895  1
  Tc  Tc10  1  0.000596  0.001190  0.000596  1
  Ge  Ge11  1  0.688958  0.693175  0.004215  1
  Ge  Ge12  1  0.304253  0.985463  0.304253  1
  Ge  Ge13  1  0.007383  0.321643  0.314261  1
  Ge  Ge14  1  0.314261  0.321643  0.007383  1
  Ge  Ge15  1  0.681210  0.985463  0.681210  1
  Ge  Ge16  1  0.004215  0.693175  0.688958  1
