# generated using pymatgen
data_Bi6Ir2RuO18
_symmetry_space_group_name_H-M   'P 1'
_cell_length_a   9.28432300
_cell_length_b   9.28432089
_cell_length_c   5.23759900
_cell_angle_alpha   90.00000000
_cell_angle_beta   90.00000000
_cell_angle_gamma   119.99999684
_symmetry_Int_Tables_number   1
_chemical_formula_structural   Bi6Ir2RuO18
_chemical_formula_sum   'Bi6 Ir2 Ru1 O18'
_cell_volume   390.98786074
_cell_formula_units_Z   1
loop_
 _symmetry_equiv_pos_site_id
 _symmetry_equiv_pos_as_xyz
  1  'x, y, z'
loop_
 _atom_site_type_symbol
 _atom_site_label
 _atom_site_symmetry_multiplicity
 _atom_site_fract_x
 _atom_site_fract_y
 _atom_site_fract_z
 _atom_site_occupancy
  Bi  Bi0  1  0.996704  0.373293  0.501378  1
  Bi  Bi1  1  0.289018  0.288981  0.999547  1
  Bi  Bi2  1  0.999961  0.710982  0.999547  1
  Bi  Bi3  1  0.626707  0.623412  0.501378  1
  Bi  Bi4  1  0.376588  0.003296  0.501378  1
  Bi  Bi5  1  0.711019  0.000039  0.999547  1
  Ir  Ir6  1  0.000000  0.000000  0.499355  1
  Ir  Ir7  1  0.333333  0.666667  0.002620  1
  Ru  Ru8  1  0.666667  0.333333  0.999571  1
  O  O9  1  0.077356  0.198754  0.714240  1
  O  O10  1  0.227321  0.465502  0.216083  1
  O  O11  1  0.134755  0.594261  0.789521  1
  O  O12  1  0.405739  0.540494  0.789521  1
  O  O13  1  0.238182  0.772679  0.216083  1
  O  O14  1  0.121398  0.922644  0.714240  1
  O  O15  1  0.534498  0.761818  0.216083  1
  O  O16  1  0.199409  0.078263  0.285942  1
  O  O17  1  0.459506  0.865245  0.789521  1
  O  O18  1  0.801246  0.878602  0.714240  1
  O  O19  1  0.465866  0.231049  0.780778  1
  O  O20  1  0.596191  0.136482  0.211995  1
  O  O21  1  0.540291  0.403809  0.211995  1
  O  O22  1  0.768951  0.234817  0.780778  1
  O  O23  1  0.921737  0.121146  0.285942  1
  O  O24  1  0.765183  0.534134  0.780778  1
  O  O25  1  0.863518  0.459709  0.211995  1
  O  O26  1  0.878854  0.800591  0.285942  1
