# generated using pymatgen
data_Ca3Cd(IO3)8
_symmetry_space_group_name_H-M   'P 1'
_cell_length_a   5.77734679
_cell_length_b   5.99760269
_cell_length_c   17.62593831
_cell_angle_alpha   89.97330478
_cell_angle_beta   90.19598075
_cell_angle_gamma   90.30620866
_symmetry_Int_Tables_number   1
_chemical_formula_structural   Ca3Cd(IO3)8
_chemical_formula_sum   'Ca3 Cd1 I8 O24'
_cell_volume   610.73047275
_cell_formula_units_Z   1
loop_
 _symmetry_equiv_pos_site_id
 _symmetry_equiv_pos_as_xyz
  1  'x, y, z'
loop_
 _atom_site_type_symbol
 _atom_site_label
 _atom_site_symmetry_multiplicity
 _atom_site_fract_x
 _atom_site_fract_y
 _atom_site_fract_z
 _atom_site_occupancy
  Ca  Ca0  1  0.712707  0.171152  0.094614  1
  Ca  Ca1  1  0.212449  0.327815  0.905652  1
  Ca  Ca2  1  0.287632  0.672336  0.406471  1
  Cd  Cd3  1  0.786017  0.827573  0.593593  1
  I  I4  1  0.240662  0.784324  0.707245  1
  I  I5  1  0.745807  0.717063  0.291109  1
  I  I6  1  0.752538  0.283811  0.790209  1
  I  I7  1  0.255059  0.217173  0.209800  1
  I  I8  1  0.037735  0.636190  0.077182  1
  I  I9  1  0.537213  0.864791  0.922383  1
  I  I10  1  0.963566  0.134962  0.423887  1
  I  I11  1  0.467847  0.362031  0.577693  1
  O  O12  1  0.541986  0.600464  0.515448  1
  O  O13  1  0.035469  0.898138  0.486668  1
  O  O14  1  0.467066  0.100342  0.985349  1
  O  O15  1  0.965773  0.399736  0.014396  1
  O  O16  1  0.610513  0.494167  0.661235  1
  O  O17  1  0.109911  0.007464  0.340677  1
  O  O18  1  0.389151  0.992352  0.839253  1
  O  O19  1  0.891076  0.507819  0.160404  1
  O  O20  1  0.709071  0.182643  0.545661  1
  O  O21  1  0.205326  0.316117  0.455861  1
  O  O22  1  0.297259  0.683376  0.954969  1
  O  O23  1  0.798112  0.816229  0.044681  1
  O  O24  1  0.042672  0.028654  0.164686  1
  O  O25  1  0.543247  0.471000  0.835915  1
  O  O26  1  0.956049  0.529405  0.336568  1
  O  O27  1  0.451678  0.974907  0.661975  1
  O  O28  1  0.356633  0.374394  0.125566  1
  O  O29  1  0.856016  0.125067  0.874002  1
  O  O30  1  0.644257  0.875090  0.375094  1
  O  O31  1  0.138088  0.624861  0.623527  1
  O  O32  1  0.508529  0.033633  0.207981  1
  O  O33  1  0.008447  0.466912  0.792065  1
  O  O34  1  0.490363  0.533419  0.293111  1
  O  O35  1  0.984075  0.964590  0.705069  1
