# generated using pymatgen
data_Tb6InCoOs
_symmetry_space_group_name_H-M   'P 1'
_cell_length_a   8.45664290
_cell_length_b   8.45664274
_cell_length_c   8.45664290
_cell_angle_alpha   112.89060840
_cell_angle_beta   110.04200930
_cell_angle_gamma   105.56420816
_symmetry_Int_Tables_number   1
_chemical_formula_structural   Tb6InCoOs
_chemical_formula_sum   'Tb12 In2 Co2 Os2'
_cell_volume   463.63815945
_cell_formula_units_Z   2
loop_
 _symmetry_equiv_pos_site_id
 _symmetry_equiv_pos_as_xyz
  1  'x, y, z'
loop_
 _atom_site_type_symbol
 _atom_site_label
 _atom_site_symmetry_multiplicity
 _atom_site_fract_x
 _atom_site_fract_y
 _atom_site_fract_z
 _atom_site_occupancy
  Tb  Tb0  1  0.441523  0.241667  0.199856  1
  Tb  Tb1  1  0.558477  0.758333  0.800144  1
  Tb  Tb2  1  0.041811  0.241667  0.800144  1
  Tb  Tb3  1  0.958189  0.758333  0.199856  1
  Tb  Tb4  1  0.183481  0.283888  0.467369  1
  Tb  Tb5  1  0.816519  0.716112  0.532631  1
  Tb  Tb6  1  0.183481  0.716112  0.899593  1
  Tb  Tb7  1  0.816519  0.283888  0.100407  1
  Tb  Tb8  1  0.324513  0.640847  0.316335  1
  Tb  Tb9  1  0.675487  0.359153  0.683665  1
  Tb  Tb10  1  0.324513  0.008179  0.683665  1
  Tb  Tb11  1  0.675487  0.991821  0.316335  1
  In  In12  1  0.500000  0.500000  0.000000  1
  In  In13  1  0.000000  0.000000  0.000000  1
  Co  Co14  1  0.110398  0.610398  0.500000  1
  Co  Co15  1  0.889602  0.389602  0.500000  1
  Os  Os16  1  0.331050  0.000000  0.331050  1
  Os  Os17  1  0.668950  0.000000  0.668950  1
