# generated using pymatgen
data_Tm16Cd4Os2PtRh
_symmetry_space_group_name_H-M   'P 1'
_cell_length_a   9.51973384
_cell_length_b   9.51290560
_cell_length_c   9.61035400
_cell_angle_alpha   59.66055497
_cell_angle_beta   59.68460494
_cell_angle_gamma   59.35745922
_symmetry_Int_Tables_number   1
_chemical_formula_structural   Tm16Cd4Os2PtRh
_chemical_formula_sum   'Tm16 Cd4 Os2 Pt1 Rh1'
_cell_volume   609.34421861
_cell_formula_units_Z   1
loop_
 _symmetry_equiv_pos_site_id
 _symmetry_equiv_pos_as_xyz
  1  'x, y, z'
loop_
 _atom_site_type_symbol
 _atom_site_label
 _atom_site_symmetry_multiplicity
 _atom_site_fract_x
 _atom_site_fract_y
 _atom_site_fract_z
 _atom_site_occupancy
  Tm  Tm0  1  0.348831  0.351935  0.349385  1
  Tm  Tm1  1  0.348831  0.351935  0.949850  1
  Tm  Tm2  1  0.347503  0.953991  0.349253  1
  Tm  Tm3  1  0.957187  0.347603  0.347605  1
  Tm  Tm4  1  0.814056  0.188118  0.190842  1
  Tm  Tm5  1  0.187089  0.812350  0.810655  1
  Tm  Tm6  1  0.187089  0.812350  0.189908  1
  Tm  Tm7  1  0.814056  0.188118  0.806985  1
  Tm  Tm8  1  0.188657  0.188381  0.811481  1
  Tm  Tm9  1  0.811983  0.806110  0.190954  1
  Tm  Tm10  1  0.938058  0.557244  0.565416  1
  Tm  Tm11  1  0.555658  0.938266  0.938921  1
  Tm  Tm12  1  0.555658  0.938266  0.567156  1
  Tm  Tm13  1  0.938058  0.557244  0.939283  1
  Tm  Tm14  1  0.562549  0.564915  0.936268  1
  Tm  Tm15  1  0.939566  0.939928  0.560253  1
  Cd  Cd16  1  0.579856  0.579870  0.581648  1
  Cd  Cd17  1  0.579856  0.579870  0.258625  1
  Cd  Cd18  1  0.580906  0.255394  0.581851  1
  Cd  Cd19  1  0.254812  0.581301  0.581944  1
  Os  Os20  1  0.145265  0.143329  0.137171  1
  Os  Os21  1  0.145265  0.143329  0.574237  1
  Pt  Pt22  1  0.575221  0.144236  0.140272  1
  Rh  Rh23  1  0.143996  0.575922  0.140042  1
