# generated using pymatgen
data_NdAg(MoO4)2
_symmetry_space_group_name_H-M   'P 1'
_cell_length_a   6.97705962
_cell_length_b   6.97705935
_cell_length_c   6.97706024
_cell_angle_alpha   134.64531201
_cell_angle_beta   134.64531317
_cell_angle_gamma   66.08180469
_symmetry_Int_Tables_number   1
_chemical_formula_structural   NdAg(MoO4)2
_chemical_formula_sum   'Nd1 Ag1 Mo2 O8'
_cell_volume   169.28124614
_cell_formula_units_Z   1
loop_
 _symmetry_equiv_pos_site_id
 _symmetry_equiv_pos_as_xyz
  1  'x, y, z'
loop_
 _atom_site_type_symbol
 _atom_site_label
 _atom_site_symmetry_multiplicity
 _atom_site_fract_x
 _atom_site_fract_y
 _atom_site_fract_z
 _atom_site_occupancy
  Nd  Nd0  1  0.250000  0.750000  0.500000  1
  Ag  Ag1  1  0.500000  0.500000  0.000000  1
  Mo  Mo2  1  0.000000  0.000000  0.000000  1
  Mo  Mo3  1  0.750000  0.250000  0.500000  1
  O  O4  1  0.226520  0.327417  0.378900  1
  O  O5  1  0.948518  0.847620  0.621100  1
  O  O6  1  0.672583  0.051482  0.899103  1
  O  O7  1  0.152380  0.773480  0.100897  1
  O  O8  1  0.591071  0.487029  0.415898  1
  O  O9  1  0.071131  0.175173  0.584102  1
  O  O10  1  0.512971  0.928869  0.104042  1
  O  O11  1  0.824827  0.408929  0.895958  1
