# generated using pymatgen
data_Ac2P24Ru7Rh
_symmetry_space_group_name_H-M   'P 1'
_cell_length_a   8.11990707
_cell_length_b   8.11990714
_cell_length_c   8.11990800
_cell_angle_alpha   89.95014081
_cell_angle_beta   89.95014081
_cell_angle_gamma   89.95014683
_symmetry_Int_Tables_number   1
_chemical_formula_structural   Ac2P24Ru7Rh
_chemical_formula_sum   'Ac2 P24 Ru7 Rh1'
_cell_volume   535.36840505
_cell_formula_units_Z   1
loop_
 _symmetry_equiv_pos_site_id
 _symmetry_equiv_pos_as_xyz
  1  'x, y, z'
loop_
 _atom_site_type_symbol
 _atom_site_label
 _atom_site_symmetry_multiplicity
 _atom_site_fract_x
 _atom_site_fract_y
 _atom_site_fract_z
 _atom_site_occupancy
  Ac  Ac0  1  0.997676  0.997676  0.997676  1
  Ac  Ac1  1  0.502317  0.502317  0.502317  1
  P  P2  1  0.359076  0.142956  0.997661  1
  P  P3  1  0.641272  0.144581  0.000093  1
  P  P4  1  0.358170  0.855897  0.999772  1
  P  P5  1  0.641103  0.855612  0.999933  1
  P  P6  1  0.357032  0.502335  0.140923  1
  P  P7  1  0.644102  0.500232  0.141834  1
  P  P8  1  0.997661  0.359076  0.142956  1
  P  P9  1  0.000093  0.641272  0.144581  1
  P  P10  1  0.502335  0.140923  0.357032  1
  P  P11  1  0.499907  0.858728  0.355418  1
  P  P12  1  0.142956  0.997661  0.359076  1
  P  P13  1  0.855897  0.999772  0.358170  1
  P  P14  1  0.140923  0.357032  0.502335  1
  P  P15  1  0.858728  0.355418  0.499907  1
  P  P16  1  0.141834  0.644102  0.500232  1
  P  P17  1  0.858901  0.644392  0.500072  1
  P  P18  1  0.144581  0.000093  0.641272  1
  P  P19  1  0.855612  0.999933  0.641103  1
  P  P20  1  0.500232  0.141834  0.644102  1
  P  P21  1  0.500072  0.858901  0.644392  1
  P  P22  1  0.999772  0.358170  0.855897  1
  P  P23  1  0.999933  0.641103  0.855612  1
  P  P24  1  0.355418  0.499907  0.858728  1
  P  P25  1  0.644392  0.500072  0.858901  1
  Ru  Ru26  1  0.749998  0.250002  0.249996  1
  Ru  Ru27  1  0.249996  0.749998  0.250002  1
  Ru  Ru28  1  0.750003  0.750001  0.250004  1
  Ru  Ru29  1  0.250002  0.249996  0.749998  1
  Ru  Ru30  1  0.750001  0.250004  0.750003  1
  Ru  Ru31  1  0.250004  0.750003  0.750001  1
  Ru  Ru32  1  0.750004  0.750004  0.750004  1
  Rh  Rh33  1  0.249994  0.249994  0.249994  1
