# generated using pymatgen
data_Tb2CuSi4Pd
_symmetry_space_group_name_H-M   'P 1'
_cell_length_a   8.73570105
_cell_length_b   8.73570140
_cell_length_c   4.07228200
_cell_angle_alpha   90.00000000
_cell_angle_beta   90.00000000
_cell_angle_gamma   153.16527126
_symmetry_Int_Tables_number   1
_chemical_formula_structural   Tb2CuSi4Pd
_chemical_formula_sum   'Tb2 Cu1 Si4 Pd1'
_cell_volume   140.28548057
_cell_formula_units_Z   1
loop_
 _symmetry_equiv_pos_site_id
 _symmetry_equiv_pos_as_xyz
  1  'x, y, z'
loop_
 _atom_site_type_symbol
 _atom_site_label
 _atom_site_symmetry_multiplicity
 _atom_site_fract_x
 _atom_site_fract_y
 _atom_site_fract_z
 _atom_site_occupancy
  Tb  Tb0  1  0.599935  0.400065  0.250000  1
  Tb  Tb1  1  0.400306  0.599694  0.750000  1
  Cu  Cu2  1  0.748306  0.251694  0.750000  1
  Si  Si3  1  0.964439  0.035561  0.250000  1
  Si  Si4  1  0.035647  0.964353  0.750000  1
  Si  Si5  1  0.827231  0.172769  0.250000  1
  Si  Si6  1  0.172798  0.827202  0.750000  1
  Pd  Pd7  1  0.251339  0.748661  0.250000  1
