# generated using pymatgen
data_Y6Cd6AgHg11
_symmetry_space_group_name_H-M   'P 1'
_cell_length_a   5.10359200
_cell_length_b   7.09656100
_cell_length_c   15.50240300
_cell_angle_alpha   89.99929666
_cell_angle_beta   90.00060263
_cell_angle_gamma   90.00004668
_symmetry_Int_Tables_number   1
_chemical_formula_structural   Y6Cd6AgHg11
_chemical_formula_sum   'Y6 Cd6 Ag1 Hg11'
_cell_volume   561.46528688
_cell_formula_units_Z   1
loop_
 _symmetry_equiv_pos_site_id
 _symmetry_equiv_pos_as_xyz
  1  'x, y, z'
loop_
 _atom_site_type_symbol
 _atom_site_label
 _atom_site_symmetry_multiplicity
 _atom_site_fract_x
 _atom_site_fract_y
 _atom_site_fract_z
 _atom_site_occupancy
  Y  Y0  1  0.000000  0.998900  0.999925  1
  Y  Y1  1  0.500013  0.500512  0.166830  1
  Y  Y2  1  0.000013  0.000805  0.333311  1
  Y  Y3  1  0.500000  0.500504  0.499841  1
  Y  Y4  1  0.999984  0.998913  0.666766  1
  Y  Y5  1  0.499990  0.500348  0.833323  1
  Cd  Cd6  1  0.999999  0.504445  0.997259  1
  Cd  Cd7  1  0.500014  0.999698  0.165851  1
  Cd  Cd8  1  0.000014  0.500262  0.333296  1
  Cd  Cd9  1  0.500000  0.999701  0.500831  1
  Cd  Cd10  1  0.999985  0.504473  0.669457  1
  Cd  Cd11  1  0.499988  0.991951  0.833319  1
  Ag  Ag12  1  0.999995  0.750001  0.833361  1
  Hg  Hg13  1  0.500000  0.250628  0.999850  1
  Hg  Hg14  1  0.500001  0.749435  0.997192  1
  Hg  Hg15  1  0.000012  0.250961  0.166365  1
  Hg  Hg16  1  0.000013  0.749250  0.166713  1
  Hg  Hg17  1  0.500018  0.250244  0.333344  1
  Hg  Hg18  1  0.500017  0.750184  0.333341  1
  Hg  Hg19  1  0.000000  0.250938  0.500271  1
  Hg  Hg20  1  0.999999  0.749264  0.499927  1
  Hg  Hg21  1  0.499982  0.250641  0.666817  1
  Hg  Hg22  1  0.499980  0.749443  0.669444  1
  Hg  Hg23  1  0.999988  0.248501  0.833362  1
