# generated using pymatgen
data_Lu12Co6Sn
_symmetry_space_group_name_H-M   'P 1'
_cell_length_a   8.16382908
_cell_length_b   8.16382937
_cell_length_c   8.16382900
_cell_angle_alpha   109.47121723
_cell_angle_beta   109.47121795
_cell_angle_gamma   109.47122260
_symmetry_Int_Tables_number   1
_chemical_formula_structural   Lu12Co6Sn
_chemical_formula_sum   'Lu12 Co6 Sn1'
_cell_volume   418.85128655
_cell_formula_units_Z   1
loop_
 _symmetry_equiv_pos_site_id
 _symmetry_equiv_pos_as_xyz
  1  'x, y, z'
loop_
 _atom_site_type_symbol
 _atom_site_label
 _atom_site_symmetry_multiplicity
 _atom_site_fract_x
 _atom_site_fract_y
 _atom_site_fract_z
 _atom_site_occupancy
  Lu  Lu0  1  0.806302  0.697744  0.504048  1
  Lu  Lu1  1  0.193698  0.302256  0.495952  1
  Lu  Lu2  1  0.193698  0.697744  0.891442  1
  Lu  Lu3  1  0.806302  0.302256  0.108558  1
  Lu  Lu4  1  0.697744  0.504048  0.806302  1
  Lu  Lu5  1  0.302256  0.495952  0.193698  1
  Lu  Lu6  1  0.697744  0.891442  0.193698  1
  Lu  Lu7  1  0.302256  0.108558  0.806302  1
  Lu  Lu8  1  0.504048  0.806302  0.697744  1
  Lu  Lu9  1  0.495952  0.193698  0.302256  1
  Lu  Lu10  1  0.108558  0.806302  0.302256  1
  Lu  Lu11  1  0.891442  0.193698  0.697744  1
  Co  Co12  1  0.884667  0.384667  0.500000  1
  Co  Co13  1  0.115333  0.615333  0.500000  1
  Co  Co14  1  0.384667  0.500000  0.884667  1
  Co  Co15  1  0.615333  0.500000  0.115333  1
  Co  Co16  1  0.500000  0.884667  0.384667  1
  Co  Co17  1  0.500000  0.115333  0.615333  1
  Sn  Sn18  1  0.000000  0.000000  0.000000  1
