# generated using pymatgen
data_Pt2IBr7
_symmetry_space_group_name_H-M   'P 1'
_cell_length_a   6.79789160
_cell_length_b   7.99472346
_cell_length_c   6.60254364
_cell_angle_alpha   90.43689969
_cell_angle_beta   106.79402553
_cell_angle_gamma   90.03491488
_symmetry_Int_Tables_number   1
_chemical_formula_structural   Pt2IBr7
_chemical_formula_sum   'Pt2 I1 Br7'
_cell_volume   343.51446940
_cell_formula_units_Z   1
loop_
 _symmetry_equiv_pos_site_id
 _symmetry_equiv_pos_as_xyz
  1  'x, y, z'
loop_
 _atom_site_type_symbol
 _atom_site_label
 _atom_site_symmetry_multiplicity
 _atom_site_fract_x
 _atom_site_fract_y
 _atom_site_fract_z
 _atom_site_occupancy
  Pt  Pt0  1  0.999310  0.385918  0.252356  1
  Pt  Pt1  1  0.001291  0.613177  0.749297  1
  I  I2  1  0.768517  0.626764  0.008950  1
  Br  Br3  1  0.768842  0.168105  0.041534  1
  Br  Br4  1  0.235321  0.166568  0.453439  1
  Br  Br5  1  0.221068  0.607555  0.494120  1
  Br  Br6  1  0.791873  0.382971  0.511057  1
  Br  Br7  1  0.775995  0.829725  0.535640  1
  Br  Br8  1  0.230281  0.831182  0.959833  1
  Br  Br9  1  0.207504  0.388036  0.993774  1
