# generated using pymatgen
data_HoTm3Ga16Ir3
_symmetry_space_group_name_H-M   'P 1'
_cell_length_a   6.14477200
_cell_length_b   6.13582500
_cell_length_c   11.14082100
_cell_angle_alpha   90.00000000
_cell_angle_beta   90.00000000
_cell_angle_gamma   90.00000000
_symmetry_Int_Tables_number   1
_chemical_formula_structural   HoTm3Ga16Ir3
_chemical_formula_sum   'Ho1 Tm3 Ga16 Ir3'
_cell_volume   420.04511098
_cell_formula_units_Z   1
loop_
 _symmetry_equiv_pos_site_id
 _symmetry_equiv_pos_as_xyz
  1  'x, y, z'
loop_
 _atom_site_type_symbol
 _atom_site_label
 _atom_site_symmetry_multiplicity
 _atom_site_fract_x
 _atom_site_fract_y
 _atom_site_fract_z
 _atom_site_occupancy
  Ho  Ho0  1  0.500000  0.000000  0.193291  1
  Tm  Tm1  1  0.000000  0.500000  0.193812  1
  Tm  Tm2  1  0.000000  0.500000  0.805814  1
  Tm  Tm3  1  0.500000  0.000000  0.806080  1
  Ga  Ga4  1  0.000000  0.000000  0.224747  1
  Ga  Ga5  1  0.000000  0.000000  0.775811  1
  Ga  Ga6  1  0.500000  0.500000  0.195995  1
  Ga  Ga7  1  0.500000  0.500000  0.803476  1
  Ga  Ga8  1  0.287576  0.288796  0.999371  1
  Ga  Ga9  1  0.712424  0.711204  0.999371  1
  Ga  Ga10  1  0.287576  0.711204  0.999371  1
  Ga  Ga11  1  0.712424  0.288796  0.999371  1
  Ga  Ga12  1  0.248826  0.249053  0.378845  1
  Ga  Ga13  1  0.751174  0.750947  0.378845  1
  Ga  Ga14  1  0.248916  0.751083  0.621768  1
  Ga  Ga15  1  0.751084  0.248917  0.621768  1
  Ga  Ga16  1  0.751084  0.751083  0.621768  1
  Ga  Ga17  1  0.248916  0.248917  0.621768  1
  Ga  Ga18  1  0.248826  0.750947  0.378845  1
  Ga  Ga19  1  0.751174  0.249053  0.378845  1
  Ir  Ir20  1  0.000000  0.500000  0.500278  1
  Ir  Ir21  1  0.500000  0.000000  0.500579  1
  Ir  Ir22  1  0.000000  0.000000  0.000179  1
