# generated using pymatgen
data_NpCd(SeO4)2
_symmetry_space_group_name_H-M   'P 1'
_cell_length_a   5.66326730
_cell_length_b   6.72045118
_cell_length_c   11.27882000
_cell_angle_alpha   103.44886992
_cell_angle_beta   92.91529302
_cell_angle_gamma   112.49436196
_symmetry_Int_Tables_number   1
_chemical_formula_structural   NpCd(SeO4)2
_chemical_formula_sum   'Np2 Cd2 Se4 O16'
_cell_volume   381.03310612
_cell_formula_units_Z   2
loop_
 _symmetry_equiv_pos_site_id
 _symmetry_equiv_pos_as_xyz
  1  'x, y, z'
loop_
 _atom_site_type_symbol
 _atom_site_label
 _atom_site_symmetry_multiplicity
 _atom_site_fract_x
 _atom_site_fract_y
 _atom_site_fract_z
 _atom_site_occupancy
  Np  Np0  1  0.167198  0.264162  0.165477  1
  Np  Np1  1  0.832803  0.735838  0.834524  1
  Cd  Cd2  1  0.676818  0.238016  0.434919  1
  Cd  Cd3  1  0.323181  0.761984  0.565081  1
  Se  Se4  1  0.313923  0.816891  0.124294  1
  Se  Se5  1  0.736831  0.707695  0.357976  1
  Se  Se6  1  0.263170  0.292305  0.642024  1
  Se  Se7  1  0.686079  0.183110  0.875706  1
  O  O8  1  0.106162  0.872394  0.029867  1
  O  O9  1  0.447327  0.358732  0.092095  1
  O  O10  1  0.108434  0.576766  0.159063  1
  O  O11  1  0.892241  0.170422  0.246304  1
  O  O12  1  0.328222  0.023994  0.252475  1
  O  O13  1  0.433814  0.483707  0.343838  1
  O  O14  1  0.909732  0.606369  0.437648  1
  O  O15  1  0.677162  0.902770  0.467926  1
  O  O16  1  0.322839  0.097231  0.532074  1
  O  O17  1  0.090269  0.393631  0.562352  1
  O  O18  1  0.566187  0.516292  0.656161  1
  O  O19  1  0.671779  0.976005  0.747525  1
  O  O20  1  0.107760  0.829578  0.753696  1
  O  O21  1  0.891567  0.423233  0.840937  1
  O  O22  1  0.552674  0.641268  0.907905  1
  O  O23  1  0.893837  0.127606  0.970133  1
