# generated using pymatgen
data_TaNb3O6
_symmetry_space_group_name_H-M   'P 1'
_cell_length_a   6.80401928
_cell_length_b   6.80401989
_cell_length_c   6.80401994
_cell_angle_alpha   73.66638696
_cell_angle_beta   73.66638447
_cell_angle_gamma   73.66638083
_symmetry_Int_Tables_number   1
_chemical_formula_structural   TaNb3O6
_chemical_formula_sum   'Ta2 Nb6 O12'
_cell_volume   283.00307457
_cell_formula_units_Z   2
loop_
 _symmetry_equiv_pos_site_id
 _symmetry_equiv_pos_as_xyz
  1  'x, y, z'
loop_
 _atom_site_type_symbol
 _atom_site_label
 _atom_site_symmetry_multiplicity
 _atom_site_fract_x
 _atom_site_fract_y
 _atom_site_fract_z
 _atom_site_occupancy
  Ta  Ta0  1  0.275394  0.275394  0.275394  1
  Ta  Ta1  1  0.724606  0.724606  0.724606  1
  Nb  Nb2  1  0.943443  0.111605  0.714778  1
  Nb  Nb3  1  0.714778  0.943443  0.111605  1
  Nb  Nb4  1  0.111605  0.714778  0.943443  1
  Nb  Nb5  1  0.056557  0.888395  0.285222  1
  Nb  Nb6  1  0.285222  0.056557  0.888395  1
  Nb  Nb7  1  0.888395  0.285222  0.056557  1
  O  O8  1  0.174825  0.572258  0.256835  1
  O  O9  1  0.256835  0.174825  0.572258  1
  O  O10  1  0.572258  0.256835  0.174825  1
  O  O11  1  0.825175  0.427742  0.743165  1
  O  O12  1  0.743165  0.825175  0.427742  1
  O  O13  1  0.427742  0.743165  0.825175  1
  O  O14  1  0.646475  0.025105  0.801216  1
  O  O15  1  0.801216  0.646475  0.025105  1
  O  O16  1  0.974895  0.198784  0.353525  1
  O  O17  1  0.198784  0.353525  0.974895  1
  O  O18  1  0.353525  0.974895  0.198784  1
  O  O19  1  0.025105  0.801216  0.646475  1
