# generated using pymatgen
data_CaNd6FeI12
_symmetry_space_group_name_H-M   'P 1'
_cell_length_a   10.01555310
_cell_length_b   10.01555234
_cell_length_c   10.01555389
_cell_angle_alpha   106.85872044
_cell_angle_beta   106.85871447
_cell_angle_gamma   106.85871373
_symmetry_Int_Tables_number   1
_chemical_formula_structural   CaNd6FeI12
_chemical_formula_sum   'Ca1 Nd6 Fe1 I12'
_cell_volume   839.90528684
_cell_formula_units_Z   1
loop_
 _symmetry_equiv_pos_site_id
 _symmetry_equiv_pos_as_xyz
  1  'x, y, z'
loop_
 _atom_site_type_symbol
 _atom_site_label
 _atom_site_symmetry_multiplicity
 _atom_site_fract_x
 _atom_site_fract_y
 _atom_site_fract_z
 _atom_site_occupancy
  Ca  Ca0  1  0.000000  0.000000  0.000000  1
  Nd  Nd1  1  0.796784  0.523218  0.596600  1
  Nd  Nd2  1  0.523218  0.596600  0.796784  1
  Nd  Nd3  1  0.203216  0.476782  0.403400  1
  Nd  Nd4  1  0.476782  0.403400  0.203216  1
  Nd  Nd5  1  0.596600  0.796784  0.523218  1
  Nd  Nd6  1  0.403400  0.203216  0.476782  1
  Fe  Fe7  1  0.500000  0.500000  0.500000  1
  I  I8  1  0.725712  0.180387  0.573457  1
  I  I9  1  0.957832  0.879272  0.655529  1
  I  I10  1  0.573457  0.725712  0.180387  1
  I  I11  1  0.120728  0.344471  0.042168  1
  I  I12  1  0.655529  0.957832  0.879272  1
  I  I13  1  0.879272  0.655529  0.957832  1
  I  I14  1  0.042168  0.120728  0.344471  1
  I  I15  1  0.819613  0.426543  0.274288  1
  I  I16  1  0.344471  0.042168  0.120728  1
  I  I17  1  0.274288  0.819613  0.426543  1
  I  I18  1  0.180387  0.573457  0.725712  1
  I  I19  1  0.426543  0.274288  0.819613  1
