# generated using pymatgen
data_Yb2DyUO6
_symmetry_space_group_name_H-M   'P 1'
_cell_length_a   6.72171223
_cell_length_b   6.72531285
_cell_length_c   6.70151482
_cell_angle_alpha   91.68550529
_cell_angle_beta   91.39540056
_cell_angle_gamma   91.32523357
_symmetry_Int_Tables_number   1
_chemical_formula_structural   Yb2DyUO6
_chemical_formula_sum   'Yb4 Dy2 U2 O12'
_cell_volume   302.63904907
_cell_formula_units_Z   2
loop_
 _symmetry_equiv_pos_site_id
 _symmetry_equiv_pos_as_xyz
  1  'x, y, z'
loop_
 _atom_site_type_symbol
 _atom_site_label
 _atom_site_symmetry_multiplicity
 _atom_site_fract_x
 _atom_site_fract_y
 _atom_site_fract_z
 _atom_site_occupancy
  Yb  Yb0  1  0.553959  0.250333  0.059510  1
  Yb  Yb1  1  0.252456  0.060119  0.558388  1
  Yb  Yb2  1  0.063782  0.557033  0.250052  1
  Yb  Yb3  1  0.443797  0.749379  0.940269  1
  Dy  Dy4  1  0.937849  0.443083  0.749654  1
  Dy  Dy5  1  0.748267  0.938144  0.440808  1
  U  U6  1  0.000474  0.998780  0.999955  1
  U  U7  1  0.496705  0.498685  0.499259  1
  O  O8  1  0.296241  0.063155  0.919517  1
  O  O9  1  0.060840  0.918855  0.304823  1
  O  O10  1  0.920783  0.303948  0.058690  1
  O  O11  1  0.700442  0.934380  0.090970  1
  O  O12  1  0.926029  0.087966  0.691059  1
  O  O13  1  0.078718  0.692586  0.927910  1
  O  O14  1  0.191291  0.406334  0.542765  1
  O  O15  1  0.408974  0.537598  0.199817  1
  O  O16  1  0.470541  0.806554  0.589758  1
  O  O17  1  0.599119  0.461360  0.800275  1
  O  O18  1  0.807561  0.598111  0.468451  1
  O  O19  1  0.542172  0.193599  0.408070  1
