# generated using pymatgen
data_YbHf(NbSe2)8
_symmetry_space_group_name_H-M   'P 1'
_cell_length_a   7.01227500
_cell_length_b   7.01227537
_cell_length_c   14.14825700
_cell_angle_alpha   90.00000000
_cell_angle_beta   90.00000000
_cell_angle_gamma   119.99999355
_symmetry_Int_Tables_number   1
_chemical_formula_structural   YbHf(NbSe2)8
_chemical_formula_sum   'Yb1 Hf1 Nb8 Se16'
_cell_volume   602.49230096
_cell_formula_units_Z   1
loop_
 _symmetry_equiv_pos_site_id
 _symmetry_equiv_pos_as_xyz
  1  'x, y, z'
loop_
 _atom_site_type_symbol
 _atom_site_label
 _atom_site_symmetry_multiplicity
 _atom_site_fract_x
 _atom_site_fract_y
 _atom_site_fract_z
 _atom_site_occupancy
  Yb  Yb0  1  0.000000  0.000000  0.500000  1
  Hf  Hf1  1  0.000000  0.000000  0.000000  1
  Nb  Nb2  1  0.000000  0.000000  0.237454  1
  Nb  Nb3  1  0.000000  0.000000  0.762546  1
  Nb  Nb4  1  0.506362  0.012723  0.238144  1
  Nb  Nb5  1  0.987277  0.493638  0.238144  1
  Nb  Nb6  1  0.506362  0.493638  0.238144  1
  Nb  Nb7  1  0.493638  0.987277  0.761856  1
  Nb  Nb8  1  0.012723  0.506362  0.761856  1
  Nb  Nb9  1  0.493638  0.506362  0.761856  1
  Se  Se10  1  0.333333  0.666667  0.882823  1
  Se  Se11  1  0.666667  0.333333  0.117177  1
  Se  Se12  1  0.666667  0.333333  0.360415  1
  Se  Se13  1  0.333333  0.666667  0.639585  1
  Se  Se14  1  0.168616  0.831384  0.355370  1
  Se  Se15  1  0.168616  0.337230  0.355370  1
  Se  Se16  1  0.662770  0.831384  0.355370  1
  Se  Se17  1  0.831384  0.168616  0.644630  1
  Se  Se18  1  0.831384  0.662770  0.644630  1
  Se  Se19  1  0.337230  0.168616  0.644630  1
  Se  Se20  1  0.830603  0.169397  0.880704  1
  Se  Se21  1  0.830603  0.661207  0.880704  1
  Se  Se22  1  0.338793  0.169397  0.880704  1
  Se  Se23  1  0.169397  0.830603  0.119296  1
  Se  Se24  1  0.169397  0.338793  0.119296  1
  Se  Se25  1  0.661207  0.830603  0.119296  1
