# generated using pymatgen
data_Dy2LuSi2
_symmetry_space_group_name_H-M   'P 1'
_cell_length_a   7.37761600
_cell_length_b   7.37761600
_cell_length_c   4.23547700
_cell_angle_alpha   90.00000000
_cell_angle_beta   90.00000000
_cell_angle_gamma   90.00000000
_symmetry_Int_Tables_number   1
_chemical_formula_structural   Dy2LuSi2
_chemical_formula_sum   'Dy4 Lu2 Si4'
_cell_volume   230.53370030
_cell_formula_units_Z   2
loop_
 _symmetry_equiv_pos_site_id
 _symmetry_equiv_pos_as_xyz
  1  'x, y, z'
loop_
 _atom_site_type_symbol
 _atom_site_label
 _atom_site_symmetry_multiplicity
 _atom_site_fract_x
 _atom_site_fract_y
 _atom_site_fract_z
 _atom_site_occupancy
  Dy  Dy0  1  0.324242  0.824242  0.500000  1
  Dy  Dy1  1  0.675758  0.175758  0.500000  1
  Dy  Dy2  1  0.175758  0.324242  0.500000  1
  Dy  Dy3  1  0.824242  0.675758  0.500000  1
  Lu  Lu4  1  0.000000  0.000000  0.000000  1
  Lu  Lu5  1  0.500000  0.500000  0.000000  1
  Si  Si6  1  0.617738  0.882262  0.000000  1
  Si  Si7  1  0.382262  0.117738  0.000000  1
  Si  Si8  1  0.882262  0.382262  0.000000  1
  Si  Si9  1  0.117738  0.617738  0.000000  1
