# generated using pymatgen
data_Ho18MgInIr12
_symmetry_space_group_name_H-M   'P 1'
_cell_length_a   10.77522100
_cell_length_b   10.77522100
_cell_length_c   6.28760100
_cell_angle_alpha   90.00000000
_cell_angle_beta   90.00000000
_cell_angle_gamma   90.00000000
_symmetry_Int_Tables_number   1
_chemical_formula_structural   Ho18MgInIr12
_chemical_formula_sum   'Ho18 Mg1 In1 Ir12'
_cell_volume   730.02435117
_cell_formula_units_Z   1
loop_
 _symmetry_equiv_pos_site_id
 _symmetry_equiv_pos_as_xyz
  1  'x, y, z'
loop_
 _atom_site_type_symbol
 _atom_site_label
 _atom_site_symmetry_multiplicity
 _atom_site_fract_x
 _atom_site_fract_y
 _atom_site_fract_z
 _atom_site_occupancy
  Ho  Ho0  1  0.284726  0.084917  0.379271  1
  Ho  Ho1  1  0.291789  0.911745  0.877764  1
  Ho  Ho2  1  0.708211  0.088255  0.877764  1
  Ho  Ho3  1  0.715274  0.915083  0.379271  1
  Ho  Ho4  1  0.586460  0.785710  0.878678  1
  Ho  Ho5  1  0.587458  0.207710  0.378484  1
  Ho  Ho6  1  0.412542  0.792290  0.378484  1
  Ho  Ho7  1  0.413540  0.214290  0.878678  1
  Ho  Ho8  1  0.207710  0.412542  0.621516  1
  Ho  Ho9  1  0.214290  0.586460  0.121322  1
  Ho  Ho10  1  0.785710  0.413540  0.121322  1
  Ho  Ho11  1  0.792290  0.587458  0.621516  1
  Ho  Ho12  1  0.911745  0.708211  0.122236  1
  Ho  Ho13  1  0.915083  0.284726  0.620729  1
  Ho  Ho14  1  0.084917  0.715274  0.620729  1
  Ho  Ho15  1  0.088255  0.291789  0.122236  1
  Ho  Ho16  1  0.000000  0.000000  0.000000  1
  Ho  Ho17  1  0.500000  0.500000  0.500000  1
  Mg  Mg18  1  0.000000  0.000000  0.500000  1
  In  In19  1  0.500000  0.500000  0.000000  1
  Ir  Ir20  1  0.846619  0.155404  0.245237  1
  Ir  Ir21  1  0.844596  0.846619  0.754763  1
  Ir  Ir22  1  0.155404  0.153381  0.754763  1
  Ir  Ir23  1  0.153381  0.844596  0.245237  1
  Ir  Ir24  1  0.657036  0.344971  0.743684  1
  Ir  Ir25  1  0.655029  0.657036  0.256316  1
  Ir  Ir26  1  0.344971  0.342964  0.256316  1
  Ir  Ir27  1  0.342964  0.655029  0.743684  1
  Ir  Ir28  1  0.500000  0.000000  0.122303  1
  Ir  Ir29  1  0.500000  0.000000  0.622172  1
  Ir  Ir30  1  0.000000  0.500000  0.877697  1
  Ir  Ir31  1  0.000000  0.500000  0.377828  1
