# generated using pymatgen
data_Tm7LuHg4
_symmetry_space_group_name_H-M   'P 1'
_cell_length_a   5.03426700
_cell_length_b   6.92699240
_cell_length_c   9.14316641
_cell_angle_alpha   90.03419472
_cell_angle_beta   90.00000000
_cell_angle_gamma   90.00000000
_symmetry_Int_Tables_number   1
_chemical_formula_structural   Tm7LuHg4
_chemical_formula_sum   'Tm7 Lu1 Hg4'
_cell_volume   318.84345274
_cell_formula_units_Z   1
loop_
 _symmetry_equiv_pos_site_id
 _symmetry_equiv_pos_as_xyz
  1  'x, y, z'
loop_
 _atom_site_type_symbol
 _atom_site_label
 _atom_site_symmetry_multiplicity
 _atom_site_fract_x
 _atom_site_fract_y
 _atom_site_fract_z
 _atom_site_occupancy
  Tm  Tm0  1  0.250000  0.480306  0.193202  1
  Tm  Tm1  1  0.750000  0.520128  0.806120  1
  Tm  Tm2  1  0.250000  0.980479  0.306158  1
  Tm  Tm3  1  0.750000  0.019490  0.694780  1
  Tm  Tm4  1  0.750000  0.668677  0.427272  1
  Tm  Tm5  1  0.250000  0.333535  0.571771  1
  Tm  Tm6  1  0.750000  0.165831  0.072205  1
  Lu  Lu7  1  0.250000  0.833118  0.928500  1
  Hg  Hg8  1  0.250000  0.264411  0.894787  1
  Hg  Hg9  1  0.750000  0.732648  0.103321  1
  Hg  Hg10  1  0.250000  0.767477  0.606858  1
  Hg  Hg11  1  0.750000  0.233902  0.395025  1
