# generated using pymatgen
data_Pr4Ga3IrI2
_symmetry_space_group_name_H-M   'P 1'
_cell_length_a   4.33062300
_cell_length_b   4.33062142
_cell_length_c   17.44499900
_cell_angle_alpha   90.00000000
_cell_angle_beta   90.00000000
_cell_angle_gamma   120.00000441
_symmetry_Int_Tables_number   1
_chemical_formula_structural   Pr4Ga3IrI2
_chemical_formula_sum   'Pr4 Ga3 Ir1 I2'
_cell_volume   283.33626156
_cell_formula_units_Z   1
loop_
 _symmetry_equiv_pos_site_id
 _symmetry_equiv_pos_as_xyz
  1  'x, y, z'
loop_
 _atom_site_type_symbol
 _atom_site_label
 _atom_site_symmetry_multiplicity
 _atom_site_fract_x
 _atom_site_fract_y
 _atom_site_fract_z
 _atom_site_occupancy
  Pr  Pr0  1  0.000000  0.000000  0.396845  1
  Pr  Pr1  1  0.000000  0.000000  0.881902  1
  Pr  Pr2  1  0.000000  0.000000  0.607074  1
  Pr  Pr3  1  0.000000  0.000000  0.116974  1
  Ga  Ga4  1  0.333333  0.666667  0.988138  1
  Ga  Ga5  1  0.333333  0.666667  0.503249  1
  Ga  Ga6  1  0.666667  0.333333  0.010784  1
  Ir  Ir7  1  0.666667  0.333333  0.497121  1
  I  I8  1  0.333333  0.666667  0.245735  1
  I  I9  1  0.666667  0.333333  0.752178  1
