# generated using pymatgen
data_Ta6Be20Co3
_symmetry_space_group_name_H-M   'P 1'
_cell_length_a   7.48974212
_cell_length_b   7.48974236
_cell_length_c   7.46337020
_cell_angle_alpha   59.90024442
_cell_angle_beta   59.90024420
_cell_angle_gamma   59.48808802
_symmetry_Int_Tables_number   1
_chemical_formula_structural   Ta6Be20Co3
_chemical_formula_sum   'Ta6 Be20 Co3'
_cell_volume   294.43801684
_cell_formula_units_Z   1
loop_
 _symmetry_equiv_pos_site_id
 _symmetry_equiv_pos_as_xyz
  1  'x, y, z'
loop_
 _atom_site_type_symbol
 _atom_site_label
 _atom_site_symmetry_multiplicity
 _atom_site_fract_x
 _atom_site_fract_y
 _atom_site_fract_z
 _atom_site_occupancy
  Ta  Ta0  1  0.705078  0.300556  0.298876  1
  Ta  Ta1  1  0.292129  0.709726  0.700143  1
  Ta  Ta2  1  0.300556  0.705078  0.298876  1
  Ta  Ta3  1  0.709726  0.292129  0.700143  1
  Ta  Ta4  1  0.295577  0.295577  0.702467  1
  Ta  Ta5  1  0.701752  0.701752  0.292689  1
  Be  Be6  1  0.325040  0.325040  0.328459  1
  Be  Be7  1  0.673731  0.673731  0.671804  1
  Be  Be8  1  0.324622  0.324622  0.019194  1
  Be  Be9  1  0.322121  0.026500  0.326441  1
  Be  Be10  1  0.676329  0.676329  0.973979  1
  Be  Be11  1  0.676294  0.977614  0.675991  1
  Be  Be12  1  0.026500  0.322121  0.326441  1
  Be  Be13  1  0.977614  0.676294  0.675991  1
  Be  Be14  1  0.498182  0.001167  0.999294  1
  Be  Be15  1  0.999646  0.506084  0.494851  1
  Be  Be16  1  0.001167  0.498182  0.999294  1
  Be  Be17  1  0.506084  0.999646  0.494851  1
  Be  Be18  1  0.999777  0.999777  0.501066  1
  Be  Be19  1  0.499416  0.499416  0.000636  1
  Be  Be20  1  0.997436  0.997436  0.003295  1
  Be  Be21  1  0.120727  0.630129  0.121195  1
  Be  Be22  1  0.878821  0.878822  0.368724  1
  Be  Be23  1  0.879596  0.365838  0.877475  1
  Be  Be24  1  0.630129  0.120727  0.121196  1
  Be  Be25  1  0.365838  0.879596  0.877475  1
  Co  Co26  1  0.116655  0.116655  0.121709  1
  Co  Co27  1  0.876342  0.876343  0.888010  1
  Co  Co28  1  0.123114  0.123114  0.639434  1
