# generated using pymatgen
data_Pr11In9Pd3Ru
_symmetry_space_group_name_H-M   'P 1'
_cell_length_a   13.54657060
_cell_length_b   13.60657865
_cell_length_c   3.85741000
_cell_angle_alpha   90.00000000
_cell_angle_beta   90.00000000
_cell_angle_gamma   111.58967895
_symmetry_Int_Tables_number   1
_chemical_formula_structural   Pr11In9Pd3Ru
_chemical_formula_sum   'Pr11 In9 Pd3 Ru1'
_cell_volume   661.12507299
_cell_formula_units_Z   1
loop_
 _symmetry_equiv_pos_site_id
 _symmetry_equiv_pos_as_xyz
  1  'x, y, z'
loop_
 _atom_site_type_symbol
 _atom_site_label
 _atom_site_symmetry_multiplicity
 _atom_site_fract_x
 _atom_site_fract_y
 _atom_site_fract_z
 _atom_site_occupancy
  Pr  Pr0  1  0.419401  0.077609  0.000000  1
  Pr  Pr1  1  0.584214  0.928883  0.000000  1
  Pr  Pr2  1  0.071839  0.418177  0.000000  1
  Pr  Pr3  1  0.928320  0.582615  0.000000  1
  Pr  Pr4  1  0.158670  0.840486  0.000000  1
  Pr  Pr5  1  0.839216  0.158246  0.000000  1
  Pr  Pr6  1  0.371455  0.627337  0.000000  1
  Pr  Pr7  1  0.620365  0.365723  0.000000  1
  Pr  Pr8  1  0.313713  0.305744  0.000000  1
  Pr  Pr9  1  0.692323  0.690948  0.000000  1
  Pr  Pr10  1  0.000345  0.999895  0.000000  1
  In  In11  1  0.366413  0.839386  0.500000  1
  In  In12  1  0.633293  0.164989  0.500000  1
  In  In13  1  0.839084  0.366698  0.500000  1
  In  In14  1  0.161535  0.633798  0.500000  1
  In  In15  1  0.221970  0.080549  0.500000  1
  In  In16  1  0.781958  0.924094  0.500000  1
  In  In17  1  0.075771  0.218730  0.500000  1
  In  In18  1  0.924478  0.781976  0.500000  1
  In  In19  1  0.500376  0.499013  0.500000  1
  Pd  Pd20  1  0.549143  0.752847  0.500000  1
  Pd  Pd21  1  0.248381  0.451471  0.500000  1
  Pd  Pd22  1  0.751300  0.550311  0.500000  1
  Ru  Ru23  1  0.446438  0.240474  0.500000  1
