# generated using pymatgen
data_DyHo5(BCl3)2
_symmetry_space_group_name_H-M   'P 1'
_cell_length_a   9.40799467
_cell_length_b   9.41219286
_cell_length_c   9.41172292
_cell_angle_alpha   109.46620947
_cell_angle_beta   109.45008757
_cell_angle_gamma   109.51311378
_symmetry_Int_Tables_number   1
_chemical_formula_structural   DyHo5(BCl3)2
_chemical_formula_sum   'Dy2 Ho10 B4 Cl12'
_cell_volume   641.43193189
_cell_formula_units_Z   2
loop_
 _symmetry_equiv_pos_site_id
 _symmetry_equiv_pos_as_xyz
  1  'x, y, z'
loop_
 _atom_site_type_symbol
 _atom_site_label
 _atom_site_symmetry_multiplicity
 _atom_site_fract_x
 _atom_site_fract_y
 _atom_site_fract_z
 _atom_site_occupancy
  Dy  Dy0  1  0.265125  0.015135  0.030379  1
  Dy  Dy1  1  0.234895  0.265237  0.749981  1
  Ho  Ho2  1  0.468391  0.484355  0.234380  1
  Ho  Ho3  1  0.749929  0.234310  0.265749  1
  Ho  Ho4  1  0.750093  0.015816  0.484439  1
  Ho  Ho5  1  0.234169  0.468474  0.484414  1
  Ho  Ho6  1  0.265797  0.750220  0.234328  1
  Ho  Ho7  1  0.031611  0.266003  0.015951  1
  Ho  Ho8  1  0.015591  0.031584  0.265695  1
  Ho  Ho9  1  0.484424  0.750058  0.015908  1
  Ho  Ho10  1  0.484283  0.234281  0.468439  1
  Ho  Ho11  1  0.015693  0.484186  0.750009  1
  B  B12  1  0.249945  0.250413  0.250262  1
  B  B13  1  0.500222  0.999965  0.250277  1
  B  B14  1  0.999769  0.250058  0.499759  1
  B  B15  1  0.250063  0.500329  0.000474  1
  Cl  Cl16  1  0.250127  0.754516  0.743863  1
  Cl  Cl17  1  0.511721  0.506758  0.755223  1
  Cl  Cl18  1  0.988295  0.743571  0.995054  1
  Cl  Cl19  1  0.744631  0.250012  0.755326  1
  Cl  Cl20  1  0.992325  0.988413  0.743950  1
  Cl  Cl21  1  0.249877  0.993780  0.504373  1
  Cl  Cl22  1  0.755309  0.510614  0.505336  1
  Cl  Cl23  1  0.507676  0.251599  0.996089  1
  Cl  Cl24  1  0.755293  0.744868  0.250111  1
  Cl  Cl25  1  0.744750  0.994851  0.989611  1
  Cl  Cl26  1  0.994826  0.505302  0.250146  1
  Cl  Cl27  1  0.505169  0.755295  0.510472  1
