# generated using pymatgen
data_Tb19YIr7Rh5
_symmetry_space_group_name_H-M   'P 1'
_cell_length_a   10.94081384
_cell_length_b   10.94068170
_cell_length_c   6.43314604
_cell_angle_alpha   89.99102815
_cell_angle_beta   89.99299218
_cell_angle_gamma   89.92598327
_symmetry_Int_Tables_number   1
_chemical_formula_structural   Tb19YIr7Rh5
_chemical_formula_sum   'Tb19 Y1 Ir7 Rh5'
_cell_volume   770.04667681
_cell_formula_units_Z   1
loop_
 _symmetry_equiv_pos_site_id
 _symmetry_equiv_pos_as_xyz
  1  'x, y, z'
loop_
 _atom_site_type_symbol
 _atom_site_label
 _atom_site_symmetry_multiplicity
 _atom_site_fract_x
 _atom_site_fract_y
 _atom_site_fract_z
 _atom_site_occupancy
  Tb  Tb0  1  0.290322  0.089254  0.383640  1
  Tb  Tb1  1  0.290809  0.910601  0.882846  1
  Tb  Tb2  1  0.708374  0.088624  0.882094  1
  Tb  Tb3  1  0.708122  0.908156  0.383309  1
  Tb  Tb4  1  0.589178  0.790337  0.883507  1
  Tb  Tb5  1  0.587847  0.209402  0.382754  1
  Tb  Tb6  1  0.409628  0.790475  0.383298  1
  Tb  Tb7  1  0.410341  0.208823  0.882489  1
  Tb  Tb8  1  0.209731  0.410586  0.616295  1
  Tb  Tb9  1  0.209446  0.590126  0.116901  1
  Tb  Tb10  1  0.790667  0.412396  0.117418  1
  Tb  Tb11  1  0.791088  0.589892  0.617324  1
  Tb  Tb12  1  0.911000  0.709665  0.116278  1
  Tb  Tb13  1  0.911109  0.291607  0.618034  1
  Tb  Tb14  1  0.089668  0.709237  0.617239  1
  Tb  Tb15  1  0.091555  0.291918  0.116582  1
  Tb  Tb16  1  0.999133  0.999908  0.499726  1
  Tb  Tb17  1  0.000093  0.000878  0.000290  1
  Tb  Tb18  1  0.499938  0.499240  0.999767  1
  Y  Y19  1  0.500723  0.500074  0.500213  1
  Ir  Ir20  1  0.845684  0.847192  0.750549  1
  Ir  Ir21  1  0.152837  0.154269  0.749632  1
  Ir  Ir22  1  0.153782  0.846180  0.249898  1
  Ir  Ir23  1  0.654877  0.345044  0.750509  1
  Ir  Ir24  1  0.654771  0.653024  0.248777  1
  Ir  Ir25  1  0.346874  0.345326  0.250203  1
  Ir  Ir26  1  0.346052  0.654057  0.750517  1
  Rh  Rh27  1  0.845545  0.154498  0.249867  1
  Rh  Rh28  1  0.500535  0.000094  0.130068  1
  Rh  Rh29  1  0.500321  0.999969  0.629131  1
  Rh  Rh30  1  0.000037  0.499690  0.871000  1
  Rh  Rh31  1  0.999914  0.499459  0.369845  1
