# generated using pymatgen
data_CsCdRhF6
_symmetry_space_group_name_H-M   'P 1'
_cell_length_a   5.87218700
_cell_length_b   5.87218751
_cell_length_c   12.15477800
_cell_angle_alpha   90.00000000
_cell_angle_beta   90.00000000
_cell_angle_gamma   119.99999147
_symmetry_Int_Tables_number   1
_chemical_formula_structural   CsCdRhF6
_chemical_formula_sum   'Cs2 Cd2 Rh2 F12'
_cell_volume   362.97565085
_cell_formula_units_Z   2
loop_
 _symmetry_equiv_pos_site_id
 _symmetry_equiv_pos_as_xyz
  1  'x, y, z'
loop_
 _atom_site_type_symbol
 _atom_site_label
 _atom_site_symmetry_multiplicity
 _atom_site_fract_x
 _atom_site_fract_y
 _atom_site_fract_z
 _atom_site_occupancy
  Cs  Cs0  1  0.000000  0.000000  0.250000  1
  Cs  Cs1  1  0.000000  0.000000  0.750000  1
  Cd  Cd2  1  0.666667  0.333333  0.000000  1
  Cd  Cd3  1  0.333333  0.666666  0.500000  1
  Rh  Rh4  1  0.333333  0.666666  0.000000  1
  Rh  Rh5  1  0.666667  0.333333  0.500000  1
  F  F6  1  0.034593  0.393180  0.091532  1
  F  F7  1  0.606819  0.641413  0.091532  1
  F  F8  1  0.358588  0.965406  0.091532  1
  F  F9  1  0.641413  0.034594  0.408470  1
  F  F10  1  0.393181  0.358587  0.408470  1
  F  F11  1  0.965406  0.606819  0.408470  1
  F  F12  1  0.393180  0.034594  0.591531  1
  F  F13  1  0.965407  0.358587  0.591531  1
  F  F14  1  0.641413  0.606819  0.591531  1
  F  F15  1  0.358588  0.393180  0.908469  1
  F  F16  1  0.034594  0.641413  0.908469  1
  F  F17  1  0.606818  0.965406  0.908469  1
