# generated using pymatgen
data_Er3Tm(TcB4)4
_symmetry_space_group_name_H-M   'P 1'
_cell_length_a   3.57815400
_cell_length_b   5.93883722
_cell_length_c   11.48956902
_cell_angle_alpha   90.01929175
_cell_angle_beta   90.00000000
_cell_angle_gamma   90.00000000
_symmetry_Int_Tables_number   1
_chemical_formula_structural   Er3Tm(TcB4)4
_chemical_formula_sum   'Er3 Tm1 Tc4 B16'
_cell_volume   244.15417989
_cell_formula_units_Z   1
loop_
 _symmetry_equiv_pos_site_id
 _symmetry_equiv_pos_as_xyz
  1  'x, y, z'
loop_
 _atom_site_type_symbol
 _atom_site_label
 _atom_site_symmetry_multiplicity
 _atom_site_fract_x
 _atom_site_fract_y
 _atom_site_fract_z
 _atom_site_occupancy
  Er  Er0  1  0.500000  0.128621  0.149882  1
  Er  Er1  1  0.500000  0.871446  0.850150  1
  Er  Er2  1  0.500000  0.628501  0.350160  1
  Tm  Tm3  1  0.500000  0.371305  0.649772  1
  Tc  Tc4  1  0.500000  0.134434  0.412445  1
  Tc  Tc5  1  0.500000  0.865640  0.587855  1
  Tc  Tc6  1  0.500000  0.634282  0.087736  1
  Tc  Tc7  1  0.500000  0.365664  0.911938  1
  B  B8  1  0.000000  0.478306  0.192913  1
  B  B9  1  0.000000  0.521486  0.806828  1
  B  B10  1  0.000000  0.978409  0.307167  1
  B  B11  1  0.000000  0.021828  0.692939  1
  B  B12  1  0.000000  0.289080  0.314953  1
  B  B13  1  0.000000  0.710531  0.685085  1
  B  B14  1  0.000000  0.789116  0.185139  1
  B  B15  1  0.000000  0.210945  0.814653  1
  B  B16  1  0.000000  0.364892  0.468990  1
  B  B17  1  0.000000  0.635032  0.531381  1
  B  B18  1  0.000000  0.864844  0.031155  1
  B  B19  1  0.000000  0.135226  0.968706  1
  B  B20  1  0.000000  0.386695  0.047431  1
  B  B21  1  0.000000  0.613193  0.952369  1
  B  B22  1  0.000000  0.886793  0.452610  1
  B  B23  1  0.000000  0.113734  0.547745  1
