# generated using pymatgen
data_Dy15YTl5InCoRh
_symmetry_space_group_name_H-M   'P 1'
_cell_length_a   10.41995800
_cell_length_b   10.41189412
_cell_length_c   7.13655003
_cell_angle_alpha   90.01506759
_cell_angle_beta   90.00000000
_cell_angle_gamma   120.02562948
_symmetry_Int_Tables_number   1
_chemical_formula_structural   Dy15YTl5InCoRh
_chemical_formula_sum   'Dy15 Y1 Tl5 In1 Co1 Rh1'
_cell_volume   670.35124388
_cell_formula_units_Z   1
loop_
 _symmetry_equiv_pos_site_id
 _symmetry_equiv_pos_as_xyz
  1  'x, y, z'
loop_
 _atom_site_type_symbol
 _atom_site_label
 _atom_site_symmetry_multiplicity
 _atom_site_fract_x
 _atom_site_fract_y
 _atom_site_fract_z
 _atom_site_occupancy
  Dy  Dy0  1  0.466758  0.535509  0.481092  1
  Dy  Dy1  1  0.068751  0.535509  0.481092  1
  Dy  Dy2  1  0.465065  0.930130  0.479583  1
  Dy  Dy3  1  0.537769  0.461977  0.979962  1
  Dy  Dy4  1  0.924208  0.461977  0.979962  1
  Dy  Dy5  1  0.538134  0.076269  0.980576  1
  Dy  Dy6  1  0.822683  0.178127  0.277564  1
  Dy  Dy7  1  0.355443  0.178127  0.277564  1
  Dy  Dy8  1  0.822208  0.644417  0.275142  1
  Dy  Dy9  1  0.176351  0.824830  0.780331  1
  Dy  Dy10  1  0.648479  0.824830  0.780331  1
  Dy  Dy11  1  0.175456  0.350911  0.779827  1
  Dy  Dy12  1  0.333133  0.666267  0.100068  1
  Dy  Dy13  1  0.666951  0.333901  0.588559  1
  Dy  Dy14  1  0.999010  0.998019  0.497151  1
  Y  Y15  1  0.999111  0.998221  0.998824  1
  Tl  Tl16  1  0.163018  0.837117  0.232488  1
  Tl  Tl17  1  0.674099  0.837117  0.232488  1
  Tl  Tl18  1  0.162946  0.325891  0.232561  1
  Tl  Tl19  1  0.836150  0.164073  0.728948  1
  Tl  Tl20  1  0.327924  0.164073  0.728948  1
  In  In21  1  0.836519  0.673036  0.730830  1
  Co  Co22  1  0.666533  0.333065  0.209254  1
  Rh  Rh23  1  0.333302  0.666605  0.711401  1
