# generated using pymatgen
data_Cs5Nb(MoH9)3
_symmetry_space_group_name_H-M   'P 1'
_cell_length_a   9.72444600
_cell_length_b   9.47103667
_cell_length_c   5.43160000
_cell_angle_alpha   90.00000000
_cell_angle_beta   90.00000000
_cell_angle_gamma   119.14166572
_symmetry_Int_Tables_number   1
_chemical_formula_structural   Cs5Nb(MoH9)3
_chemical_formula_sum   'Cs5 Nb1 Mo3 H27'
_cell_volume   436.93060601
_cell_formula_units_Z   1
loop_
 _symmetry_equiv_pos_site_id
 _symmetry_equiv_pos_as_xyz
  1  'x, y, z'
loop_
 _atom_site_type_symbol
 _atom_site_label
 _atom_site_symmetry_multiplicity
 _atom_site_fract_x
 _atom_site_fract_y
 _atom_site_fract_z
 _atom_site_occupancy
  Cs  Cs0  1  0.728367  0.749956  0.500000  1
  Cs  Cs1  1  0.271633  0.021590  0.500000  1
  Cs  Cs2  1  0.000000  0.644320  0.000000  1
  Cs  Cs3  1  0.436380  0.391035  0.000000  1
  Cs  Cs4  1  0.563620  0.954655  0.000000  1
  Nb  Nb5  1  0.000000  0.271636  0.500000  1
  Mo  Mo6  1  0.730756  0.325370  0.500000  1
  Mo  Mo7  1  0.269244  0.594615  0.500000  1
  Mo  Mo8  1  0.000000  0.074556  0.000000  1
  H  H9  1  0.887279  0.342320  0.710675  1
  H  H10  1  0.718273  0.408338  0.770379  1
  H  H11  1  0.579203  0.195586  0.689742  1
  H  H12  1  0.112721  0.455042  0.289325  1
  H  H13  1  0.579203  0.195586  0.310258  1
  H  H14  1  0.887279  0.342320  0.289325  1
  H  H15  1  0.718273  0.408338  0.229621  1
  H  H16  1  0.281727  0.690066  0.770379  1
  H  H17  1  0.420797  0.616384  0.689742  1
  H  H18  1  0.173522  0.068891  0.000000  1
  H  H19  1  0.826478  0.895370  0.000000  1
  H  H20  1  0.000000  0.262121  0.000000  1
  H  H21  1  0.880297  0.072148  0.255061  1
  H  H22  1  0.119703  0.191852  0.744939  1
  H  H23  1  0.000000  0.934235  0.794552  1
  H  H24  1  0.000000  0.934235  0.205448  1
  H  H25  1  0.119703  0.191852  0.255061  1
  H  H26  1  0.880297  0.072148  0.744939  1
  H  H27  1  0.156767  0.690223  0.500000  1
  H  H28  1  0.417312  0.797061  0.500000  1
  H  H29  1  0.240789  0.387120  0.500000  1
  H  H30  1  0.582688  0.379749  0.500000  1
  H  H31  1  0.843233  0.533457  0.500000  1
  H  H32  1  0.759211  0.146332  0.500000  1
  H  H33  1  0.112721  0.455042  0.710675  1
  H  H34  1  0.281727  0.690066  0.229621  1
  H  H35  1  0.420797  0.616384  0.310258  1
