# generated using pymatgen
data_TmLuMnC2
_symmetry_space_group_name_H-M   'P 1'
_cell_length_a   4.92842500
_cell_length_b   6.25632600
_cell_length_c   9.52374600
_cell_angle_alpha   90.00000000
_cell_angle_beta   90.00000000
_cell_angle_gamma   90.00000000
_symmetry_Int_Tables_number   1
_chemical_formula_structural   TmLuMnC2
_chemical_formula_sum   'Tm4 Lu4 Mn4 C8'
_cell_volume   293.65359814
_cell_formula_units_Z   4
loop_
 _symmetry_equiv_pos_site_id
 _symmetry_equiv_pos_as_xyz
  1  'x, y, z'
loop_
 _atom_site_type_symbol
 _atom_site_label
 _atom_site_symmetry_multiplicity
 _atom_site_fract_x
 _atom_site_fract_y
 _atom_site_fract_z
 _atom_site_occupancy
  Tm  Tm0  1  0.250000  0.473254  0.216488  1
  Tm  Tm1  1  0.250000  0.973254  0.283512  1
  Tm  Tm2  1  0.750000  0.526746  0.783512  1
  Tm  Tm3  1  0.750000  0.026746  0.716488  1
  Lu  Lu4  1  0.250000  0.819139  0.943638  1
  Lu  Lu5  1  0.250000  0.319139  0.556362  1
  Lu  Lu6  1  0.750000  0.180861  0.056362  1
  Lu  Lu7  1  0.750000  0.680861  0.443638  1
  Mn  Mn8  1  0.250000  0.272280  0.858959  1
  Mn  Mn9  1  0.250000  0.772280  0.641041  1
  Mn  Mn10  1  0.750000  0.727720  0.141041  1
  Mn  Mn11  1  0.750000  0.227720  0.358959  1
  C  C12  1  0.250000  0.038426  0.738896  1
  C  C13  1  0.250000  0.538426  0.761104  1
  C  C14  1  0.750000  0.961574  0.261104  1
  C  C15  1  0.750000  0.461574  0.238896  1
  C  C16  1  0.250000  0.687554  0.460908  1
  C  C17  1  0.250000  0.187554  0.039092  1
  C  C18  1  0.750000  0.312446  0.539092  1
  C  C19  1  0.750000  0.812446  0.960908  1
