# generated using pymatgen
data_CeY3(TiIr)4
_symmetry_space_group_name_H-M   'P 1'
_cell_length_a   4.40736000
_cell_length_b   6.95981206
_cell_length_c   8.09690902
_cell_angle_alpha   90.77244312
_cell_angle_beta   90.00000000
_cell_angle_gamma   90.00000000
_symmetry_Int_Tables_number   1
_chemical_formula_structural   CeY3(TiIr)4
_chemical_formula_sum   'Ce1 Y3 Ti4 Ir4'
_cell_volume   248.34523328
_cell_formula_units_Z   1
loop_
 _symmetry_equiv_pos_site_id
 _symmetry_equiv_pos_as_xyz
  1  'x, y, z'
loop_
 _atom_site_type_symbol
 _atom_site_label
 _atom_site_symmetry_multiplicity
 _atom_site_fract_x
 _atom_site_fract_y
 _atom_site_fract_z
 _atom_site_occupancy
  Ce  Ce0  1  0.250000  0.983957  0.318366  1
  Y  Y1  1  0.250000  0.485359  0.182263  1
  Y  Y2  1  0.750000  0.015860  0.686986  1
  Y  Y3  1  0.750000  0.516817  0.818755  1
  Ti  Ti4  1  0.250000  0.359369  0.570544  1
  Ti  Ti5  1  0.250000  0.862357  0.928564  1
  Ti  Ti6  1  0.750000  0.632270  0.431935  1
  Ti  Ti7  1  0.750000  0.143267  0.065353  1
  Ir  Ir8  1  0.250000  0.220365  0.906447  1
  Ir  Ir9  1  0.250000  0.717690  0.587086  1
  Ir  Ir10  1  0.750000  0.786592  0.094416  1
  Ir  Ir11  1  0.750000  0.276098  0.409286  1
