# generated using pymatgen
data_NdDy5(AuO7)2
_symmetry_space_group_name_H-M   'P 1'
_cell_length_a   6.52448463
_cell_length_b   6.52448479
_cell_length_c   7.50101563
_cell_angle_alpha   90.03817044
_cell_angle_beta   89.96183128
_cell_angle_gamma   108.78426848
_symmetry_Int_Tables_number   1
_chemical_formula_structural   NdDy5(AuO7)2
_chemical_formula_sum   'Nd1 Dy5 Au2 O14'
_cell_volume   302.30270596
_cell_formula_units_Z   1
loop_
 _symmetry_equiv_pos_site_id
 _symmetry_equiv_pos_as_xyz
  1  'x, y, z'
loop_
 _atom_site_type_symbol
 _atom_site_label
 _atom_site_symmetry_multiplicity
 _atom_site_fract_x
 _atom_site_fract_y
 _atom_site_fract_z
 _atom_site_occupancy
  Nd  Nd0  1  0.500000  0.500000  0.000000  1
  Dy  Dy1  1  0.001785  0.471261  0.747313  1
  Dy  Dy2  1  0.998215  0.528739  0.252687  1
  Dy  Dy3  1  0.471261  0.001785  0.252687  1
  Dy  Dy4  1  0.528739  0.998215  0.747313  1
  Dy  Dy5  1  0.500000  0.500000  0.500000  1
  Au  Au6  1  0.000000  0.000000  0.000000  1
  Au  Au7  1  0.000000  0.000000  0.500000  1
  O  O8  1  0.081825  0.328705  0.475493  1
  O  O9  1  0.921341  0.078659  0.749845  1
  O  O10  1  0.075882  0.328779  0.024333  1
  O  O11  1  0.918175  0.671295  0.524507  1
  O  O12  1  0.641038  0.358962  0.741934  1
  O  O13  1  0.671295  0.918175  0.475493  1
  O  O14  1  0.328705  0.081825  0.524507  1
  O  O15  1  0.328779  0.075882  0.975667  1
  O  O16  1  0.671221  0.924118  0.024333  1
  O  O17  1  0.924118  0.671221  0.975667  1
  O  O18  1  0.635220  0.364780  0.258585  1
  O  O19  1  0.358962  0.641038  0.258066  1
  O  O20  1  0.364780  0.635220  0.741415  1
  O  O21  1  0.078659  0.921341  0.250155  1
