# generated using pymatgen
data_DyTmOsC2
_symmetry_space_group_name_H-M   'P 1'
_cell_length_a   5.09027800
_cell_length_b   6.43797300
_cell_length_c   9.69173500
_cell_angle_alpha   90.00000000
_cell_angle_beta   90.00000000
_cell_angle_gamma   90.00000000
_symmetry_Int_Tables_number   1
_chemical_formula_structural   DyTmOsC2
_chemical_formula_sum   'Dy4 Tm4 Os4 C8'
_cell_volume   317.60854865
_cell_formula_units_Z   4
loop_
 _symmetry_equiv_pos_site_id
 _symmetry_equiv_pos_as_xyz
  1  'x, y, z'
loop_
 _atom_site_type_symbol
 _atom_site_label
 _atom_site_symmetry_multiplicity
 _atom_site_fract_x
 _atom_site_fract_y
 _atom_site_fract_z
 _atom_site_occupancy
  Dy  Dy0  1  0.250000  0.471335  0.216323  1
  Dy  Dy1  1  0.250000  0.971335  0.283677  1
  Dy  Dy2  1  0.750000  0.528665  0.783677  1
  Dy  Dy3  1  0.750000  0.028665  0.716323  1
  Tm  Tm4  1  0.250000  0.822310  0.946119  1
  Tm  Tm5  1  0.250000  0.322310  0.553881  1
  Tm  Tm6  1  0.750000  0.177690  0.053881  1
  Tm  Tm7  1  0.750000  0.677690  0.446119  1
  Os  Os8  1  0.250000  0.277468  0.866508  1
  Os  Os9  1  0.250000  0.777468  0.633492  1
  Os  Os10  1  0.750000  0.722532  0.133492  1
  Os  Os11  1  0.750000  0.222532  0.366508  1
  C  C12  1  0.250000  0.043440  0.741050  1
  C  C13  1  0.250000  0.543440  0.758950  1
  C  C14  1  0.750000  0.956560  0.258950  1
  C  C15  1  0.750000  0.456560  0.241050  1
  C  C16  1  0.250000  0.669633  0.445694  1
  C  C17  1  0.250000  0.169633  0.054306  1
  C  C18  1  0.750000  0.330367  0.554306  1
  C  C19  1  0.750000  0.830367  0.945694  1
