# generated using pymatgen
data_Sc5Ga2Bi
_symmetry_space_group_name_H-M   'P 1'
_cell_length_a   8.24593800
_cell_length_b   8.24571418
_cell_length_c   6.08274000
_cell_angle_alpha   90.00000000
_cell_angle_beta   90.00000000
_cell_angle_gamma   119.99910295
_symmetry_Int_Tables_number   1
_chemical_formula_structural   Sc5Ga2Bi
_chemical_formula_sum   'Sc10 Ga4 Bi2'
_cell_volume   358.18067662
_cell_formula_units_Z   2
loop_
 _symmetry_equiv_pos_site_id
 _symmetry_equiv_pos_as_xyz
  1  'x, y, z'
loop_
 _atom_site_type_symbol
 _atom_site_label
 _atom_site_symmetry_multiplicity
 _atom_site_fract_x
 _atom_site_fract_y
 _atom_site_fract_z
 _atom_site_occupancy
  Sc  Sc0  1  0.308661  0.654331  0.000000  1
  Sc  Sc1  1  0.672757  0.336378  0.500000  1
  Sc  Sc2  1  0.672757  0.336378  0.000000  1
  Sc  Sc3  1  0.308661  0.654331  0.500000  1
  Sc  Sc4  1  0.227850  0.000364  0.250000  1
  Sc  Sc5  1  0.227850  0.227486  0.750000  1
  Sc  Sc6  1  0.017926  0.766062  0.750000  1
  Sc  Sc7  1  0.017926  0.251863  0.250000  1
  Sc  Sc8  1  0.769374  0.750545  0.250000  1
  Sc  Sc9  1  0.769374  0.018828  0.750000  1
  Ga  Ga10  1  0.997822  0.398016  0.750000  1
  Ga  Ga11  1  0.997822  0.599806  0.250000  1
  Ga  Ga12  1  0.400406  0.396683  0.250000  1
  Ga  Ga13  1  0.400406  0.003723  0.750000  1
  Bi  Bi14  1  0.605205  0.993996  0.250000  1
  Bi  Bi15  1  0.605205  0.611209  0.750000  1
