# generated using pymatgen
data_Sc3GaHgRu
_symmetry_space_group_name_H-M   'P 1'
_cell_length_a   3.29888500
_cell_length_b   3.29888500
_cell_length_c   10.61418000
_cell_angle_alpha   90.00000000
_cell_angle_beta   90.00000000
_cell_angle_gamma   90.00000000
_symmetry_Int_Tables_number   1
_chemical_formula_structural   Sc3GaHgRu
_chemical_formula_sum   'Sc3 Ga1 Hg1 Ru1'
_cell_volume   115.51032365
_cell_formula_units_Z   1
loop_
 _symmetry_equiv_pos_site_id
 _symmetry_equiv_pos_as_xyz
  1  'x, y, z'
loop_
 _atom_site_type_symbol
 _atom_site_label
 _atom_site_symmetry_multiplicity
 _atom_site_fract_x
 _atom_site_fract_y
 _atom_site_fract_z
 _atom_site_occupancy
  Sc  Sc0  1  0.000000  0.000000  0.985840  1
  Sc  Sc1  1  0.000000  0.000000  0.313018  1
  Sc  Sc2  1  0.000000  0.000000  0.700796  1
  Ga  Ga3  1  0.500000  0.500000  0.149683  1
  Hg  Hg4  1  0.500000  0.500000  0.505930  1
  Ru  Ru5  1  0.500000  0.500000  0.844733  1
