# generated using pymatgen
data_Tb15ThCd2(HgPt2)2
_symmetry_space_group_name_H-M   'P 1'
_cell_length_a   9.71975312
_cell_length_b   9.71975328
_cell_length_c   9.73478968
_cell_angle_alpha   60.25678731
_cell_angle_beta   60.25678069
_cell_angle_gamma   60.27284937
_symmetry_Int_Tables_number   1
_chemical_formula_structural   Tb15ThCd2(HgPt2)2
_chemical_formula_sum   'Tb15 Th1 Cd2 Hg2 Pt4'
_cell_volume   654.17098457
_cell_formula_units_Z   1
loop_
 _symmetry_equiv_pos_site_id
 _symmetry_equiv_pos_as_xyz
  1  'x, y, z'
loop_
 _atom_site_type_symbol
 _atom_site_label
 _atom_site_symmetry_multiplicity
 _atom_site_fract_x
 _atom_site_fract_y
 _atom_site_fract_z
 _atom_site_occupancy
  Tb  Tb0  1  0.354153  0.354153  0.938305  1
  Tb  Tb1  1  0.354970  0.936457  0.354452  1
  Tb  Tb2  1  0.936457  0.354970  0.354452  1
  Tb  Tb3  1  0.812336  0.188969  0.190035  1
  Tb  Tb4  1  0.190542  0.810507  0.810581  1
  Tb  Tb5  1  0.188969  0.812336  0.190035  1
  Tb  Tb6  1  0.810507  0.190542  0.810581  1
  Tb  Tb7  1  0.189043  0.189043  0.812943  1
  Tb  Tb8  1  0.809719  0.809719  0.192094  1
  Tb  Tb9  1  0.936802  0.565541  0.566208  1
  Tb  Tb10  1  0.563518  0.935957  0.937679  1
  Tb  Tb11  1  0.565541  0.936802  0.566208  1
  Tb  Tb12  1  0.935957  0.563518  0.937679  1
  Tb  Tb13  1  0.565221  0.565221  0.937693  1
  Tb  Tb14  1  0.936199  0.936199  0.564593  1
  Th  Th15  1  0.348970  0.348970  0.348752  1
  Cd  Cd16  1  0.581126  0.254028  0.582011  1
  Cd  Cd17  1  0.254028  0.581126  0.582011  1
  Hg  Hg18  1  0.585284  0.585284  0.587163  1
  Hg  Hg19  1  0.585574  0.585574  0.240432  1
  Pt  Pt20  1  0.144258  0.144258  0.144628  1
  Pt  Pt21  1  0.140726  0.140726  0.569416  1
  Pt  Pt22  1  0.140638  0.569461  0.141024  1
  Pt  Pt23  1  0.569461  0.140638  0.141024  1
