# generated using pymatgen
data_TbNd8DyPb6
_symmetry_space_group_name_H-M   'P 1'
_cell_length_a   9.35165900
_cell_length_b   9.35165989
_cell_length_c   6.85555200
_cell_angle_alpha   90.00000000
_cell_angle_beta   90.00000000
_cell_angle_gamma   120.00000039
_symmetry_Int_Tables_number   1
_chemical_formula_structural   TbNd8DyPb6
_chemical_formula_sum   'Tb1 Nd8 Dy1 Pb6'
_cell_volume   519.21881923
_cell_formula_units_Z   1
loop_
 _symmetry_equiv_pos_site_id
 _symmetry_equiv_pos_as_xyz
  1  'x, y, z'
loop_
 _atom_site_type_symbol
 _atom_site_label
 _atom_site_symmetry_multiplicity
 _atom_site_fract_x
 _atom_site_fract_y
 _atom_site_fract_z
 _atom_site_occupancy
  Tb  Tb0  1  0.333333  0.666667  0.000000  1
  Nd  Nd1  1  0.666667  0.333333  0.500000  1
  Nd  Nd2  1  0.666667  0.333333  0.000000  1
  Nd  Nd3  1  0.239165  0.999841  0.250196  1
  Nd  Nd4  1  0.239165  0.239322  0.749804  1
  Nd  Nd5  1  0.000159  0.760835  0.749804  1
  Nd  Nd6  1  0.000159  0.239322  0.250196  1
  Nd  Nd7  1  0.760678  0.760835  0.250196  1
  Nd  Nd8  1  0.760678  0.999841  0.749804  1
  Dy  Dy9  1  0.333333  0.666667  0.500000  1
  Pb  Pb10  1  0.600738  0.994968  0.251312  1
  Pb  Pb11  1  0.600738  0.605770  0.748688  1
  Pb  Pb12  1  0.005032  0.399262  0.748688  1
  Pb  Pb13  1  0.005032  0.605770  0.251312  1
  Pb  Pb14  1  0.394230  0.399262  0.251312  1
  Pb  Pb15  1  0.394230  0.994968  0.748688  1
