# generated using pymatgen
data_Nd5Sm3Sc11Si16Ag
_symmetry_space_group_name_H-M   'P 1'
_cell_length_a   7.15859945
_cell_length_b   7.51005120
_cell_length_c   14.20549207
_cell_angle_alpha   89.98173086
_cell_angle_beta   90.05911096
_cell_angle_gamma   89.84930690
_symmetry_Int_Tables_number   1
_chemical_formula_structural   Nd5Sm3Sc11Si16Ag
_chemical_formula_sum   'Nd5 Sm3 Sc11 Si16 Ag1'
_cell_volume   763.70474180
_cell_formula_units_Z   1
loop_
 _symmetry_equiv_pos_site_id
 _symmetry_equiv_pos_as_xyz
  1  'x, y, z'
loop_
 _atom_site_type_symbol
 _atom_site_label
 _atom_site_symmetry_multiplicity
 _atom_site_fract_x
 _atom_site_fract_y
 _atom_site_fract_z
 _atom_site_occupancy
  Nd  Nd0  1  0.011047  0.171448  0.097562  1
  Nd  Nd1  1  0.990712  0.817708  0.899268  1
  Nd  Nd2  1  0.481377  0.672401  0.899330  1
  Nd  Nd3  1  0.990332  0.817327  0.599721  1
  Nd  Nd4  1  0.511803  0.325976  0.097544  1
  Sm  Sm5  1  0.011874  0.172578  0.402447  1
  Sm  Sm6  1  0.511819  0.324897  0.402542  1
  Sm  Sm7  1  0.480915  0.673355  0.600522  1
  Sc  Sc8  1  0.839856  0.499868  0.250553  1
  Sc  Sc9  1  0.340511  0.999908  0.250612  1
  Sc  Sc10  1  0.657947  0.002759  0.749590  1
  Sc  Sc11  1  0.327070  0.184346  0.625700  1
  Sc  Sc12  1  0.671393  0.823096  0.375775  1
  Sc  Sc13  1  0.171806  0.677847  0.374268  1
  Sc  Sc14  1  0.671505  0.823487  0.125203  1
  Sc  Sc15  1  0.835161  0.327662  0.625405  1
  Sc  Sc16  1  0.326649  0.183687  0.873777  1
  Sc  Sc17  1  0.835749  0.328202  0.873674  1
  Sc  Sc18  1  0.171741  0.677786  0.126687  1
  Si  Si19  1  0.030422  0.110755  0.749568  1
  Si  Si20  1  0.967847  0.880089  0.250814  1
  Si  Si21  1  0.467625  0.622880  0.250816  1
  Si  Si22  1  0.540702  0.378995  0.749318  1
  Si  Si23  1  0.290683  0.897682  0.749272  1
  Si  Si24  1  0.711576  0.119313  0.251481  1
  Si  Si25  1  0.211495  0.378909  0.251332  1
  Si  Si26  1  0.776320  0.620331  0.749060  1
  Si  Si27  1  0.156835  0.458299  0.531257  1
  Si  Si28  1  0.846623  0.534372  0.460445  1
  Si  Si29  1  0.348180  0.964501  0.462069  1
  Si  Si30  1  0.847913  0.536671  0.039029  1
  Si  Si31  1  0.653353  0.034972  0.540309  1
  Si  Si32  1  0.154715  0.459151  0.968485  1
  Si  Si33  1  0.653810  0.034981  0.959365  1
  Si  Si34  1  0.349030  0.963514  0.037723  1
  Ag  Ag35  1  0.153605  0.500249  0.749477  1
