# generated using pymatgen
data_Nd11Cu4Si5Ge
_symmetry_space_group_name_H-M   'P 1'
_cell_length_a   4.27647763
_cell_length_b   9.34535786
_cell_length_c   13.94122014
_cell_angle_alpha   105.05913340
_cell_angle_beta   90.10492746
_cell_angle_gamma   103.36279641
_symmetry_Int_Tables_number   1
_chemical_formula_structural   Nd11Cu4Si5Ge
_chemical_formula_sum   'Nd11 Cu4 Si5 Ge1'
_cell_volume   522.32669361
_cell_formula_units_Z   1
loop_
 _symmetry_equiv_pos_site_id
 _symmetry_equiv_pos_as_xyz
  1  'x, y, z'
loop_
 _atom_site_type_symbol
 _atom_site_label
 _atom_site_symmetry_multiplicity
 _atom_site_fract_x
 _atom_site_fract_y
 _atom_site_fract_z
 _atom_site_occupancy
  Nd  Nd0  1  0.902535  0.803010  0.218776  1
  Nd  Nd1  1  0.862040  0.726238  0.654704  1
  Nd  Nd2  1  0.222808  0.440464  0.103803  1
  Nd  Nd3  1  0.552363  0.102229  0.131403  1
  Nd  Nd4  1  0.340994  0.679390  0.395774  1
  Nd  Nd5  1  0.448392  0.897709  0.871009  1
  Nd  Nd6  1  0.999904  0.000203  0.499147  1
  Nd  Nd7  1  0.136871  0.271365  0.346274  1
  Nd  Nd8  1  0.777484  0.559554  0.897727  1
  Nd  Nd9  1  0.658836  0.319985  0.604210  1
  Nd  Nd10  1  0.098947  0.198945  0.783375  1
  Cu  Cu11  1  0.751681  0.502565  0.452203  1
  Cu  Cu12  1  0.937891  0.876968  0.025236  1
  Cu  Cu13  1  0.063374  0.123159  0.976394  1
  Cu  Cu14  1  0.248092  0.496762  0.548304  1
  Si  Si15  1  0.632857  0.257348  0.951863  1
  Si  Si16  1  0.263805  0.530018  0.735803  1
  Si  Si17  1  0.736394  0.469739  0.265307  1
  Si  Si18  1  0.367820  0.742514  0.049703  1
  Si  Si19  1  0.512987  0.025330  0.348031  1
  Ge  Ge20  1  0.486520  0.973552  0.652475  1
