# generated using pymatgen
data_Ca3Pr16HoPb16
_symmetry_space_group_name_H-M   'P 1'
_cell_length_a   8.34107202
_cell_length_b   8.58650115
_cell_length_c   16.36283100
_cell_angle_alpha   90.00000000
_cell_angle_beta   90.00000000
_cell_angle_gamma   89.86257454
_symmetry_Int_Tables_number   1
_chemical_formula_structural   Ca3Pr16HoPb16
_chemical_formula_sum   'Ca3 Pr16 Ho1 Pb16'
_cell_volume   1171.91280402
_cell_formula_units_Z   1
loop_
 _symmetry_equiv_pos_site_id
 _symmetry_equiv_pos_as_xyz
  1  'x, y, z'
loop_
 _atom_site_type_symbol
 _atom_site_label
 _atom_site_symmetry_multiplicity
 _atom_site_fract_x
 _atom_site_fract_y
 _atom_site_fract_z
 _atom_site_occupancy
  Ca  Ca0  1  0.308282  0.000782  0.750000  1
  Ca  Ca1  1  0.191353  0.501326  0.250000  1
  Ca  Ca2  1  0.691383  0.998592  0.250000  1
  Pr  Pr3  1  0.640676  0.161858  0.622253  1
  Pr  Pr4  1  0.141218  0.338520  0.877900  1
  Pr  Pr5  1  0.360565  0.837139  0.121865  1
  Pr  Pr6  1  0.860190  0.660646  0.379460  1
  Pr  Pr7  1  0.360565  0.837139  0.378135  1
  Pr  Pr8  1  0.860190  0.660646  0.120540  1
  Pr  Pr9  1  0.640676  0.161858  0.877747  1
  Pr  Pr10  1  0.141218  0.338520  0.622100  1
  Pr  Pr11  1  0.486699  0.681648  0.596511  1
  Pr  Pr12  1  0.988841  0.817447  0.904093  1
  Pr  Pr13  1  0.511196  0.317467  0.095143  1
  Pr  Pr14  1  0.010896  0.183915  0.405268  1
  Pr  Pr15  1  0.511196  0.317467  0.404857  1
  Pr  Pr16  1  0.010896  0.183915  0.094732  1
  Pr  Pr17  1  0.486699  0.681648  0.903489  1
  Pr  Pr18  1  0.988841  0.817447  0.595907  1
  Ho  Ho19  1  0.808093  0.499284  0.750000  1
  Pb  Pb20  1  0.702251  0.959985  0.459780  1
  Pb  Pb21  1  0.204531  0.539775  0.040320  1
  Pb  Pb22  1  0.297208  0.040154  0.959768  1
  Pb  Pb23  1  0.796280  0.461922  0.543260  1
  Pb  Pb24  1  0.297208  0.040154  0.540232  1
  Pb  Pb25  1  0.796280  0.461922  0.956740  1
  Pb  Pb26  1  0.702251  0.959985  0.040220  1
  Pb  Pb27  1  0.204531  0.539775  0.459680  1
  Pb  Pb28  1  0.445863  0.388725  0.750000  1
  Pb  Pb29  1  0.943524  0.117095  0.750000  1
  Pb  Pb30  1  0.557208  0.610671  0.250000  1
  Pb  Pb31  1  0.056536  0.888246  0.250000  1
  Pb  Pb32  1  0.681902  0.845717  0.750000  1
  Pb  Pb33  1  0.172820  0.648648  0.750000  1
  Pb  Pb34  1  0.320196  0.148056  0.250000  1
  Pb  Pb35  1  0.821740  0.351903  0.250000  1
