# generated using pymatgen
data_CaTm6Co6Sn23
_symmetry_space_group_name_H-M   'P 1'
_cell_length_a   9.68226500
_cell_length_b   9.68226485
_cell_length_c   9.92232300
_cell_angle_alpha   90.00000000
_cell_angle_beta   90.00000000
_cell_angle_gamma   120.00000391
_symmetry_Int_Tables_number   1
_chemical_formula_structural   CaTm6Co6Sn23
_chemical_formula_sum   'Ca1 Tm6 Co6 Sn23'
_cell_volume   805.56000962
_cell_formula_units_Z   1
loop_
 _symmetry_equiv_pos_site_id
 _symmetry_equiv_pos_as_xyz
  1  'x, y, z'
loop_
 _atom_site_type_symbol
 _atom_site_label
 _atom_site_symmetry_multiplicity
 _atom_site_fract_x
 _atom_site_fract_y
 _atom_site_fract_z
 _atom_site_occupancy
  Ca  Ca0  1  0.000000  0.000000  0.000000  1
  Tm  Tm1  1  0.479860  0.520140  0.306077  1
  Tm  Tm2  1  0.520140  0.479860  0.693923  1
  Tm  Tm3  1  0.479860  0.959721  0.306077  1
  Tm  Tm4  1  0.520140  0.040279  0.693923  1
  Tm  Tm5  1  0.040279  0.520140  0.306077  1
  Tm  Tm6  1  0.959721  0.479860  0.693923  1
  Co  Co7  1  0.831027  0.168973  0.198821  1
  Co  Co8  1  0.168973  0.831027  0.801179  1
  Co  Co9  1  0.831027  0.662055  0.198821  1
  Co  Co10  1  0.168973  0.337945  0.801179  1
  Co  Co11  1  0.337945  0.168973  0.198821  1
  Co  Co12  1  0.662055  0.831027  0.801179  1
  Sn  Sn13  1  0.118235  0.881765  0.274516  1
  Sn  Sn14  1  0.881765  0.118235  0.725484  1
  Sn  Sn15  1  0.118235  0.236471  0.274516  1
  Sn  Sn16  1  0.881765  0.763529  0.725484  1
  Sn  Sn17  1  0.763529  0.881765  0.274516  1
  Sn  Sn18  1  0.236471  0.118235  0.725484  1
  Sn  Sn19  1  0.780801  0.219199  0.452117  1
  Sn  Sn20  1  0.219199  0.780801  0.547883  1
  Sn  Sn21  1  0.780801  0.561601  0.452117  1
  Sn  Sn22  1  0.219199  0.438399  0.547883  1
  Sn  Sn23  1  0.438399  0.219199  0.452117  1
  Sn  Sn24  1  0.561601  0.780801  0.547883  1
  Sn  Sn25  1  0.346439  0.000000  0.000000  1
  Sn  Sn26  1  0.653561  0.000000  0.000000  1
  Sn  Sn27  1  0.000000  0.346439  0.000000  1
  Sn  Sn28  1  0.000000  0.653561  0.000000  1
  Sn  Sn29  1  0.653561  0.653561  0.000000  1
  Sn  Sn30  1  0.346439  0.346439  0.000000  1
  Sn  Sn31  1  0.333333  0.666667  0.122133  1
  Sn  Sn32  1  0.666667  0.333333  0.877867  1
  Sn  Sn33  1  0.333333  0.666667  0.817285  1
  Sn  Sn34  1  0.666667  0.333333  0.182715  1
  Sn  Sn35  1  0.000000  0.000000  0.500000  1
