# generated using pymatgen
data_HoLu5P13Rh20
_symmetry_space_group_name_H-M   'P 1'
_cell_length_a   13.29876606
_cell_length_b   13.29906160
_cell_length_c   3.89016400
_cell_angle_alpha   89.99952719
_cell_angle_beta   90.00203306
_cell_angle_gamma   119.98897187
_symmetry_Int_Tables_number   1
_chemical_formula_structural   HoLu5P13Rh20
_chemical_formula_sum   'Ho1 Lu5 P13 Rh20'
_cell_volume   595.90789162
_cell_formula_units_Z   1
loop_
 _symmetry_equiv_pos_site_id
 _symmetry_equiv_pos_as_xyz
  1  'x, y, z'
loop_
 _atom_site_type_symbol
 _atom_site_label
 _atom_site_symmetry_multiplicity
 _atom_site_fract_x
 _atom_site_fract_y
 _atom_site_fract_z
 _atom_site_occupancy
  Ho  Ho0  1  0.528710  0.717338  0.248683  1
  Lu  Lu1  1  0.282602  0.811363  0.248653  1
  Lu  Lu2  1  0.188681  0.471241  0.248731  1
  Lu  Lu3  1  0.471312  0.282700  0.751274  1
  Lu  Lu4  1  0.717369  0.188652  0.751300  1
  Lu  Lu5  1  0.811269  0.528710  0.751260  1
  P  P6  1  0.527559  0.140430  0.250371  1
  P  P7  1  0.859597  0.387145  0.250299  1
  P  P8  1  0.612825  0.472462  0.250293  1
  P  P9  1  0.944074  0.713569  0.254463  1
  P  P10  1  0.286464  0.230523  0.254522  1
  P  P11  1  0.769381  0.055891  0.254341  1
  P  P12  1  0.386778  0.527029  0.749752  1
  P  P13  1  0.472362  0.859852  0.749707  1
  P  P14  1  0.140300  0.612819  0.749753  1
  P  P15  1  0.714116  0.769606  0.745550  1
  P  P16  1  0.230529  0.944101  0.745633  1
  P  P17  1  0.055948  0.286428  0.745531  1
  P  P18  1  0.000039  0.000000  0.000059  1
  Rh  Rh19  1  0.332551  0.666487  0.752375  1
  Rh  Rh20  1  0.919575  0.250470  0.253134  1
  Rh  Rh21  1  0.749714  0.669063  0.253223  1
  Rh  Rh22  1  0.330903  0.080444  0.253128  1
  Rh  Rh23  1  0.437490  0.020868  0.751316  1
  Rh  Rh24  1  0.979038  0.416616  0.751398  1
  Rh  Rh25  1  0.583490  0.561937  0.751376  1
  Rh  Rh26  1  0.666697  0.333323  0.247627  1
  Rh  Rh27  1  0.094501  0.187778  0.247855  1
  Rh  Rh28  1  0.812221  0.906749  0.247961  1
  Rh  Rh29  1  0.093284  0.905413  0.247755  1
  Rh  Rh30  1  0.020942  0.583393  0.248532  1
  Rh  Rh31  1  0.416497  0.437336  0.248592  1
  Rh  Rh32  1  0.562468  0.979323  0.248660  1
  Rh  Rh33  1  0.669711  0.920494  0.746874  1
  Rh  Rh34  1  0.080445  0.749501  0.746814  1
  Rh  Rh35  1  0.250357  0.330840  0.746820  1
  Rh  Rh36  1  0.905738  0.812280  0.752136  1
  Rh  Rh37  1  0.187780  0.093333  0.752081  1
  Rh  Rh38  1  0.906681  0.094490  0.752163  1
