# generated using pymatgen
data_Yb2Ho2Pt3RhO14
_symmetry_space_group_name_H-M   'P 1'
_cell_length_a   7.23084498
_cell_length_b   7.25255890
_cell_length_c   7.25255712
_cell_angle_alpha   59.92565614
_cell_angle_beta   59.96015090
_cell_angle_gamma   59.96014937
_symmetry_Int_Tables_number   1
_chemical_formula_structural   Yb2Ho2Pt3RhO14
_chemical_formula_sum   'Yb2 Ho2 Pt3 Rh1 O14'
_cell_volume   268.62740332
_cell_formula_units_Z   1
loop_
 _symmetry_equiv_pos_site_id
 _symmetry_equiv_pos_as_xyz
  1  'x, y, z'
loop_
 _atom_site_type_symbol
 _atom_site_label
 _atom_site_symmetry_multiplicity
 _atom_site_fract_x
 _atom_site_fract_y
 _atom_site_fract_z
 _atom_site_occupancy
  Yb  Yb0  1  0.625000  0.625000  0.125000  1
  Yb  Yb1  1  0.625000  0.125000  0.625000  1
  Ho  Ho2  1  0.625000  0.625000  0.625000  1
  Ho  Ho3  1  0.125000  0.625000  0.625000  1
  Pt  Pt4  1  0.625000  0.125000  0.125000  1
  Pt  Pt5  1  0.125000  0.625000  0.125000  1
  Pt  Pt6  1  0.125000  0.125000  0.625000  1
  Rh  Rh7  1  0.125000  0.125000  0.125000  1
  O  O8  1  0.036782  0.463493  0.463493  1
  O  O9  1  0.788340  0.787832  0.216691  1
  O  O10  1  0.795472  0.205478  0.205478  1
  O  O11  1  0.461660  0.033309  0.462168  1
  O  O12  1  0.755152  0.745071  0.745071  1
  O  O13  1  0.049424  0.035450  0.457567  1
  O  O14  1  0.049424  0.457567  0.035450  1
  O  O15  1  0.788340  0.216691  0.787832  1
  O  O16  1  0.200576  0.792433  0.214550  1
  O  O17  1  0.200576  0.214550  0.792433  1
  O  O18  1  0.494848  0.504929  0.504929  1
  O  O19  1  0.454528  0.044522  0.044522  1
  O  O20  1  0.461660  0.462168  0.033309  1
  O  O21  1  0.213218  0.786507  0.786507  1
