# generated using pymatgen
data_Pa2V3P7Rh9
_symmetry_space_group_name_H-M   'P 1'
_cell_length_a   3.90414100
_cell_length_b   9.52980455
_cell_length_c   9.53065606
_cell_angle_alpha   120.02030328
_cell_angle_beta   90.00040544
_cell_angle_gamma   89.99818215
_symmetry_Int_Tables_number   1
_chemical_formula_structural   Pa2V3P7Rh9
_chemical_formula_sum   'Pa2 V3 P7 Rh9'
_cell_volume   307.02520374
_cell_formula_units_Z   1
loop_
 _symmetry_equiv_pos_site_id
 _symmetry_equiv_pos_as_xyz
  1  'x, y, z'
loop_
 _atom_site_type_symbol
 _atom_site_label
 _atom_site_symmetry_multiplicity
 _atom_site_fract_x
 _atom_site_fract_y
 _atom_site_fract_z
 _atom_site_occupancy
  Pa  Pa0  1  0.261842  0.666596  0.333313  1
  Pa  Pa1  1  0.761679  0.333320  0.666607  1
  V  V2  1  0.761984  0.091887  0.873561  1
  V  V3  1  0.761998  0.126426  0.218309  1
  V  V4  1  0.761998  0.781596  0.908070  1
  P  P5  1  0.262032  0.000070  0.000074  1
  P  P6  1  0.761872  0.888648  0.601915  1
  P  P7  1  0.761879  0.398109  0.286679  1
  P  P8  1  0.761873  0.713190  0.111375  1
  P  P9  1  0.261858  0.114485  0.406693  1
  P  P10  1  0.261860  0.593390  0.707889  1
  P  P11  1  0.261843  0.292240  0.885557  1
  Rh  Rh12  1  0.261922  0.882350  0.157648  1
  Rh  Rh13  1  0.261916  0.842375  0.724694  1
  Rh  Rh14  1  0.261908  0.275388  0.117718  1
  Rh  Rh15  1  0.761939  0.613327  0.557569  1
  Rh  Rh16  1  0.761924  0.442242  0.055475  1
  Rh  Rh17  1  0.761947  0.944351  0.386725  1
  Rh  Rh18  1  0.261910  0.369948  0.440712  1
  Rh  Rh19  1  0.261900  0.559396  0.929371  1
  Rh  Rh20  1  0.261915  0.070665  0.630045  1
