# generated using pymatgen
data_PrNdAl20IrOs3
_symmetry_space_group_name_H-M   'P 1'
_cell_length_a   6.89698705
_cell_length_b   6.89023221
_cell_length_c   9.21406758
_cell_angle_alpha   90.13146795
_cell_angle_beta   90.04857771
_cell_angle_gamma   96.70926266
_symmetry_Int_Tables_number   1
_chemical_formula_structural   PrNdAl20IrOs3
_chemical_formula_sum   'Pr1 Nd1 Al20 Ir1 Os3'
_cell_volume   434.86941855
_cell_formula_units_Z   1
loop_
 _symmetry_equiv_pos_site_id
 _symmetry_equiv_pos_as_xyz
  1  'x, y, z'
loop_
 _atom_site_type_symbol
 _atom_site_label
 _atom_site_symmetry_multiplicity
 _atom_site_fract_x
 _atom_site_fract_y
 _atom_site_fract_z
 _atom_site_occupancy
  Pr  Pr0  1  0.872230  0.125214  0.749979  1
  Nd  Nd1  1  0.128677  0.874099  0.249931  1
  Al  Al2  1  0.619959  0.376975  0.550778  1
  Al  Al3  1  0.379600  0.623418  0.448801  1
  Al  Al4  1  0.377325  0.622861  0.049499  1
  Al  Al5  1  0.622247  0.377566  0.950938  1
  Al  Al6  1  0.226411  0.224864  0.498667  1
  Al  Al7  1  0.773765  0.774917  0.500578  1
  Al  Al8  1  0.775087  0.775233  0.000336  1
  Al  Al9  1  0.225090  0.224589  0.000457  1
  Al  Al10  1  0.840900  0.159927  0.102480  1
  Al  Al11  1  0.159594  0.839595  0.898105  1
  Al  Al12  1  0.161286  0.840537  0.603641  1
  Al  Al13  1  0.839171  0.158930  0.395785  1
  Al  Al14  1  0.855579  0.588372  0.750791  1
  Al  Al15  1  0.144501  0.412461  0.249216  1
  Al  Al16  1  0.411340  0.143206  0.750383  1
  Al  Al17  1  0.587839  0.856748  0.249622  1
  Al  Al18  1  0.220967  0.484155  0.752352  1
  Al  Al19  1  0.779560  0.516455  0.247665  1
  Al  Al20  1  0.515645  0.779956  0.749423  1
  Al  Al21  1  0.483723  0.219527  0.250567  1
  Ir  Ir22  1  0.000085  0.500257  0.499649  1
  Os  Os23  1  0.000107  0.500343  0.000367  1
  Os  Os24  1  0.499656  0.999894  0.000390  1
  Os  Os25  1  0.499656  0.999903  0.499601  1
