# generated using pymatgen
data_Ho6Al23SiOs8
_symmetry_space_group_name_H-M   'P 1'
_cell_length_a   8.76228400
_cell_length_b   8.76228440
_cell_length_c   9.63001500
_cell_angle_alpha   90.00000000
_cell_angle_beta   90.00000000
_cell_angle_gamma   119.99999849
_symmetry_Int_Tables_number   1
_chemical_formula_structural   Ho6Al23SiOs8
_chemical_formula_sum   'Ho6 Al23 Si1 Os8'
_cell_volume   640.31293069
_cell_formula_units_Z   1
loop_
 _symmetry_equiv_pos_site_id
 _symmetry_equiv_pos_as_xyz
  1  'x, y, z'
loop_
 _atom_site_type_symbol
 _atom_site_label
 _atom_site_symmetry_multiplicity
 _atom_site_fract_x
 _atom_site_fract_y
 _atom_site_fract_z
 _atom_site_occupancy
  Ho  Ho0  1  0.195097  0.390193  0.249840  1
  Ho  Ho1  1  0.805723  0.611446  0.751284  1
  Ho  Ho2  1  0.609807  0.804903  0.249840  1
  Ho  Ho3  1  0.388554  0.194277  0.751284  1
  Ho  Ho4  1  0.195097  0.804903  0.249840  1
  Ho  Ho5  1  0.805723  0.194277  0.751284  1
  Al  Al6  1  0.666667  0.333333  0.980764  1
  Al  Al7  1  0.666667  0.333333  0.522423  1
  Al  Al8  1  0.333333  0.666667  0.478002  1
  Al  Al9  1  0.163522  0.327043  0.575030  1
  Al  Al10  1  0.836116  0.672231  0.424307  1
  Al  Al11  1  0.672957  0.836478  0.575030  1
  Al  Al12  1  0.836267  0.672534  0.075201  1
  Al  Al13  1  0.327769  0.163884  0.424307  1
  Al  Al14  1  0.164863  0.329726  0.922746  1
  Al  Al15  1  0.163522  0.836478  0.575030  1
  Al  Al16  1  0.327466  0.163733  0.075201  1
  Al  Al17  1  0.836116  0.163884  0.424307  1
  Al  Al18  1  0.670274  0.835137  0.922746  1
  Al  Al19  1  0.836267  0.163733  0.075201  1
  Al  Al20  1  0.164863  0.835137  0.922746  1
  Al  Al21  1  0.562191  0.124382  0.248564  1
  Al  Al22  1  0.437375  0.874748  0.748168  1
  Al  Al23  1  0.875618  0.437809  0.248564  1
  Al  Al24  1  0.125252  0.562625  0.748168  1
  Al  Al25  1  0.562191  0.437809  0.248564  1
  Al  Al26  1  0.437375  0.562625  0.748168  1
  Al  Al27  1  0.000000  0.000000  0.248933  1
  Al  Al28  1  0.000000  0.000000  0.748804  1
  Si  Si29  1  0.333333  0.666667  0.040369  1
  Os  Os30  1  0.495945  0.991890  0.000550  1
  Os  Os31  1  0.008110  0.504055  0.000550  1
  Os  Os32  1  0.500341  0.000682  0.498705  1
  Os  Os33  1  0.495945  0.504055  0.000550  1
  Os  Os34  1  0.999318  0.499659  0.498705  1
  Os  Os35  1  0.500341  0.499659  0.498705  1
  Os  Os36  1  0.000000  0.000000  0.998806  1
  Os  Os37  1  0.000000  0.000000  0.498714  1
