# generated using pymatgen
data_YTm2PaPt4
_symmetry_space_group_name_H-M   'P 1'
_cell_length_a   4.53540500
_cell_length_b   5.57336661
_cell_length_c   6.96232943
_cell_angle_alpha   88.81616021
_cell_angle_beta   90.00000000
_cell_angle_gamma   90.00000000
_symmetry_Int_Tables_number   1
_chemical_formula_structural   YTm2PaPt4
_chemical_formula_sum   'Y1 Tm2 Pa1 Pt4'
_cell_volume   175.95254146
_cell_formula_units_Z   1
loop_
 _symmetry_equiv_pos_site_id
 _symmetry_equiv_pos_as_xyz
  1  'x, y, z'
loop_
 _atom_site_type_symbol
 _atom_site_label
 _atom_site_symmetry_multiplicity
 _atom_site_fract_x
 _atom_site_fract_y
 _atom_site_fract_z
 _atom_site_occupancy
  Y  Y0  1  0.250000  0.858592  0.684349  1
  Tm  Tm1  1  0.750000  0.355931  0.815306  1
  Tm  Tm2  1  0.750000  0.144678  0.320116  1
  Pa  Pa3  1  0.250000  0.642859  0.182033  1
  Pt  Pt4  1  0.250000  0.160847  0.051735  1
  Pt  Pt5  1  0.750000  0.832159  0.965826  1
  Pt  Pt6  1  0.750000  0.655975  0.444092  1
  Pt  Pt7  1  0.250000  0.348961  0.536542  1
