# generated using pymatgen
data_Y3TmScSi3H
_symmetry_space_group_name_H-M   'P 1'
_cell_length_a   8.36244900
_cell_length_b   8.36244901
_cell_length_c   6.07781200
_cell_angle_alpha   90.00000000
_cell_angle_beta   90.00000000
_cell_angle_gamma   120.00000390
_symmetry_Int_Tables_number   1
_chemical_formula_structural   Y3TmScSi3H
_chemical_formula_sum   'Y6 Tm2 Sc2 Si6 H2'
_cell_volume   368.08222201
_cell_formula_units_Z   2
loop_
 _symmetry_equiv_pos_site_id
 _symmetry_equiv_pos_as_xyz
  1  'x, y, z'
loop_
 _atom_site_type_symbol
 _atom_site_label
 _atom_site_symmetry_multiplicity
 _atom_site_fract_x
 _atom_site_fract_y
 _atom_site_fract_z
 _atom_site_occupancy
  Y  Y0  1  0.748897  0.748897  0.752666  1
  Y  Y1  1  0.251103  0.000000  0.752666  1
  Y  Y2  1  0.000000  0.251103  0.752666  1
  Y  Y3  1  0.251103  0.251103  0.247334  1
  Y  Y4  1  0.748897  0.000000  0.247334  1
  Y  Y5  1  0.000000  0.748897  0.247334  1
  Tm  Tm6  1  0.333333  0.666667  0.500000  1
  Tm  Tm7  1  0.666667  0.333333  0.500000  1
  Sc  Sc8  1  0.666667  0.333333  0.000000  1
  Sc  Sc9  1  0.333333  0.666667  0.000000  1
  Si  Si10  1  0.393374  0.393374  0.760613  1
  Si  Si11  1  0.606626  0.000000  0.760613  1
  Si  Si12  1  0.000000  0.606626  0.760613  1
  Si  Si13  1  0.606626  0.606626  0.239387  1
  Si  Si14  1  0.393374  0.000000  0.239387  1
  Si  Si15  1  0.000000  0.393374  0.239387  1
  H  H16  1  0.000000  0.000000  0.500000  1
  H  H17  1  0.000000  0.000000  0.000000  1
