# generated using pymatgen
data_Nb8VCuS16
_symmetry_space_group_name_H-M   'P 1'
_cell_length_a   6.72768500
_cell_length_b   6.72768551
_cell_length_c   12.23929400
_cell_angle_alpha   90.00000000
_cell_angle_beta   90.00000000
_cell_angle_gamma   119.99999256
_symmetry_Int_Tables_number   1
_chemical_formula_structural   Nb8VCuS16
_chemical_formula_sum   'Nb8 V1 Cu1 S16'
_cell_volume   479.75373269
_cell_formula_units_Z   1
loop_
 _symmetry_equiv_pos_site_id
 _symmetry_equiv_pos_as_xyz
  1  'x, y, z'
loop_
 _atom_site_type_symbol
 _atom_site_label
 _atom_site_symmetry_multiplicity
 _atom_site_fract_x
 _atom_site_fract_y
 _atom_site_fract_z
 _atom_site_occupancy
  Nb  Nb0  1  0.000000  0.000000  0.251702  1
  Nb  Nb1  1  0.000000  0.000000  0.748298  1
  Nb  Nb2  1  0.505902  0.494098  0.249377  1
  Nb  Nb3  1  0.505902  0.011803  0.249377  1
  Nb  Nb4  1  0.988197  0.494098  0.249377  1
  Nb  Nb5  1  0.494098  0.505902  0.750623  1
  Nb  Nb6  1  0.494098  0.988197  0.750623  1
  Nb  Nb7  1  0.011803  0.505902  0.750623  1
  V  V8  1  0.000000  0.000000  0.000000  1
  Cu  Cu9  1  0.000000  0.000000  0.500000  1
  S  S10  1  0.333333  0.666667  0.881639  1
  S  S11  1  0.666667  0.333333  0.118361  1
  S  S12  1  0.666667  0.333333  0.379388  1
  S  S13  1  0.333333  0.666667  0.620612  1
  S  S14  1  0.169388  0.830612  0.376860  1
  S  S15  1  0.169388  0.338776  0.376860  1
  S  S16  1  0.661224  0.830612  0.376860  1
  S  S17  1  0.830612  0.169388  0.623140  1
  S  S18  1  0.830612  0.661224  0.623140  1
  S  S19  1  0.338776  0.169388  0.623140  1
  S  S20  1  0.835254  0.164746  0.877815  1
  S  S21  1  0.835254  0.670509  0.877815  1
  S  S22  1  0.329491  0.164746  0.877815  1
  S  S23  1  0.164746  0.835254  0.122185  1
  S  S24  1  0.164746  0.329491  0.122185  1
  S  S25  1  0.670509  0.835254  0.122185  1
