# generated using pymatgen
data_LiSmTh3Ru11C10
_symmetry_space_group_name_H-M   'P 1'
_cell_length_a   9.15415652
_cell_length_b   9.15740452
_cell_length_c   4.18369700
_cell_angle_alpha   90.00000000
_cell_angle_beta   90.00000000
_cell_angle_gamma   90.06595807
_symmetry_Int_Tables_number   1
_chemical_formula_structural   LiSmTh3Ru11C10
_chemical_formula_sum   'Li1 Sm1 Th3 Ru11 C10'
_cell_volume   350.71203438
_cell_formula_units_Z   1
loop_
 _symmetry_equiv_pos_site_id
 _symmetry_equiv_pos_as_xyz
  1  'x, y, z'
loop_
 _atom_site_type_symbol
 _atom_site_label
 _atom_site_symmetry_multiplicity
 _atom_site_fract_x
 _atom_site_fract_y
 _atom_site_fract_z
 _atom_site_occupancy
  Li  Li0  1  0.000745  0.999594  0.500000  1
  Sm  Sm1  1  0.340477  0.816464  0.500000  1
  Th  Th2  1  0.814382  0.659148  0.500000  1
  Th  Th3  1  0.186160  0.342321  0.500000  1
  Th  Th4  1  0.657108  0.184189  0.500000  1
  Ru  Ru5  1  0.711633  0.425119  0.000000  1
  Ru  Ru6  1  0.424516  0.288222  0.000000  1
  Ru  Ru7  1  0.500242  0.000283  0.000000  1
  Ru  Ru8  1  0.999806  0.499959  0.000000  1
  Ru  Ru9  1  0.501256  0.499102  0.500000  1
  Ru  Ru10  1  0.791786  0.931345  0.000000  1
  Ru  Ru11  1  0.932063  0.208360  0.000000  1
  Ru  Ru12  1  0.067333  0.791180  0.000000  1
  Ru  Ru13  1  0.208480  0.068177  0.000000  1
  Ru  Ru14  1  0.575440  0.712280  0.000000  1
  Ru  Ru15  1  0.287339  0.573274  0.000000  1
  C  C16  1  0.499069  0.501644  0.000000  1
  C  C17  1  0.000664  0.999468  0.000000  1
  C  C18  1  0.878776  0.367443  0.672937  1
  C  C19  1  0.123056  0.634004  0.672619  1
  C  C20  1  0.878776  0.367443  0.327063  1
  C  C21  1  0.367364  0.120086  0.327150  1
  C  C22  1  0.631554  0.878403  0.327585  1
  C  C23  1  0.123056  0.634004  0.327381  1
  C  C24  1  0.631554  0.878403  0.672415  1
  C  C25  1  0.367364  0.120086  0.672850  1
