# generated using pymatgen
data_ScNb6Co8Si14Mo
_symmetry_space_group_name_H-M   'P 1'
_cell_length_a   9.24510531
_cell_length_b   9.24495322
_cell_length_c   9.25021143
_cell_angle_alpha   94.12271855
_cell_angle_beta   94.28226754
_cell_angle_gamma   148.57723842
_symmetry_Int_Tables_number   1
_chemical_formula_structural   ScNb6Co8Si14Mo
_chemical_formula_sum   'Sc1 Nb6 Co8 Si14 Mo1'
_cell_volume   396.80839461
_cell_formula_units_Z   1
loop_
 _symmetry_equiv_pos_site_id
 _symmetry_equiv_pos_as_xyz
  1  'x, y, z'
loop_
 _atom_site_type_symbol
 _atom_site_label
 _atom_site_symmetry_multiplicity
 _atom_site_fract_x
 _atom_site_fract_y
 _atom_site_fract_z
 _atom_site_occupancy
  Sc  Sc0  1  0.693441  0.500782  0.194222  1
  Nb  Nb1  1  0.866111  0.866376  0.732471  1
  Nb  Nb2  1  0.865310  0.134230  0.999554  1
  Nb  Nb3  1  0.132122  0.864069  0.996179  1
  Nb  Nb4  1  0.500971  0.691483  0.192447  1
  Nb  Nb5  1  0.501432  0.310769  0.812215  1
  Nb  Nb6  1  0.308330  0.499802  0.808127  1
  Co  Co7  1  0.398273  0.897632  0.796341  1
  Co  Co8  1  0.102657  0.601528  0.203259  1
  Co  Co9  1  0.101509  0.899862  0.499800  1
  Co  Co10  1  0.398163  0.600874  0.500487  1
  Co  Co11  1  0.599935  0.398290  0.499791  1
  Co  Co12  1  0.899641  0.102316  0.500492  1
  Co  Co13  1  0.898696  0.398054  0.796332  1
  Co  Co14  1  0.601748  0.100608  0.203262  1
  Si  Si15  1  0.290999  0.290757  0.581727  1
  Si  Si16  1  0.708461  0.710449  0.418926  1
  Si  Si17  1  0.709468  0.289600  0.999022  1
  Si  Si18  1  0.291545  0.708463  0.000039  1
  Si  Si19  1  0.001789  0.294816  0.296610  1
  Si  Si20  1  0.999123  0.701883  0.701023  1
  Si  Si21  1  0.702158  0.999691  0.701821  1
  Si  Si22  1  0.294791  0.001113  0.295904  1
  Si  Si23  1  0.500282  0.906667  0.406924  1
  Si  Si24  1  0.499744  0.094315  0.594042  1
  Si  Si25  1  0.093846  0.499817  0.593702  1
  Si  Si26  1  0.908068  0.499995  0.408083  1
  Si  Si27  1  0.751794  0.753673  0.001245  1
  Si  Si28  1  0.247570  0.249452  0.001247  1
  Mo  Mo29  1  0.132024  0.132636  0.264706  1
