# generated using pymatgen
data_HoEr9(CoRu)2
_symmetry_space_group_name_H-M   'P 1'
_cell_length_a   6.24566868
_cell_length_b   7.07880733
_cell_length_c   8.40967831
_cell_angle_alpha   96.53967234
_cell_angle_beta   111.75349744
_cell_angle_gamma   90.02981725
_symmetry_Int_Tables_number   1
_chemical_formula_structural   HoEr9(CoRu)2
_chemical_formula_sum   'Ho1 Er9 Co2 Ru2'
_cell_volume   342.71512994
_cell_formula_units_Z   1
loop_
 _symmetry_equiv_pos_site_id
 _symmetry_equiv_pos_as_xyz
  1  'x, y, z'
loop_
 _atom_site_type_symbol
 _atom_site_label
 _atom_site_symmetry_multiplicity
 _atom_site_fract_x
 _atom_site_fract_y
 _atom_site_fract_z
 _atom_site_occupancy
  Ho  Ho0  1  0.787928  0.588598  0.810784  1
  Er  Er1  1  0.977215  0.911393  0.189255  1
  Er  Er2  1  0.199279  0.416977  0.185313  1
  Er  Er3  1  0.013810  0.082887  0.814762  1
  Er  Er4  1  0.213962  0.687988  0.566575  1
  Er  Er5  1  0.647733  0.812455  0.433187  1
  Er  Er6  1  0.792553  0.318608  0.434417  1
  Er  Er7  1  0.357937  0.181267  0.565750  1
  Er  Er8  1  0.427469  0.749952  0.999831  1
  Er  Er9  1  0.578362  0.249863  0.999867  1
  Co  Co10  1  0.603298  0.923443  0.777756  1
  Co  Co11  1  0.825808  0.576650  0.222703  1
  Ru  Ru12  1  0.397482  0.072984  0.220650  1
  Ru  Ru13  1  0.177163  0.426934  0.779151  1
