# generated using pymatgen
data_Er2Sc3P7Rh9
_symmetry_space_group_name_H-M   'P 1'
_cell_length_a   3.91745300
_cell_length_b   9.63394000
_cell_length_c   9.63361300
_cell_angle_alpha   120.00304226
_cell_angle_beta   89.99904932
_cell_angle_gamma   90.00133774
_symmetry_Int_Tables_number   1
_chemical_formula_structural   Er2Sc3P7Rh9
_chemical_formula_sum   'Er2 Sc3 P7 Rh9'
_cell_volume   314.85764670
_cell_formula_units_Z   1
loop_
 _symmetry_equiv_pos_site_id
 _symmetry_equiv_pos_as_xyz
  1  'x, y, z'
loop_
 _atom_site_type_symbol
 _atom_site_label
 _atom_site_symmetry_multiplicity
 _atom_site_fract_x
 _atom_site_fract_y
 _atom_site_fract_z
 _atom_site_occupancy
  Er  Er0  1  0.262224  0.666756  0.333274  1
  Er  Er1  1  0.762105  0.333414  0.666715  1
  Sc  Sc2  1  0.761853  0.106530  0.877713  1
  Sc  Sc3  1  0.761854  0.122152  0.228775  1
  Sc  Sc4  1  0.761850  0.771178  0.893407  1
  P  P5  1  0.261921  0.000002  0.000062  1
  P  P6  1  0.762007  0.864436  0.583734  1
  P  P7  1  0.762009  0.416162  0.280602  1
  P  P8  1  0.762008  0.719330  0.135566  1
  P  P9  1  0.262172  0.117155  0.424910  1
  P  P10  1  0.262175  0.575080  0.692279  1
  P  P11  1  0.262175  0.307730  0.882821  1
  Rh  Rh12  1  0.261740  0.880234  0.167118  1
  Rh  Rh13  1  0.261748  0.832918  0.713274  1
  Rh  Rh14  1  0.261732  0.286812  0.119714  1
  Rh  Rh15  1  0.761708  0.602574  0.550652  1
  Rh  Rh16  1  0.761679  0.449294  0.051904  1
  Rh  Rh17  1  0.761698  0.948159  0.397482  1
  Rh  Rh18  1  0.261772  0.362472  0.435190  1
  Rh  Rh19  1  0.261848  0.564751  0.927239  1
  Rh  Rh20  1  0.261722  0.072866  0.637566  1
