# generated using pymatgen
data_Y2Ho6Cd2IrPt
_symmetry_space_group_name_H-M   'P 1'
_cell_length_a   9.63105914
_cell_length_b   9.62983126
_cell_length_c   9.61041408
_cell_angle_alpha   60.07512223
_cell_angle_beta   60.06243635
_cell_angle_gamma   60.20475427
_symmetry_Int_Tables_number   1
_chemical_formula_structural   Y2Ho6Cd2IrPt
_chemical_formula_sum   'Y4 Ho12 Cd4 Ir2 Pt2'
_cell_volume   631.88706461
_cell_formula_units_Z   2
loop_
 _symmetry_equiv_pos_site_id
 _symmetry_equiv_pos_as_xyz
  1  'x, y, z'
loop_
 _atom_site_type_symbol
 _atom_site_label
 _atom_site_symmetry_multiplicity
 _atom_site_fract_x
 _atom_site_fract_y
 _atom_site_fract_z
 _atom_site_occupancy
  Y  Y0  1  0.564379  0.937558  0.561846  1
  Y  Y1  1  0.937558  0.564379  0.936217  1
  Y  Y2  1  0.563372  0.563372  0.936628  1
  Y  Y3  1  0.937068  0.937068  0.562932  1
  Ho  Ho4  1  0.350509  0.350700  0.346352  1
  Ho  Ho5  1  0.350700  0.350509  0.952439  1
  Ho  Ho6  1  0.356043  0.944320  0.349687  1
  Ho  Ho7  1  0.944320  0.356043  0.349949  1
  Ho  Ho8  1  0.806670  0.190328  0.190607  1
  Ho  Ho9  1  0.190328  0.806670  0.812395  1
  Ho  Ho10  1  0.190343  0.806651  0.190633  1
  Ho  Ho11  1  0.806651  0.190343  0.812373  1
  Ho  Ho12  1  0.191499  0.191499  0.808501  1
  Ho  Ho13  1  0.811202  0.811202  0.188798  1
  Ho  Ho14  1  0.937935  0.564077  0.561414  1
  Ho  Ho15  1  0.564077  0.937935  0.936574  1
  Cd  Cd16  1  0.581144  0.581021  0.581606  1
  Cd  Cd17  1  0.581021  0.581144  0.256231  1
  Cd  Cd18  1  0.580788  0.255839  0.581754  1
  Cd  Cd19  1  0.255839  0.580788  0.581620  1
  Ir  Ir20  1  0.140557  0.573984  0.142878  1
  Ir  Ir21  1  0.573984  0.140557  0.142581  1
  Pt  Pt22  1  0.142073  0.141944  0.144503  1
  Pt  Pt23  1  0.141944  0.142073  0.571480  1
