# generated using pymatgen
data_Tb12Os3Ru
_symmetry_space_group_name_H-M   'P 1'
_cell_length_a   6.34639556
_cell_length_b   7.37548465
_cell_length_c   9.17853400
_cell_angle_alpha   90.00000000
_cell_angle_beta   90.00000000
_cell_angle_gamma   90.04810831
_symmetry_Int_Tables_number   1
_chemical_formula_structural   Tb12Os3Ru
_chemical_formula_sum   'Tb12 Os3 Ru1'
_cell_volume   429.62630942
_cell_formula_units_Z   1
loop_
 _symmetry_equiv_pos_site_id
 _symmetry_equiv_pos_as_xyz
  1  'x, y, z'
loop_
 _atom_site_type_symbol
 _atom_site_label
 _atom_site_symmetry_multiplicity
 _atom_site_fract_x
 _atom_site_fract_y
 _atom_site_fract_z
 _atom_site_occupancy
  Tb  Tb0  1  0.331567  0.675717  0.063143  1
  Tb  Tb1  1  0.169069  0.176349  0.436314  1
  Tb  Tb2  1  0.669374  0.323921  0.563553  1
  Tb  Tb3  1  0.829866  0.823628  0.935408  1
  Tb  Tb4  1  0.669374  0.323921  0.936447  1
  Tb  Tb5  1  0.829866  0.823628  0.564592  1
  Tb  Tb6  1  0.331567  0.675717  0.436857  1
  Tb  Tb7  1  0.169069  0.176349  0.063686  1
  Tb  Tb8  1  0.867575  0.539539  0.250000  1
  Tb  Tb9  1  0.633345  0.038959  0.250000  1
  Tb  Tb10  1  0.132478  0.461307  0.750000  1
  Tb  Tb11  1  0.367528  0.961349  0.750000  1
  Os  Os12  1  0.458253  0.384126  0.250000  1
  Os  Os13  1  0.958510  0.115366  0.750000  1
  Os  Os14  1  0.541787  0.615863  0.750000  1
  Ru  Ru15  1  0.040775  0.884260  0.250000  1
