# generated using pymatgen
data_Sc6InSn5Pd6
_symmetry_space_group_name_H-M   'P 1'
_cell_length_a   7.56208100
_cell_length_b   7.60501699
_cell_length_c   7.13381721
_cell_angle_alpha   89.97615485
_cell_angle_beta   90.00000000
_cell_angle_gamma   119.81341098
_symmetry_Int_Tables_number   1
_chemical_formula_structural   Sc6InSn5Pd6
_chemical_formula_sum   'Sc6 In1 Sn5 Pd6'
_cell_volume   355.96521768
_cell_formula_units_Z   1
loop_
 _symmetry_equiv_pos_site_id
 _symmetry_equiv_pos_as_xyz
  1  'x, y, z'
loop_
 _atom_site_type_symbol
 _atom_site_label
 _atom_site_symmetry_multiplicity
 _atom_site_fract_x
 _atom_site_fract_y
 _atom_site_fract_z
 _atom_site_occupancy
  Sc  Sc0  1  0.401441  0.013902  0.248750  1
  Sc  Sc1  1  0.613920  0.600791  0.248506  1
  Sc  Sc2  1  0.984994  0.385446  0.248940  1
  Sc  Sc3  1  0.387540  0.986098  0.751250  1
  Sc  Sc4  1  0.599547  0.614554  0.751060  1
  Sc  Sc5  1  0.013129  0.399209  0.751494  1
  In  In6  1  0.723523  0.000000  0.000000  1
  Sn  Sn7  1  0.277060  0.276890  0.500036  1
  Sn  Sn8  1  0.000171  0.723110  0.499964  1
  Sn  Sn9  1  0.998402  0.725772  0.999997  1
  Sn  Sn10  1  0.272630  0.274228  0.000003  1
  Sn  Sn11  1  0.724611  0.000000  0.500000  1
  Pd  Pd12  1  0.331530  0.665046  0.027501  1
  Pd  Pd13  1  0.333531  0.666190  0.471668  1
  Pd  Pd14  1  0.666485  0.334954  0.972499  1
  Pd  Pd15  1  0.667342  0.333810  0.528332  1
  Pd  Pd16  1  0.002145  0.000149  0.252362  1
  Pd  Pd17  1  0.001997  0.999851  0.747638  1
