# generated using pymatgen
data_Zr8Mn8Si13Ge
_symmetry_space_group_name_H-M   'P 1'
_cell_length_a   5.12733417
_cell_length_b   9.67455325
_cell_length_c   9.66715682
_cell_angle_alpha   85.98574980
_cell_angle_beta   74.60925607
_cell_angle_gamma   74.62259046
_symmetry_Int_Tables_number   1
_chemical_formula_structural   Zr8Mn8Si13Ge
_chemical_formula_sum   'Zr8 Mn8 Si13 Ge1'
_cell_volume   445.78735435
_cell_formula_units_Z   1
loop_
 _symmetry_equiv_pos_site_id
 _symmetry_equiv_pos_as_xyz
  1  'x, y, z'
loop_
 _atom_site_type_symbol
 _atom_site_label
 _atom_site_symmetry_multiplicity
 _atom_site_fract_x
 _atom_site_fract_y
 _atom_site_fract_z
 _atom_site_occupancy
  Zr  Zr0  1  0.195725  0.804100  0.804184  1
  Zr  Zr1  1  0.804477  0.195798  0.195699  1
  Zr  Zr2  1  0.999958  0.196856  0.803244  1
  Zr  Zr3  1  0.000018  0.803185  0.196772  1
  Zr  Zr4  1  0.360871  0.000543  0.277512  1
  Zr  Zr5  1  0.638999  0.999954  0.722222  1
  Zr  Zr6  1  0.638995  0.722196  0.999960  1
  Zr  Zr7  1  0.360879  0.277542  0.000534  1
  Mn  Mn8  1  0.397501  0.500281  0.204893  1
  Mn  Mn9  1  0.604394  0.498158  0.797781  1
  Mn  Mn10  1  0.099701  0.498367  0.798062  1
  Mn  Mn11  1  0.604388  0.797696  0.498133  1
  Mn  Mn12  1  0.897294  0.500147  0.204686  1
  Mn  Mn13  1  0.397406  0.204966  0.500346  1
  Mn  Mn14  1  0.897247  0.204850  0.500110  1
  Mn  Mn15  1  0.099728  0.797909  0.498424  1
  Si  Si16  1  0.594003  0.405769  0.405663  1
  Si  Si17  1  0.000076  0.408292  0.590908  1
  Si  Si18  1  0.000900  0.590757  0.408143  1
  Si  Si19  1  0.249158  0.999916  0.999905  1
  Si  Si20  1  0.750910  0.000000  0.000002  1
  Si  Si21  1  0.201485  0.298056  0.298007  1
  Si  Si22  1  0.797371  0.702986  0.703093  1
  Si  Si23  1  0.500027  0.703462  0.296104  1
  Si  Si24  1  0.500422  0.296156  0.703504  1
  Si  Si25  1  0.209095  0.000392  0.580606  1
  Si  Si26  1  0.790315  0.001500  0.418640  1
  Si  Si27  1  0.789875  0.418753  0.001469  1
  Si  Si28  1  0.209582  0.580478  0.000382  1
  Ge  Ge29  1  0.409200  0.590934  0.591010  1
