# generated using pymatgen
data_SrGa2SiPd
_symmetry_space_group_name_H-M   'P 1'
_cell_length_a   6.12053701
_cell_length_b   6.12053584
_cell_length_c   6.00082500
_cell_angle_alpha   90.00000000
_cell_angle_beta   90.00000000
_cell_angle_gamma   116.42510992
_symmetry_Int_Tables_number   1
_chemical_formula_structural   SrGa2SiPd
_chemical_formula_sum   'Sr2 Ga4 Si2 Pd2'
_cell_volume   201.30922603
_cell_formula_units_Z   2
loop_
 _symmetry_equiv_pos_site_id
 _symmetry_equiv_pos_as_xyz
  1  'x, y, z'
loop_
 _atom_site_type_symbol
 _atom_site_label
 _atom_site_symmetry_multiplicity
 _atom_site_fract_x
 _atom_site_fract_y
 _atom_site_fract_z
 _atom_site_occupancy
  Sr  Sr0  1  0.237847  0.762153  0.750000  1
  Sr  Sr1  1  0.762153  0.237847  0.250000  1
  Ga  Ga2  1  0.726959  0.726959  0.000000  1
  Ga  Ga3  1  0.726959  0.726959  0.500000  1
  Ga  Ga4  1  0.273041  0.273041  0.000000  1
  Ga  Ga5  1  0.273041  0.273041  0.500000  1
  Si  Si6  1  0.649834  0.350166  0.750000  1
  Si  Si7  1  0.350166  0.649834  0.250000  1
  Pd  Pd8  1  0.884944  0.115056  0.750000  1
  Pd  Pd9  1  0.115056  0.884944  0.250000  1
