# generated using pymatgen
data_CsRb3Si4(SbSe4)4
_symmetry_space_group_name_H-M   'P 1'
_cell_length_a   7.55822858
_cell_length_b   9.49612884
_cell_length_c   13.60514681
_cell_angle_alpha   73.00030663
_cell_angle_beta   89.84540777
_cell_angle_gamma   90.00401596
_symmetry_Int_Tables_number   1
_chemical_formula_structural   CsRb3Si4(SbSe4)4
_chemical_formula_sum   'Cs1 Rb3 Si4 Sb4 Se16'
_cell_volume   933.82419789
_cell_formula_units_Z   1
loop_
 _symmetry_equiv_pos_site_id
 _symmetry_equiv_pos_as_xyz
  1  'x, y, z'
loop_
 _atom_site_type_symbol
 _atom_site_label
 _atom_site_symmetry_multiplicity
 _atom_site_fract_x
 _atom_site_fract_y
 _atom_site_fract_z
 _atom_site_occupancy
  Cs  Cs0  1  0.240241  0.433061  0.884196  1
  Rb  Rb1  1  0.251207  0.431918  0.380686  1
  Rb  Rb2  1  0.751243  0.568100  0.119810  1
  Rb  Rb3  1  0.748873  0.568281  0.618596  1
  Si  Si4  1  0.777221  0.181381  0.345524  1
  Si  Si5  1  0.277943  0.817875  0.155436  1
  Si  Si6  1  0.223147  0.820912  0.653422  1
  Si  Si7  1  0.723820  0.179937  0.845509  1
  Sb  Sb8  1  0.135031  0.936115  0.374659  1
  Sb  Sb9  1  0.635653  0.062788  0.125936  1
  Sb  Sb10  1  0.862894  0.063997  0.624538  1
  Sb  Sb11  1  0.365554  0.936313  0.874494  1
  Se  Se12  1  0.981585  0.220560  0.752586  1
  Se  Se13  1  0.799994  0.931705  0.441128  1
  Se  Se14  1  0.493719  0.211891  0.735087  1
  Se  Se15  1  0.699336  0.930843  0.941958  1
  Se  Se16  1  0.779899  0.321078  0.455969  1
  Se  Se17  1  0.018362  0.777225  0.246494  1
  Se  Se18  1  0.280842  0.679163  0.044773  1
  Se  Se19  1  0.198106  0.069608  0.556917  1
  Se  Se20  1  0.722949  0.318396  0.956663  1
  Se  Se21  1  0.508715  0.784966  0.265236  1
  Se  Se22  1  0.991756  0.788620  0.763750  1
  Se  Se23  1  0.220150  0.680040  0.543725  1
  Se  Se24  1  0.518475  0.221888  0.254142  1
  Se  Se25  1  0.008737  0.213626  0.235551  1
  Se  Se26  1  0.483582  0.783114  0.743344  1
  Se  Se27  1  0.300964  0.066602  0.059872  1
