# generated using pymatgen
data_HoTh3TlInPd4
_symmetry_space_group_name_H-M   'P 1'
_cell_length_a   7.97520202
_cell_length_b   7.97372036
_cell_length_c   3.76317700
_cell_angle_alpha   90.00000000
_cell_angle_beta   90.00000000
_cell_angle_gamma   89.46347481
_symmetry_Int_Tables_number   1
_chemical_formula_structural   HoTh3TlInPd4
_chemical_formula_sum   'Ho1 Th3 Tl1 In1 Pd4'
_cell_volume   239.29757538
_cell_formula_units_Z   1
loop_
 _symmetry_equiv_pos_site_id
 _symmetry_equiv_pos_as_xyz
  1  'x, y, z'
loop_
 _atom_site_type_symbol
 _atom_site_label
 _atom_site_symmetry_multiplicity
 _atom_site_fract_x
 _atom_site_fract_y
 _atom_site_fract_z
 _atom_site_occupancy
  Ho  Ho0  1  0.673826  0.175803  0.500000  1
  Th  Th1  1  0.330713  0.828474  0.500000  1
  Th  Th2  1  0.823390  0.670771  0.500000  1
  Th  Th3  1  0.172472  0.325127  0.500000  1
  Tl  Tl4  1  0.992691  0.002927  0.000000  1
  In  In5  1  0.503147  0.492462  0.000000  1
  Pd  Pd6  1  0.373521  0.128918  0.000000  1
  Pd  Pd7  1  0.872911  0.375715  0.000000  1
  Pd  Pd8  1  0.131378  0.629040  0.000000  1
  Pd  Pd9  1  0.625951  0.870763  0.000000  1
