# generated using pymatgen
data_TbErMn2Fe10P7
_symmetry_space_group_name_H-M   'P 1'
_cell_length_a   9.00834714
_cell_length_b   8.99658767
_cell_length_c   3.63167800
_cell_angle_alpha   90.00000000
_cell_angle_beta   90.00000000
_cell_angle_gamma   119.95388756
_symmetry_Int_Tables_number   1
_chemical_formula_structural   TbErMn2Fe10P7
_chemical_formula_sum   'Tb1 Er1 Mn2 Fe10 P7'
_cell_volume   255.01311024
_cell_formula_units_Z   1
loop_
 _symmetry_equiv_pos_site_id
 _symmetry_equiv_pos_as_xyz
  1  'x, y, z'
loop_
 _atom_site_type_symbol
 _atom_site_label
 _atom_site_symmetry_multiplicity
 _atom_site_fract_x
 _atom_site_fract_y
 _atom_site_fract_z
 _atom_site_occupancy
  Tb  Tb0  1  0.000067  0.001809  0.500000  1
  Er  Er1  1  0.331783  0.664128  0.000000  1
  Mn  Mn2  1  0.771039  0.551233  0.500000  1
  Mn  Mn3  1  0.449657  0.215340  0.500000  1
  Fe  Fe4  1  0.034176  0.277521  0.000000  1
  Fe  Fe5  1  0.721765  0.758753  0.000000  1
  Fe  Fe6  1  0.242259  0.964043  0.000000  1
  Fe  Fe7  1  0.546923  0.059219  0.000000  1
  Fe  Fe8  1  0.941221  0.488593  0.000000  1
  Fe  Fe9  1  0.514130  0.452857  0.000000  1
  Fe  Fe10  1  0.616510  0.899464  0.500000  1
  Fe  Fe11  1  0.101098  0.716826  0.500000  1
  Fe  Fe12  1  0.281992  0.383785  0.500000  1
  Fe  Fe13  1  0.783529  0.237224  0.500000  1
  P  P14  1  0.777450  0.034607  0.000000  1
  P  P15  1  0.968785  0.747208  0.000000  1
  P  P16  1  0.254184  0.223782  0.000000  1
  P  P17  1  0.376628  0.923997  0.500000  1
  P  P18  1  0.066855  0.443908  0.500000  1
  P  P19  1  0.550304  0.623501  0.500000  1
  P  P20  1  0.669645  0.332207  0.000000  1
