# generated using pymatgen
data_Na2Hf3(ZrSe5)2
_symmetry_space_group_name_H-M   'P 1'
_cell_length_a   6.51176080
_cell_length_b   10.59521391
_cell_length_c   8.31411627
_cell_angle_alpha   62.38838801
_cell_angle_beta   66.83889598
_cell_angle_gamma   90.00559644
_symmetry_Int_Tables_number   1
_chemical_formula_structural   Na2Hf3(ZrSe5)2
_chemical_formula_sum   'Na2 Hf3 Zr2 Se10'
_cell_volume   455.46140288
_cell_formula_units_Z   1
loop_
 _symmetry_equiv_pos_site_id
 _symmetry_equiv_pos_as_xyz
  1  'x, y, z'
loop_
 _atom_site_type_symbol
 _atom_site_label
 _atom_site_symmetry_multiplicity
 _atom_site_fract_x
 _atom_site_fract_y
 _atom_site_fract_z
 _atom_site_occupancy
  Na  Na0  1  0.793456  0.087732  0.412267  1
  Na  Na1  1  0.007020  0.512604  0.987289  1
  Hf  Hf2  1  0.401762  0.802422  0.197537  1
  Hf  Hf3  1  0.801148  0.601168  0.400481  1
  Hf  Hf4  1  0.195843  0.398532  0.599029  1
  Zr  Zr5  1  0.600881  0.197884  0.804853  1
  Zr  Zr6  1  0.000048  0.000333  0.997879  1
  Se  Se7  1  0.980985  0.839714  0.377007  1
  Se  Se8  1  0.571215  0.040628  0.180829  1
  Se  Se9  1  0.177020  0.247668  0.972836  1
  Se  Se10  1  0.780091  0.445988  0.771923  1
  Se  Se11  1  0.383392  0.643226  0.569029  1
  Se  Se12  1  0.420926  0.952053  0.829235  1
  Se  Se13  1  0.028686  0.158624  0.620368  1
  Se  Se14  1  0.619587  0.358079  0.424684  1
  Se  Se15  1  0.220982  0.557706  0.226989  1
  Se  Se16  1  0.816959  0.755639  0.027766  1
