# generated using pymatgen
data_Nd7SmSe12
_symmetry_space_group_name_H-M   'P 1'
_cell_length_a   4.19001800
_cell_length_b   11.19339604
_cell_length_c   11.53270804
_cell_angle_alpha   90.00981267
_cell_angle_beta   90.00000000
_cell_angle_gamma   90.00000000
_symmetry_Int_Tables_number   1
_chemical_formula_structural   Nd7SmSe12
_chemical_formula_sum   'Nd7 Sm1 Se12'
_cell_volume   540.89012189
_cell_formula_units_Z   1
loop_
 _symmetry_equiv_pos_site_id
 _symmetry_equiv_pos_as_xyz
  1  'x, y, z'
loop_
 _atom_site_type_symbol
 _atom_site_label
 _atom_site_symmetry_multiplicity
 _atom_site_fract_x
 _atom_site_fract_y
 _atom_site_fract_z
 _atom_site_occupancy
  Nd  Nd0  1  0.250000  0.998104  0.694229  1
  Nd  Nd1  1  0.750000  0.002515  0.305850  1
  Nd  Nd2  1  0.750000  0.497376  0.806472  1
  Nd  Nd3  1  0.250000  0.501581  0.193320  1
  Nd  Nd4  1  0.250000  0.313137  0.511469  1
  Nd  Nd5  1  0.750000  0.686731  0.488489  1
  Nd  Nd6  1  0.750000  0.813485  0.988580  1
  Sm  Sm7  1  0.250000  0.186977  0.011207  1
  Se  Se8  1  0.750000  0.057710  0.881601  1
  Se  Se9  1  0.250000  0.945796  0.119470  1
  Se  Se10  1  0.250000  0.555798  0.620523  1
  Se  Se11  1  0.750000  0.443957  0.379544  1
  Se  Se12  1  0.250000  0.874771  0.455029  1
  Se  Se13  1  0.750000  0.125264  0.544974  1
  Se  Se14  1  0.750000  0.371949  0.044384  1
  Se  Se15  1  0.250000  0.625011  0.955109  1
  Se  Se16  1  0.250000  0.300721  0.773318  1
  Se  Se17  1  0.750000  0.698747  0.228044  1
  Se  Se18  1  0.750000  0.801487  0.728248  1
  Se  Se19  1  0.250000  0.198884  0.270140  1
