# generated using pymatgen
data_CrNi3(OsO3)8
_symmetry_space_group_name_H-M   'P 1'
_cell_length_a   6.49460772
_cell_length_b   6.48318378
_cell_length_c   10.40924052
_cell_angle_alpha   71.86326992
_cell_angle_beta   71.83094103
_cell_angle_gamma   89.99875093
_symmetry_Int_Tables_number   1
_chemical_formula_structural   CrNi3(OsO3)8
_chemical_formula_sum   'Cr1 Ni3 Os8 O24'
_cell_volume   393.45356694
_cell_formula_units_Z   1
loop_
 _symmetry_equiv_pos_site_id
 _symmetry_equiv_pos_as_xyz
  1  'x, y, z'
loop_
 _atom_site_type_symbol
 _atom_site_label
 _atom_site_symmetry_multiplicity
 _atom_site_fract_x
 _atom_site_fract_y
 _atom_site_fract_z
 _atom_site_occupancy
  Cr  Cr0  1  0.666633  0.666604  0.666750  1
  Ni  Ni1  1  0.416546  0.916598  0.166902  1
  Ni  Ni2  1  0.166659  0.166681  0.666673  1
  Ni  Ni3  1  0.916840  0.416781  0.166369  1
  Os  Os4  1  0.251009  0.751090  0.498034  1
  Os  Os5  1  0.751256  0.251357  0.497502  1
  Os  Os6  1  0.082308  0.582244  0.835363  1
  Os  Os7  1  0.582082  0.081962  0.835839  1
  Os  Os8  1  0.500259  0.500258  0.999459  1
  Os  Os9  1  0.001911  0.001858  0.996255  1
  Os  Os10  1  0.331418  0.331484  0.337125  1
  Os  Os11  1  0.833057  0.833063  0.333889  1
  O  O12  1  0.733114  0.917295  0.165343  1
  O  O13  1  0.231811  0.416012  0.167957  1
  O  O14  1  0.101635  0.917370  0.165287  1
  O  O15  1  0.600223  0.416089  0.167896  1
  O  O16  1  0.166661  0.850356  0.666617  1
  O  O17  1  0.666623  0.355202  0.666647  1
  O  O18  1  0.166637  0.483009  0.666729  1
  O  O19  1  0.666643  0.978077  0.666742  1
  O  O20  1  0.553324  0.751203  0.497479  1
  O  O21  1  0.050225  0.253901  0.492172  1
  O  O22  1  0.384133  0.582004  0.836000  1
  O  O23  1  0.875758  0.079453  0.841141  1
  O  O24  1  0.949139  0.751222  0.497460  1
  O  O25  1  0.457521  0.253855  0.492240  1
  O  O26  1  0.779937  0.582024  0.835982  1
  O  O27  1  0.283118  0.079422  0.841187  1
  O  O28  1  0.328511  0.030737  0.343054  1
  O  O29  1  0.829221  0.533350  0.341490  1
  O  O30  1  0.004942  0.707119  0.990220  1
  O  O31  1  0.504138  0.208268  0.991714  1
  O  O32  1  0.004854  0.302572  0.990204  1
  O  O33  1  0.504181  0.799916  0.991707  1
  O  O34  1  0.328423  0.626339  0.343065  1
  O  O35  1  0.829250  0.125229  0.341507  1
