# generated using pymatgen
data_Pr3ErZn2Ir3
_symmetry_space_group_name_H-M   'P 1'
_cell_length_a   7.50658500
_cell_length_b   7.50317310
_cell_length_c   4.11218000
_cell_angle_alpha   90.00000000
_cell_angle_beta   90.00000000
_cell_angle_gamma   120.01504780
_symmetry_Int_Tables_number   1
_chemical_formula_structural   Pr3ErZn2Ir3
_chemical_formula_sum   'Pr3 Er1 Zn2 Ir3'
_cell_volume   200.55073048
_cell_formula_units_Z   1
loop_
 _symmetry_equiv_pos_site_id
 _symmetry_equiv_pos_as_xyz
  1  'x, y, z'
loop_
 _atom_site_type_symbol
 _atom_site_label
 _atom_site_symmetry_multiplicity
 _atom_site_fract_x
 _atom_site_fract_y
 _atom_site_fract_z
 _atom_site_occupancy
  Pr  Pr0  1  0.387532  0.000000  0.499999  1
  Pr  Pr1  1  0.018997  0.440575  0.499999  1
  Pr  Pr2  1  0.578422  0.559424  0.499999  1
  Er  Er3  1  0.762106  0.000000  0.000000  1
  Zn  Zn4  1  0.240828  0.245990  0.000000  1
  Zn  Zn5  1  0.994838  0.754010  0.000000  1
  Ir  Ir6  1  0.669823  0.328156  0.000000  1
  Ir  Ir7  1  0.341668  0.671844  0.000000  1
  Ir  Ir8  1  0.005786  0.000000  0.499999  1
