# generated using pymatgen
data_Li3Nd3ZnSn4
_symmetry_space_group_name_H-M   'P 1'
_cell_length_a   8.85559707
_cell_length_b   8.77590488
_cell_length_c   8.77590454
_cell_angle_alpha   148.96732237
_cell_angle_beta   131.28727159
_cell_angle_gamma   58.80206555
_symmetry_Int_Tables_number   1
_chemical_formula_structural   Li3Nd3ZnSn4
_chemical_formula_sum   'Li3 Nd3 Zn1 Sn4'
_cell_volume   262.21326763
_cell_formula_units_Z   1
loop_
 _symmetry_equiv_pos_site_id
 _symmetry_equiv_pos_as_xyz
  1  'x, y, z'
loop_
 _atom_site_type_symbol
 _atom_site_label
 _atom_site_symmetry_multiplicity
 _atom_site_fract_x
 _atom_site_fract_y
 _atom_site_fract_z
 _atom_site_occupancy
  Li  Li0  1  0.858083  0.671088  0.186995  1
  Li  Li1  1  0.486906  0.673686  0.813220  1
  Li  Li2  1  0.514914  0.329739  0.185174  1
  Nd  Nd3  1  0.503652  0.999313  0.504340  1
  Nd  Nd4  1  0.119745  0.127248  0.992497  1
  Nd  Nd5  1  0.877187  0.871668  0.005518  1
  Zn  Zn6  1  0.131000  0.326089  0.804911  1
  Sn  Sn7  1  0.804462  0.499538  0.304925  1
  Sn  Sn8  1  0.202547  0.501141  0.701406  1
  Sn  Sn9  1  0.716205  0.215246  0.500959  1
  Sn  Sn10  1  0.285298  0.785245  0.500054  1
