# generated using pymatgen
data_KSr4Pa3O12
_symmetry_space_group_name_H-M   'P 1'
_cell_length_a   6.13652984
_cell_length_b   6.23921062
_cell_length_c   8.73115809
_cell_angle_alpha   89.82406561
_cell_angle_beta   89.44013263
_cell_angle_gamma   89.84488207
_symmetry_Int_Tables_number   1
_chemical_formula_structural   KSr4Pa3O12
_chemical_formula_sum   'K1 Sr4 Pa3 O12'
_cell_volume   334.27200793
_cell_formula_units_Z   1
loop_
 _symmetry_equiv_pos_site_id
 _symmetry_equiv_pos_as_xyz
  1  'x, y, z'
loop_
 _atom_site_type_symbol
 _atom_site_label
 _atom_site_symmetry_multiplicity
 _atom_site_fract_x
 _atom_site_fract_y
 _atom_site_fract_z
 _atom_site_occupancy
  K  K0  1  0.989756  0.470817  0.244215  1
  Sr  Sr1  1  0.001313  0.010079  0.006367  1
  Sr  Sr2  1  0.515594  0.955589  0.246682  1
  Sr  Sr3  1  0.490448  0.039452  0.763428  1
  Sr  Sr4  1  0.016095  0.558531  0.764796  1
  Pa  Pa5  1  0.501557  0.498873  0.500864  1
  Pa  Pa6  1  0.499066  0.497133  0.998216  1
  Pa  Pa7  1  0.000044  0.004882  0.502580  1
  O  O8  1  0.896729  0.966272  0.726540  1
  O  O9  1  0.770250  0.725090  0.451503  1
  O  O10  1  0.777895  0.682071  0.027115  1
  O  O11  1  0.697940  0.205140  0.447610  1
  O  O12  1  0.653391  0.196674  0.042272  1
  O  O13  1  0.611384  0.459663  0.735296  1
  O  O14  1  0.421359  0.544009  0.263882  1
  O  O15  1  0.313612  0.776213  0.938463  1
  O  O16  1  0.283716  0.779414  0.563359  1
  O  O17  1  0.225119  0.316684  0.931194  1
  O  O18  1  0.219699  0.289494  0.564877  1
  O  O19  1  0.115034  0.023921  0.280738  1
