# generated using pymatgen
data_HoTm2Co8ReP6
_symmetry_space_group_name_H-M   'P 1'
_cell_length_a   3.70298700
_cell_length_b   10.47606900
_cell_length_c   12.16263500
_cell_angle_alpha   90.00000000
_cell_angle_beta   90.00000000
_cell_angle_gamma   90.00000000
_symmetry_Int_Tables_number   1
_chemical_formula_structural   HoTm2Co8ReP6
_chemical_formula_sum   'Ho2 Tm4 Co16 Re2 P12'
_cell_volume   471.82202628
_cell_formula_units_Z   2
loop_
 _symmetry_equiv_pos_site_id
 _symmetry_equiv_pos_as_xyz
  1  'x, y, z'
loop_
 _atom_site_type_symbol
 _atom_site_label
 _atom_site_symmetry_multiplicity
 _atom_site_fract_x
 _atom_site_fract_y
 _atom_site_fract_z
 _atom_site_occupancy
  Ho  Ho0  1  0.000000  0.500000  0.525692  1
  Ho  Ho1  1  0.500000  0.000000  0.474308  1
  Tm  Tm2  1  0.500000  0.818701  0.205685  1
  Tm  Tm3  1  0.500000  0.181299  0.205685  1
  Tm  Tm4  1  0.000000  0.681299  0.794315  1
  Tm  Tm5  1  0.000000  0.318701  0.794315  1
  Co  Co6  1  0.500000  0.500000  0.702365  1
  Co  Co7  1  0.000000  0.000000  0.297635  1
  Co  Co8  1  0.000000  0.500000  0.988004  1
  Co  Co9  1  0.500000  0.000000  0.011996  1
  Co  Co10  1  0.500000  0.332428  0.989368  1
  Co  Co11  1  0.500000  0.667572  0.989368  1
  Co  Co12  1  0.000000  0.167572  0.010632  1
  Co  Co13  1  0.000000  0.832428  0.010632  1
  Co  Co14  1  0.500000  0.296715  0.431102  1
  Co  Co15  1  0.500000  0.703285  0.431102  1
  Co  Co16  1  0.000000  0.203285  0.568898  1
  Co  Co17  1  0.000000  0.796715  0.568898  1
  Co  Co18  1  0.500000  0.878519  0.708282  1
  Co  Co19  1  0.500000  0.121481  0.708282  1
  Co  Co20  1  0.000000  0.621481  0.291718  1
  Co  Co21  1  0.000000  0.378519  0.291718  1
  Re  Re22  1  0.500000  0.500000  0.156757  1
  Re  Re23  1  0.000000  0.000000  0.843243  1
  P  P24  1  0.500000  0.500000  0.879465  1
  P  P25  1  0.000000  0.000000  0.120535  1
  P  P26  1  0.500000  0.500000  0.350170  1
  P  P27  1  0.000000  0.000000  0.649830  1
  P  P28  1  0.500000  0.312238  0.616891  1
  P  P29  1  0.500000  0.687762  0.616891  1
  P  P30  1  0.000000  0.187762  0.383109  1
  P  P31  1  0.000000  0.812238  0.383109  1
  P  P32  1  0.500000  0.845118  0.891571  1
  P  P33  1  0.500000  0.154882  0.891571  1
  P  P34  1  0.000000  0.654882  0.108429  1
  P  P35  1  0.000000  0.345118  0.108429  1
