# generated using pymatgen
data_Pr3Ho(Tm4Bi3)4
_symmetry_space_group_name_H-M   'P 1'
_cell_length_a   8.27001912
_cell_length_b   9.47271500
_cell_length_c   12.04270617
_cell_angle_alpha   90.00000000
_cell_angle_beta   90.01921690
_cell_angle_gamma   90.00000000
_symmetry_Int_Tables_number   1
_chemical_formula_structural   Pr3Ho(Tm4Bi3)4
_chemical_formula_sum   'Pr3 Ho1 Tm16 Bi12'
_cell_volume   943.41993795
_cell_formula_units_Z   1
loop_
 _symmetry_equiv_pos_site_id
 _symmetry_equiv_pos_as_xyz
  1  'x, y, z'
loop_
 _atom_site_type_symbol
 _atom_site_label
 _atom_site_symmetry_multiplicity
 _atom_site_fract_x
 _atom_site_fract_y
 _atom_site_fract_z
 _atom_site_occupancy
  Pr  Pr0  1  0.316666  0.250000  0.219336  1
  Pr  Pr1  1  0.816367  0.250000  0.280592  1
  Pr  Pr2  1  0.683815  0.750000  0.780833  1
  Ho  Ho3  1  0.185466  0.750000  0.717339  1
  Tm  Tm4  1  0.351936  0.750000  0.218253  1
  Tm  Tm5  1  0.852626  0.750000  0.282220  1
  Tm  Tm6  1  0.646624  0.250000  0.780546  1
  Tm  Tm7  1  0.147806  0.250000  0.718713  1
  Tm  Tm8  1  0.690755  0.566413  0.060702  1
  Tm  Tm9  1  0.191882  0.934078  0.439722  1
  Tm  Tm10  1  0.308900  0.066007  0.938639  1
  Tm  Tm11  1  0.807865  0.434148  0.560932  1
  Tm  Tm12  1  0.308900  0.433993  0.938639  1
  Tm  Tm13  1  0.807865  0.065852  0.560932  1
  Tm  Tm14  1  0.690755  0.933587  0.060702  1
  Tm  Tm15  1  0.191882  0.565922  0.439722  1
  Tm  Tm16  1  0.476709  0.250000  0.489777  1
  Tm  Tm17  1  0.977865  0.250000  0.010539  1
  Tm  Tm18  1  0.522643  0.750000  0.512252  1
  Tm  Tm19  1  0.022676  0.750000  0.988496  1
  Bi  Bi20  1  0.400175  0.750000  0.961981  1
  Bi  Bi21  1  0.906833  0.750000  0.539246  1
  Bi  Bi22  1  0.597807  0.250000  0.035749  1
  Bi  Bi23  1  0.096999  0.250000  0.464165  1
  Bi  Bi24  1  0.565461  0.989962  0.328665  1
  Bi  Bi25  1  0.065151  0.509873  0.171881  1
  Bi  Bi26  1  0.430455  0.493135  0.672608  1
  Bi  Bi27  1  0.938025  0.007317  0.826832  1
  Bi  Bi28  1  0.430455  0.006865  0.672608  1
  Bi  Bi29  1  0.938025  0.492683  0.826832  1
  Bi  Bi30  1  0.565461  0.510038  0.328665  1
  Bi  Bi31  1  0.065151  0.990127  0.171881  1
