# generated using pymatgen
data_Lu2Mn6Ni6P7
_symmetry_space_group_name_H-M   'P 1'
_cell_length_a   9.09702500
_cell_length_b   9.09702547
_cell_length_c   3.63688600
_cell_angle_alpha   90.00000000
_cell_angle_beta   90.00000000
_cell_angle_gamma   120.00000194
_symmetry_Int_Tables_number   1
_chemical_formula_structural   Lu2Mn6Ni6P7
_chemical_formula_sum   'Lu2 Mn6 Ni6 P7'
_cell_volume   260.65082872
_cell_formula_units_Z   1
loop_
 _symmetry_equiv_pos_site_id
 _symmetry_equiv_pos_as_xyz
  1  'x, y, z'
loop_
 _atom_site_type_symbol
 _atom_site_label
 _atom_site_symmetry_multiplicity
 _atom_site_fract_x
 _atom_site_fract_y
 _atom_site_fract_z
 _atom_site_occupancy
  Lu  Lu0  1  0.333333  0.666667  0.000000  1
  Lu  Lu1  1  0.000000  0.000000  0.500000  1
  Mn  Mn2  1  0.546596  0.055427  0.000000  1
  Mn  Mn3  1  0.944573  0.491170  0.000000  1
  Mn  Mn4  1  0.508830  0.453404  0.000000  1
  Mn  Mn5  1  0.786904  0.234743  0.500000  1
  Mn  Mn6  1  0.765257  0.552161  0.500000  1
  Mn  Mn7  1  0.447839  0.213096  0.500000  1
  Ni  Ni8  1  0.040722  0.269382  0.000000  1
  Ni  Ni9  1  0.730618  0.771341  0.000000  1
  Ni  Ni10  1  0.228659  0.959278  0.000000  1
  Ni  Ni11  1  0.614840  0.893235  0.500000  1
  Ni  Ni12  1  0.106765  0.721605  0.500000  1
  Ni  Ni13  1  0.278395  0.385160  0.500000  1
  P  P14  1  0.781174  0.040026  0.000000  1
  P  P15  1  0.959974  0.741149  0.000000  1
  P  P16  1  0.258851  0.218826  0.000000  1
  P  P17  1  0.381976  0.929852  0.500000  1
  P  P18  1  0.070148  0.452126  0.500000  1
  P  P19  1  0.547874  0.618024  0.500000  1
  P  P20  1  0.666667  0.333333  0.000000  1
