# generated using pymatgen
data_Sr6Zn2IrRhO12
_symmetry_space_group_name_H-M   'P 1'
_cell_length_a   6.75467129
_cell_length_b   6.75466980
_cell_length_c   6.75467091
_cell_angle_alpha   91.64362277
_cell_angle_beta   91.64360871
_cell_angle_gamma   91.64360859
_symmetry_Int_Tables_number   1
_chemical_formula_structural   Sr6Zn2IrRhO12
_chemical_formula_sum   'Sr6 Zn2 Ir1 Rh1 O12'
_cell_volume   307.79791163
_cell_formula_units_Z   1
loop_
 _symmetry_equiv_pos_site_id
 _symmetry_equiv_pos_as_xyz
  1  'x, y, z'
loop_
 _atom_site_type_symbol
 _atom_site_label
 _atom_site_symmetry_multiplicity
 _atom_site_fract_x
 _atom_site_fract_y
 _atom_site_fract_z
 _atom_site_occupancy
  Sr  Sr0  1  0.744542  0.389166  0.117136  1
  Sr  Sr1  1  0.610834  0.882864  0.255458  1
  Sr  Sr2  1  0.117136  0.744542  0.389166  1
  Sr  Sr3  1  0.882864  0.255459  0.610834  1
  Sr  Sr4  1  0.389166  0.117137  0.744542  1
  Sr  Sr5  1  0.255458  0.610835  0.882864  1
  Zn  Zn6  1  0.256450  0.256450  0.256450  1
  Zn  Zn7  1  0.743550  0.743551  0.743550  1
  Ir  Ir8  1  0.000000  0.000000  0.000000  1
  Rh  Rh9  1  0.500000  0.500000  0.500000  1
  O  O10  1  0.910292  0.717560  0.040408  1
  O  O11  1  0.282440  0.959592  0.089706  1
  O  O12  1  0.405137  0.540481  0.211000  1
  O  O13  1  0.959591  0.089707  0.282440  1
  O  O14  1  0.540481  0.210999  0.405137  1
  O  O15  1  0.789001  0.594863  0.459519  1
  O  O16  1  0.210999  0.405138  0.540481  1
  O  O17  1  0.459520  0.789000  0.594863  1
  O  O18  1  0.040408  0.910293  0.717559  1
  O  O19  1  0.594863  0.459519  0.789000  1
  O  O20  1  0.717559  0.040408  0.910293  1
  O  O21  1  0.089707  0.282440  0.959591  1
