# generated using pymatgen
data_Er12In(FePd)2
_symmetry_space_group_name_H-M   'P 1'
_cell_length_a   8.23173199
_cell_length_b   8.23173148
_cell_length_c   8.23173226
_cell_angle_alpha   111.50661010
_cell_angle_beta   107.21633972
_cell_angle_gamma   109.71921017
_symmetry_Int_Tables_number   1
_chemical_formula_structural   Er12In(FePd)2
_chemical_formula_sum   'Er12 In1 Fe2 Pd2'
_cell_volume   428.78466463
_cell_formula_units_Z   1
loop_
 _symmetry_equiv_pos_site_id
 _symmetry_equiv_pos_as_xyz
  1  'x, y, z'
loop_
 _atom_site_type_symbol
 _atom_site_label
 _atom_site_symmetry_multiplicity
 _atom_site_fract_x
 _atom_site_fract_y
 _atom_site_fract_z
 _atom_site_occupancy
  Er  Er0  1  0.307395  0.309437  0.616831  1
  Er  Er1  1  0.692605  0.690563  0.383169  1
  Er  Er2  1  0.307395  0.690563  0.997959  1
  Er  Er3  1  0.692605  0.309437  0.002041  1
  Er  Er4  1  0.417548  0.194640  0.222908  1
  Er  Er5  1  0.582452  0.805360  0.777092  1
  Er  Er6  1  0.971731  0.194640  0.777092  1
  Er  Er7  1  0.198560  0.923533  0.724973  1
  Er  Er8  1  0.028269  0.805360  0.222908  1
  Er  Er9  1  0.801440  0.076467  0.275027  1
  Er  Er10  1  0.198560  0.473587  0.275027  1
  Er  Er11  1  0.801440  0.526413  0.724973  1
  In  In12  1  0.500000  0.000000  0.500000  1
  Fe  Fe13  1  0.384894  0.384894  0.000000  1
  Fe  Fe14  1  0.615106  0.615106  0.000000  1
  Pd  Pd15  1  0.000000  0.000000  0.000000  1
  Pd  Pd16  1  0.000000  0.500000  0.500000  1
