# generated using pymatgen
data_Pr2Al9PdPtRh
_symmetry_space_group_name_H-M   'P 1'
_cell_length_a   7.69219314
_cell_length_b   7.69146999
_cell_length_c   9.61549200
_cell_angle_alpha   90.00722346
_cell_angle_beta   90.00470004
_cell_angle_gamma   119.60524910
_symmetry_Int_Tables_number   1
_chemical_formula_structural   Pr2Al9PdPtRh
_chemical_formula_sum   'Pr4 Al18 Pd2 Pt2 Rh2'
_cell_volume   494.62433627
_cell_formula_units_Z   2
loop_
 _symmetry_equiv_pos_site_id
 _symmetry_equiv_pos_as_xyz
  1  'x, y, z'
loop_
 _atom_site_type_symbol
 _atom_site_label
 _atom_site_symmetry_multiplicity
 _atom_site_fract_x
 _atom_site_fract_y
 _atom_site_fract_z
 _atom_site_occupancy
  Pr  Pr0  1  0.993781  0.666133  0.249947  1
  Pr  Pr1  1  0.006219  0.333867  0.750053  1
  Pr  Pr2  1  0.666071  0.993701  0.249961  1
  Pr  Pr3  1  0.333929  0.006299  0.750039  1
  Al  Al4  1  0.127082  0.127081  0.250261  1
  Al  Al5  1  0.872918  0.872919  0.749739  1
  Al  Al6  1  0.002499  0.329821  0.073639  1
  Al  Al7  1  0.997501  0.670179  0.926361  1
  Al  Al8  1  0.998643  0.670087  0.572866  1
  Al  Al9  1  0.329910  0.001350  0.427130  1
  Al  Al10  1  0.001357  0.329913  0.427134  1
  Al  Al11  1  0.670090  0.998650  0.572870  1
  Al  Al12  1  0.670179  0.997505  0.926358  1
  Al  Al13  1  0.329821  0.002495  0.073642  1
  Al  Al14  1  0.330985  0.330987  0.550325  1
  Al  Al15  1  0.669015  0.669013  0.449675  1
  Al  Al16  1  0.668317  0.668314  0.051562  1
  Al  Al17  1  0.331683  0.331686  0.948438  1
  Al  Al18  1  0.340252  0.543594  0.250059  1
  Al  Al19  1  0.659748  0.456406  0.749941  1
  Al  Al20  1  0.543594  0.340253  0.250054  1
  Al  Al21  1  0.456406  0.659747  0.749946  1
  Pd  Pd22  1  0.670892  0.329081  0.999998  1
  Pd  Pd23  1  0.329108  0.670919  0.000002  1
  Pt  Pt24  1  0.329227  0.670792  0.500005  1
  Pt  Pt25  1  0.670773  0.329208  0.499995  1
  Rh  Rh26  1  0.000000  0.000000  0.000000  1
  Rh  Rh27  1  0.000000  0.000000  0.500000  1
