# generated using pymatgen
data_HoEr4Fe3(Co4P3)4
_symmetry_space_group_name_H-M   'P 1'
_cell_length_a   11.95926000
_cell_length_b   11.95926189
_cell_length_c   3.65860400
_cell_angle_alpha   90.00000000
_cell_angle_beta   90.00000000
_cell_angle_gamma   120.00000583
_symmetry_Int_Tables_number   1
_chemical_formula_structural   HoEr4Fe3(Co4P3)4
_chemical_formula_sum   'Ho1 Er4 Fe3 Co16 P12'
_cell_volume   453.16326297
_cell_formula_units_Z   1
loop_
 _symmetry_equiv_pos_site_id
 _symmetry_equiv_pos_as_xyz
  1  'x, y, z'
loop_
 _atom_site_type_symbol
 _atom_site_label
 _atom_site_symmetry_multiplicity
 _atom_site_fract_x
 _atom_site_fract_y
 _atom_site_fract_z
 _atom_site_occupancy
  Ho  Ho0  1  0.333333  0.666667  0.000000  1
  Er  Er1  1  0.666667  0.333333  0.000000  1
  Er  Er2  1  0.812600  0.812646  0.500000  1
  Er  Er3  1  0.187354  0.999954  0.500000  1
  Er  Er4  1  0.000046  0.187400  0.500000  1
  Fe  Fe5  1  0.446765  0.446743  0.000000  1
  Fe  Fe6  1  0.553257  0.000022  0.000000  1
  Fe  Fe7  1  0.999978  0.553235  0.000000  1
  Co  Co8  1  0.873641  0.357021  0.500000  1
  Co  Co9  1  0.642979  0.516619  0.500000  1
  Co  Co10  1  0.483381  0.126359  0.500000  1
  Co  Co11  1  0.357044  0.874034  0.500000  1
  Co  Co12  1  0.516989  0.642956  0.500000  1
  Co  Co13  1  0.125966  0.483011  0.500000  1
  Co  Co14  1  0.800341  0.177805  0.000000  1
  Co  Co15  1  0.822195  0.622535  0.000000  1
  Co  Co16  1  0.377465  0.199659  0.000000  1
  Co  Co17  1  0.177673  0.800482  0.000000  1
  Co  Co18  1  0.622808  0.822327  0.000000  1
  Co  Co19  1  0.199518  0.377192  0.000000  1
  Co  Co20  1  0.283374  0.283182  0.500000  1
  Co  Co21  1  0.716818  0.000192  0.500000  1
  Co  Co22  1  0.999808  0.716626  0.500000  1
  Co  Co23  1  0.000000  0.000000  0.000000  1
  P  P24  1  0.684430  0.164981  0.500000  1
  P  P25  1  0.835019  0.519449  0.500000  1
  P  P26  1  0.480551  0.315570  0.500000  1
  P  P27  1  0.164607  0.684398  0.500000  1
  P  P28  1  0.519791  0.835393  0.500000  1
  P  P29  1  0.315602  0.480209  0.500000  1
  P  P30  1  0.180250  0.180193  0.000000  1
  P  P31  1  0.819807  0.000057  0.000000  1
  P  P32  1  0.999943  0.819750  0.000000  1
  P  P33  1  0.632302  0.632307  0.000000  1
  P  P34  1  0.367693  0.999996  0.000000  1
  P  P35  1  0.000004  0.367698  0.000000  1
