# generated using pymatgen
data_Hf3Ti9As7
_symmetry_space_group_name_H-M   'P 1'
_cell_length_a   3.59034200
_cell_length_b   10.16785895
_cell_length_c   10.16785900
_cell_angle_alpha   119.99999041
_cell_angle_beta   90.00000000
_cell_angle_gamma   90.00000000
_symmetry_Int_Tables_number   1
_chemical_formula_structural   Hf3Ti9As7
_chemical_formula_sum   'Hf3 Ti9 As7'
_cell_volume   321.45894948
_cell_formula_units_Z   1
loop_
 _symmetry_equiv_pos_site_id
 _symmetry_equiv_pos_as_xyz
  1  'x, y, z'
loop_
 _atom_site_type_symbol
 _atom_site_label
 _atom_site_symmetry_multiplicity
 _atom_site_fract_x
 _atom_site_fract_y
 _atom_site_fract_z
 _atom_site_occupancy
  Hf  Hf0  1  0.243676  0.009288  0.214970  1
  Hf  Hf1  1  0.243676  0.785030  0.794318  1
  Hf  Hf2  1  0.243676  0.205682  0.990712  1
  Ti  Ti3  1  0.743835  0.988102  0.730352  1
  Ti  Ti4  1  0.743835  0.269648  0.257752  1
  Ti  Ti5  1  0.743835  0.742248  0.011898  1
  Ti  Ti6  1  0.743962  0.506326  0.129111  1
  Ti  Ti7  1  0.743962  0.870889  0.377215  1
  Ti  Ti8  1  0.743962  0.622785  0.493674  1
  Ti  Ti9  1  0.243835  0.487799  0.873671  1
  Ti  Ti10  1  0.243835  0.126329  0.614130  1
  Ti  Ti11  1  0.243835  0.385870  0.512201  1
  As  As12  1  0.743713  0.000000  0.000000  1
  As  As13  1  0.743800  0.283197  0.832869  1
  As  As14  1  0.743800  0.167131  0.450328  1
  As  As15  1  0.743800  0.549672  0.716803  1
  As  As16  1  0.243988  0.710863  0.172116  1
  As  As17  1  0.243988  0.827884  0.538747  1
  As  As18  1  0.243988  0.461253  0.289137  1
