# generated using pymatgen
data_Pr4P7Rh8
_symmetry_space_group_name_H-M   'P 1'
_cell_length_a   4.01053200
_cell_length_b   12.85775298
_cell_length_c   13.25795662
_cell_angle_alpha   80.87100795
_cell_angle_beta   90.00000000
_cell_angle_gamma   90.00000000
_symmetry_Int_Tables_number   1
_chemical_formula_structural   Pr4P7Rh8
_chemical_formula_sum   'Pr8 P14 Rh16'
_cell_volume   675.00594376
_cell_formula_units_Z   2
loop_
 _symmetry_equiv_pos_site_id
 _symmetry_equiv_pos_as_xyz
  1  'x, y, z'
loop_
 _atom_site_type_symbol
 _atom_site_label
 _atom_site_symmetry_multiplicity
 _atom_site_fract_x
 _atom_site_fract_y
 _atom_site_fract_z
 _atom_site_occupancy
  Pr  Pr0  1  0.750000  0.790290  0.561285  1
  Pr  Pr1  1  0.250000  0.209710  0.438715  1
  Pr  Pr2  1  0.750000  0.482237  0.708192  1
  Pr  Pr3  1  0.250000  0.517763  0.291808  1
  Pr  Pr4  1  0.750000  0.722980  0.898078  1
  Pr  Pr5  1  0.250000  0.104480  0.788752  1
  Pr  Pr6  1  0.750000  0.895520  0.211248  1
  Pr  Pr7  1  0.250000  0.277020  0.101922  1
  P  P8  1  0.250000  0.910412  0.410404  1
  P  P9  1  0.750000  0.473104  0.127167  1
  P  P10  1  0.250000  0.526896  0.872833  1
  P  P11  1  0.750000  0.089588  0.589596  1
  P  P12  1  0.250000  0.739869  0.078268  1
  P  P13  1  0.750000  0.260131  0.921732  1
  P  P14  1  0.750000  0.155706  0.281375  1
  P  P15  1  0.250000  0.844294  0.718625  1
  P  P16  1  0.250000  0.049019  0.099589  1
  P  P17  1  0.750000  0.950981  0.900411  1
  P  P18  1  0.250000  0.315408  0.688511  1
  P  P19  1  0.750000  0.684592  0.311489  1
  P  P20  1  0.250000  0.607115  0.561711  1
  P  P21  1  0.750000  0.392885  0.438289  1
  Rh  Rh22  1  0.250000  0.987840  0.575622  1
  Rh  Rh23  1  0.750000  0.012160  0.424378  1
  Rh  Rh24  1  0.250000  0.663652  0.729902  1
  Rh  Rh25  1  0.750000  0.336348  0.270098  1
  Rh  Rh26  1  0.250000  0.552702  0.045782  1
  Rh  Rh27  1  0.750000  0.447298  0.954218  1
  Rh  Rh28  1  0.250000  0.060275  0.274341  1
  Rh  Rh29  1  0.750000  0.939725  0.725659  1
  Rh  Rh30  1  0.250000  0.424518  0.527592  1
  Rh  Rh31  1  0.750000  0.575482  0.472408  1
  Rh  Rh32  1  0.250000  0.915639  0.997061  1
  Rh  Rh33  1  0.750000  0.084361  0.002939  1
  Rh  Rh34  1  0.250000  0.727237  0.394868  1
  Rh  Rh35  1  0.750000  0.272763  0.605132  1
  Rh  Rh36  1  0.250000  0.342562  0.860448  1
  Rh  Rh37  1  0.750000  0.657438  0.139552  1
