# generated using pymatgen
data_Rb4LaUI10
_symmetry_space_group_name_H-M   'P 1'
_cell_length_a   9.51353123
_cell_length_b   10.12864200
_cell_length_c   15.17294913
_cell_angle_alpha   90.00000000
_cell_angle_beta   90.13180853
_cell_angle_gamma   90.00000000
_symmetry_Int_Tables_number   1
_chemical_formula_structural   Rb4LaUI10
_chemical_formula_sum   'Rb8 La2 U2 I20'
_cell_volume   1462.04864337
_cell_formula_units_Z   2
loop_
 _symmetry_equiv_pos_site_id
 _symmetry_equiv_pos_as_xyz
  1  'x, y, z'
loop_
 _atom_site_type_symbol
 _atom_site_label
 _atom_site_symmetry_multiplicity
 _atom_site_fract_x
 _atom_site_fract_y
 _atom_site_fract_z
 _atom_site_occupancy
  Rb  Rb0  1  0.941754  0.002683  0.825227  1
  Rb  Rb1  1  0.058246  0.997317  0.174773  1
  Rb  Rb2  1  0.441313  0.997336  0.673077  1
  Rb  Rb3  1  0.058246  0.502683  0.174773  1
  Rb  Rb4  1  0.558687  0.002664  0.326923  1
  Rb  Rb5  1  0.941754  0.497317  0.825227  1
  Rb  Rb6  1  0.558687  0.497336  0.326923  1
  Rb  Rb7  1  0.441313  0.502664  0.673077  1
  La  La8  1  0.423013  0.250000  0.995173  1
  La  La9  1  0.576987  0.750000  0.004827  1
  U  U10  1  0.924598  0.750000  0.503737  1
  U  U11  1  0.075402  0.250000  0.496263  1
  I  I12  1  0.120559  0.750000  0.675673  1
  I  I13  1  0.879441  0.250000  0.324327  1
  I  I14  1  0.624002  0.250000  0.822325  1
  I  I15  1  0.375998  0.750000  0.177675  1
  I  I16  1  0.838735  0.044952  0.573238  1
  I  I17  1  0.161265  0.955048  0.426762  1
  I  I18  1  0.334542  0.954354  0.925156  1
  I  I19  1  0.161265  0.544952  0.426762  1
  I  I20  1  0.665458  0.045646  0.074844  1
  I  I21  1  0.838735  0.455048  0.573238  1
  I  I22  1  0.665458  0.454354  0.074844  1
  I  I23  1  0.334542  0.545646  0.925156  1
  I  I24  1  0.583023  0.750000  0.510063  1
  I  I25  1  0.416977  0.250000  0.489937  1
  I  I26  1  0.079088  0.250000  0.989743  1
  I  I27  1  0.920912  0.750000  0.010257  1
  I  I28  1  0.658194  0.750000  0.797767  1
  I  I29  1  0.341806  0.250000  0.202233  1
  I  I30  1  0.157588  0.250000  0.699381  1
  I  I31  1  0.842412  0.750000  0.300619  1
