# generated using pymatgen
data_Tb8Er12Sn5Pb11
_symmetry_space_group_name_H-M   'P 1'
_cell_length_a   8.12618923
_cell_length_b   8.20964723
_cell_length_c   15.54243500
_cell_angle_alpha   90.00000000
_cell_angle_beta   90.00000000
_cell_angle_gamma   90.02713996
_symmetry_Int_Tables_number   1
_chemical_formula_structural   Tb8Er12Sn5Pb11
_chemical_formula_sum   'Tb8 Er12 Sn5 Pb11'
_cell_volume   1036.88463282
_cell_formula_units_Z   1
loop_
 _symmetry_equiv_pos_site_id
 _symmetry_equiv_pos_as_xyz
  1  'x, y, z'
loop_
 _atom_site_type_symbol
 _atom_site_label
 _atom_site_symmetry_multiplicity
 _atom_site_fract_x
 _atom_site_fract_y
 _atom_site_fract_z
 _atom_site_occupancy
  Tb  Tb0  1  0.532807  0.323042  0.898492  1
  Tb  Tb1  1  0.035450  0.175720  0.600944  1
  Tb  Tb2  1  0.465906  0.675765  0.399746  1
  Tb  Tb3  1  0.965880  0.824308  0.100315  1
  Tb  Tb4  1  0.465906  0.675765  0.100254  1
  Tb  Tb5  1  0.965880  0.824308  0.399685  1
  Tb  Tb6  1  0.532807  0.323042  0.601508  1
  Tb  Tb7  1  0.035450  0.175720  0.899056  1
  Er  Er8  1  0.376389  0.840747  0.876970  1
  Er  Er9  1  0.876400  0.660657  0.622645  1
  Er  Er10  1  0.623730  0.160603  0.377571  1
  Er  Er11  1  0.123669  0.339435  0.122449  1
  Er  Er12  1  0.623730  0.160603  0.122429  1
  Er  Er13  1  0.123669  0.339435  0.377551  1
  Er  Er14  1  0.376389  0.840747  0.623030  1
  Er  Er15  1  0.876400  0.660657  0.877355  1
  Er  Er16  1  0.210385  0.505348  0.750000  1
  Er  Er17  1  0.707586  0.993435  0.750000  1
  Er  Er18  1  0.790679  0.492397  0.250000  1
  Er  Er19  1  0.290698  0.007437  0.250000  1
  Sn  Sn20  1  0.572459  0.626855  0.750000  1
  Sn  Sn21  1  0.073604  0.875159  0.750000  1
  Sn  Sn22  1  0.427515  0.373257  0.250000  1
  Sn  Sn23  1  0.927573  0.126676  0.250000  1
  Sn  Sn24  1  0.342171  0.148617  0.750000  1
  Pb  Pb25  1  0.283757  0.034633  0.042451  1
  Pb  Pb26  1  0.783733  0.465333  0.457623  1
  Pb  Pb27  1  0.716307  0.965391  0.542350  1
  Pb  Pb28  1  0.216248  0.534930  0.957589  1
  Pb  Pb29  1  0.716307  0.965391  0.957650  1
  Pb  Pb30  1  0.216248  0.534930  0.542411  1
  Pb  Pb31  1  0.283757  0.034633  0.457549  1
  Pb  Pb32  1  0.783733  0.465333  0.042377  1
  Pb  Pb33  1  0.843479  0.349774  0.750000  1
  Pb  Pb34  1  0.656559  0.849395  0.250000  1
  Pb  Pb35  1  0.156742  0.650520  0.250000  1
