# generated using pymatgen
data_YHo3Al18(IrPt)3
_symmetry_space_group_name_H-M   'P 1'
_cell_length_a   7.58584335
_cell_length_b   7.58712220
_cell_length_c   9.42590513
_cell_angle_alpha   89.99130842
_cell_angle_beta   89.99002257
_cell_angle_gamma   119.63322354
_symmetry_Int_Tables_number   1
_chemical_formula_structural   YHo3Al18(IrPt)3
_chemical_formula_sum   'Y1 Ho3 Al18 Ir3 Pt3'
_cell_volume   471.55015116
_cell_formula_units_Z   1
loop_
 _symmetry_equiv_pos_site_id
 _symmetry_equiv_pos_as_xyz
  1  'x, y, z'
loop_
 _atom_site_type_symbol
 _atom_site_label
 _atom_site_symmetry_multiplicity
 _atom_site_fract_x
 _atom_site_fract_y
 _atom_site_fract_z
 _atom_site_occupancy
  Y  Y0  1  0.995466  0.670779  0.250444  1
  Ho  Ho1  1  0.004925  0.329399  0.749579  1
  Ho  Ho2  1  0.670551  0.995075  0.250441  1
  Ho  Ho3  1  0.329135  0.004644  0.749489  1
  Al  Al4  1  0.126782  0.127846  0.250516  1
  Al  Al5  1  0.872496  0.873386  0.749493  1
  Al  Al6  1  0.999868  0.331491  0.076186  1
  Al  Al7  1  0.999857  0.668675  0.922242  1
  Al  Al8  1  0.997172  0.664748  0.575943  1
  Al  Al9  1  0.335393  0.003082  0.425037  1
  Al  Al10  1  0.996605  0.331243  0.425078  1
  Al  Al11  1  0.668464  0.003438  0.575539  1
  Al  Al12  1  0.668192  0.000236  0.923192  1
  Al  Al13  1  0.331532  0.000453  0.076740  1
  Al  Al14  1  0.332548  0.329402  0.553776  1
  Al  Al15  1  0.670396  0.667405  0.447060  1
  Al  Al16  1  0.669518  0.669792  0.055655  1
  Al  Al17  1  0.330208  0.330278  0.943459  1
  Al  Al18  1  0.340694  0.546218  0.250509  1
  Al  Al19  1  0.659125  0.451756  0.747524  1
  Al  Al20  1  0.547728  0.340205  0.252549  1
  Al  Al21  1  0.453750  0.659820  0.749495  1
  Ir  Ir22  1  0.671923  0.327857  0.500157  1
  Ir  Ir23  1  0.999915  0.000304  0.999803  1
  Ir  Ir24  1  0.000285  0.999975  0.500207  1
  Pt  Pt25  1  0.672108  0.327775  0.999889  1
  Pt  Pt26  1  0.327650  0.672378  0.999895  1
  Pt  Pt27  1  0.327711  0.672336  0.500105  1
