# generated using pymatgen
data_Ta17Nb3Ir10
_symmetry_space_group_name_H-M   'P 1'
_cell_length_a   9.93770550
_cell_length_b   9.93770550
_cell_length_c   5.14258300
_cell_angle_alpha   90.00000000
_cell_angle_beta   90.00000000
_cell_angle_gamma   90.03647251
_symmetry_Int_Tables_number   1
_chemical_formula_structural   Ta17Nb3Ir10
_chemical_formula_sum   'Ta17 Nb3 Ir10'
_cell_volume   507.87106104
_cell_formula_units_Z   1
loop_
 _symmetry_equiv_pos_site_id
 _symmetry_equiv_pos_as_xyz
  1  'x, y, z'
loop_
 _atom_site_type_symbol
 _atom_site_label
 _atom_site_symmetry_multiplicity
 _atom_site_fract_x
 _atom_site_fract_y
 _atom_site_fract_z
 _atom_site_occupancy
  Ta  Ta0  1  0.395465  0.395465  0.000000  1
  Ta  Ta1  1  0.128981  0.462665  0.000000  1
  Ta  Ta2  1  0.962251  0.370522  0.500000  1
  Ta  Ta3  1  0.037584  0.629548  0.500000  1
  Ta  Ta4  1  0.870369  0.537576  0.000000  1
  Ta  Ta5  1  0.370522  0.962251  0.500000  1
  Ta  Ta6  1  0.629548  0.037584  0.500000  1
  Ta  Ta7  1  0.462665  0.128981  0.000000  1
  Ta  Ta8  1  0.537576  0.870369  0.000000  1
  Ta  Ta9  1  0.179152  0.179152  0.250547  1
  Ta  Ta10  1  0.678591  0.321060  0.750971  1
  Ta  Ta11  1  0.321060  0.678591  0.750971  1
  Ta  Ta12  1  0.821210  0.821210  0.250756  1
  Ta  Ta13  1  0.321060  0.678591  0.249029  1
  Ta  Ta14  1  0.678591  0.321060  0.249029  1
  Ta  Ta15  1  0.179152  0.179152  0.749453  1
  Ta  Ta16  1  0.821210  0.821210  0.749244  1
  Nb  Nb17  1  0.894853  0.105189  0.500000  1
  Nb  Nb18  1  0.105189  0.894853  0.500000  1
  Nb  Nb19  1  0.605209  0.605209  0.000000  1
  Ir  Ir20  1  0.000074  0.000074  0.000000  1
  Ir  Ir21  1  0.499900  0.499900  0.500000  1
  Ir  Ir22  1  0.262719  0.930674  0.000000  1
  Ir  Ir23  1  0.430469  0.237265  0.500000  1
  Ir  Ir24  1  0.569426  0.762658  0.500000  1
  Ir  Ir25  1  0.737265  0.069311  0.000000  1
  Ir  Ir26  1  0.237265  0.430469  0.500000  1
  Ir  Ir27  1  0.762658  0.569426  0.500000  1
  Ir  Ir28  1  0.930674  0.262719  0.000000  1
  Ir  Ir29  1  0.069311  0.737265  0.000000  1
