# generated using pymatgen
data_Sr15Er5Bi16
_symmetry_space_group_name_H-M   'P 1'
_cell_length_a   8.75256673
_cell_length_b   8.77666337
_cell_length_c   16.72875000
_cell_angle_alpha   90.23601454
_cell_angle_beta   90.82609621
_cell_angle_gamma   89.63906967
_symmetry_Int_Tables_number   1
_chemical_formula_structural   Sr15Er5Bi16
_chemical_formula_sum   'Sr15 Er5 Bi16'
_cell_volume   1284.90517616
_cell_formula_units_Z   1
loop_
 _symmetry_equiv_pos_site_id
 _symmetry_equiv_pos_as_xyz
  1  'x, y, z'
loop_
 _atom_site_type_symbol
 _atom_site_label
 _atom_site_symmetry_multiplicity
 _atom_site_fract_x
 _atom_site_fract_y
 _atom_site_fract_z
 _atom_site_occupancy
  Sr  Sr0  1  0.377771  0.850302  0.380908  1
  Sr  Sr1  1  0.632828  0.147683  0.884729  1
  Sr  Sr2  1  0.125244  0.351795  0.616056  1
  Sr  Sr3  1  0.128437  0.352817  0.882500  1
  Sr  Sr4  1  0.623797  0.149330  0.616496  1
  Sr  Sr5  1  0.369314  0.854034  0.116550  1
  Sr  Sr6  1  0.876264  0.648443  0.383758  1
  Sr  Sr7  1  0.044778  0.171689  0.096893  1
  Sr  Sr8  1  0.553461  0.331847  0.397990  1
  Sr  Sr9  1  0.453084  0.673499  0.902178  1
  Sr  Sr10  1  0.947601  0.832360  0.600884  1
  Sr  Sr11  1  0.959781  0.825005  0.905156  1
  Sr  Sr12  1  0.447131  0.668466  0.601429  1
  Sr  Sr13  1  0.539749  0.328182  0.098393  1
  Sr  Sr14  1  0.054515  0.169350  0.396464  1
  Er  Er15  1  0.868391  0.646092  0.121876  1
  Er  Er16  1  0.718839  0.997710  0.249736  1
  Er  Er17  1  0.216315  0.501553  0.249562  1
  Er  Er18  1  0.781405  0.498849  0.749702  1
  Er  Er19  1  0.282373  0.002565  0.749996  1
  Bi  Bi20  1  0.061176  0.853987  0.244820  1
  Bi  Bi21  1  0.573246  0.635996  0.243947  1
  Bi  Bi22  1  0.433975  0.364740  0.751688  1
  Bi  Bi23  1  0.932289  0.138304  0.750517  1
  Bi  Bi24  1  0.861645  0.347844  0.245349  1
  Bi  Bi25  1  0.361817  0.158634  0.248295  1
  Bi  Bi26  1  0.639766  0.841682  0.752078  1
  Bi  Bi27  1  0.138228  0.658962  0.751393  1
  Bi  Bi28  1  0.779964  0.476508  0.955968  1
  Bi  Bi29  1  0.275100  0.019626  0.555771  1
  Bi  Bi30  1  0.727531  0.956162  0.056693  1
  Bi  Bi31  1  0.226880  0.520780  0.442123  1
  Bi  Bi32  1  0.201940  0.533138  0.056832  1
  Bi  Bi33  1  0.726980  0.982152  0.441511  1
  Bi  Bi34  1  0.283382  0.029553  0.944951  1
  Bi  Bi35  1  0.775004  0.480366  0.556808  1
