# generated using pymatgen
data_Pr2Nd2SiI5
_symmetry_space_group_name_H-M   'P 1'
_cell_length_a   10.09666682
_cell_length_b   10.09666622
_cell_length_c   9.12943588
_cell_angle_alpha   77.63903427
_cell_angle_beta   77.63903567
_cell_angle_gamma   24.93012078
_symmetry_Int_Tables_number   1
_chemical_formula_structural   Pr2Nd2SiI5
_chemical_formula_sum   'Pr2 Nd2 Si1 I5'
_cell_volume   382.74905080
_cell_formula_units_Z   1
loop_
 _symmetry_equiv_pos_site_id
 _symmetry_equiv_pos_as_xyz
  1  'x, y, z'
loop_
 _atom_site_type_symbol
 _atom_site_label
 _atom_site_symmetry_multiplicity
 _atom_site_fract_x
 _atom_site_fract_y
 _atom_site_fract_z
 _atom_site_occupancy
  Pr  Pr0  1  0.500767  0.500767  0.214083  1
  Pr  Pr1  1  0.499233  0.499233  0.785917  1
  Nd  Nd2  1  0.854157  0.854157  0.074647  1
  Nd  Nd3  1  0.145843  0.145843  0.925353  1
  Si  Si4  1  0.000000  0.000000  0.000000  1
  I  I5  1  0.672689  0.672689  0.166660  1
  I  I6  1  0.327311  0.327311  0.833340  1
  I  I7  1  0.666945  0.666945  0.666125  1
  I  I8  1  0.333055  0.333055  0.333875  1
  I  I9  1  0.000000  0.000000  0.500000  1
