# generated using pymatgen
data_Sr7CaV4(P3O11)4
_symmetry_space_group_name_H-M   'P 1'
_cell_length_a   6.96254006
_cell_length_b   6.56777892
_cell_length_c   19.71014982
_cell_angle_alpha   80.89258879
_cell_angle_beta   90.46304758
_cell_angle_gamma   90.13237504
_symmetry_Int_Tables_number   1
_chemical_formula_structural   Sr7CaV4(P3O11)4
_chemical_formula_sum   'Sr7 Ca1 V4 P12 O44'
_cell_volume   889.92197626
_cell_formula_units_Z   1
loop_
 _symmetry_equiv_pos_site_id
 _symmetry_equiv_pos_as_xyz
  1  'x, y, z'
loop_
 _atom_site_type_symbol
 _atom_site_label
 _atom_site_symmetry_multiplicity
 _atom_site_fract_x
 _atom_site_fract_y
 _atom_site_fract_z
 _atom_site_occupancy
  Sr  Sr0  1  0.134350  0.315133  0.574183  1
  Sr  Sr1  1  0.640526  0.683612  0.925329  1
  Sr  Sr2  1  0.859902  0.684167  0.423927  1
  Sr  Sr3  1  0.367072  0.316488  0.076037  1
  Sr  Sr4  1  0.476926  0.328793  0.773897  1
  Sr  Sr5  1  0.976028  0.673019  0.725313  1
  Sr  Sr6  1  0.521679  0.668494  0.228129  1
  Ca  Ca7  1  0.035199  0.327675  0.263890  1
  V  V8  1  0.634170  0.048571  0.622837  1
  V  V9  1  0.138654  0.952212  0.877297  1
  V  V10  1  0.360302  0.951157  0.376567  1
  V  V11  1  0.866597  0.049227  0.123502  1
  P  P12  1  0.644795  0.566483  0.588837  1
  P  P13  1  0.149116  0.434186  0.911352  1
  P  P14  1  0.344473  0.432566  0.408916  1
  P  P15  1  0.855887  0.567791  0.090713  1
  P  P16  1  0.302849  0.822319  0.545330  1
  P  P17  1  0.808009  0.177114  0.954460  1
  P  P18  1  0.688579  0.178134  0.453932  1
  P  P19  1  0.196614  0.823806  0.046621  1
  P  P20  1  0.473565  0.820057  0.772656  1
  P  P21  1  0.973269  0.181010  0.727634  1
  P  P22  1  0.536826  0.180418  0.229154  1
  P  P23  1  0.023615  0.816210  0.272095  1
  O  O24  1  0.375918  0.006268  0.579889  1
  O  O25  1  0.881179  0.993177  0.920524  1
  O  O26  1  0.617480  0.992182  0.419844  1
  O  O27  1  0.123907  0.008613  0.080300  1
  O  O28  1  0.685281  0.722805  0.638150  1
  O  O29  1  0.188602  0.277846  0.862319  1
  O  O30  1  0.300240  0.277972  0.359086  1
  O  O31  1  0.813982  0.725111  0.139076  1
  O  O32  1  0.162114  0.690644  0.590508  1
  O  O33  1  0.665597  0.307925  0.909126  1
  O  O34  1  0.828819  0.311246  0.409585  1
  O  O35  1  0.338118  0.692666  0.092358  1
  O  O36  1  0.550729  0.365006  0.624583  1
  O  O37  1  0.054348  0.635501  0.875642  1
  O  O38  1  0.441685  0.632979  0.373510  1
  O  O39  1  0.952618  0.368117  0.127781  1
  O  O40  1  0.816511  0.526188  0.546126  1
  O  O41  1  0.322108  0.474832  0.954557  1
  O  O42  1  0.174985  0.475370  0.452281  1
  O  O43  1  0.683927  0.522353  0.047881  1
  O  O44  1  0.758972  0.095911  0.527653  1
  O  O45  1  0.266619  0.905060  0.973364  1
  O  O46  1  0.231642  0.905240  0.471914  1
  O  O47  1  0.738143  0.094443  0.027816  1
  O  O48  1  0.488585  0.681628  0.533629  1
  O  O49  1  0.993939  0.319026  0.966426  1
  O  O50  1  0.498684  0.314525  0.464444  1
  O  O51  1  0.009641  0.682295  0.035246  1
  O  O52  1  0.521863  0.009038  0.717216  1
  O  O53  1  0.022866  0.991842  0.783308  1
  O  O54  1  0.479117  0.991736  0.283180  1
  O  O55  1  0.988952  0.011362  0.216427  1
  O  O56  1  0.321128  0.680998  0.748494  1
  O  O57  1  0.822248  0.319918  0.751773  1
  O  O58  1  0.695178  0.313104  0.253510  1
  O  O59  1  0.167362  0.666852  0.248546  1
  O  O60  1  0.901079  0.079885  0.663692  1
  O  O61  1  0.403854  0.920363  0.836830  1
  O  O62  1  0.098359  0.914682  0.335846  1
  O  O63  1  0.602269  0.080950  0.164424  1
  O  O64  1  0.652888  0.691028  0.797228  1
  O  O65  1  0.152130  0.309700  0.703140  1
  O  O66  1  0.359200  0.315138  0.205141  1
  O  O67  1  0.838128  0.699829  0.295019  1
