# generated using pymatgen
data_Hf16Tc3Ni4W
_symmetry_space_group_name_H-M   'P 1'
_cell_length_a   8.65692008
_cell_length_b   8.65229197
_cell_length_c   8.65229300
_cell_angle_alpha   59.99999990
_cell_angle_beta   60.01768318
_cell_angle_gamma   60.01768583
_symmetry_Int_Tables_number   1
_chemical_formula_structural   Hf16Tc3Ni4W
_chemical_formula_sum   'Hf16 Tc3 Ni4 W1'
_cell_volume   458.38123435
_cell_formula_units_Z   1
loop_
 _symmetry_equiv_pos_site_id
 _symmetry_equiv_pos_as_xyz
  1  'x, y, z'
loop_
 _atom_site_type_symbol
 _atom_site_label
 _atom_site_symmetry_multiplicity
 _atom_site_fract_x
 _atom_site_fract_y
 _atom_site_fract_z
 _atom_site_occupancy
  Hf  Hf0  1  0.689242  0.103586  0.103586  1
  Hf  Hf1  1  0.102345  0.691946  0.102854  1
  Hf  Hf2  1  0.102345  0.102854  0.691946  1
  Hf  Hf3  1  0.102345  0.102854  0.102854  1
  Hf  Hf4  1  0.316416  0.315054  0.684265  1
  Hf  Hf5  1  0.684294  0.684655  0.315526  1
  Hf  Hf6  1  0.316416  0.684265  0.315054  1
  Hf  Hf7  1  0.684294  0.315526  0.684655  1
  Hf  Hf8  1  0.684294  0.315526  0.315526  1
  Hf  Hf9  1  0.316416  0.684265  0.684265  1
  Hf  Hf10  1  0.953611  0.954600  0.545895  1
  Hf  Hf11  1  0.545572  0.544997  0.954716  1
  Hf  Hf12  1  0.953611  0.545895  0.954600  1
  Hf  Hf13  1  0.545572  0.954716  0.544997  1
  Hf  Hf14  1  0.545572  0.954716  0.954716  1
  Hf  Hf15  1  0.953611  0.545895  0.545895  1
  Tc  Tc16  1  0.333256  0.997986  0.334378  1
  Tc  Tc17  1  0.333256  0.334378  0.997986  1
  Tc  Tc18  1  0.333256  0.334378  0.334378  1
  Ni  Ni19  1  0.327971  0.890676  0.890676  1
  Ni  Ni20  1  0.890221  0.326237  0.891771  1
  Ni  Ni21  1  0.890221  0.891771  0.326237  1
  Ni  Ni22  1  0.890221  0.891771  0.891771  1
  W  W23  1  0.005640  0.331453  0.331453  1
