# generated using pymatgen
data_Y5Lu3(IO6)4
_symmetry_space_group_name_H-M   'P 1'
_cell_length_a   5.48652024
_cell_length_b   7.69371427
_cell_length_c   11.49263300
_cell_angle_alpha   75.96402366
_cell_angle_beta   91.02518222
_cell_angle_gamma   90.03354311
_symmetry_Int_Tables_number   1
_chemical_formula_structural   Y5Lu3(IO6)4
_chemical_formula_sum   'Y5 Lu3 I4 O24'
_cell_volume   470.56090000
_cell_formula_units_Z   1
loop_
 _symmetry_equiv_pos_site_id
 _symmetry_equiv_pos_as_xyz
  1  'x, y, z'
loop_
 _atom_site_type_symbol
 _atom_site_label
 _atom_site_symmetry_multiplicity
 _atom_site_fract_x
 _atom_site_fract_y
 _atom_site_fract_z
 _atom_site_occupancy
  Y  Y0  1  0.253986  0.978763  0.749567  1
  Y  Y1  1  0.746174  0.022148  0.251151  1
  Y  Y2  1  0.310104  0.501564  0.749688  1
  Y  Y3  1  0.690229  0.496435  0.251374  1
  Y  Y4  1  0.814306  0.775829  0.583496  1
  Lu  Lu5  1  0.167995  0.806049  0.072024  1
  Lu  Lu6  1  0.188013  0.225838  0.413869  1
  Lu  Lu7  1  0.830468  0.193952  0.927175  1
  I  I8  1  0.736443  0.708069  0.893669  1
  I  I9  1  0.255369  0.735949  0.379459  1
  I  I10  1  0.743770  0.264358  0.618874  1
  I  I11  1  0.262730  0.291701  0.106888  1
  O  O12  1  0.861777  0.363564  0.465648  1
  O  O13  1  0.462401  0.833343  0.936572  1
  O  O14  1  0.855802  0.634142  0.064389  1
  O  O15  1  0.020539  0.292108  0.719262  1
  O  O16  1  0.948685  0.281843  0.258634  1
  O  O17  1  0.145538  0.363012  0.936732  1
  O  O18  1  0.626001  0.474470  0.892593  1
  O  O19  1  0.538965  0.168611  0.065238  1
  O  O20  1  0.147615  0.635061  0.534225  1
  O  O21  1  0.054493  0.716381  0.745542  1
  O  O22  1  0.457512  0.224372  0.278576  1
  O  O23  1  0.076761  0.948547  0.396642  1
  O  O24  1  0.458241  0.166674  0.563411  1
  O  O25  1  0.973373  0.711356  0.282211  1
  O  O26  1  0.927558  0.054711  0.604882  1
  O  O27  1  0.581077  0.177161  0.771536  1
  O  O28  1  0.539956  0.774798  0.724638  1
  O  O29  1  0.993992  0.043211  0.101450  1
  O  O30  1  0.623420  0.491176  0.620495  1
  O  O31  1  0.375564  0.524685  0.106944  1
  O  O32  1  0.415718  0.822789  0.226637  1
  O  O33  1  0.368929  0.506817  0.376062  1
  O  O34  1  0.541601  0.833324  0.431947  1
  O  O35  1  0.004895  0.957191  0.898501  1
