# generated using pymatgen
data_Rb11Na(SiSe3)4
_symmetry_space_group_name_H-M   'P 1'
_cell_length_a   10.23940406
_cell_length_b   10.33207845
_cell_length_c   9.37943722
_cell_angle_alpha   85.00749158
_cell_angle_beta   87.67773321
_cell_angle_gamma   79.20155731
_symmetry_Int_Tables_number   1
_chemical_formula_structural   Rb11Na(SiSe3)4
_chemical_formula_sum   'Rb11 Na1 Si4 Se12'
_cell_volume   970.72472904
_cell_formula_units_Z   1
loop_
 _symmetry_equiv_pos_site_id
 _symmetry_equiv_pos_as_xyz
  1  'x, y, z'
loop_
 _atom_site_type_symbol
 _atom_site_label
 _atom_site_symmetry_multiplicity
 _atom_site_fract_x
 _atom_site_fract_y
 _atom_site_fract_z
 _atom_site_occupancy
  Rb  Rb0  1  0.744231  0.770653  0.234451  1
  Rb  Rb1  1  0.772452  0.752929  0.730821  1
  Rb  Rb2  1  0.247454  0.223383  0.767903  1
  Rb  Rb3  1  0.179911  0.627384  0.624943  1
  Rb  Rb4  1  0.369876  0.817614  0.874867  1
  Rb  Rb5  1  0.850691  0.344740  0.378709  1
  Rb  Rb6  1  0.618046  0.193268  0.124619  1
  Rb  Rb7  1  0.587905  0.416636  0.737738  1
  Rb  Rb8  1  0.415708  0.592775  0.248691  1
  Rb  Rb9  1  0.073899  0.918299  0.257725  1
  Rb  Rb10  1  0.915958  0.079479  0.762731  1
  Na  Na11  1  0.242404  0.262968  0.226947  1
  Si  Si12  1  0.557676  0.080306  0.535919  1
  Si  Si13  1  0.931316  0.429377  0.967192  1
  Si  Si14  1  0.419835  0.933295  0.462710  1
  Si  Si15  1  0.082475  0.562926  0.041117  1
  Se  Se16  1  0.573227  0.064563  0.783586  1
  Se  Se17  1  0.936383  0.426526  0.720513  1
  Se  Se18  1  0.407754  0.961294  0.215198  1
  Se  Se19  1  0.073023  0.559783  0.287584  1
  Se  Se20  1  0.457811  0.291701  0.451682  1
  Se  Se21  1  0.715261  0.509903  0.043901  1
  Se  Se22  1  0.514860  0.716489  0.535578  1
  Se  Se23  1  0.297276  0.469303  0.968693  1
  Se  Se24  1  0.770945  0.025020  0.441303  1
  Se  Se25  1  0.002718  0.217450  0.068208  1
  Se  Se26  1  0.209693  0.974988  0.564950  1
  Se  Se27  1  0.031216  0.776948  0.941719  1
