# generated using pymatgen
data_Ho4Al5Ga12SiIr6
_symmetry_space_group_name_H-M   'P 1'
_cell_length_a   7.57234251
_cell_length_b   7.57154314
_cell_length_c   9.41254242
_cell_angle_alpha   90.06262514
_cell_angle_beta   89.96700569
_cell_angle_gamma   119.86882413
_symmetry_Int_Tables_number   1
_chemical_formula_structural   Ho4Al5Ga12SiIr6
_chemical_formula_sum   'Ho4 Al5 Ga12 Si1 Ir6'
_cell_volume   467.97700085
_cell_formula_units_Z   1
loop_
 _symmetry_equiv_pos_site_id
 _symmetry_equiv_pos_as_xyz
  1  'x, y, z'
loop_
 _atom_site_type_symbol
 _atom_site_label
 _atom_site_symmetry_multiplicity
 _atom_site_fract_x
 _atom_site_fract_y
 _atom_site_fract_z
 _atom_site_occupancy
  Ho  Ho0  1  0.997140  0.671768  0.251349  1
  Ho  Ho1  1  0.998421  0.331783  0.750127  1
  Ho  Ho2  1  0.676093  0.999217  0.251328  1
  Ho  Ho3  1  0.331983  0.999205  0.746586  1
  Al  Al4  1  0.336981  0.001797  0.077049  1
  Al  Al5  1  0.329998  0.330146  0.556895  1
  Al  Al6  1  0.664049  0.664061  0.445299  1
  Al  Al7  1  0.664662  0.664728  0.055162  1
  Al  Al8  1  0.330273  0.330641  0.941887  1
  Ga  Ga9  1  0.878176  0.878770  0.750555  1
  Ga  Ga10  1  0.999704  0.337299  0.081936  1
  Ga  Ga11  1  0.001224  0.667917  0.921622  1
  Ga  Ga12  1  0.999396  0.666330  0.579545  1
  Ga  Ga13  1  0.337421  0.998942  0.415742  1
  Ga  Ga14  1  0.999939  0.337487  0.418036  1
  Ga  Ga15  1  0.666420  0.999533  0.579608  1
  Ga  Ga16  1  0.664815  0.999484  0.921682  1
  Ga  Ga17  1  0.342829  0.551858  0.250338  1
  Ga  Ga18  1  0.656282  0.451998  0.750489  1
  Ga  Ga19  1  0.549439  0.340992  0.250120  1
  Ga  Ga20  1  0.451070  0.655101  0.750622  1
  Si  Si21  1  0.127845  0.123959  0.250174  1
  Ir  Ir22  1  0.666574  0.327079  0.000582  1
  Ir  Ir23  1  0.328982  0.671282  0.001289  1
  Ir  Ir24  1  0.328772  0.668260  0.500860  1
  Ir  Ir25  1  0.668433  0.328874  0.500494  1
  Ir  Ir26  1  0.002859  0.000854  0.011690  1
  Ir  Ir27  1  0.000216  0.000629  0.488934  1
