# generated using pymatgen
data_Be2TlP3O10
_symmetry_space_group_name_H-M   'P 1'
_cell_length_a   7.43236483
_cell_length_b   7.43236492
_cell_length_c   8.80547100
_cell_angle_alpha   112.11159048
_cell_angle_beta   67.88840925
_cell_angle_gamma   109.01378860
_symmetry_Int_Tables_number   1
_chemical_formula_structural   Be2TlP3O10
_chemical_formula_sum   'Be4 Tl2 P6 O20'
_cell_volume   407.77879161
_cell_formula_units_Z   2
loop_
 _symmetry_equiv_pos_site_id
 _symmetry_equiv_pos_as_xyz
  1  'x, y, z'
loop_
 _atom_site_type_symbol
 _atom_site_label
 _atom_site_symmetry_multiplicity
 _atom_site_fract_x
 _atom_site_fract_y
 _atom_site_fract_z
 _atom_site_occupancy
  Be  Be0  1  0.219091  0.701982  0.056988  1
  Be  Be1  1  0.701982  0.219091  0.443013  1
  Be  Be2  1  0.298017  0.780908  0.556988  1
  Be  Be3  1  0.780908  0.298017  0.943013  1
  Tl  Tl4  1  0.302654  0.302652  0.249999  1
  Tl  Tl5  1  0.697347  0.697346  0.750000  1
  P  P6  1  0.509284  0.871690  0.241239  1
  P  P7  1  0.891033  0.891032  0.249999  1
  P  P8  1  0.871690  0.509284  0.258761  1
  P  P9  1  0.128309  0.490716  0.741239  1
  P  P10  1  0.108968  0.108967  0.750000  1
  P  P11  1  0.490716  0.128309  0.758760  1
  O  O12  1  0.430424  0.814692  0.090450  1
  O  O13  1  0.090849  0.874926  0.119897  1
  O  O14  1  0.734822  0.400882  0.144995  1
  O  O15  1  0.733612  0.826290  0.146131  1
  O  O16  1  0.092504  0.537614  0.161778  1
  O  O17  1  0.537614  0.092504  0.338223  1
  O  O18  1  0.826290  0.733612  0.353869  1
  O  O19  1  0.400881  0.734822  0.355005  1
  O  O20  1  0.874926  0.090849  0.380103  1
  O  O21  1  0.814692  0.430424  0.409550  1
  O  O22  1  0.185308  0.569577  0.590450  1
  O  O23  1  0.125073  0.909151  0.619898  1
  O  O24  1  0.599118  0.265178  0.644996  1
  O  O25  1  0.173709  0.266387  0.646131  1
  O  O26  1  0.462386  0.907497  0.661778  1
  O  O27  1  0.907497  0.462386  0.838223  1
  O  O28  1  0.266387  0.173709  0.853869  1
  O  O29  1  0.265177  0.599118  0.855005  1
  O  O30  1  0.909150  0.125073  0.880103  1
  O  O31  1  0.569576  0.185308  0.909550  1
