# generated using pymatgen
data_Nd12OsPt3
_symmetry_space_group_name_H-M   'P 1'
_cell_length_a   6.62575875
_cell_length_b   7.36535389
_cell_length_c   9.94072200
_cell_angle_alpha   90.00000000
_cell_angle_beta   90.00000000
_cell_angle_gamma   89.85518386
_symmetry_Int_Tables_number   1
_chemical_formula_structural   Nd12OsPt3
_chemical_formula_sum   'Nd12 Os1 Pt3'
_cell_volume   485.11620103
_cell_formula_units_Z   1
loop_
 _symmetry_equiv_pos_site_id
 _symmetry_equiv_pos_as_xyz
  1  'x, y, z'
loop_
 _atom_site_type_symbol
 _atom_site_label
 _atom_site_symmetry_multiplicity
 _atom_site_fract_x
 _atom_site_fract_y
 _atom_site_fract_z
 _atom_site_occupancy
  Nd  Nd0  1  0.331471  0.678324  0.058577  1
  Nd  Nd1  1  0.167900  0.176387  0.437203  1
  Nd  Nd2  1  0.669799  0.326501  0.565995  1
  Nd  Nd3  1  0.823432  0.820140  0.935217  1
  Nd  Nd4  1  0.669799  0.326501  0.934005  1
  Nd  Nd5  1  0.823432  0.820140  0.564783  1
  Nd  Nd6  1  0.331471  0.678324  0.441423  1
  Nd  Nd7  1  0.167900  0.176387  0.062797  1
  Nd  Nd8  1  0.865107  0.530603  0.250000  1
  Nd  Nd9  1  0.638177  0.032574  0.250000  1
  Nd  Nd10  1  0.140785  0.471122  0.750000  1
  Nd  Nd11  1  0.367766  0.960914  0.750000  1
  Os  Os12  1  0.561318  0.617923  0.750000  1
  Pt  Pt13  1  0.066948  0.882163  0.250000  1
  Pt  Pt14  1  0.432828  0.385094  0.250000  1
  Pt  Pt15  1  0.941871  0.116902  0.750000  1
