# generated using pymatgen
data_Tb18Dy2(Ir3Pt)3
_symmetry_space_group_name_H-M   'P 1'
_cell_length_a   11.01566989
_cell_length_b   11.01566961
_cell_length_c   6.36551002
_cell_angle_alpha   89.98190265
_cell_angle_beta   89.98190450
_cell_angle_gamma   90.19706421
_symmetry_Int_Tables_number   1
_chemical_formula_structural   Tb18Dy2(Ir3Pt)3
_chemical_formula_sum   'Tb18 Dy2 Ir9 Pt3'
_cell_volume   772.41804061
_cell_formula_units_Z   1
loop_
 _symmetry_equiv_pos_site_id
 _symmetry_equiv_pos_as_xyz
  1  'x, y, z'
loop_
 _atom_site_type_symbol
 _atom_site_label
 _atom_site_symmetry_multiplicity
 _atom_site_fract_x
 _atom_site_fract_y
 _atom_site_fract_z
 _atom_site_occupancy
  Tb  Tb0  1  0.293757  0.087309  0.372838  1
  Tb  Tb1  1  0.293020  0.908286  0.877864  1
  Tb  Tb2  1  0.705261  0.090297  0.874626  1
  Tb  Tb3  1  0.704446  0.909521  0.374210  1
  Tb  Tb4  1  0.585569  0.791004  0.879186  1
  Tb  Tb5  1  0.585906  0.208986  0.379203  1
  Tb  Tb6  1  0.410505  0.791244  0.378934  1
  Tb  Tb7  1  0.413841  0.209074  0.879096  1
  Tb  Tb8  1  0.208996  0.414431  0.620814  1
  Tb  Tb9  1  0.208756  0.589495  0.121066  1
  Tb  Tb10  1  0.791014  0.414094  0.120797  1
  Tb  Tb11  1  0.790926  0.586159  0.620904  1
  Tb  Tb12  1  0.912691  0.706243  0.127162  1
  Tb  Tb13  1  0.909703  0.294739  0.625374  1
  Tb  Tb14  1  0.091714  0.706980  0.622136  1
  Tb  Tb15  1  0.090479  0.295554  0.125790  1
  Tb  Tb16  1  0.001197  0.998109  0.499576  1
  Tb  Tb17  1  0.001891  0.998803  0.000424  1
  Dy  Dy18  1  0.499753  0.499909  0.000397  1
  Dy  Dy19  1  0.500091  0.500247  0.499603  1
  Ir  Ir20  1  0.152348  0.847652  0.250000  1
  Ir  Ir21  1  0.654215  0.345785  0.750000  1
  Ir  Ir22  1  0.654625  0.654174  0.249597  1
  Ir  Ir23  1  0.345826  0.345375  0.250403  1
  Ir  Ir24  1  0.346659  0.653341  0.750000  1
  Ir  Ir25  1  0.500509  0.000076  0.123667  1
  Ir  Ir26  1  0.500279  0.000318  0.624807  1
  Ir  Ir27  1  0.999682  0.499721  0.875193  1
  Ir  Ir28  1  0.999924  0.499491  0.376333  1
  Pt  Pt29  1  0.846853  0.153147  0.250000  1
  Pt  Pt30  1  0.845619  0.846059  0.749934  1
  Pt  Pt31  1  0.153941  0.154381  0.750066  1
