# generated using pymatgen
data_TmNb2B2Ru5
_symmetry_space_group_name_H-M   'P 1'
_cell_length_a   9.54257798
_cell_length_b   9.54257899
_cell_length_c   3.08900300
_cell_angle_alpha   90.00000000
_cell_angle_beta   90.00000000
_cell_angle_gamma   89.47575135
_symmetry_Int_Tables_number   1
_chemical_formula_structural   TmNb2B2Ru5
_chemical_formula_sum   'Tm2 Nb4 B4 Ru10'
_cell_volume   281.27532261
_cell_formula_units_Z   2
loop_
 _symmetry_equiv_pos_site_id
 _symmetry_equiv_pos_as_xyz
  1  'x, y, z'
loop_
 _atom_site_type_symbol
 _atom_site_label
 _atom_site_symmetry_multiplicity
 _atom_site_fract_x
 _atom_site_fract_y
 _atom_site_fract_z
 _atom_site_occupancy
  Tm  Tm0  1  0.175658  0.175658  0.000000  1
  Tm  Tm1  1  0.824342  0.824342  0.000000  1
  Nb  Nb2  1  0.500000  0.000000  0.000000  1
  Nb  Nb3  1  0.000000  0.500000  0.000000  1
  Nb  Nb4  1  0.675894  0.324106  0.000000  1
  Nb  Nb5  1  0.324106  0.675894  0.000000  1
  B  B6  1  0.378695  0.378695  0.000000  1
  B  B7  1  0.621305  0.621305  0.000000  1
  B  B8  1  0.879350  0.120650  0.000000  1
  B  B9  1  0.120650  0.879350  0.000000  1
  Ru  Ru10  1  0.500000  0.500000  0.500000  1
  Ru  Ru11  1  0.000000  0.000000  0.500000  1
  Ru  Ru12  1  0.438851  0.222429  0.500000  1
  Ru  Ru13  1  0.561149  0.777571  0.500000  1
  Ru  Ru14  1  0.919778  0.284759  0.500000  1
  Ru  Ru15  1  0.080222  0.715241  0.500000  1
  Ru  Ru16  1  0.715241  0.080222  0.500000  1
  Ru  Ru17  1  0.284759  0.919778  0.500000  1
  Ru  Ru18  1  0.777571  0.561149  0.500000  1
  Ru  Ru19  1  0.222429  0.438851  0.500000  1
