# generated using pymatgen
data_BeV10Si4As
_symmetry_space_group_name_H-M   'P 1'
_cell_length_a   7.04960416
_cell_length_b   7.04799852
_cell_length_c   7.04357830
_cell_angle_alpha   96.29883847
_cell_angle_beta   96.31052559
_cell_angle_gamma   141.30928878
_symmetry_Int_Tables_number   1
_chemical_formula_structural   BeV10Si4As
_chemical_formula_sum   'Be1 V10 Si4 As1'
_cell_volume   206.39763276
_cell_formula_units_Z   1
loop_
 _symmetry_equiv_pos_site_id
 _symmetry_equiv_pos_as_xyz
  1  'x, y, z'
loop_
 _atom_site_type_symbol
 _atom_site_label
 _atom_site_symmetry_multiplicity
 _atom_site_fract_x
 _atom_site_fract_y
 _atom_site_fract_z
 _atom_site_occupancy
  Be  Be0  1  0.250323  0.250323  0.000647  1
  V  V1  1  0.568029  0.274959  0.853057  1
  V  V2  1  0.250914  0.750718  0.496359  1
  V  V3  1  0.079826  0.227339  0.295635  1
  V  V4  1  0.930101  0.785724  0.704516  1
  V  V5  1  0.745445  0.245641  0.496359  1
  V  V6  1  0.715809  0.568296  0.295635  1
  V  V7  1  0.422124  0.716470  0.149563  1
  V  V8  1  0.785028  0.078098  0.853057  1
  V  V9  1  0.274414  0.418792  0.704516  1
  V  V10  1  0.227441  0.933095  0.149563  1
  Si  Si11  1  0.665956  0.834265  0.500104  1
  Si  Si12  1  0.834527  0.334527  0.169052  1
  Si  Si13  1  0.750546  0.750546  0.001094  1
  Si  Si14  1  0.334148  0.165839  0.500104  1
  As  As15  1  0.165368  0.665368  0.830737  1
