# generated using pymatgen
data_CaY(OsO3)6
_symmetry_space_group_name_H-M   'P 1'
_cell_length_a   7.40021900
_cell_length_b   5.26802111
_cell_length_c   8.18547057
_cell_angle_alpha   85.84145329
_cell_angle_beta   90.00000000
_cell_angle_gamma   90.00000000
_symmetry_Int_Tables_number   1
_chemical_formula_structural   CaY(OsO3)6
_chemical_formula_sum   'Ca1 Y1 Os6 O18'
_cell_volume   318.26641580
_cell_formula_units_Z   1
loop_
 _symmetry_equiv_pos_site_id
 _symmetry_equiv_pos_as_xyz
  1  'x, y, z'
loop_
 _atom_site_type_symbol
 _atom_site_label
 _atom_site_symmetry_multiplicity
 _atom_site_fract_x
 _atom_site_fract_y
 _atom_site_fract_z
 _atom_site_occupancy
  Ca  Ca0  1  0.250000  0.970983  0.430068  1
  Y  Y1  1  0.750000  0.034529  0.569535  1
  Os  Os2  1  0.999525  0.004095  0.000403  1
  Os  Os3  1  0.500475  0.004095  0.000403  1
  Os  Os4  1  0.496178  0.539027  0.691986  1
  Os  Os5  1  0.003822  0.539027  0.691986  1
  Os  Os6  1  0.997379  0.464707  0.306743  1
  Os  Os7  1  0.502621  0.464707  0.306743  1
  O  O8  1  0.250000  0.917781  0.982521  1
  O  O9  1  0.936289  0.853312  0.786616  1
  O  O10  1  0.563711  0.853312  0.786616  1
  O  O11  1  0.955463  0.731629  0.473725  1
  O  O12  1  0.544537  0.731629  0.473725  1
  O  O13  1  0.250000  0.626236  0.675992  1
  O  O14  1  0.960608  0.693075  0.124346  1
  O  O15  1  0.539392  0.693075  0.124346  1
  O  O16  1  0.250000  0.569332  0.310407  1
  O  O17  1  0.750000  0.416814  0.692215  1
  O  O18  1  0.039428  0.314441  0.878093  1
  O  O19  1  0.460572  0.314441  0.878093  1
  O  O20  1  0.750000  0.338260  0.329811  1
  O  O21  1  0.031563  0.264536  0.527262  1
  O  O22  1  0.468437  0.264536  0.527262  1
  O  O23  1  0.061564  0.157732  0.208059  1
  O  O24  1  0.438436  0.157732  0.208059  1
  O  O25  1  0.750000  0.080955  0.014984  1
