# generated using pymatgen
data_Tm12Co3CuSiBi
_symmetry_space_group_name_H-M   'P 1'
_cell_length_a   8.28150087
_cell_length_b   8.28150068
_cell_length_c   8.28150043
_cell_angle_alpha   110.64982704
_cell_angle_beta   113.01005703
_cell_angle_gamma   104.85962112
_symmetry_Int_Tables_number   1
_chemical_formula_structural   Tm12Co3CuSiBi
_chemical_formula_sum   'Tm12 Co3 Cu1 Si1 Bi1'
_cell_volume   434.92195751
_cell_formula_units_Z   1
loop_
 _symmetry_equiv_pos_site_id
 _symmetry_equiv_pos_as_xyz
  1  'x, y, z'
loop_
 _atom_site_type_symbol
 _atom_site_label
 _atom_site_symmetry_multiplicity
 _atom_site_fract_x
 _atom_site_fract_y
 _atom_site_fract_z
 _atom_site_occupancy
  Tm  Tm0  1  0.286178  0.180469  0.466646  1
  Tm  Tm1  1  0.718364  0.817235  0.535599  1
  Tm  Tm2  1  0.281636  0.817235  0.098870  1
  Tm  Tm3  1  0.713822  0.180469  0.894292  1
  Tm  Tm4  1  0.622160  0.311873  0.316220  1
  Tm  Tm5  1  0.377840  0.694060  0.689713  1
  Tm  Tm6  1  0.995653  0.311873  0.689713  1
  Tm  Tm7  1  0.004347  0.694060  0.316220  1
  Tm  Tm8  1  0.227085  0.422323  0.195241  1
  Tm  Tm9  1  0.781994  0.583265  0.801269  1
  Tm  Tm10  1  0.218006  0.019275  0.801269  1
  Tm  Tm11  1  0.772915  0.968156  0.195241  1
  Co  Co12  1  0.000000  0.639174  0.639174  1
  Co  Co13  1  0.389386  0.889302  0.499916  1
  Co  Co14  1  0.610614  0.110530  0.499916  1
  Cu  Cu15  1  0.000000  0.996223  0.996223  1
  Si  Si16  1  0.000000  0.369085  0.369085  1
  Bi  Bi17  1  0.500000  0.495392  0.995392  1
