# generated using pymatgen
data_V2Fe(SeO3)4
_symmetry_space_group_name_H-M   'P 1'
_cell_length_a   8.14940500
_cell_length_b   8.20795570
_cell_length_c   8.34299400
_cell_angle_alpha   87.64154554
_cell_angle_beta   90.00000000
_cell_angle_gamma   90.00000000
_symmetry_Int_Tables_number   1
_chemical_formula_structural   V2Fe(SeO3)4
_chemical_formula_sum   'V4 Fe2 Se8 O24'
_cell_volume   557.58977796
_cell_formula_units_Z   2
loop_
 _symmetry_equiv_pos_site_id
 _symmetry_equiv_pos_as_xyz
  1  'x, y, z'
loop_
 _atom_site_type_symbol
 _atom_site_label
 _atom_site_symmetry_multiplicity
 _atom_site_fract_x
 _atom_site_fract_y
 _atom_site_fract_z
 _atom_site_occupancy
  V  V0  1  0.761084  0.750022  0.999777  1
  V  V1  1  0.738268  0.244872  0.507437  1
  V  V2  1  0.238916  0.250022  0.999777  1
  V  V3  1  0.261732  0.744872  0.507437  1
  Fe  Fe4  1  0.598546  0.342576  0.161260  1
  Fe  Fe5  1  0.401454  0.842576  0.161260  1
  Se  Se6  1  0.092045  0.551095  0.189513  1
  Se  Se7  1  0.907955  0.051095  0.189513  1
  Se  Se8  1  0.570854  0.451903  0.820183  1
  Se  Se9  1  0.317958  0.165104  0.415188  1
  Se  Se10  1  0.056022  0.420311  0.682193  1
  Se  Se11  1  0.429146  0.951903  0.820183  1
  Se  Se12  1  0.682042  0.665104  0.415188  1
  Se  Se13  1  0.943978  0.920311  0.682193  1
  O  O14  1  0.967150  0.708347  0.117431  1
  O  O15  1  0.307325  0.005643  0.985902  1
  O  O16  1  0.165853  0.258578  0.777046  1
  O  O17  1  0.673077  0.456588  0.370114  1
  O  O18  1  0.754831  0.174404  0.272074  1
  O  O19  1  0.191407  0.496572  0.019361  1
  O  O20  1  0.218355  0.515065  0.580840  1
  O  O21  1  0.628707  0.751174  0.225177  1
  O  O22  1  0.717463  0.349195  0.720956  1
  O  O23  1  0.326923  0.956588  0.370114  1
  O  O24  1  0.977333  0.313620  0.524131  1
  O  O25  1  0.479614  0.292002  0.935393  1
  O  O26  1  0.834147  0.758578  0.777046  1
  O  O27  1  0.509577  0.693627  0.521924  1
  O  O28  1  0.282537  0.849195  0.720956  1
  O  O29  1  0.245169  0.674404  0.272074  1
  O  O30  1  0.371293  0.251174  0.225177  1
  O  O31  1  0.032850  0.208347  0.117431  1
  O  O32  1  0.022667  0.813620  0.524131  1
  O  O33  1  0.520386  0.792002  0.935393  1
  O  O34  1  0.692675  0.505642  0.985902  1
  O  O35  1  0.781645  0.015065  0.580840  1
  O  O36  1  0.490423  0.193627  0.521924  1
  O  O37  1  0.808593  0.996572  0.019361  1
