# generated using pymatgen
data_SmLu3(InRh2)4
_symmetry_space_group_name_H-M   'P 1'
_cell_length_a   6.32797800
_cell_length_b   6.32787501
_cell_length_c   7.14441900
_cell_angle_alpha   90.00135818
_cell_angle_beta   89.99990040
_cell_angle_gamma   90.00199199
_symmetry_Int_Tables_number   1
_chemical_formula_structural   SmLu3(InRh2)4
_chemical_formula_sum   'Sm1 Lu3 In4 Rh8'
_cell_volume   286.08149652
_cell_formula_units_Z   1
loop_
 _symmetry_equiv_pos_site_id
 _symmetry_equiv_pos_as_xyz
  1  'x, y, z'
loop_
 _atom_site_type_symbol
 _atom_site_label
 _atom_site_symmetry_multiplicity
 _atom_site_fract_x
 _atom_site_fract_y
 _atom_site_fract_z
 _atom_site_occupancy
  Sm  Sm0  1  0.249944  0.750062  0.500052  1
  Lu  Lu1  1  0.749950  0.250035  0.000005  1
  Lu  Lu2  1  0.249904  0.749943  0.999961  1
  Lu  Lu3  1  0.749913  0.249929  0.499943  1
  In  In4  1  0.250045  0.249839  0.999915  1
  In  In5  1  0.750053  0.749953  0.999817  1
  In  In6  1  0.250012  0.250107  0.499805  1
  In  In7  1  0.749756  0.749995  0.499925  1
  Rh  Rh8  1  0.997699  0.002269  0.246168  1
  Rh  Rh9  1  0.997458  0.497598  0.246363  1
  Rh  Rh10  1  0.502667  0.002022  0.246177  1
  Rh  Rh11  1  0.502534  0.497572  0.245907  1
  Rh  Rh12  1  0.502447  0.002637  0.754188  1
  Rh  Rh13  1  0.502593  0.497679  0.753850  1
  Rh  Rh14  1  0.997467  0.002685  0.754005  1
  Rh  Rh15  1  0.997558  0.497678  0.753921  1
