# generated using pymatgen
data_Tb6Er10Cd4Ir3Pt
_symmetry_space_group_name_H-M   'P 1'
_cell_length_a   9.60165508
_cell_length_b   9.60165524
_cell_length_c   9.60165587
_cell_angle_alpha   60.07227710
_cell_angle_beta   60.07227228
_cell_angle_gamma   60.07227804
_symmetry_Int_Tables_number   1
_chemical_formula_structural   Tb6Er10Cd4Ir3Pt
_chemical_formula_sum   'Tb6 Er10 Cd4 Ir3 Pt1'
_cell_volume   626.95173251
_cell_formula_units_Z   1
loop_
 _symmetry_equiv_pos_site_id
 _symmetry_equiv_pos_as_xyz
  1  'x, y, z'
loop_
 _atom_site_type_symbol
 _atom_site_label
 _atom_site_symmetry_multiplicity
 _atom_site_fract_x
 _atom_site_fract_y
 _atom_site_fract_z
 _atom_site_occupancy
  Tb  Tb0  1  0.189019  0.811619  0.811619  1
  Tb  Tb1  1  0.813082  0.188023  0.188023  1
  Tb  Tb2  1  0.811619  0.189019  0.811619  1
  Tb  Tb3  1  0.188023  0.813082  0.188023  1
  Tb  Tb4  1  0.811619  0.811619  0.189019  1
  Tb  Tb5  1  0.188023  0.188023  0.813082  1
  Er  Er6  1  0.598173  0.598173  0.598173  1
  Er  Er7  1  0.601131  0.601131  0.201360  1
  Er  Er8  1  0.601131  0.201360  0.601131  1
  Er  Er9  1  0.201360  0.601131  0.601131  1
  Er  Er10  1  0.057005  0.439534  0.439534  1
  Er  Er11  1  0.437234  0.061385  0.061385  1
  Er  Er12  1  0.439534  0.057005  0.439534  1
  Er  Er13  1  0.061385  0.437234  0.061385  1
  Er  Er14  1  0.439534  0.439534  0.057005  1
  Er  Er15  1  0.061385  0.061385  0.437234  1
  Cd  Cd16  1  0.830549  0.830549  0.830549  1
  Cd  Cd17  1  0.830853  0.830853  0.507487  1
  Cd  Cd18  1  0.830853  0.507487  0.830853  1
  Cd  Cd19  1  0.507487  0.830853  0.830853  1
  Ir  Ir20  1  0.392140  0.392140  0.824427  1
  Ir  Ir21  1  0.392140  0.824427  0.392140  1
  Ir  Ir22  1  0.824427  0.392140  0.392140  1
  Pt  Pt23  1  0.392297  0.392297  0.392297  1
