# generated using pymatgen
data_Zr10BeTl2GeSb4
_symmetry_space_group_name_H-M   'P 1'
_cell_length_a   8.68262973
_cell_length_b   8.69508790
_cell_length_c   5.86284496
_cell_angle_alpha   90.11926882
_cell_angle_beta   89.94027768
_cell_angle_gamma   120.04748818
_symmetry_Int_Tables_number   1
_chemical_formula_structural   Zr10BeTl2GeSb4
_chemical_formula_sum   'Zr10 Be1 Tl2 Ge1 Sb4'
_cell_volume   383.13809824
_cell_formula_units_Z   1
loop_
 _symmetry_equiv_pos_site_id
 _symmetry_equiv_pos_as_xyz
  1  'x, y, z'
loop_
 _atom_site_type_symbol
 _atom_site_label
 _atom_site_symmetry_multiplicity
 _atom_site_fract_x
 _atom_site_fract_y
 _atom_site_fract_z
 _atom_site_occupancy
  Zr  Zr0  1  0.669825  0.336183  0.999641  1
  Zr  Zr1  1  0.330175  0.666358  0.999641  1
  Zr  Zr2  1  0.329293  0.666352  0.501688  1
  Zr  Zr3  1  0.670707  0.337058  0.501688  1
  Zr  Zr4  1  0.737025  0.734055  0.761271  1
  Zr  Zr5  1  0.262975  0.997029  0.761271  1
  Zr  Zr6  1  0.000000  0.268111  0.762319  1
  Zr  Zr7  1  0.249967  0.249780  0.238347  1
  Zr  Zr8  1  0.750033  0.999811  0.238347  1
  Zr  Zr9  1  0.000000  0.745511  0.242462  1
  Be  Be10  1  0.000000  0.001062  0.975253  1
  Tl  Tl11  1  0.385558  0.385687  0.747098  1
  Tl  Tl12  1  0.614442  0.000129  0.747098  1
  Ge  Ge13  1  0.000000  0.001350  0.518723  1
  Sb  Sb14  1  0.000000  0.611916  0.750530  1
  Sb  Sb15  1  0.602161  0.604718  0.251486  1
  Sb  Sb16  1  0.397839  0.002558  0.251486  1
  Sb  Sb17  1  0.000000  0.392332  0.251655  1
