# generated using pymatgen
data_Tb9Lu(GaSb)4
_symmetry_space_group_name_H-M   'P 1'
_cell_length_a   8.67099913
_cell_length_b   8.67099944
_cell_length_c   7.93667748
_cell_angle_alpha   90.05570992
_cell_angle_beta   90.05570617
_cell_angle_gamma   125.48001453
_symmetry_Int_Tables_number   1
_chemical_formula_structural   Tb9Lu(GaSb)4
_chemical_formula_sum   'Tb9 Lu1 Ga4 Sb4'
_cell_volume   485.92596178
_cell_formula_units_Z   1
loop_
 _symmetry_equiv_pos_site_id
 _symmetry_equiv_pos_as_xyz
  1  'x, y, z'
loop_
 _atom_site_type_symbol
 _atom_site_label
 _atom_site_symmetry_multiplicity
 _atom_site_fract_x
 _atom_site_fract_y
 _atom_site_fract_z
 _atom_site_occupancy
  Tb  Tb0  1  0.039371  0.301499  0.330933  1
  Tb  Tb1  1  0.960629  0.698501  0.669067  1
  Tb  Tb2  1  0.459845  0.197281  0.831628  1
  Tb  Tb3  1  0.802719  0.540155  0.168372  1
  Tb  Tb4  1  0.540155  0.802719  0.168372  1
  Tb  Tb5  1  0.197281  0.459845  0.831628  1
  Tb  Tb6  1  0.698501  0.960629  0.669067  1
  Tb  Tb7  1  0.301499  0.039371  0.330933  1
  Tb  Tb8  1  0.500000  0.500000  0.500000  1
  Lu  Lu9  1  0.000000  0.000000  0.000000  1
  Ga  Ga10  1  0.375563  0.375563  0.122277  1
  Ga  Ga11  1  0.624437  0.624437  0.877723  1
  Ga  Ga12  1  0.122804  0.122804  0.623807  1
  Ga  Ga13  1  0.877196  0.877196  0.376193  1
  Sb  Sb14  1  0.795557  0.204443  0.000000  1
  Sb  Sb15  1  0.204443  0.795557  0.000000  1
  Sb  Sb16  1  0.705551  0.294449  0.500000  1
  Sb  Sb17  1  0.294449  0.705551  0.500000  1
