# generated using pymatgen
data_Sm8Sc12Si15Se
_symmetry_space_group_name_H-M   'P 1'
_cell_length_a   7.25104013
_cell_length_b   7.43597648
_cell_length_c   14.10004695
_cell_angle_alpha   90.07562581
_cell_angle_beta   88.65305753
_cell_angle_gamma   90.25537385
_symmetry_Int_Tables_number   1
_chemical_formula_structural   Sm8Sc12Si15Se
_chemical_formula_sum   'Sm8 Sc12 Si15 Se1'
_cell_volume   760.03610159
_cell_formula_units_Z   1
loop_
 _symmetry_equiv_pos_site_id
 _symmetry_equiv_pos_as_xyz
  1  'x, y, z'
loop_
 _atom_site_type_symbol
 _atom_site_label
 _atom_site_symmetry_multiplicity
 _atom_site_fract_x
 _atom_site_fract_y
 _atom_site_fract_z
 _atom_site_occupancy
  Sm  Sm0  1  0.012168  0.174783  0.097967  1
  Sm  Sm1  1  0.988315  0.826880  0.901854  1
  Sm  Sm2  1  0.488541  0.673867  0.902502  1
  Sm  Sm3  1  0.995614  0.823785  0.596396  1
  Sm  Sm4  1  0.512038  0.327053  0.097813  1
  Sm  Sm5  1  0.002286  0.176133  0.402266  1
  Sm  Sm6  1  0.502548  0.320429  0.400546  1
  Sm  Sm7  1  0.504544  0.678502  0.598962  1
  Sc  Sc8  1  0.165106  0.499151  0.752345  1
  Sc  Sc9  1  0.834664  0.500895  0.253689  1
  Sc  Sc10  1  0.334176  0.998458  0.251177  1
  Sc  Sc11  1  0.666625  0.000764  0.749388  1
  Sc  Sc12  1  0.345976  0.166451  0.627816  1
  Sc  Sc13  1  0.656468  0.829446  0.373147  1
  Sc  Sc14  1  0.155322  0.671040  0.377345  1
  Sc  Sc15  1  0.668134  0.824813  0.125693  1
  Sc  Sc16  1  0.838354  0.330737  0.621097  1
  Sc  Sc17  1  0.331194  0.175041  0.873528  1
  Sc  Sc18  1  0.832457  0.323700  0.874301  1
  Sc  Sc19  1  0.167446  0.676774  0.125249  1
  Si  Si20  1  0.038084  0.123721  0.747873  1
  Si  Si21  1  0.961005  0.878480  0.250284  1
  Si  Si22  1  0.456965  0.621370  0.248847  1
  Si  Si23  1  0.541047  0.378968  0.750363  1
  Si  Si24  1  0.290981  0.873916  0.750217  1
  Si  Si25  1  0.709916  0.123065  0.248799  1
  Si  Si26  1  0.208141  0.379174  0.249735  1
  Si  Si27  1  0.794797  0.622158  0.750124  1
  Si  Si28  1  0.806718  0.542870  0.455211  1
  Si  Si29  1  0.329738  0.959755  0.460579  1
  Si  Si30  1  0.846289  0.536290  0.039369  1
  Si  Si31  1  0.669412  0.039248  0.540836  1
  Si  Si32  1  0.152868  0.465101  0.959944  1
  Si  Si33  1  0.652534  0.035880  0.959244  1
  Si  Si34  1  0.346778  0.965616  0.040315  1
  Se  Se35  1  0.192754  0.455687  0.545179  1
