# generated using pymatgen
data_Lu10GaBi4Sb
_symmetry_space_group_name_H-M   'P 1'
_cell_length_a   7.99036400
_cell_length_b   9.26417300
_cell_length_c   11.70871700
_cell_angle_alpha   90.00000000
_cell_angle_beta   90.00000000
_cell_angle_gamma   90.00000000
_symmetry_Int_Tables_number   1
_chemical_formula_structural   Lu10GaBi4Sb
_chemical_formula_sum   'Lu20 Ga2 Bi8 Sb2'
_cell_volume   866.72740702
_cell_formula_units_Z   2
loop_
 _symmetry_equiv_pos_site_id
 _symmetry_equiv_pos_as_xyz
  1  'x, y, z'
loop_
 _atom_site_type_symbol
 _atom_site_label
 _atom_site_symmetry_multiplicity
 _atom_site_fract_x
 _atom_site_fract_y
 _atom_site_fract_z
 _atom_site_occupancy
  Lu  Lu0  1  0.183651  0.569939  0.444622  1
  Lu  Lu1  1  0.683651  0.930061  0.055378  1
  Lu  Lu2  1  0.810976  0.054127  0.557730  1
  Lu  Lu3  1  0.310976  0.445873  0.942270  1
  Lu  Lu4  1  0.810976  0.445873  0.557730  1
  Lu  Lu5  1  0.310976  0.054127  0.942270  1
  Lu  Lu6  1  0.183651  0.930061  0.444622  1
  Lu  Lu7  1  0.683651  0.569939  0.055378  1
  Lu  Lu8  1  0.037032  0.750000  0.990360  1
  Lu  Lu9  1  0.537032  0.750000  0.509640  1
  Lu  Lu10  1  0.975802  0.250000  0.010217  1
  Lu  Lu11  1  0.475802  0.250000  0.489783  1
  Lu  Lu12  1  0.178763  0.750000  0.713655  1
  Lu  Lu13  1  0.678763  0.750000  0.786345  1
  Lu  Lu14  1  0.814474  0.250000  0.283432  1
  Lu  Lu15  1  0.314474  0.250000  0.216568  1
  Lu  Lu16  1  0.853957  0.750000  0.293044  1
  Lu  Lu17  1  0.353957  0.750000  0.206956  1
  Lu  Lu18  1  0.149919  0.250000  0.714841  1
  Lu  Lu19  1  0.649919  0.250000  0.785159  1
  Ga  Ga20  1  0.907092  0.750000  0.540870  1
  Ga  Ga21  1  0.407092  0.750000  0.959130  1
  Bi  Bi22  1  0.937252  0.498237  0.823502  1
  Bi  Bi23  1  0.437252  0.001763  0.676498  1
  Bi  Bi24  1  0.061528  0.997540  0.176851  1
  Bi  Bi25  1  0.561528  0.502460  0.323149  1
  Bi  Bi26  1  0.061528  0.502460  0.176851  1
  Bi  Bi27  1  0.561528  0.997540  0.323149  1
  Bi  Bi28  1  0.937252  0.001763  0.823502  1
  Bi  Bi29  1  0.437252  0.498237  0.676498  1
  Sb  Sb30  1  0.096147  0.250000  0.458083  1
  Sb  Sb31  1  0.596147  0.250000  0.041917  1
