# generated using pymatgen
data_Dy2HoIn3Ga2Rh
_symmetry_space_group_name_H-M   'P 1'
_cell_length_a   7.27959100
_cell_length_b   7.27588311
_cell_length_c   4.35568800
_cell_angle_alpha   90.00000000
_cell_angle_beta   90.00000000
_cell_angle_gamma   120.01687297
_symmetry_Int_Tables_number   1
_chemical_formula_structural   Dy2HoIn3Ga2Rh
_chemical_formula_sum   'Dy2 Ho1 In3 Ga2 Rh1'
_cell_volume   199.75893894
_cell_formula_units_Z   1
loop_
 _symmetry_equiv_pos_site_id
 _symmetry_equiv_pos_as_xyz
  1  'x, y, z'
loop_
 _atom_site_type_symbol
 _atom_site_label
 _atom_site_symmetry_multiplicity
 _atom_site_fract_x
 _atom_site_fract_y
 _atom_site_fract_z
 _atom_site_occupancy
  Dy  Dy0  1  0.000108  0.592645  0.500000  1
  Dy  Dy1  1  0.407464  0.407355  0.500000  1
  Ho  Ho2  1  0.592974  0.000000  0.500000  1
  In  In3  1  0.753439  0.753585  0.000000  1
  In  In4  1  0.999855  0.246415  0.000000  1
  In  In5  1  0.246567  0.000000  0.000000  1
  Ga  Ga6  1  0.333622  0.667059  0.000000  1
  Ga  Ga7  1  0.666564  0.332941  0.000000  1
  Rh  Rh8  1  0.999408  0.000000  0.500000  1
