# generated using pymatgen
data_Th3As2Se
_symmetry_space_group_name_H-M   'P 1'
_cell_length_a   7.31663310
_cell_length_b   7.31663139
_cell_length_c   7.31663110
_cell_angle_alpha   146.12099687
_cell_angle_beta   131.82344557
_cell_angle_gamma   60.19471840
_symmetry_Int_Tables_number   1
_chemical_formula_structural   Th3As2Se
_chemical_formula_sum   'Th3 As2 Se1'
_cell_volume   161.19181980
_cell_formula_units_Z   1
loop_
 _symmetry_equiv_pos_site_id
 _symmetry_equiv_pos_as_xyz
  1  'x, y, z'
loop_
 _atom_site_type_symbol
 _atom_site_label
 _atom_site_symmetry_multiplicity
 _atom_site_fract_x
 _atom_site_fract_y
 _atom_site_fract_z
 _atom_site_occupancy
  Th  Th0  1  0.500000  0.000000  0.500000  1
  Th  Th1  1  0.169391  0.669391  0.500000  1
  Th  Th2  1  0.830609  0.330609  0.500000  1
  As  As3  1  0.666331  0.666331  0.000000  1
  As  As4  1  0.333669  0.333669  0.000000  1
  Se  Se5  1  0.000000  0.000000  0.000000  1
