# generated using pymatgen
data_Ho7Er3Si5Sn
_symmetry_space_group_name_H-M   'P 1'
_cell_length_a   8.46713801
_cell_length_b   8.49465843
_cell_length_c   6.33940600
_cell_angle_alpha   89.99730132
_cell_angle_beta   89.99909478
_cell_angle_gamma   119.89690520
_symmetry_Int_Tables_number   1
_chemical_formula_structural   Ho7Er3Si5Sn
_chemical_formula_sum   'Ho7 Er3 Si5 Sn1'
_cell_volume   395.28650453
_cell_formula_units_Z   1
loop_
 _symmetry_equiv_pos_site_id
 _symmetry_equiv_pos_as_xyz
  1  'x, y, z'
loop_
 _atom_site_type_symbol
 _atom_site_label
 _atom_site_symmetry_multiplicity
 _atom_site_fract_x
 _atom_site_fract_y
 _atom_site_fract_z
 _atom_site_occupancy
  Ho  Ho0  1  0.989675  0.749243  0.750030  1
  Ho  Ho1  1  0.998260  0.242081  0.249964  1
  Ho  Ho2  1  0.756206  0.757879  0.249975  1
  Ho  Ho3  1  0.765877  0.000022  0.750030  1
  Ho  Ho4  1  0.240460  0.250721  0.750033  1
  Ho  Ho5  1  0.241031  0.000022  0.249972  1
  Ho  Ho6  1  0.331301  0.657482  0.496994  1
  Er  Er7  1  0.673828  0.342535  0.003004  1
  Er  Er8  1  0.673817  0.342531  0.496988  1
  Er  Er9  1  0.331299  0.657476  0.002989  1
  Si  Si10  1  0.393485  0.391932  0.249910  1
  Si  Si11  1  0.001358  0.607976  0.249922  1
  Si  Si12  1  0.998489  0.394252  0.750085  1
  Si  Si13  1  0.604338  0.605661  0.750086  1
  Si  Si14  1  0.605008  0.000081  0.249934  1
  Sn  Sn15  1  0.395569  0.000106  0.750083  1
