# generated using pymatgen
data_Nd3HfMg2Ir3
_symmetry_space_group_name_H-M   'P 1'
_cell_length_a   7.47960596
_cell_length_b   7.32864539
_cell_length_c   4.27802300
_cell_angle_alpha   90.00000000
_cell_angle_beta   90.00000000
_cell_angle_gamma   119.33455802
_symmetry_Int_Tables_number   1
_chemical_formula_structural   Nd3HfMg2Ir3
_chemical_formula_sum   'Nd3 Hf1 Mg2 Ir3'
_cell_volume   204.43225803
_cell_formula_units_Z   1
loop_
 _symmetry_equiv_pos_site_id
 _symmetry_equiv_pos_as_xyz
  1  'x, y, z'
loop_
 _atom_site_type_symbol
 _atom_site_label
 _atom_site_symmetry_multiplicity
 _atom_site_fract_x
 _atom_site_fract_y
 _atom_site_fract_z
 _atom_site_occupancy
  Nd  Nd0  1  0.578883  0.586421  0.000000  1
  Nd  Nd1  1  0.421117  0.007538  0.000000  1
  Nd  Nd2  1  0.000000  0.399205  0.000000  1
  Hf  Hf3  1  0.000000  0.753408  0.500000  1
  Mg  Mg4  1  0.244597  0.243744  0.500000  1
  Mg  Mg5  1  0.755403  0.999148  0.500000  1
  Ir  Ir6  1  0.000000  0.972999  0.000000  1
  Ir  Ir7  1  0.683201  0.360369  0.500000  1
  Ir  Ir8  1  0.316799  0.677169  0.500000  1
