# generated using pymatgen
data_Yb5Th(Si3Ru)8
_symmetry_space_group_name_H-M   'P 1'
_cell_length_a   10.16426523
_cell_length_b   10.16426488
_cell_length_c   8.16301741
_cell_angle_alpha   89.77569916
_cell_angle_beta   90.22429794
_cell_angle_gamma   132.66319601
_symmetry_Int_Tables_number   1
_chemical_formula_structural   Yb5Th(Si3Ru)8
_chemical_formula_sum   'Yb5 Th1 Si24 Ru8'
_cell_volume   620.14443505
_cell_formula_units_Z   1
loop_
 _symmetry_equiv_pos_site_id
 _symmetry_equiv_pos_as_xyz
  1  'x, y, z'
loop_
 _atom_site_type_symbol
 _atom_site_label
 _atom_site_symmetry_multiplicity
 _atom_site_fract_x
 _atom_site_fract_y
 _atom_site_fract_z
 _atom_site_occupancy
  Yb  Yb0  1  0.999716  0.999597  0.000017  1
  Yb  Yb1  1  0.499597  0.499716  0.499983  1
  Yb  Yb2  1  0.001852  0.501852  0.250000  1
  Yb  Yb3  1  0.998357  0.498357  0.750000  1
  Yb  Yb4  1  0.499126  0.999126  0.750000  1
  Th  Th5  1  0.501810  0.001810  0.250000  1
  Si  Si6  1  0.709747  0.300682  0.994772  1
  Si  Si7  1  0.291338  0.699802  0.994980  1
  Si  Si8  1  0.800682  0.209747  0.505228  1
  Si  Si9  1  0.199802  0.791338  0.505020  1
  Si  Si10  1  0.333965  0.332441  0.167811  1
  Si  Si11  1  0.667909  0.662952  0.831998  1
  Si  Si12  1  0.162952  0.167909  0.668002  1
  Si  Si13  1  0.832441  0.833965  0.332189  1
  Si  Si14  1  0.848461  0.615547  0.006182  1
  Si  Si15  1  0.152667  0.384545  0.992515  1
  Si  Si16  1  0.654865  0.887777  0.507986  1
  Si  Si17  1  0.115547  0.348461  0.493818  1
  Si  Si18  1  0.344154  0.112429  0.494988  1
  Si  Si19  1  0.884545  0.652667  0.507485  1
  Si  Si20  1  0.387777  0.154865  0.992014  1
  Si  Si21  1  0.612429  0.844154  0.005012  1
  Si  Si22  1  0.892811  0.125172  0.270873  1
  Si  Si23  1  0.108719  0.877151  0.730981  1
  Si  Si24  1  0.607937  0.375741  0.767951  1
  Si  Si25  1  0.625172  0.392811  0.229127  1
  Si  Si26  1  0.391226  0.622565  0.228582  1
  Si  Si27  1  0.377151  0.608719  0.769019  1
  Si  Si28  1  0.875741  0.107937  0.732049  1
  Si  Si29  1  0.122565  0.891226  0.271418  1
  Ru  Ru30  1  0.828421  0.168874  0.001463  1
  Ru  Ru31  1  0.172675  0.831441  0.001970  1
  Ru  Ru32  1  0.668874  0.328421  0.498537  1
  Ru  Ru33  1  0.331441  0.672675  0.498030  1
  Ru  Ru34  1  0.125560  0.126356  0.374992  1
  Ru  Ru35  1  0.872742  0.872872  0.624827  1
  Ru  Ru36  1  0.372872  0.372742  0.875173  1
  Ru  Ru37  1  0.626356  0.625560  0.125008  1
