# generated using pymatgen
data_Ac6P17Pd6
_symmetry_space_group_name_H-M   'P 1'
_cell_length_a   9.23754106
_cell_length_b   9.23754171
_cell_length_c   9.23754200
_cell_angle_alpha   109.47122347
_cell_angle_beta   109.47122490
_cell_angle_gamma   109.47121804
_symmetry_Int_Tables_number   1
_chemical_formula_structural   Ac6P17Pd6
_chemical_formula_sum   'Ac6 P17 Pd6'
_cell_volume   606.80242117
_cell_formula_units_Z   1
loop_
 _symmetry_equiv_pos_site_id
 _symmetry_equiv_pos_as_xyz
  1  'x, y, z'
loop_
 _atom_site_type_symbol
 _atom_site_label
 _atom_site_symmetry_multiplicity
 _atom_site_fract_x
 _atom_site_fract_y
 _atom_site_fract_z
 _atom_site_occupancy
  Ac  Ac0  1  0.289322  0.289322  0.000000  1
  Ac  Ac1  1  0.000000  0.710678  0.710678  1
  Ac  Ac2  1  0.000000  0.289322  0.289322  1
  Ac  Ac3  1  0.289322  0.000000  0.289322  1
  Ac  Ac4  1  0.710678  0.000000  0.710678  1
  Ac  Ac5  1  0.710678  0.710678  0.000000  1
  P  P6  1  0.634855  0.413910  0.634855  1
  P  P7  1  0.779056  0.000000  0.365145  1
  P  P8  1  0.365145  0.000000  0.779056  1
  P  P9  1  0.779056  0.365145  0.000000  1
  P  P10  1  0.220944  0.220944  0.586090  1
  P  P11  1  0.586090  0.220944  0.220944  1
  P  P12  1  0.000000  0.365145  0.779056  1
  P  P13  1  0.000000  0.779056  0.365145  1
  P  P14  1  0.365145  0.779056  0.000000  1
  P  P15  1  0.634855  0.634855  0.413910  1
  P  P16  1  0.413910  0.634855  0.634855  1
  P  P17  1  0.220944  0.586090  0.220944  1
  P  P18  1  0.437723  0.437723  0.437723  1
  P  P19  1  0.000000  0.000000  0.562277  1
  P  P20  1  0.562277  0.000000  0.000000  1
  P  P21  1  0.000000  0.562277  0.000000  1
  P  P22  1  0.000000  0.000000  0.000000  1
  Pd  Pd23  1  0.250000  0.750000  0.500000  1
  Pd  Pd24  1  0.500000  0.250000  0.750000  1
  Pd  Pd25  1  0.500000  0.750000  0.250000  1
  Pd  Pd26  1  0.250000  0.500000  0.750000  1
  Pd  Pd27  1  0.750000  0.500000  0.250000  1
  Pd  Pd28  1  0.750000  0.250000  0.500000  1
