# generated using pymatgen
data_Sc12Co4SnIr
_symmetry_space_group_name_H-M   'P 1'
_cell_length_a   7.72022403
_cell_length_b   7.72022406
_cell_length_c   7.72022415
_cell_angle_alpha   111.15061608
_cell_angle_beta   111.06081229
_cell_angle_gamma   106.24949558
_symmetry_Int_Tables_number   1
_chemical_formula_structural   Sc12Co4SnIr
_chemical_formula_sum   'Sc12 Co4 Sn1 Ir1'
_cell_volume   353.38154427
_cell_formula_units_Z   1
loop_
 _symmetry_equiv_pos_site_id
 _symmetry_equiv_pos_as_xyz
  1  'x, y, z'
loop_
 _atom_site_type_symbol
 _atom_site_label
 _atom_site_symmetry_multiplicity
 _atom_site_fract_x
 _atom_site_fract_y
 _atom_site_fract_z
 _atom_site_occupancy
  Sc  Sc0  1  0.423358  0.223637  0.199721  1
  Sc  Sc1  1  0.576642  0.776363  0.800279  1
  Sc  Sc2  1  0.023917  0.223637  0.800279  1
  Sc  Sc3  1  0.976083  0.776363  0.199721  1
  Sc  Sc4  1  0.313161  0.615797  0.302635  1
  Sc  Sc5  1  0.686839  0.384203  0.697365  1
  Sc  Sc6  1  0.313161  0.010525  0.697365  1
  Sc  Sc7  1  0.686839  0.989475  0.302635  1
  Sc  Sc8  1  0.184624  0.277642  0.462266  1
  Sc  Sc9  1  0.815376  0.722357  0.537734  1
  Sc  Sc10  1  0.184624  0.722357  0.906983  1
  Sc  Sc11  1  0.815376  0.277642  0.093017  1
  Co  Co12  1  0.365264  0.000000  0.365264  1
  Co  Co13  1  0.634736  0.000000  0.634736  1
  Co  Co14  1  0.117903  0.617903  0.500000  1
  Co  Co15  1  0.882097  0.382097  0.500000  1
  Sn  Sn16  1  0.500000  0.500000  0.000000  1
  Ir  Ir17  1  0.000000  0.000000  0.000000  1
