# generated using pymatgen
data_ScPa5(Al3Os)8
_symmetry_space_group_name_H-M   'P 1'
_cell_length_a   8.86513384
_cell_length_b   8.86513419
_cell_length_c   9.41176100
_cell_angle_alpha   90.00000000
_cell_angle_beta   90.00000000
_cell_angle_gamma   120.03425946
_symmetry_Int_Tables_number   1
_chemical_formula_structural   ScPa5(Al3Os)8
_chemical_formula_sum   'Sc1 Pa5 Al24 Os8'
_cell_volume   640.35691175
_cell_formula_units_Z   1
loop_
 _symmetry_equiv_pos_site_id
 _symmetry_equiv_pos_as_xyz
  1  'x, y, z'
loop_
 _atom_site_type_symbol
 _atom_site_label
 _atom_site_symmetry_multiplicity
 _atom_site_fract_x
 _atom_site_fract_y
 _atom_site_fract_z
 _atom_site_occupancy
  Sc  Sc0  1  0.798000  0.202000  0.750000  1
  Pa  Pa1  1  0.195500  0.394156  0.250000  1
  Pa  Pa2  1  0.800376  0.608050  0.750000  1
  Pa  Pa3  1  0.605844  0.804500  0.250000  1
  Pa  Pa4  1  0.391950  0.199624  0.750000  1
  Pa  Pa5  1  0.199009  0.800991  0.250000  1
  Al  Al6  1  0.335181  0.664819  0.014271  1
  Al  Al7  1  0.670623  0.329377  0.975635  1
  Al  Al8  1  0.670623  0.329377  0.524365  1
  Al  Al9  1  0.335181  0.664819  0.485729  1
  Al  Al10  1  0.158406  0.322693  0.579782  1
  Al  Al11  1  0.837964  0.674769  0.421328  1
  Al  Al12  1  0.677307  0.841594  0.579782  1
  Al  Al13  1  0.837964  0.674769  0.078672  1
  Al  Al14  1  0.325231  0.162036  0.421328  1
  Al  Al15  1  0.158406  0.322693  0.920218  1
  Al  Al16  1  0.162161  0.837839  0.581771  1
  Al  Al17  1  0.325231  0.162036  0.078672  1
  Al  Al18  1  0.838084  0.161916  0.425896  1
  Al  Al19  1  0.677307  0.841594  0.920218  1
  Al  Al20  1  0.838084  0.161916  0.074104  1
  Al  Al21  1  0.162161  0.837839  0.918229  1
  Al  Al22  1  0.565280  0.128518  0.250000  1
  Al  Al23  1  0.444631  0.883044  0.750000  1
  Al  Al24  1  0.871482  0.434720  0.250000  1
  Al  Al25  1  0.116956  0.555369  0.750000  1
  Al  Al26  1  0.562583  0.437417  0.250000  1
  Al  Al27  1  0.434824  0.565176  0.750000  1
  Al  Al28  1  0.000382  0.999618  0.250000  1
  Al  Al29  1  0.994020  0.005980  0.750000  1
  Os  Os30  1  0.497942  0.996143  0.004087  1
  Os  Os31  1  0.003857  0.502058  0.004087  1
  Os  Os32  1  0.497942  0.996143  0.495913  1
  Os  Os33  1  0.502020  0.497980  0.997134  1
  Os  Os34  1  0.003857  0.502058  0.495913  1
  Os  Os35  1  0.502020  0.497980  0.502866  1
  Os  Os36  1  0.000806  0.999194  0.000048  1
  Os  Os37  1  0.000806  0.999194  0.499952  1
