# generated using pymatgen
data_Tl3Mo5P6O25
_symmetry_space_group_name_H-M   'P 1'
_cell_length_a   12.37672700
_cell_length_b   12.37672639
_cell_length_c   9.77411600
_cell_angle_alpha   90.00000000
_cell_angle_beta   90.00000000
_cell_angle_gamma   120.00000431
_symmetry_Int_Tables_number   1
_chemical_formula_structural   Tl3Mo5P6O25
_chemical_formula_sum   'Tl6 Mo10 P12 O50'
_cell_volume   1296.64086104
_cell_formula_units_Z   2
loop_
 _symmetry_equiv_pos_site_id
 _symmetry_equiv_pos_as_xyz
  1  'x, y, z'
loop_
 _atom_site_type_symbol
 _atom_site_label
 _atom_site_symmetry_multiplicity
 _atom_site_fract_x
 _atom_site_fract_y
 _atom_site_fract_z
 _atom_site_occupancy
  Tl  Tl0  1  0.370694  0.063816  0.427635  1
  Tl  Tl1  1  0.063816  0.370694  0.927635  1
  Tl  Tl2  1  0.306878  0.936184  0.927635  1
  Tl  Tl3  1  0.936184  0.306878  0.427635  1
  Tl  Tl4  1  0.629306  0.693122  0.927635  1
  Tl  Tl5  1  0.693122  0.629306  0.427635  1
  Mo  Mo6  1  0.813244  0.489970  0.820195  1
  Mo  Mo7  1  0.000000  0.000000  0.449011  1
  Mo  Mo8  1  0.666667  0.333333  0.078728  1
  Mo  Mo9  1  0.333333  0.666667  0.578728  1
  Mo  Mo10  1  0.676726  0.186756  0.820195  1
  Mo  Mo11  1  0.186756  0.676726  0.320195  1
  Mo  Mo12  1  0.510030  0.323274  0.820195  1
  Mo  Mo13  1  0.323274  0.510030  0.320195  1
  Mo  Mo14  1  0.489970  0.813244  0.320195  1
  Mo  Mo15  1  0.000000  0.000000  0.949011  1
  P  P16  1  0.086693  0.854181  0.198270  1
  P  P17  1  0.767488  0.913307  0.198270  1
  P  P18  1  0.654374  0.067085  0.133887  1
  P  P19  1  0.932915  0.587289  0.133887  1
  P  P20  1  0.854181  0.086693  0.698270  1
  P  P21  1  0.345626  0.412711  0.633887  1
  P  P22  1  0.587289  0.932915  0.633887  1
  P  P23  1  0.913307  0.767488  0.698270  1
  P  P24  1  0.232512  0.145819  0.698270  1
  P  P25  1  0.145819  0.232512  0.198270  1
  P  P26  1  0.067085  0.654374  0.633887  1
  P  P27  1  0.412711  0.345626  0.133887  1
  O  O28  1  0.798334  0.341411  0.943751  1
  O  O29  1  0.197329  0.687740  0.689069  1
  O  O30  1  0.368378  0.171982  0.699070  1
  O  O31  1  0.912393  0.835172  0.827261  1
  O  O32  1  0.063146  0.668710  0.478851  1
  O  O33  1  0.171982  0.368378  0.199070  1
  O  O34  1  0.828018  0.196396  0.699070  1
  O  O35  1  0.196396  0.828018  0.199070  1
  O  O36  1  0.394437  0.331290  0.978851  1
  O  O37  1  0.526111  0.966037  0.186083  1
  O  O38  1  0.936854  0.605563  0.978851  1
  O  O39  1  0.239680  0.281636  0.702879  1
  O  O40  1  0.041956  0.760320  0.702879  1
  O  O41  1  0.079355  0.170783  0.065033  1
  O  O42  1  0.473889  0.439926  0.686083  1
  O  O43  1  0.908571  0.829217  0.565033  1
  O  O44  1  0.331290  0.394437  0.478851  1
  O  O45  1  0.666667  0.333333  0.725411  1
  O  O46  1  0.333333  0.666667  0.225411  1
  O  O47  1  0.543077  0.201666  0.943751  1
  O  O48  1  0.164828  0.077221  0.827261  1
  O  O49  1  0.920645  0.091429  0.565033  1
  O  O50  1  0.439926  0.473889  0.186083  1
  O  O51  1  0.456923  0.658589  0.443751  1
  O  O52  1  0.802671  0.490411  0.189069  1
  O  O53  1  0.509589  0.312260  0.189069  1
  O  O54  1  0.966037  0.526111  0.686083  1
  O  O55  1  0.087607  0.922779  0.327261  1
  O  O56  1  0.281636  0.239680  0.202879  1
  O  O57  1  0.760320  0.041956  0.202879  1
  O  O58  1  0.687740  0.197329  0.189069  1
  O  O59  1  0.835172  0.912393  0.327261  1
  O  O60  1  0.605563  0.936854  0.478851  1
  O  O61  1  0.091429  0.920645  0.065033  1
  O  O62  1  0.718364  0.958044  0.702879  1
  O  O63  1  0.958044  0.718364  0.202879  1
  O  O64  1  0.077221  0.164828  0.327261  1
  O  O65  1  0.803604  0.631622  0.699070  1
  O  O66  1  0.560074  0.033963  0.686083  1
  O  O67  1  0.170783  0.079355  0.565033  1
  O  O68  1  0.658589  0.456923  0.943751  1
  O  O69  1  0.490411  0.802671  0.689069  1
  O  O70  1  0.341411  0.798334  0.443751  1
  O  O71  1  0.201666  0.543077  0.443751  1
  O  O72  1  0.829217  0.908571  0.065033  1
  O  O73  1  0.922779  0.087607  0.827261  1
  O  O74  1  0.312260  0.509589  0.689069  1
  O  O75  1  0.631622  0.803604  0.199070  1
  O  O76  1  0.033963  0.560074  0.186083  1
  O  O77  1  0.668710  0.063146  0.978851  1
