# generated using pymatgen
data_Nd10Sb6HC
_symmetry_space_group_name_H-M   'P 1'
_cell_length_a   9.29008300
_cell_length_b   9.29008162
_cell_length_c   6.55470600
_cell_angle_alpha   90.00000000
_cell_angle_beta   90.00000000
_cell_angle_gamma   120.00000847
_symmetry_Int_Tables_number   1
_chemical_formula_structural   Nd10Sb6HC
_chemical_formula_sum   'Nd10 Sb6 H1 C1'
_cell_volume   489.91748019
_cell_formula_units_Z   1
loop_
 _symmetry_equiv_pos_site_id
 _symmetry_equiv_pos_as_xyz
  1  'x, y, z'
loop_
 _atom_site_type_symbol
 _atom_site_label
 _atom_site_symmetry_multiplicity
 _atom_site_fract_x
 _atom_site_fract_y
 _atom_site_fract_z
 _atom_site_occupancy
  Nd  Nd0  1  0.666667  0.333333  0.500000  1
  Nd  Nd1  1  0.333333  0.666667  0.500000  1
  Nd  Nd2  1  0.333333  0.666667  0.000000  1
  Nd  Nd3  1  0.666667  0.333333  0.000000  1
  Nd  Nd4  1  0.768438  0.768438  0.231091  1
  Nd  Nd5  1  0.231562  0.000000  0.231091  1
  Nd  Nd6  1  0.000000  0.231562  0.231091  1
  Nd  Nd7  1  0.231562  0.231562  0.768909  1
  Nd  Nd8  1  0.768438  0.000000  0.768909  1
  Nd  Nd9  1  0.000000  0.768438  0.768909  1
  Sb  Sb10  1  0.395899  0.395899  0.250053  1
  Sb  Sb11  1  0.604101  0.000000  0.250053  1
  Sb  Sb12  1  0.000000  0.604101  0.250053  1
  Sb  Sb13  1  0.604101  0.604101  0.749947  1
  Sb  Sb14  1  0.395899  0.000000  0.749947  1
  Sb  Sb15  1  0.000000  0.395899  0.749947  1
  H  H16  1  0.000000  0.000000  0.500000  1
  C  C17  1  0.000000  0.000000  0.000000  1
