# generated using pymatgen
data_V(CoB2)2
_symmetry_space_group_name_H-M   'P 1'
_cell_length_a   6.50308608
_cell_length_b   6.50308671
_cell_length_c   6.50308637
_cell_angle_alpha   153.62961039
_cell_angle_beta   153.32834464
_cell_angle_gamma   37.85792248
_symmetry_Int_Tables_number   1
_chemical_formula_structural   V(CoB2)2
_chemical_formula_sum   'V1 Co2 B4'
_cell_volume   54.74778502
_cell_formula_units_Z   1
loop_
 _symmetry_equiv_pos_site_id
 _symmetry_equiv_pos_as_xyz
  1  'x, y, z'
loop_
 _atom_site_type_symbol
 _atom_site_label
 _atom_site_symmetry_multiplicity
 _atom_site_fract_x
 _atom_site_fract_y
 _atom_site_fract_z
 _atom_site_occupancy
  V  V0  1  0.000000  0.500000  0.500000  1
  Co  Co1  1  0.184716  0.184716  0.000000  1
  Co  Co2  1  0.815284  0.815284  0.000000  1
  B  B3  1  0.351228  0.351228  0.000000  1
  B  B4  1  0.648772  0.648772  0.000000  1
  B  B5  1  0.429097  0.929097  0.500000  1
  B  B6  1  0.570903  0.070903  0.500000  1
