# generated using pymatgen
data_Tb9Yb11Si15Pd
_symmetry_space_group_name_H-M   'P 1'
_cell_length_a   7.46867639
_cell_length_b   7.78532437
_cell_length_c   15.10882780
_cell_angle_alpha   89.74597585
_cell_angle_beta   90.64017944
_cell_angle_gamma   90.45587503
_symmetry_Int_Tables_number   1
_chemical_formula_structural   Tb9Yb11Si15Pd
_chemical_formula_sum   'Tb9 Yb11 Si15 Pd1'
_cell_volume   878.42799754
_cell_formula_units_Z   1
loop_
 _symmetry_equiv_pos_site_id
 _symmetry_equiv_pos_as_xyz
  1  'x, y, z'
loop_
 _atom_site_type_symbol
 _atom_site_label
 _atom_site_symmetry_multiplicity
 _atom_site_fract_x
 _atom_site_fract_y
 _atom_site_fract_z
 _atom_site_occupancy
  Tb  Tb0  1  0.313880  0.175481  0.121671  1
  Tb  Tb1  1  0.822289  0.325122  0.379410  1
  Tb  Tb2  1  0.183229  0.678215  0.879161  1
  Tb  Tb3  1  0.681348  0.819672  0.621088  1
  Tb  Tb4  1  0.318506  0.182635  0.379349  1
  Tb  Tb5  1  0.814489  0.321751  0.121829  1
  Tb  Tb6  1  0.183675  0.677022  0.619347  1
  Tb  Tb7  1  0.684681  0.822864  0.879212  1
  Tb  Tb8  1  0.973685  0.811654  0.402668  1
  Yb  Yb9  1  0.472423  0.681789  0.096380  1
  Yb  Yb10  1  0.520557  0.324786  0.595273  1
  Yb  Yb11  1  0.028596  0.184528  0.902881  1
  Yb  Yb12  1  0.026751  0.184057  0.593680  1
  Yb  Yb13  1  0.528987  0.316184  0.902938  1
  Yb  Yb14  1  0.473817  0.681479  0.403849  1
  Yb  Yb15  1  0.970688  0.816163  0.098095  1
  Yb  Yb16  1  0.353396  0.020019  0.749149  1
  Yb  Yb17  1  0.849581  0.480774  0.746861  1
  Yb  Yb18  1  0.151220  0.516967  0.249923  1
  Yb  Yb19  1  0.641985  0.982243  0.250106  1
  Si  Si20  1  0.359065  0.967150  0.962264  1
  Si  Si21  1  0.648355  0.026198  0.460268  1
  Si  Si22  1  0.139615  0.466470  0.039808  1
  Si  Si23  1  0.151475  0.473565  0.458181  1
  Si  Si24  1  0.639527  0.031666  0.039984  1
  Si  Si25  1  0.358752  0.967822  0.535572  1
  Si  Si26  1  0.858458  0.531752  0.962369  1
  Si  Si27  1  0.976461  0.886075  0.749337  1
  Si  Si28  1  0.473014  0.616723  0.753411  1
  Si  Si29  1  0.527922  0.387060  0.248859  1
  Si  Si30  1  0.020762  0.110785  0.253407  1
  Si  Si31  1  0.246052  0.393980  0.750602  1
  Si  Si32  1  0.748708  0.106028  0.749526  1
  Si  Si33  1  0.245923  0.891475  0.253935  1
  Si  Si34  1  0.756208  0.610425  0.252566  1
  Pd  Pd35  1  0.855922  0.529418  0.537041  1
