# generated using pymatgen
data_Zr10In2SiSb4
_symmetry_space_group_name_H-M   'P 1'
_cell_length_a   5.86097264
_cell_length_b   8.61349523
_cell_length_c   8.61110300
_cell_angle_alpha   120.00921279
_cell_angle_beta   89.94556826
_cell_angle_gamma   90.10883517
_symmetry_Int_Tables_number   1
_chemical_formula_structural   Zr10In2SiSb4
_chemical_formula_sum   'Zr10 In2 Si1 Sb4'
_cell_volume   376.44143408
_cell_formula_units_Z   1
loop_
 _symmetry_equiv_pos_site_id
 _symmetry_equiv_pos_as_xyz
  1  'x, y, z'
loop_
 _atom_site_type_symbol
 _atom_site_label
 _atom_site_symmetry_multiplicity
 _atom_site_fract_x
 _atom_site_fract_y
 _atom_site_fract_z
 _atom_site_occupancy
  Zr  Zr0  1  0.499849  0.333306  0.669054  1
  Zr  Zr1  1  0.499849  0.664254  0.330946  1
  Zr  Zr2  1  0.002038  0.665654  0.332027  1
  Zr  Zr3  1  0.002038  0.333627  0.667973  1
  Zr  Zr4  1  0.756528  0.255104  0.000000  1
  Zr  Zr5  1  0.761478  0.748781  0.748073  1
  Zr  Zr6  1  0.761478  0.000708  0.251927  1
  Zr  Zr7  1  0.240446  0.742066  0.000000  1
  Zr  Zr8  1  0.242140  0.255902  0.255674  1
  Zr  Zr9  1  0.242140  0.000230  0.744326  1
  In  In10  1  0.253459  0.610733  0.610799  1
  In  In11  1  0.253459  0.999935  0.389201  1
  Si  Si12  1  0.495868  0.998599  0.000000  1
  Sb  Sb13  1  0.745333  0.611327  0.000000  1
  Sb  Sb14  1  0.746803  0.392929  0.394645  1
  Sb  Sb15  1  0.746803  0.998283  0.605355  1
  Sb  Sb16  1  0.250291  0.388556  0.000000  1
