# generated using pymatgen
data_TiV8W3
_symmetry_space_group_name_H-M   'P 1'
_cell_length_a   8.58356208
_cell_length_b   8.58356238
_cell_length_c   8.58356122
_cell_angle_alpha   33.65937985
_cell_angle_beta   33.65937676
_cell_angle_gamma   33.65937648
_symmetry_Int_Tables_number   1
_chemical_formula_structural   TiV8W3
_chemical_formula_sum   'Ti1 V8 W3'
_cell_volume   173.07602693
_cell_formula_units_Z   1
loop_
 _symmetry_equiv_pos_site_id
 _symmetry_equiv_pos_as_xyz
  1  'x, y, z'
loop_
 _atom_site_type_symbol
 _atom_site_label
 _atom_site_symmetry_multiplicity
 _atom_site_fract_x
 _atom_site_fract_y
 _atom_site_fract_z
 _atom_site_occupancy
  Ti  Ti0  1  0.124827  0.124827  0.124827  1
  V  V1  1  0.562340  0.062068  0.562340  1
  V  V2  1  0.062647  0.563058  0.062647  1
  V  V3  1  0.062068  0.562340  0.562340  1
  V  V4  1  0.563058  0.062647  0.062647  1
  V  V5  1  0.812556  0.812556  0.812556  1
  V  V6  1  0.312502  0.312502  0.312502  1
  V  V7  1  0.562340  0.562340  0.062068  1
  V  V8  1  0.062647  0.062647  0.563058  1
  W  W9  1  0.625020  0.625020  0.625020  1
  W  W10  1  0.999687  0.999687  0.999687  1
  W  W11  1  0.500307  0.500307  0.500307  1
