# generated using pymatgen
data_Ac3Cr10N11
_symmetry_space_group_name_H-M   'P 1'
_cell_length_a   9.09844345
_cell_length_b   9.09844350
_cell_length_c   9.09844300
_cell_angle_alpha   59.99999819
_cell_angle_beta   59.99999799
_cell_angle_gamma   60.00000096
_symmetry_Int_Tables_number   1
_chemical_formula_structural   Ac3Cr10N11
_chemical_formula_sum   'Ac6 Cr20 N22'
_cell_volume   532.58174214
_cell_formula_units_Z   2
loop_
 _symmetry_equiv_pos_site_id
 _symmetry_equiv_pos_as_xyz
  1  'x, y, z'
loop_
 _atom_site_type_symbol
 _atom_site_label
 _atom_site_symmetry_multiplicity
 _atom_site_fract_x
 _atom_site_fract_y
 _atom_site_fract_z
 _atom_site_occupancy
  Ac  Ac0  1  0.699319  0.300681  0.300681  1
  Ac  Ac1  1  0.300681  0.699319  0.699319  1
  Ac  Ac2  1  0.300681  0.699319  0.300681  1
  Ac  Ac3  1  0.699319  0.300681  0.699319  1
  Ac  Ac4  1  0.300681  0.300681  0.699319  1
  Ac  Ac5  1  0.699319  0.699319  0.300681  1
  Cr  Cr6  1  0.095824  0.095824  0.095824  1
  Cr  Cr7  1  0.904176  0.904176  0.904176  1
  Cr  Cr8  1  0.095824  0.095824  0.712529  1
  Cr  Cr9  1  0.095824  0.712529  0.095824  1
  Cr  Cr10  1  0.904176  0.904176  0.287471  1
  Cr  Cr11  1  0.904176  0.287471  0.904176  1
  Cr  Cr12  1  0.712529  0.095824  0.095824  1
  Cr  Cr13  1  0.287471  0.904176  0.904176  1
  Cr  Cr14  1  0.398879  0.101121  0.101121  1
  Cr  Cr15  1  0.601121  0.898879  0.898879  1
  Cr  Cr16  1  0.101121  0.398879  0.398879  1
  Cr  Cr17  1  0.101121  0.398879  0.101121  1
  Cr  Cr18  1  0.601121  0.898879  0.601121  1
  Cr  Cr19  1  0.898879  0.601121  0.601121  1
  Cr  Cr20  1  0.898879  0.601121  0.898879  1
  Cr  Cr21  1  0.398879  0.101121  0.398879  1
  Cr  Cr22  1  0.101121  0.101121  0.398879  1
  Cr  Cr23  1  0.898879  0.898879  0.601121  1
  Cr  Cr24  1  0.398879  0.398879  0.101121  1
  Cr  Cr25  1  0.601121  0.601121  0.898879  1
  N  N26  1  0.344333  0.000000  0.000000  1
  N  N27  1  0.655667  0.000000  0.000000  1
  N  N28  1  0.000000  0.344333  0.655667  1
  N  N29  1  0.000000  0.655667  0.344333  1
  N  N30  1  0.000000  0.344333  0.000000  1
  N  N31  1  0.655667  0.000000  0.344333  1
  N  N32  1  0.000000  0.655667  0.000000  1
  N  N33  1  0.344333  0.000000  0.655667  1
  N  N34  1  0.000000  0.000000  0.344333  1
  N  N35  1  0.000000  0.000000  0.655667  1
  N  N36  1  0.655667  0.344333  0.000000  1
  N  N37  1  0.344333  0.655667  0.000000  1
  N  N38  1  0.350911  0.350911  0.350911  1
  N  N39  1  0.649089  0.649089  0.649089  1
  N  N40  1  0.350911  0.350911  0.947266  1
  N  N41  1  0.350911  0.947266  0.350911  1
  N  N42  1  0.649089  0.649089  0.052734  1
  N  N43  1  0.649089  0.052734  0.649089  1
  N  N44  1  0.947266  0.350911  0.350911  1
  N  N45  1  0.052734  0.649089  0.649089  1
  N  N46  1  0.500000  0.500000  0.500000  1
  N  N47  1  0.000000  0.000000  0.000000  1
