# generated using pymatgen
data_Nd8Er2Ir5Ru
_symmetry_space_group_name_H-M   'P 1'
_cell_length_a   11.17330200
_cell_length_b   11.17330200
_cell_length_c   6.53434400
_cell_angle_alpha   90.00000000
_cell_angle_beta   90.00000000
_cell_angle_gamma   90.00000000
_symmetry_Int_Tables_number   1
_chemical_formula_structural   Nd8Er2Ir5Ru
_chemical_formula_sum   'Nd16 Er4 Ir10 Ru2'
_cell_volume   815.76500121
_cell_formula_units_Z   2
loop_
 _symmetry_equiv_pos_site_id
 _symmetry_equiv_pos_as_xyz
  1  'x, y, z'
loop_
 _atom_site_type_symbol
 _atom_site_label
 _atom_site_symmetry_multiplicity
 _atom_site_fract_x
 _atom_site_fract_y
 _atom_site_fract_z
 _atom_site_occupancy
  Nd  Nd0  1  0.291642  0.086383  0.380507  1
  Nd  Nd1  1  0.291642  0.913617  0.880507  1
  Nd  Nd2  1  0.708358  0.086383  0.880507  1
  Nd  Nd3  1  0.708358  0.913617  0.380507  1
  Nd  Nd4  1  0.586383  0.791642  0.880507  1
  Nd  Nd5  1  0.586383  0.208358  0.380507  1
  Nd  Nd6  1  0.413617  0.791642  0.380507  1
  Nd  Nd7  1  0.413617  0.208358  0.880507  1
  Nd  Nd8  1  0.211200  0.412542  0.620362  1
  Nd  Nd9  1  0.211200  0.587458  0.120362  1
  Nd  Nd10  1  0.788800  0.412542  0.120362  1
  Nd  Nd11  1  0.788800  0.587458  0.620362  1
  Nd  Nd12  1  0.912542  0.711200  0.120362  1
  Nd  Nd13  1  0.912542  0.288800  0.620362  1
  Nd  Nd14  1  0.087458  0.711200  0.620362  1
  Nd  Nd15  1  0.087458  0.288800  0.120362  1
  Er  Er16  1  0.000000  0.000000  0.499188  1
  Er  Er17  1  0.000000  0.000000  0.999188  1
  Er  Er18  1  0.500000  0.500000  0.999188  1
  Er  Er19  1  0.500000  0.500000  0.499188  1
  Ir  Ir20  1  0.852799  0.148586  0.249692  1
  Ir  Ir21  1  0.852799  0.851414  0.749692  1
  Ir  Ir22  1  0.147201  0.148586  0.749692  1
  Ir  Ir23  1  0.147201  0.851414  0.249692  1
  Ir  Ir24  1  0.648586  0.352799  0.749692  1
  Ir  Ir25  1  0.648586  0.647201  0.249692  1
  Ir  Ir26  1  0.351414  0.352799  0.249692  1
  Ir  Ir27  1  0.351414  0.647201  0.749692  1
  Ir  Ir28  1  0.000000  0.500000  0.881248  1
  Ir  Ir29  1  0.000000  0.500000  0.381248  1
  Ru  Ru30  1  0.500000  0.000000  0.118127  1
  Ru  Ru31  1  0.500000  0.000000  0.618127  1
