# generated using pymatgen
data_TaMn4(NbP)4
_symmetry_space_group_name_H-M   'P 1'
_cell_length_a   7.23988574
_cell_length_b   7.23988670
_cell_length_c   7.23988627
_cell_angle_alpha   93.52658121
_cell_angle_beta   93.52657492
_cell_angle_gamma   151.27982988
_symmetry_Int_Tables_number   1
_chemical_formula_structural   TaMn4(NbP)4
_chemical_formula_sum   'Ta1 Mn4 Nb4 P4'
_cell_volume   176.65755731
_cell_formula_units_Z   1
loop_
 _symmetry_equiv_pos_site_id
 _symmetry_equiv_pos_as_xyz
  1  'x, y, z'
loop_
 _atom_site_type_symbol
 _atom_site_label
 _atom_site_symmetry_multiplicity
 _atom_site_fract_x
 _atom_site_fract_y
 _atom_site_fract_z
 _atom_site_occupancy
  Ta  Ta0  1  0.500000  0.500000  0.000000  1
  Mn  Mn1  1  0.926591  0.400241  0.326832  1
  Mn  Mn2  1  0.073409  0.599759  0.673168  1
  Mn  Mn3  1  0.599759  0.926591  0.526349  1
  Mn  Mn4  1  0.400241  0.073409  0.473651  1
  Nb  Nb5  1  0.801448  0.129155  0.930602  1
  Nb  Nb6  1  0.129155  0.198552  0.327706  1
  Nb  Nb7  1  0.870845  0.801448  0.672294  1
  Nb  Nb8  1  0.198552  0.870845  0.069398  1
  P  P9  1  0.556756  0.240448  0.797203  1
  P  P10  1  0.240448  0.443244  0.683691  1
  P  P11  1  0.759552  0.556756  0.316309  1
  P  P12  1  0.443244  0.759552  0.202797  1
