# generated using pymatgen
data_Ta6MnFeS12
_symmetry_space_group_name_H-M   'P 1'
_cell_length_a   5.77145400
_cell_length_b   5.77145382
_cell_length_c   12.14980200
_cell_angle_alpha   90.00000000
_cell_angle_beta   90.00000000
_cell_angle_gamma   120.00001247
_symmetry_Int_Tables_number   1
_chemical_formula_structural   Ta6MnFeS12
_chemical_formula_sum   'Ta6 Mn1 Fe1 S12'
_cell_volume   350.48565017
_cell_formula_units_Z   1
loop_
 _symmetry_equiv_pos_site_id
 _symmetry_equiv_pos_as_xyz
  1  'x, y, z'
loop_
 _atom_site_type_symbol
 _atom_site_label
 _atom_site_symmetry_multiplicity
 _atom_site_fract_x
 _atom_site_fract_y
 _atom_site_fract_z
 _atom_site_occupancy
  Ta  Ta0  1  0.000000  0.000000  0.012716  1
  Ta  Ta1  1  0.000000  0.000000  0.487284  1
  Ta  Ta2  1  0.333333  0.666667  0.492318  1
  Ta  Ta3  1  0.666667  0.333333  0.013234  1
  Ta  Ta4  1  0.666667  0.333333  0.486766  1
  Ta  Ta5  1  0.333333  0.666667  0.007682  1
  Mn  Mn6  1  0.666667  0.333333  0.750000  1
  Fe  Fe7  1  0.333333  0.666667  0.250000  1
  S  S8  1  0.333137  0.995471  0.139653  1
  S  S9  1  0.004529  0.337664  0.139653  1
  S  S10  1  0.669679  0.999551  0.619387  1
  S  S11  1  0.000449  0.330321  0.880613  1
  S  S12  1  0.662336  0.666863  0.139653  1
  S  S13  1  0.000449  0.670128  0.619387  1
  S  S14  1  0.329872  0.999551  0.880613  1
  S  S15  1  0.004529  0.666863  0.360347  1
  S  S16  1  0.329872  0.330321  0.619387  1
  S  S17  1  0.662336  0.995471  0.360347  1
  S  S18  1  0.669679  0.670128  0.880613  1
  S  S19  1  0.333137  0.337664  0.360347  1
