# generated using pymatgen
data_DyAg(WO4)2
_symmetry_space_group_name_H-M   'P 1'
_cell_length_a   7.42546306
_cell_length_b   7.42546360
_cell_length_c   7.30743639
_cell_angle_alpha   65.71830619
_cell_angle_beta   65.71830684
_cell_angle_gamma   94.54377776
_symmetry_Int_Tables_number   1
_chemical_formula_structural   DyAg(WO4)2
_chemical_formula_sum   'Dy2 Ag2 W4 O16'
_cell_volume   319.47837897
_cell_formula_units_Z   2
loop_
 _symmetry_equiv_pos_site_id
 _symmetry_equiv_pos_as_xyz
  1  'x, y, z'
loop_
 _atom_site_type_symbol
 _atom_site_label
 _atom_site_symmetry_multiplicity
 _atom_site_fract_x
 _atom_site_fract_y
 _atom_site_fract_z
 _atom_site_occupancy
  Dy  Dy0  1  0.699800  0.300200  0.000000  1
  Dy  Dy1  1  0.300200  0.699800  0.000000  1
  Ag  Ag2  1  0.685535  0.685535  0.477293  1
  Ag  Ag3  1  0.314465  0.314465  0.522707  1
  W  W4  1  0.162536  0.837464  0.500000  1
  W  W5  1  0.837464  0.162536  0.500000  1
  W  W6  1  0.785829  0.785829  0.973129  1
  W  W7  1  0.214171  0.214171  0.026871  1
  O  O8  1  0.896328  0.646036  0.760014  1
  O  O9  1  0.646036  0.896328  0.760014  1
  O  O10  1  0.103672  0.353964  0.239986  1
  O  O11  1  0.353964  0.103672  0.239986  1
  O  O12  1  0.784551  0.310843  0.650375  1
  O  O13  1  0.310843  0.784551  0.650375  1
  O  O14  1  0.215449  0.689157  0.349625  1
  O  O15  1  0.689157  0.215449  0.349625  1
  O  O16  1  0.447614  0.447614  0.858427  1
  O  O17  1  0.552386  0.552386  0.141573  1
  O  O18  1  0.043558  0.301940  0.909043  1
  O  O19  1  0.301940  0.043558  0.909043  1
  O  O20  1  0.956442  0.698060  0.090957  1
  O  O21  1  0.698060  0.956442  0.090957  1
  O  O22  1  0.020247  0.020247  0.660616  1
  O  O23  1  0.979753  0.979753  0.339384  1
