# generated using pymatgen
data_Mg4Zn5Ni2Ir
_symmetry_space_group_name_H-M   'P 1'
_cell_length_a   5.12803300
_cell_length_b   5.12345612
_cell_length_c   8.17501900
_cell_angle_alpha   90.00000000
_cell_angle_beta   90.00000000
_cell_angle_gamma   120.02953580
_symmetry_Int_Tables_number   1
_chemical_formula_structural   Mg4Zn5Ni2Ir
_chemical_formula_sum   'Mg4 Zn5 Ni2 Ir1'
_cell_volume   185.95330508
_cell_formula_units_Z   1
loop_
 _symmetry_equiv_pos_site_id
 _symmetry_equiv_pos_as_xyz
  1  'x, y, z'
loop_
 _atom_site_type_symbol
 _atom_site_label
 _atom_site_symmetry_multiplicity
 _atom_site_fract_x
 _atom_site_fract_y
 _atom_site_fract_z
 _atom_site_occupancy
  Mg  Mg0  1  0.327536  0.655074  0.072480  1
  Mg  Mg1  1  0.663594  0.327186  0.559716  1
  Mg  Mg2  1  0.663594  0.327186  0.940284  1
  Mg  Mg3  1  0.327536  0.655074  0.427520  1
  Zn  Zn4  1  0.014954  0.029907  0.013395  1
  Zn  Zn5  1  0.014954  0.029907  0.486605  1
  Zn  Zn6  1  0.663385  0.829466  0.750000  1
  Zn  Zn7  1  0.166081  0.829466  0.750000  1
  Zn  Zn8  1  0.826902  0.653804  0.250000  1
  Ni  Ni9  1  0.812574  0.160201  0.250000  1
  Ni  Ni10  1  0.347627  0.160201  0.250000  1
  Ir  Ir11  1  0.171264  0.342529  0.750000  1
