# generated using pymatgen
data_Th2Al20Re3Tc
_symmetry_space_group_name_H-M   'P 1'
_cell_length_a   6.94030450
_cell_length_b   6.94328673
_cell_length_c   9.25192196
_cell_angle_alpha   90.12717222
_cell_angle_beta   90.05695252
_cell_angle_gamma   96.95885183
_symmetry_Int_Tables_number   1
_chemical_formula_structural   Th2Al20Re3Tc
_chemical_formula_sum   'Th2 Al20 Re3 Tc1'
_cell_volume   442.55072613
_cell_formula_units_Z   1
loop_
 _symmetry_equiv_pos_site_id
 _symmetry_equiv_pos_as_xyz
  1  'x, y, z'
loop_
 _atom_site_type_symbol
 _atom_site_label
 _atom_site_symmetry_multiplicity
 _atom_site_fract_x
 _atom_site_fract_y
 _atom_site_fract_z
 _atom_site_occupancy
  Th  Th0  1  0.870543  0.127019  0.750565  1
  Th  Th1  1  0.129457  0.872981  0.249435  1
  Al  Al2  1  0.519918  0.781309  0.749622  1
  Al  Al3  1  0.480082  0.218691  0.250378  1
  Al  Al4  1  0.595818  0.861847  0.250045  1
  Al  Al5  1  0.773812  0.773492  0.999442  1
  Al  Al6  1  0.158807  0.840448  0.600300  1
  Al  Al7  1  0.226188  0.226508  0.000558  1
  Al  Al8  1  0.138037  0.405975  0.250738  1
  Al  Al9  1  0.621541  0.378572  0.955250  1
  Al  Al10  1  0.841393  0.158934  0.100698  1
  Al  Al11  1  0.378259  0.621322  0.454515  1
  Al  Al12  1  0.158607  0.841066  0.899302  1
  Al  Al13  1  0.218941  0.479534  0.749944  1
  Al  Al14  1  0.378459  0.621428  0.044750  1
  Al  Al15  1  0.841193  0.159552  0.399700  1
  Al  Al16  1  0.621741  0.378678  0.545485  1
  Al  Al17  1  0.404182  0.138153  0.749955  1
  Al  Al18  1  0.781059  0.520466  0.250056  1
  Al  Al19  1  0.773547  0.772188  0.499592  1
  Al  Al20  1  0.226453  0.227812  0.500408  1
  Al  Al21  1  0.861963  0.594025  0.749262  1
  Re  Re22  1  0.000000  0.500000  0.000000  1
  Re  Re23  1  0.500000  0.000000  0.000000  1
  Re  Re24  1  0.500000  0.000000  0.500000  1
  Tc  Tc25  1  0.000000  0.500000  0.500000  1
