# generated using pymatgen
data_Gd2Bi2O7
_symmetry_space_group_name_H-M   'P 1'
_cell_length_a   6.66938268
_cell_length_b   6.72832220
_cell_length_c   7.84952775
_cell_angle_alpha   106.71663606
_cell_angle_beta   89.51297927
_cell_angle_gamma   98.29046917
_symmetry_Int_Tables_number   1
_chemical_formula_structural   Gd2Bi2O7
_chemical_formula_sum   'Gd4 Bi4 O14'
_cell_volume   333.62434961
_cell_formula_units_Z   2
loop_
 _symmetry_equiv_pos_site_id
 _symmetry_equiv_pos_as_xyz
  1  'x, y, z'
loop_
 _atom_site_type_symbol
 _atom_site_label
 _atom_site_symmetry_multiplicity
 _atom_site_fract_x
 _atom_site_fract_y
 _atom_site_fract_z
 _atom_site_occupancy
  Gd  Gd0  1  0.461222  0.002971  0.250998  1
  Gd  Gd1  1  0.538778  0.997029  0.749002  1
  Gd  Gd2  1  0.260122  0.534518  0.885714  1
  Gd  Gd3  1  0.739878  0.465482  0.114286  1
  Bi  Bi4  1  0.000000  0.000000  0.500000  1
  Bi  Bi5  1  0.000000  0.000000  0.000000  1
  Bi  Bi6  1  0.726248  0.467579  0.613451  1
  Bi  Bi7  1  0.273752  0.532421  0.386549  1
  O  O8  1  0.445423  0.647084  0.166185  1
  O  O9  1  0.554577  0.352916  0.833815  1
  O  O10  1  0.300255  0.922753  0.949022  1
  O  O11  1  0.699745  0.077247  0.050978  1
  O  O12  1  0.297806  0.915980  0.510150  1
  O  O13  1  0.702194  0.084020  0.489850  1
  O  O14  1  0.543507  0.361912  0.344284  1
  O  O15  1  0.456493  0.638088  0.655716  1
  O  O16  1  0.931800  0.672423  0.964941  1
  O  O17  1  0.068200  0.327577  0.035059  1
  O  O18  1  0.094262  0.323783  0.627946  1
  O  O19  1  0.905738  0.676217  0.372054  1
  O  O20  1  0.878896  0.919226  0.730807  1
  O  O21  1  0.121104  0.080774  0.269193  1
