# generated using pymatgen
data_TbHoU(SnRu)3
_symmetry_space_group_name_H-M   'P 1'
_cell_length_a   7.83184927
_cell_length_b   7.42147436
_cell_length_c   3.84827900
_cell_angle_alpha   90.00000000
_cell_angle_beta   90.00000000
_cell_angle_gamma   121.81655845
_symmetry_Int_Tables_number   1
_chemical_formula_structural   TbHoU(SnRu)3
_chemical_formula_sum   'Tb1 Ho1 U1 Sn3 Ru3'
_cell_volume   190.06725946
_cell_formula_units_Z   1
loop_
 _symmetry_equiv_pos_site_id
 _symmetry_equiv_pos_as_xyz
  1  'x, y, z'
loop_
 _atom_site_type_symbol
 _atom_site_label
 _atom_site_symmetry_multiplicity
 _atom_site_fract_x
 _atom_site_fract_y
 _atom_site_fract_z
 _atom_site_occupancy
  Tb  Tb0  1  0.002958  0.405916  0.500000  1
  Ho  Ho1  1  0.597586  0.594570  0.500000  1
  U  U2  1  0.414815  0.000084  0.500000  1
  Sn  Sn3  1  0.984938  0.724837  0.000000  1
  Sn  Sn4  1  0.261120  0.275955  0.000000  1
  Sn  Sn5  1  0.759021  0.999062  0.000000  1
  Ru  Ru6  1  0.342855  0.720481  0.000000  1
  Ru  Ru7  1  0.621734  0.280024  0.000000  1
  Ru  Ru8  1  0.014972  0.999070  0.500000  1
