# generated using pymatgen
data_V2H2F11
_symmetry_space_group_name_H-M   'P 1'
_cell_length_a   5.69509858
_cell_length_b   5.94675214
_cell_length_c   7.46809548
_cell_angle_alpha   94.95622817
_cell_angle_beta   93.53043274
_cell_angle_gamma   114.86447623
_symmetry_Int_Tables_number   1
_chemical_formula_structural   V2H2F11
_chemical_formula_sum   'V2 H2 F11'
_cell_volume   227.27661776
_cell_formula_units_Z   1
loop_
 _symmetry_equiv_pos_site_id
 _symmetry_equiv_pos_as_xyz
  1  'x, y, z'
loop_
 _atom_site_type_symbol
 _atom_site_label
 _atom_site_symmetry_multiplicity
 _atom_site_fract_x
 _atom_site_fract_y
 _atom_site_fract_z
 _atom_site_occupancy
  V  V0  1  0.272876  0.318189  0.780618  1
  V  V1  1  0.018304  0.932184  0.320303  1
  H  H2  1  0.765815  0.315646  0.767893  1
  H  H3  1  0.393068  0.303019  0.140289  1
  F  F4  1  0.431887  0.431639  0.044026  1
  F  F5  1  0.189573  0.818522  0.464494  1
  F  F6  1  0.407219  0.640240  0.761263  1
  F  F7  1  0.201219  0.015616  0.839548  1
  F  F8  1  0.106201  0.204103  0.538019  1
  F  F9  1  0.969444  0.715802  0.133485  1
  F  F10  1  0.354432  0.151896  0.257921  1
  F  F11  1  0.601618  0.323884  0.692671  1
  F  F12  1  0.718751  0.770093  0.403794  1
  F  F13  1  0.905787  0.127042  0.210935  1
  F  F14  1  0.953175  0.309945  0.853508  1
