# generated using pymatgen
data_Nd3Dy2Mg(P2Ru3)6
_symmetry_space_group_name_H-M   'P 1'
_cell_length_a   12.69501277
_cell_length_b   12.52351539
_cell_length_c   3.99884300
_cell_angle_alpha   90.00000000
_cell_angle_beta   90.00000000
_cell_angle_gamma   119.51323047
_symmetry_Int_Tables_number   1
_chemical_formula_structural   Nd3Dy2Mg(P2Ru3)6
_chemical_formula_sum   'Nd3 Dy2 Mg1 P12 Ru18'
_cell_volume   553.26573128
_cell_formula_units_Z   1
loop_
 _symmetry_equiv_pos_site_id
 _symmetry_equiv_pos_as_xyz
  1  'x, y, z'
loop_
 _atom_site_type_symbol
 _atom_site_label
 _atom_site_symmetry_multiplicity
 _atom_site_fract_x
 _atom_site_fract_y
 _atom_site_fract_z
 _atom_site_occupancy
  Nd  Nd0  1  0.816101  0.816122  0.500000  1
  Nd  Nd1  1  0.183929  0.000039  0.500000  1
  Nd  Nd2  1  0.340549  0.669287  0.000000  1
  Dy  Dy3  1  0.001046  0.181305  0.500000  1
  Dy  Dy4  1  0.659015  0.327750  0.000000  1
  Mg  Mg5  1  0.999589  0.560717  0.000000  1
  P  P6  1  0.997846  0.807669  0.000000  1
  P  P7  1  0.183423  0.185445  0.000000  1
  P  P8  1  0.817383  0.004045  0.000000  1
  P  P9  1  0.692324  0.173882  0.500000  1
  P  P10  1  0.815914  0.516249  0.500000  1
  P  P11  1  0.474064  0.305332  0.500000  1
  P  P12  1  0.180683  0.701119  0.500000  1
  P  P13  1  0.528823  0.834877  0.500000  1
  P  P14  1  0.309111  0.479092  0.500000  1
  P  P15  1  0.000621  0.360376  0.000000  1
  P  P16  1  0.622674  0.624033  0.000000  1
  P  P17  1  0.376517  0.000643  0.000000  1
  Ru  Ru18  1  0.442894  0.444960  0.000000  1
  Ru  Ru19  1  0.556887  0.002077  0.000000  1
  Ru  Ru20  1  0.998186  0.711782  0.500000  1
  Ru  Ru21  1  0.282346  0.284345  0.500000  1
  Ru  Ru22  1  0.719613  0.005146  0.500000  1
  Ru  Ru23  1  0.806040  0.186780  0.000000  1
  Ru  Ru24  1  0.811018  0.615549  0.000000  1
  Ru  Ru25  1  0.375652  0.191892  0.000000  1
  Ru  Ru26  1  0.185706  0.805008  0.000000  1
  Ru  Ru27  1  0.626751  0.818801  0.000000  1
  Ru  Ru28  1  0.193992  0.378326  0.000000  1
  Ru  Ru29  1  0.874853  0.366307  0.500000  1
  Ru  Ru30  1  0.628684  0.506561  0.500000  1
  Ru  Ru31  1  0.493656  0.129136  0.500000  1
  Ru  Ru32  1  0.370074  0.880395  0.500000  1
  Ru  Ru33  1  0.510558  0.636667  0.500000  1
  Ru  Ru34  1  0.123535  0.489136  0.500000  1
  Ru  Ru35  1  0.999940  0.999150  0.000000  1
