# generated using pymatgen
data_NdTmNpO6
_symmetry_space_group_name_H-M   'P 1'
_cell_length_a   5.64801000
_cell_length_b   7.93663198
_cell_length_c   11.84411700
_cell_angle_alpha   74.70642368
_cell_angle_beta   90.00000000
_cell_angle_gamma   90.00000000
_symmetry_Int_Tables_number   1
_chemical_formula_structural   NdTmNpO6
_chemical_formula_sum   'Nd4 Tm4 Np4 O24'
_cell_volume   512.12478091
_cell_formula_units_Z   4
loop_
 _symmetry_equiv_pos_site_id
 _symmetry_equiv_pos_as_xyz
  1  'x, y, z'
loop_
 _atom_site_type_symbol
 _atom_site_label
 _atom_site_symmetry_multiplicity
 _atom_site_fract_x
 _atom_site_fract_y
 _atom_site_fract_z
 _atom_site_occupancy
  Nd  Nd0  1  0.694817  0.500000  0.250000  1
  Nd  Nd1  1  0.305183  0.500000  0.750000  1
  Nd  Nd2  1  0.749250  0.000000  0.250000  1
  Nd  Nd3  1  0.250750  0.000000  0.750000  1
  Tm  Tm4  1  0.185085  0.209196  0.418353  1
  Tm  Tm5  1  0.185085  0.790804  0.081647  1
  Tm  Tm6  1  0.814915  0.790804  0.581647  1
  Tm  Tm7  1  0.814915  0.209196  0.918353  1
  Np  Np8  1  0.256556  0.276519  0.111995  1
  Np  Np9  1  0.256556  0.723481  0.388005  1
  Np  Np10  1  0.743444  0.723481  0.888005  1
  Np  Np11  1  0.743444  0.276519  0.611995  1
  O  O12  1  0.442162  0.202396  0.273666  1
  O  O13  1  0.442162  0.797604  0.226334  1
  O  O14  1  0.557838  0.797604  0.726334  1
  O  O15  1  0.557838  0.202396  0.773666  1
  O  O16  1  0.059421  0.053995  0.099776  1
  O  O17  1  0.059421  0.946005  0.400224  1
  O  O18  1  0.940579  0.946005  0.900224  1
  O  O19  1  0.940579  0.053995  0.599776  1
  O  O20  1  0.972985  0.282411  0.233576  1
  O  O21  1  0.972985  0.717589  0.266424  1
  O  O22  1  0.027015  0.717589  0.766424  1
  O  O23  1  0.027015  0.282411  0.733576  1
  O  O24  1  0.879691  0.367341  0.446849  1
  O  O25  1  0.879691  0.632659  0.053151  1
  O  O26  1  0.120309  0.632659  0.553151  1
  O  O27  1  0.120309  0.367341  0.946849  1
  O  O28  1  0.626287  0.516765  0.614156  1
  O  O29  1  0.626287  0.483235  0.885844  1
  O  O30  1  0.373713  0.483235  0.385844  1
  O  O31  1  0.373713  0.516765  0.114156  1
  O  O32  1  0.440514  0.161508  0.562848  1
  O  O33  1  0.440514  0.838492  0.937152  1
  O  O34  1  0.559486  0.838492  0.437152  1
  O  O35  1  0.559486  0.161508  0.062848  1
