# generated using pymatgen
data_Na16HfZrSb8
_symmetry_space_group_name_H-M   'P 1'
_cell_length_a   10.51309582
_cell_length_b   10.51309704
_cell_length_c   10.51309600
_cell_angle_alpha   60.00000327
_cell_angle_beta   59.99999943
_cell_angle_gamma   59.99999982
_symmetry_Int_Tables_number   1
_chemical_formula_structural   Na16HfZrSb8
_chemical_formula_sum   'Na16 Hf1 Zr1 Sb8'
_cell_volume   821.63122643
_cell_formula_units_Z   1
loop_
 _symmetry_equiv_pos_site_id
 _symmetry_equiv_pos_as_xyz
  1  'x, y, z'
loop_
 _atom_site_type_symbol
 _atom_site_label
 _atom_site_symmetry_multiplicity
 _atom_site_fract_x
 _atom_site_fract_y
 _atom_site_fract_z
 _atom_site_occupancy
  Na  Na0  1  0.625575  0.123275  0.625575  1
  Na  Na1  1  0.625575  0.625575  0.123275  1
  Na  Na2  1  0.123275  0.625575  0.625575  1
  Na  Na3  1  0.625575  0.625575  0.625575  1
  Na  Na4  1  0.024471  0.024471  0.475529  1
  Na  Na5  1  0.771091  0.228909  0.228909  1
  Na  Na6  1  0.228909  0.771091  0.771091  1
  Na  Na7  1  0.771091  0.771091  0.228909  1
  Na  Na8  1  0.771091  0.228909  0.771091  1
  Na  Na9  1  0.228909  0.771091  0.228909  1
  Na  Na10  1  0.475529  0.024471  0.475529  1
  Na  Na11  1  0.475529  0.024471  0.024471  1
  Na  Na12  1  0.024471  0.475529  0.475529  1
  Na  Na13  1  0.024471  0.475529  0.024471  1
  Na  Na14  1  0.228909  0.228909  0.771091  1
  Na  Na15  1  0.475529  0.475529  0.024471  1
  Hf  Hf16  1  0.500000  0.500000  0.500000  1
  Zr  Zr17  1  0.750000  0.750000  0.750000  1
  Sb  Sb18  1  0.420136  0.859955  0.859955  1
  Sb  Sb19  1  0.859955  0.859955  0.859955  1
  Sb  Sb20  1  0.827772  0.390743  0.390743  1
  Sb  Sb21  1  0.390743  0.390743  0.390743  1
  Sb  Sb22  1  0.390743  0.390743  0.827772  1
  Sb  Sb23  1  0.859955  0.420136  0.859955  1
  Sb  Sb24  1  0.859955  0.859955  0.420136  1
  Sb  Sb25  1  0.390743  0.827772  0.390743  1
