# generated using pymatgen
data_LaTb3(CCl)2
_symmetry_space_group_name_H-M   'P 1'
_cell_length_a   3.69354200
_cell_length_b   3.69357648
_cell_length_c   13.99859900
_cell_angle_alpha   90.00122547
_cell_angle_beta   90.00003102
_cell_angle_gamma   120.00015694
_symmetry_Int_Tables_number   1
_chemical_formula_structural   LaTb3(CCl)2
_chemical_formula_sum   'La1 Tb3 C2 Cl2'
_cell_volume   165.38825129
_cell_formula_units_Z   1
loop_
 _symmetry_equiv_pos_site_id
 _symmetry_equiv_pos_as_xyz
  1  'x, y, z'
loop_
 _atom_site_type_symbol
 _atom_site_label
 _atom_site_symmetry_multiplicity
 _atom_site_fract_x
 _atom_site_fract_y
 _atom_site_fract_z
 _atom_site_occupancy
  La  La0  1  0.333396  0.666549  0.094852  1
  Tb  Tb1  1  0.666637  0.333468  0.594981  1
  Tb  Tb2  1  0.666698  0.333185  0.899549  1
  Tb  Tb3  1  0.333299  0.666790  0.410366  1
  C  C4  1  0.000030  0.999907  0.985277  1
  C  C5  1  0.999961  0.000065  0.503283  1
  Cl  Cl6  1  0.333322  0.666676  0.745436  1
  Cl  Cl7  1  0.666657  0.333361  0.266257  1
