# generated using pymatgen
data_LaCe4Nd5Si6
_symmetry_space_group_name_H-M   'P 1'
_cell_length_a   7.75853838
_cell_length_b   7.76062085
_cell_length_c   8.75887399
_cell_angle_alpha   63.84945615
_cell_angle_beta   64.25368265
_cell_angle_gamma   90.26029262
_symmetry_Int_Tables_number   1
_chemical_formula_structural   LaCe4Nd5Si6
_chemical_formula_sum   'La1 Ce4 Nd5 Si6'
_cell_volume   413.68460038
_cell_formula_units_Z   1
loop_
 _symmetry_equiv_pos_site_id
 _symmetry_equiv_pos_as_xyz
  1  'x, y, z'
loop_
 _atom_site_type_symbol
 _atom_site_label
 _atom_site_symmetry_multiplicity
 _atom_site_fract_x
 _atom_site_fract_y
 _atom_site_fract_z
 _atom_site_occupancy
  La  La0  1  0.490029  0.481792  0.025877  1
  Ce  Ce1  1  0.979533  0.988485  0.028304  1
  Ce  Ce2  1  0.682734  0.538651  0.285224  1
  Ce  Ce3  1  0.032856  0.175433  0.286021  1
  Ce  Ce4  1  0.541225  0.033669  0.285011  1
  Nd  Nd5  1  0.177543  0.682096  0.292025  1
  Nd  Nd6  1  0.325765  0.465497  0.705189  1
  Nd  Nd7  1  0.968339  0.830654  0.705359  1
  Nd  Nd8  1  0.466079  0.970550  0.702810  1
  Nd  Nd9  1  0.824312  0.320871  0.708626  1
  Si  Si10  1  0.616223  0.888274  0.996109  1
  Si  Si11  1  0.385302  0.113368  0.995671  1
  Si  Si12  1  0.891387  0.388769  0.995446  1
  Si  Si13  1  0.115016  0.618596  0.996708  1
  Si  Si14  1  0.251927  0.250957  0.496802  1
  Si  Si15  1  0.751731  0.752338  0.494816  1
