# generated using pymatgen
data_Nd2Dy10ZnCo4Hg
_symmetry_space_group_name_H-M   'P 1'
_cell_length_a   8.32947746
_cell_length_b   8.32947808
_cell_length_c   8.39867700
_cell_angle_alpha   106.75333224
_cell_angle_beta   109.54673964
_cell_angle_gamma   111.83889447
_symmetry_Int_Tables_number   1
_chemical_formula_structural   Nd2Dy10ZnCo4Hg
_chemical_formula_sum   'Nd2 Dy10 Zn1 Co4 Hg1'
_cell_volume   449.41194668
_cell_formula_units_Z   1
loop_
 _symmetry_equiv_pos_site_id
 _symmetry_equiv_pos_as_xyz
  1  'x, y, z'
loop_
 _atom_site_type_symbol
 _atom_site_label
 _atom_site_symmetry_multiplicity
 _atom_site_fract_x
 _atom_site_fract_y
 _atom_site_fract_z
 _atom_site_occupancy
  Nd  Nd0  1  0.304010  0.265100  0.569108  1
  Nd  Nd1  1  0.695990  0.734900  0.430892  1
  Dy  Dy2  1  0.300579  0.737099  0.037679  1
  Dy  Dy3  1  0.699421  0.262901  0.962321  1
  Dy  Dy4  1  0.182711  0.512873  0.323610  1
  Dy  Dy5  1  0.189263  0.859101  0.676390  1
  Dy  Dy6  1  0.817289  0.487127  0.676390  1
  Dy  Dy7  1  0.810737  0.140899  0.323610  1
  Dy  Dy8  1  0.397827  0.217950  0.175946  1
  Dy  Dy9  1  0.042003  0.221881  0.824054  1
  Dy  Dy10  1  0.957997  0.778119  0.175946  1
  Dy  Dy11  1  0.602173  0.782050  0.824054  1
  Zn  Zn12  1  0.500000  0.500000  0.000000  1
  Co  Co13  1  0.163166  0.500563  0.663729  1
  Co  Co14  1  0.836834  0.499437  0.336271  1
  Co  Co15  1  0.986176  0.113095  0.099271  1
  Co  Co16  1  0.013824  0.886905  0.900729  1
  Hg  Hg17  1  0.500000  0.000000  0.500000  1
