# generated using pymatgen
data_Cs14TaV(In3As5)2
_symmetry_space_group_name_H-M   'P 1'
_cell_length_a   8.99944575
_cell_length_b   9.83346615
_cell_length_c   15.08167668
_cell_angle_alpha   85.33539418
_cell_angle_beta   84.68352133
_cell_angle_gamma   85.07263774
_symmetry_Int_Tables_number   1
_chemical_formula_structural   Cs14TaV(In3As5)2
_chemical_formula_sum   'Cs14 Ta1 V1 In6 As10'
_cell_volume   1320.38577771
_cell_formula_units_Z   1
loop_
 _symmetry_equiv_pos_site_id
 _symmetry_equiv_pos_as_xyz
  1  'x, y, z'
loop_
 _atom_site_type_symbol
 _atom_site_label
 _atom_site_symmetry_multiplicity
 _atom_site_fract_x
 _atom_site_fract_y
 _atom_site_fract_z
 _atom_site_occupancy
  Cs  Cs0  1  0.835024  0.367248  0.644099  1
  Cs  Cs1  1  0.814809  0.813169  0.131267  1
  Cs  Cs2  1  0.241194  0.008318  0.468449  1
  Cs  Cs3  1  0.271507  0.256570  0.252100  1
  Cs  Cs4  1  0.742794  0.500721  0.976740  1
  Cs  Cs5  1  0.257585  0.497612  0.026322  1
  Cs  Cs6  1  0.686222  0.079564  0.888449  1
  Cs  Cs7  1  0.758341  0.992621  0.530117  1
  Cs  Cs8  1  0.729664  0.747024  0.747628  1
  Cs  Cs9  1  0.324965  0.339545  0.600999  1
  Cs  Cs10  1  0.165549  0.631709  0.355239  1
  Cs  Cs11  1  0.184256  0.186386  0.869619  1
  Cs  Cs12  1  0.316140  0.917348  0.114876  1
  Cs  Cs13  1  0.677088  0.657464  0.396410  1
  Ta  Ta14  1  0.354393  0.605573  0.773159  1
  V  V15  1  0.646431  0.393105  0.227179  1
  In  In16  1  0.060144  0.812764  0.867295  1
  In  In17  1  0.936323  0.190169  0.134908  1
  In  In18  1  0.361512  0.948193  0.703769  1
  In  In19  1  0.097208  0.722935  0.625106  1
  In  In20  1  0.900339  0.277696  0.372012  1
  In  In21  1  0.639058  0.056566  0.294511  1
  As  As22  1  0.904669  0.450204  0.211598  1
  As  As23  1  0.623223  0.211202  0.127938  1
  As  As24  1  0.085540  0.549190  0.788657  1
  As  As25  1  0.585279  0.303348  0.381637  1
  As  As26  1  0.415553  0.700148  0.613011  1
  As  As27  1  0.036354  0.992146  0.701794  1
  As  As28  1  0.514963  0.400813  0.809170  1
  As  As29  1  0.493911  0.587545  0.192825  1
  As  As30  1  0.376270  0.796062  0.875065  1
  As  As31  1  0.963699  0.007045  0.298051  1
