# generated using pymatgen
data_ErLu2In3PdRhPb
_symmetry_space_group_name_H-M   'P 1'
_cell_length_a   7.80839800
_cell_length_b   7.81837387
_cell_length_c   3.84439600
_cell_angle_alpha   90.00000000
_cell_angle_beta   90.00000000
_cell_angle_gamma   119.91266830
_symmetry_Int_Tables_number   1
_chemical_formula_structural   ErLu2In3PdRhPb
_chemical_formula_sum   'Er1 Lu2 In3 Pd1 Rh1 Pb1'
_cell_volume   203.43170367
_cell_formula_units_Z   1
loop_
 _symmetry_equiv_pos_site_id
 _symmetry_equiv_pos_as_xyz
  1  'x, y, z'
loop_
 _atom_site_type_symbol
 _atom_site_label
 _atom_site_symmetry_multiplicity
 _atom_site_fract_x
 _atom_site_fract_y
 _atom_site_fract_z
 _atom_site_occupancy
  Er  Er0  1  0.577930  0.965189  0.500000  1
  Lu  Lu1  1  0.037273  0.614102  0.500000  1
  Lu  Lu2  1  0.385235  0.422897  0.500000  1
  In  In3  1  0.247809  0.986710  0.000000  1
  In  In4  1  0.739519  0.751228  0.000000  1
  In  In5  1  0.013198  0.261253  0.000000  1
  Pd  Pd6  1  0.000715  0.999955  0.500000  1
  Rh  Rh7  1  0.331243  0.664012  0.000000  1
  Pb  Pb8  1  0.667080  0.334653  0.000000  1
