# generated using pymatgen
data_Ho16Al4PdRh3
_symmetry_space_group_name_H-M   'P 1'
_cell_length_a   9.51759470
_cell_length_b   9.50822059
_cell_length_c   9.51759500
_cell_angle_alpha   59.96738393
_cell_angle_beta   60.00000245
_cell_angle_gamma   59.96738311
_symmetry_Int_Tables_number   1
_chemical_formula_structural   Ho16Al4PdRh3
_chemical_formula_sum   'Ho16 Al4 Pd1 Rh3'
_cell_volume   608.72957745
_cell_formula_units_Z   1
loop_
 _symmetry_equiv_pos_site_id
 _symmetry_equiv_pos_as_xyz
  1  'x, y, z'
loop_
 _atom_site_type_symbol
 _atom_site_label
 _atom_site_symmetry_multiplicity
 _atom_site_fract_x
 _atom_site_fract_y
 _atom_site_fract_z
 _atom_site_occupancy
  Ho  Ho0  1  0.186553  0.185752  0.813847  1
  Ho  Ho1  1  0.605386  0.600601  0.188628  1
  Ho  Ho2  1  0.442208  0.062045  0.442208  1
  Ho  Ho3  1  0.441883  0.441376  0.058370  1
  Ho  Ho4  1  0.813847  0.185752  0.813847  1
  Ho  Ho5  1  0.186058  0.812520  0.186058  1
  Ho  Ho6  1  0.442208  0.062045  0.053539  1
  Ho  Ho7  1  0.186058  0.812520  0.815364  1
  Ho  Ho8  1  0.058370  0.441376  0.058370  1
  Ho  Ho9  1  0.815364  0.812520  0.186058  1
  Ho  Ho10  1  0.188628  0.600601  0.605386  1
  Ho  Ho11  1  0.058370  0.441376  0.441883  1
  Ho  Ho12  1  0.053539  0.062045  0.442208  1
  Ho  Ho13  1  0.813847  0.185752  0.186553  1
  Ho  Ho14  1  0.602498  0.192507  0.602498  1
  Ho  Ho15  1  0.605386  0.600601  0.605386  1
  Al  Al16  1  0.828066  0.828191  0.828066  1
  Al  Al17  1  0.828066  0.828191  0.515677  1
  Al  Al18  1  0.515677  0.828191  0.828066  1
  Al  Al19  1  0.828303  0.515092  0.828303  1
  Pd  Pd20  1  0.393493  0.819520  0.393493  1
  Rh  Rh21  1  0.393023  0.393809  0.393023  1
  Rh  Rh22  1  0.820146  0.393809  0.393023  1
  Rh  Rh23  1  0.393023  0.393809  0.820146  1
