# generated using pymatgen
data_Sm8Sn(PdPt5)4
_symmetry_space_group_name_H-M   'P 1'
_cell_length_a   8.50046900
_cell_length_b   8.50994400
_cell_length_c   8.50994400
_cell_angle_alpha   90.00000000
_cell_angle_beta   90.00000000
_cell_angle_gamma   90.00000000
_symmetry_Int_Tables_number   1
_chemical_formula_structural   Sm8Sn(PdPt5)4
_chemical_formula_sum   'Sm8 Sn1 Pd4 Pt20'
_cell_volume   615.59671309
_cell_formula_units_Z   1
loop_
 _symmetry_equiv_pos_site_id
 _symmetry_equiv_pos_as_xyz
  1  'x, y, z'
loop_
 _atom_site_type_symbol
 _atom_site_label
 _atom_site_symmetry_multiplicity
 _atom_site_fract_x
 _atom_site_fract_y
 _atom_site_fract_z
 _atom_site_occupancy
  Sm  Sm0  1  0.250953  0.251172  0.251172  1
  Sm  Sm1  1  0.749047  0.748828  0.748828  1
  Sm  Sm2  1  0.749047  0.748828  0.251172  1
  Sm  Sm3  1  0.749047  0.251172  0.748828  1
  Sm  Sm4  1  0.250953  0.251172  0.748828  1
  Sm  Sm5  1  0.250953  0.748828  0.251172  1
  Sm  Sm6  1  0.250953  0.748828  0.748828  1
  Sm  Sm7  1  0.749047  0.251172  0.251172  1
  Sn  Sn8  1  0.000000  0.000000  0.000000  1
  Pd  Pd9  1  0.500000  0.256045  0.500000  1
  Pd  Pd10  1  0.500000  0.743955  0.500000  1
  Pd  Pd11  1  0.500000  0.500000  0.256045  1
  Pd  Pd12  1  0.500000  0.500000  0.743955  1
  Pt  Pt13  1  0.268156  0.500000  0.000000  1
  Pt  Pt14  1  0.731844  0.500000  0.000000  1
  Pt  Pt15  1  0.000000  0.267503  0.500000  1
  Pt  Pt16  1  0.500000  0.267701  0.000000  1
  Pt  Pt17  1  0.000000  0.732497  0.500000  1
  Pt  Pt18  1  0.500000  0.732299  0.000000  1
  Pt  Pt19  1  0.500000  0.000000  0.267701  1
  Pt  Pt20  1  0.268156  0.000000  0.500000  1
  Pt  Pt21  1  0.500000  0.000000  0.732299  1
  Pt  Pt22  1  0.731844  0.000000  0.500000  1
  Pt  Pt23  1  0.000000  0.500000  0.267503  1
  Pt  Pt24  1  0.000000  0.500000  0.732497  1
  Pt  Pt25  1  0.255807  0.500000  0.500000  1
  Pt  Pt26  1  0.744193  0.500000  0.500000  1
  Pt  Pt27  1  0.315516  0.000000  0.000000  1
  Pt  Pt28  1  0.684484  0.000000  0.000000  1
  Pt  Pt29  1  0.000000  0.314851  0.000000  1
  Pt  Pt30  1  0.000000  0.685149  0.000000  1
  Pt  Pt31  1  0.000000  0.000000  0.314851  1
  Pt  Pt32  1  0.000000  0.000000  0.685149  1
