# generated using pymatgen
data_Dy19Tm(GaBi2)4
_symmetry_space_group_name_H-M   'P 1'
_cell_length_a   8.08012703
_cell_length_b   9.30107209
_cell_length_c   12.11606310
_cell_angle_alpha   90.01391595
_cell_angle_beta   90.00573570
_cell_angle_gamma   89.99171277
_symmetry_Int_Tables_number   1
_chemical_formula_structural   Dy19Tm(GaBi2)4
_chemical_formula_sum   'Dy19 Tm1 Ga4 Bi8'
_cell_volume   910.56867596
_cell_formula_units_Z   1
loop_
 _symmetry_equiv_pos_site_id
 _symmetry_equiv_pos_as_xyz
  1  'x, y, z'
loop_
 _atom_site_type_symbol
 _atom_site_label
 _atom_site_symmetry_multiplicity
 _atom_site_fract_x
 _atom_site_fract_y
 _atom_site_fract_z
 _atom_site_occupancy
  Dy  Dy0  1  0.832799  0.750109  0.784619  1
  Dy  Dy1  1  0.167137  0.249961  0.215289  1
  Dy  Dy2  1  0.332964  0.249870  0.715253  1
  Dy  Dy3  1  0.667209  0.749978  0.284685  1
  Dy  Dy4  1  0.359796  0.749988  0.707000  1
  Dy  Dy5  1  0.640374  0.249884  0.293183  1
  Dy  Dy6  1  0.859719  0.249866  0.792806  1
  Dy  Dy7  1  0.140146  0.749983  0.206992  1
  Dy  Dy8  1  0.959332  0.750147  0.497756  1
  Dy  Dy9  1  0.040284  0.249936  0.502322  1
  Dy  Dy10  1  0.459675  0.249988  0.002270  1
  Dy  Dy11  1  0.540429  0.749945  0.997667  1
  Dy  Dy12  1  0.318929  0.946866  0.436631  1
  Dy  Dy13  1  0.181067  0.946853  0.936608  1
  Dy  Dy14  1  0.318967  0.553232  0.436582  1
  Dy  Dy15  1  0.818932  0.053208  0.063424  1
  Dy  Dy16  1  0.681091  0.446581  0.563335  1
  Dy  Dy17  1  0.818923  0.446833  0.063452  1
  Dy  Dy18  1  0.181133  0.553139  0.936566  1
  Tm  Tm19  1  0.680725  0.053430  0.563387  1
  Ga  Ga20  1  0.591183  0.750672  0.525545  1
  Ga  Ga21  1  0.409227  0.249635  0.474756  1
  Ga  Ga22  1  0.090968  0.250032  0.974644  1
  Ga  Ga23  1  0.908983  0.749970  0.025397  1
  Bi  Bi24  1  0.567206  0.490306  0.825972  1
  Bi  Bi25  1  0.432785  0.509601  0.173985  1
  Bi  Bi26  1  0.067243  0.509577  0.673990  1
  Bi  Bi27  1  0.432759  0.990365  0.174008  1
  Bi  Bi28  1  0.932751  0.490317  0.326035  1
  Bi  Bi29  1  0.567358  0.009667  0.825855  1
  Bi  Bi30  1  0.932860  0.009686  0.326091  1
  Bi  Bi31  1  0.067046  0.990371  0.673895  1
