# generated using pymatgen
data_Zr2TaV(SeO3)8
_symmetry_space_group_name_H-M   'P 1'
_cell_length_a   8.47969412
_cell_length_b   8.64404224
_cell_length_c   8.55388902
_cell_angle_alpha   89.94874277
_cell_angle_beta   89.79693685
_cell_angle_gamma   90.37544259
_symmetry_Int_Tables_number   1
_chemical_formula_structural   Zr2TaV(SeO3)8
_chemical_formula_sum   'Zr2 Ta1 V1 Se8 O24'
_cell_volume   626.97243053
_cell_formula_units_Z   1
loop_
 _symmetry_equiv_pos_site_id
 _symmetry_equiv_pos_as_xyz
  1  'x, y, z'
loop_
 _atom_site_type_symbol
 _atom_site_label
 _atom_site_symmetry_multiplicity
 _atom_site_fract_x
 _atom_site_fract_y
 _atom_site_fract_z
 _atom_site_occupancy
  Zr  Zr0  1  0.000000  0.000000  0.500000  1
  Zr  Zr1  1  0.500000  0.000000  0.000000  1
  Ta  Ta2  1  0.000000  0.500000  0.000000  1
  V  V3  1  0.500000  0.500000  0.500000  1
  Se  Se4  1  0.324256  0.673176  0.207088  1
  Se  Se5  1  0.796487  0.329200  0.318853  1
  Se  Se6  1  0.672675  0.798791  0.668173  1
  Se  Se7  1  0.183376  0.189908  0.819057  1
  Se  Se8  1  0.675744  0.326824  0.792912  1
  Se  Se9  1  0.203513  0.670800  0.681147  1
  Se  Se10  1  0.327325  0.201209  0.331827  1
  Se  Se11  1  0.816624  0.810092  0.180943  1
  O  O12  1  0.213593  0.559413  0.074743  1
  O  O13  1  0.735732  0.459179  0.455726  1
  O  O14  1  0.767574  0.939862  0.557413  1
  O  O15  1  0.264571  0.045648  0.929487  1
  O  O16  1  0.547729  0.914383  0.776187  1
  O  O17  1  0.457108  0.538218  0.266370  1
  O  O18  1  0.936204  0.446376  0.217489  1
  O  O19  1  0.033201  0.091524  0.729085  1
  O  O20  1  0.926737  0.220209  0.424724  1
  O  O21  1  0.542400  0.728594  0.531576  1
  O  O22  1  0.435440  0.775144  0.072879  1
  O  O23  1  0.074718  0.282822  0.966469  1
  O  O24  1  0.786407  0.440587  0.925257  1
  O  O25  1  0.264268  0.540821  0.544274  1
  O  O26  1  0.232426  0.060138  0.442587  1
  O  O27  1  0.735429  0.954352  0.070513  1
  O  O28  1  0.452271  0.085617  0.223813  1
  O  O29  1  0.542892  0.461782  0.733630  1
  O  O30  1  0.063796  0.553624  0.782511  1
  O  O31  1  0.966799  0.908476  0.270915  1
  O  O32  1  0.073263  0.779791  0.575276  1
  O  O33  1  0.457600  0.271406  0.468424  1
  O  O34  1  0.564560  0.224856  0.927121  1
  O  O35  1  0.925282  0.717178  0.033531  1
