# generated using pymatgen
data_Sm4B20PtRh
_symmetry_space_group_name_H-M   'P 1'
_cell_length_a   4.20077100
_cell_length_b   5.72293928
_cell_length_c   11.42674244
_cell_angle_alpha   90.19465796
_cell_angle_beta   90.00000000
_cell_angle_gamma   90.00000000
_symmetry_Int_Tables_number   1
_chemical_formula_structural   Sm4B20PtRh
_chemical_formula_sum   'Sm4 B20 Pt1 Rh1'
_cell_volume   274.70595706
_cell_formula_units_Z   1
loop_
 _symmetry_equiv_pos_site_id
 _symmetry_equiv_pos_as_xyz
  1  'x, y, z'
loop_
 _atom_site_type_symbol
 _atom_site_label
 _atom_site_symmetry_multiplicity
 _atom_site_fract_x
 _atom_site_fract_y
 _atom_site_fract_z
 _atom_site_occupancy
  Sm  Sm0  1  0.500000  0.200954  0.365854  1
  Sm  Sm1  1  0.500000  0.799046  0.634146  1
  Sm  Sm2  1  0.500000  0.306060  0.859208  1
  Sm  Sm3  1  0.500000  0.693940  0.140792  1
  B  B4  1  0.000000  0.384010  0.044010  1
  B  B5  1  0.000000  0.615990  0.955990  1
  B  B6  1  0.000000  0.118389  0.543227  1
  B  B7  1  0.000000  0.881611  0.456773  1
  B  B8  1  0.000000  0.363038  0.197688  1
  B  B9  1  0.000000  0.636962  0.802312  1
  B  B10  1  0.000000  0.138045  0.697174  1
  B  B11  1  0.000000  0.861955  0.302826  1
  B  B12  1  0.000000  0.056186  0.194387  1
  B  B13  1  0.000000  0.943814  0.805613  1
  B  B14  1  0.000000  0.444564  0.692221  1
  B  B15  1  0.000000  0.555436  0.307779  1
  B  B16  1  0.301931  0.219828  0.120723  1
  B  B17  1  0.698069  0.780172  0.879277  1
  B  B18  1  0.301931  0.780172  0.879277  1
  B  B19  1  0.699090  0.281643  0.618165  1
  B  B20  1  0.698069  0.219828  0.120723  1
  B  B21  1  0.300910  0.718357  0.381835  1
  B  B22  1  0.699090  0.718357  0.381835  1
  B  B23  1  0.300910  0.281643  0.618165  1
  Pt  Pt24  1  0.000000  0.000000  0.000000  1
  Rh  Rh25  1  0.000000  0.500000  0.500000  1
