# generated using pymatgen
data_TbTh2(RhPb)3
_symmetry_space_group_name_H-M   'P 1'
_cell_length_a   7.83830744
_cell_length_b   7.83830736
_cell_length_c   3.97450200
_cell_angle_alpha   90.00000000
_cell_angle_beta   90.00000000
_cell_angle_gamma   120.52850899
_symmetry_Int_Tables_number   1
_chemical_formula_structural   TbTh2(RhPb)3
_chemical_formula_sum   'Tb1 Th2 Rh3 Pb3'
_cell_volume   210.33925411
_cell_formula_units_Z   1
loop_
 _symmetry_equiv_pos_site_id
 _symmetry_equiv_pos_as_xyz
  1  'x, y, z'
loop_
 _atom_site_type_symbol
 _atom_site_label
 _atom_site_symmetry_multiplicity
 _atom_site_fract_x
 _atom_site_fract_y
 _atom_site_fract_z
 _atom_site_occupancy
  Tb  Tb0  1  0.403226  0.403226  0.500000  1
  Th  Th1  1  0.591081  0.999138  0.500000  1
  Th  Th2  1  0.999138  0.591081  0.500000  1
  Rh  Rh3  1  0.992281  0.992281  0.500000  1
  Rh  Rh4  1  0.681819  0.332055  0.000000  1
  Rh  Rh5  1  0.332055  0.681819  0.000000  1
  Pb  Pb6  1  0.730548  0.730548  0.000000  1
  Pb  Pb7  1  0.259581  0.010271  0.000000  1
  Pb  Pb8  1  0.010271  0.259581  0.000000  1
