# generated using pymatgen
data_DyHo11TcRu3
_symmetry_space_group_name_H-M   'P 1'
_cell_length_a   6.27224524
_cell_length_b   7.32577509
_cell_length_c   9.10782100
_cell_angle_alpha   90.00000000
_cell_angle_beta   90.00000000
_cell_angle_gamma   90.00676069
_symmetry_Int_Tables_number   1
_chemical_formula_structural   DyHo11TcRu3
_chemical_formula_sum   'Dy1 Ho11 Tc1 Ru3'
_cell_volume   418.49579185
_cell_formula_units_Z   1
loop_
 _symmetry_equiv_pos_site_id
 _symmetry_equiv_pos_as_xyz
  1  'x, y, z'
loop_
 _atom_site_type_symbol
 _atom_site_label
 _atom_site_symmetry_multiplicity
 _atom_site_fract_x
 _atom_site_fract_y
 _atom_site_fract_z
 _atom_site_occupancy
  Dy  Dy0  1  0.134247  0.457798  0.750000  1
  Ho  Ho1  1  0.333014  0.676297  0.064580  1
  Ho  Ho2  1  0.167614  0.175843  0.435817  1
  Ho  Ho3  1  0.667823  0.323614  0.563981  1
  Ho  Ho4  1  0.834283  0.824768  0.937126  1
  Ho  Ho5  1  0.667823  0.323614  0.936019  1
  Ho  Ho6  1  0.834283  0.824768  0.562874  1
  Ho  Ho7  1  0.333014  0.676297  0.435420  1
  Ho  Ho8  1  0.167614  0.175843  0.064183  1
  Ho  Ho9  1  0.867712  0.539963  0.250000  1
  Ho  Ho10  1  0.628246  0.041688  0.250000  1
  Ho  Ho11  1  0.366082  0.958182  0.750000  1
  Tc  Tc12  1  0.037145  0.884710  0.250000  1
  Ru  Ru13  1  0.461722  0.383944  0.250000  1
  Ru  Ru14  1  0.960493  0.117044  0.750000  1
  Ru  Ru15  1  0.538885  0.615628  0.750000  1
