# generated using pymatgen
data_NdHo5(Co3P2)6
_symmetry_space_group_name_H-M   'P 1'
_cell_length_a   3.69879500
_cell_length_b   10.51640900
_cell_length_c   12.18543400
_cell_angle_alpha   90.00000000
_cell_angle_beta   90.00000000
_cell_angle_gamma   90.00000000
_symmetry_Int_Tables_number   1
_chemical_formula_structural   NdHo5(Co3P2)6
_chemical_formula_sum   'Nd1 Ho5 Co18 P12'
_cell_volume   473.98951167
_cell_formula_units_Z   1
loop_
 _symmetry_equiv_pos_site_id
 _symmetry_equiv_pos_as_xyz
  1  'x, y, z'
loop_
 _atom_site_type_symbol
 _atom_site_label
 _atom_site_symmetry_multiplicity
 _atom_site_fract_x
 _atom_site_fract_y
 _atom_site_fract_z
 _atom_site_occupancy
  Nd  Nd0  1  0.000000  0.500000  0.522887  1
  Ho  Ho1  1  0.500000  0.000000  0.477856  1
  Ho  Ho2  1  0.500000  0.817729  0.205771  1
  Ho  Ho3  1  0.500000  0.182271  0.205771  1
  Ho  Ho4  1  0.000000  0.683223  0.794885  1
  Ho  Ho5  1  0.000000  0.316777  0.794885  1
  Co  Co6  1  0.000000  0.500000  0.986421  1
  Co  Co7  1  0.500000  0.000000  0.014144  1
  Co  Co8  1  0.500000  0.294606  0.429749  1
  Co  Co9  1  0.500000  0.705394  0.429749  1
  Co  Co10  1  0.000000  0.200463  0.569823  1
  Co  Co11  1  0.000000  0.799537  0.569823  1
  Co  Co12  1  0.500000  0.880094  0.710476  1
  Co  Co13  1  0.500000  0.119906  0.710476  1
  Co  Co14  1  0.000000  0.621366  0.288856  1
  Co  Co15  1  0.000000  0.378634  0.288856  1
  Co  Co16  1  0.500000  0.333013  0.994752  1
  Co  Co17  1  0.500000  0.666987  0.994752  1
  Co  Co18  1  0.000000  0.166457  0.005197  1
  Co  Co19  1  0.000000  0.833543  0.005197  1
  Co  Co20  1  0.500000  0.500000  0.157288  1
  Co  Co21  1  0.000000  0.000000  0.841020  1
  Co  Co22  1  0.500000  0.500000  0.706061  1
  Co  Co23  1  0.000000  0.000000  0.296331  1
  P  P24  1  0.500000  0.307099  0.617455  1
  P  P25  1  0.500000  0.692901  0.617455  1
  P  P26  1  0.000000  0.188707  0.383709  1
  P  P27  1  0.000000  0.811293  0.383709  1
  P  P28  1  0.500000  0.500000  0.883498  1
  P  P29  1  0.000000  0.000000  0.117533  1
  P  P30  1  0.500000  0.847656  0.893215  1
  P  P31  1  0.500000  0.152344  0.893215  1
  P  P32  1  0.000000  0.653318  0.106460  1
  P  P33  1  0.000000  0.346682  0.106460  1
  P  P34  1  0.500000  0.500000  0.340440  1
  P  P35  1  0.000000  0.000000  0.655823  1
