# generated using pymatgen
data_Y3Ho3MnTe2
_symmetry_space_group_name_H-M   'P 1'
_cell_length_a   4.11929600
_cell_length_b   8.27455913
_cell_length_c   8.27110551
_cell_angle_alpha   120.01291818
_cell_angle_beta   90.00000000
_cell_angle_gamma   90.00000000
_symmetry_Int_Tables_number   1
_chemical_formula_structural   Y3Ho3MnTe2
_chemical_formula_sum   'Y3 Ho3 Mn1 Te2'
_cell_volume   244.12120707
_cell_formula_units_Z   1
loop_
 _symmetry_equiv_pos_site_id
 _symmetry_equiv_pos_as_xyz
  1  'x, y, z'
loop_
 _atom_site_type_symbol
 _atom_site_label
 _atom_site_symmetry_multiplicity
 _atom_site_fract_x
 _atom_site_fract_y
 _atom_site_fract_z
 _atom_site_occupancy
  Y  Y0  1  0.500000  0.605055  0.999999  1
  Y  Y1  1  0.500000  0.394837  0.394864  1
  Y  Y2  1  0.500000  0.999970  0.605139  1
  Ho  Ho3  1  0.000000  0.237304  0.000004  1
  Ho  Ho4  1  0.000000  0.763105  0.763292  1
  Ho  Ho5  1  0.000000  0.999816  0.236704  1
  Mn  Mn6  1  0.500000  0.999812  0.999998  1
  Te  Te7  1  0.000000  0.333252  0.666504  1
  Te  Te8  1  0.000000  0.666751  0.333496  1
