# generated using pymatgen
data_Ce2Al4Si2Ni
_symmetry_space_group_name_H-M   'P 1'
_cell_length_a   4.19442853
_cell_length_b   4.19414912
_cell_length_c   10.18281996
_cell_angle_alpha   101.88124165
_cell_angle_beta   101.88127419
_cell_angle_gamma   89.99950837
_symmetry_Int_Tables_number   1
_chemical_formula_structural   Ce2Al4Si2Ni
_chemical_formula_sum   'Ce2 Al4 Si2 Ni1'
_cell_volume   171.37539969
_cell_formula_units_Z   1
loop_
 _symmetry_equiv_pos_site_id
 _symmetry_equiv_pos_as_xyz
  1  'x, y, z'
loop_
 _atom_site_type_symbol
 _atom_site_label
 _atom_site_symmetry_multiplicity
 _atom_site_fract_x
 _atom_site_fract_y
 _atom_site_fract_z
 _atom_site_occupancy
  Ce  Ce0  1  0.185182  0.185174  0.370345  1
  Ce  Ce1  1  0.814822  0.814804  0.629677  1
  Al  Al2  1  0.567959  0.067951  0.135902  1
  Al  Al3  1  0.067947  0.567963  0.135903  1
  Al  Al4  1  0.932051  0.432050  0.864103  1
  Al  Al5  1  0.432047  0.932058  0.864104  1
  Si  Si6  1  0.658164  0.658165  0.316326  1
  Si  Si7  1  0.341816  0.341819  0.683675  1
  Ni  Ni8  1  0.000017  0.000020  0.999966  1
