# generated using pymatgen
data_Tm6Mn2Co15TcP12
_symmetry_space_group_name_H-M   'P 1'
_cell_length_a   3.69199800
_cell_length_b   10.52793400
_cell_length_c   12.09340400
_cell_angle_alpha   90.00000000
_cell_angle_beta   90.00000000
_cell_angle_gamma   90.00000000
_symmetry_Int_Tables_number   1
_chemical_formula_structural   Tm6Mn2Co15TcP12
_chemical_formula_sum   'Tm6 Mn2 Co15 Tc1 P12'
_cell_volume   470.05986573
_cell_formula_units_Z   1
loop_
 _symmetry_equiv_pos_site_id
 _symmetry_equiv_pos_as_xyz
  1  'x, y, z'
loop_
 _atom_site_type_symbol
 _atom_site_label
 _atom_site_symmetry_multiplicity
 _atom_site_fract_x
 _atom_site_fract_y
 _atom_site_fract_z
 _atom_site_occupancy
  Tm  Tm0  1  0.000000  0.500000  0.525588  1
  Tm  Tm1  1  0.500000  0.000000  0.475835  1
  Tm  Tm2  1  0.500000  0.817283  0.204610  1
  Tm  Tm3  1  0.500000  0.182717  0.204610  1
  Tm  Tm4  1  0.000000  0.680506  0.796531  1
  Tm  Tm5  1  0.000000  0.319494  0.796531  1
  Mn  Mn6  1  0.000000  0.000000  0.840096  1
  Mn  Mn7  1  0.000000  0.500000  0.987060  1
  Co  Co8  1  0.500000  0.500000  0.698847  1
  Co  Co9  1  0.000000  0.000000  0.298953  1
  Co  Co10  1  0.500000  0.000000  0.014731  1
  Co  Co11  1  0.500000  0.328514  0.990212  1
  Co  Co12  1  0.500000  0.671486  0.990212  1
  Co  Co13  1  0.000000  0.164812  0.006497  1
  Co  Co14  1  0.000000  0.835188  0.006497  1
  Co  Co15  1  0.500000  0.295960  0.431957  1
  Co  Co16  1  0.500000  0.704040  0.431957  1
  Co  Co17  1  0.000000  0.203260  0.569952  1
  Co  Co18  1  0.000000  0.796740  0.569952  1
  Co  Co19  1  0.500000  0.879290  0.708320  1
  Co  Co20  1  0.500000  0.120710  0.708320  1
  Co  Co21  1  0.000000  0.622226  0.293467  1
  Co  Co22  1  0.000000  0.377774  0.293467  1
  Tc  Tc23  1  0.500000  0.500000  0.156597  1
  P  P24  1  0.500000  0.500000  0.881368  1
  P  P25  1  0.000000  0.000000  0.119148  1
  P  P26  1  0.500000  0.500000  0.349178  1
  P  P27  1  0.000000  0.000000  0.653516  1
  P  P28  1  0.500000  0.311420  0.617614  1
  P  P29  1  0.500000  0.688580  0.617614  1
  P  P30  1  0.000000  0.187786  0.383419  1
  P  P31  1  0.000000  0.812214  0.383419  1
  P  P32  1  0.500000  0.848406  0.891709  1
  P  P33  1  0.500000  0.151594  0.891709  1
  P  P34  1  0.000000  0.654973  0.105253  1
  P  P35  1  0.000000  0.345027  0.105253  1
