# generated using pymatgen
data_CaSm6OsI12
_symmetry_space_group_name_H-M   'P 1'
_cell_length_a   9.96675098
_cell_length_b   9.96674978
_cell_length_c   9.96675028
_cell_angle_alpha   107.09389513
_cell_angle_beta   107.09388851
_cell_angle_gamma   107.09388850
_symmetry_Int_Tables_number   1
_chemical_formula_structural   CaSm6OsI12
_chemical_formula_sum   'Ca1 Sm6 Os1 I12'
_cell_volume   822.40902119
_cell_formula_units_Z   1
loop_
 _symmetry_equiv_pos_site_id
 _symmetry_equiv_pos_as_xyz
  1  'x, y, z'
loop_
 _atom_site_type_symbol
 _atom_site_label
 _atom_site_symmetry_multiplicity
 _atom_site_fract_x
 _atom_site_fract_y
 _atom_site_fract_z
 _atom_site_occupancy
  Ca  Ca0  1  0.500000  0.500000  0.500000  1
  Sm  Sm1  1  0.302518  0.095759  0.028072  1
  Sm  Sm2  1  0.028072  0.302518  0.095759  1
  Sm  Sm3  1  0.095759  0.028071  0.302518  1
  Sm  Sm4  1  0.904241  0.971929  0.697483  1
  Sm  Sm5  1  0.971928  0.697483  0.904242  1
  Sm  Sm6  1  0.697483  0.904241  0.971929  1
  Os  Os7  1  0.000000  0.000000  0.000000  1
  I  I8  1  0.684552  0.227840  0.073759  1
  I  I9  1  0.384187  0.457297  0.153639  1
  I  I10  1  0.073759  0.684551  0.227841  1
  I  I11  1  0.772160  0.926242  0.315448  1
  I  I12  1  0.457297  0.153639  0.384187  1
  I  I13  1  0.153639  0.384187  0.457297  1
  I  I14  1  0.846361  0.615814  0.542703  1
  I  I15  1  0.542703  0.846362  0.615813  1
  I  I16  1  0.227841  0.073759  0.684552  1
  I  I17  1  0.926241  0.315449  0.772160  1
  I  I18  1  0.615814  0.542703  0.846361  1
  I  I19  1  0.315449  0.772160  0.926241  1
