# generated using pymatgen
data_Li4YP12Ir19
_symmetry_space_group_name_H-M   'P 1'
_cell_length_a   12.59731066
_cell_length_b   12.59731034
_cell_length_c   3.92412600
_cell_angle_alpha   90.00000000
_cell_angle_beta   90.00000000
_cell_angle_gamma   120.05353422
_symmetry_Int_Tables_number   1
_chemical_formula_structural   Li4YP12Ir19
_chemical_formula_sum   'Li4 Y1 P12 Ir19'
_cell_volume   539.00738064
_cell_formula_units_Z   1
loop_
 _symmetry_equiv_pos_site_id
 _symmetry_equiv_pos_as_xyz
  1  'x, y, z'
loop_
 _atom_site_type_symbol
 _atom_site_label
 _atom_site_symmetry_multiplicity
 _atom_site_fract_x
 _atom_site_fract_y
 _atom_site_fract_z
 _atom_site_occupancy
  Li  Li0  1  0.334283  0.666608  0.000000  1
  Li  Li1  1  0.666608  0.334283  0.000000  1
  Li  Li2  1  0.822297  0.998869  0.500000  1
  Li  Li3  1  0.998869  0.822297  0.500000  1
  Y  Y4  1  0.176177  0.176177  0.500000  1
  P  P5  1  0.175230  0.992406  0.000000  1
  P  P6  1  0.992406  0.175230  0.000000  1
  P  P7  1  0.819711  0.819711  0.000000  1
  P  P8  1  0.176403  0.489281  0.500000  1
  P  P9  1  0.512538  0.689082  0.500000  1
  P  P10  1  0.313032  0.823938  0.500000  1
  P  P11  1  0.689082  0.512538  0.500000  1
  P  P12  1  0.823938  0.313032  0.500000  1
  P  P13  1  0.489281  0.176403  0.500000  1
  P  P14  1  0.641356  0.000241  0.000000  1
  P  P15  1  0.000241  0.641356  0.000000  1
  P  P16  1  0.360343  0.360343  0.000000  1
  Ir  Ir17  1  0.460240  0.004165  0.000000  1
  Ir  Ir18  1  0.004165  0.460240  0.000000  1
  Ir  Ir19  1  0.542016  0.542016  0.000000  1
  Ir  Ir20  1  0.359688  0.491866  0.500000  1
  Ir  Ir21  1  0.510275  0.870997  0.500000  1
  Ir  Ir22  1  0.132079  0.640647  0.500000  1
  Ir  Ir23  1  0.870997  0.510275  0.500000  1
  Ir  Ir24  1  0.640647  0.132079  0.500000  1
  Ir  Ir25  1  0.491866  0.359688  0.500000  1
  Ir  Ir26  1  0.179934  0.373249  0.000000  1
  Ir  Ir27  1  0.623526  0.806089  0.000000  1
  Ir  Ir28  1  0.195413  0.817051  0.000000  1
  Ir  Ir29  1  0.806089  0.623526  0.000000  1
  Ir  Ir30  1  0.817051  0.195413  0.000000  1
  Ir  Ir31  1  0.373249  0.179934  0.000000  1
  Ir  Ir32  1  0.291196  0.000608  0.500000  1
  Ir  Ir33  1  0.000608  0.291196  0.500000  1
  Ir  Ir34  1  0.709364  0.709364  0.500000  1
  Ir  Ir35  1  0.999802  0.999802  0.000000  1
