# generated using pymatgen
data_Zr5Sc3V12Si15P
_symmetry_space_group_name_H-M   'P 1'
_cell_length_a   6.63844913
_cell_length_b   6.62533410
_cell_length_c   12.29049831
_cell_angle_alpha   89.98842902
_cell_angle_beta   89.99501384
_cell_angle_gamma   90.02048364
_symmetry_Int_Tables_number   1
_chemical_formula_structural   Zr5Sc3V12Si15P
_chemical_formula_sum   'Zr5 Sc3 V12 Si15 P1'
_cell_volume   540.55995338
_cell_formula_units_Z   1
loop_
 _symmetry_equiv_pos_site_id
 _symmetry_equiv_pos_as_xyz
  1  'x, y, z'
loop_
 _atom_site_type_symbol
 _atom_site_label
 _atom_site_symmetry_multiplicity
 _atom_site_fract_x
 _atom_site_fract_y
 _atom_site_fract_z
 _atom_site_occupancy
  Zr  Zr0  1  0.005445  0.663529  0.030567  1
  Zr  Zr1  1  0.837386  0.502795  0.281002  1
  Zr  Zr2  1  0.161108  0.496080  0.780585  1
  Zr  Zr3  1  0.503057  0.837976  0.719208  1
  Zr  Zr4  1  0.494604  0.160238  0.217723  1
  Sc  Sc5  1  0.997854  0.337711  0.529591  1
  Sc  Sc6  1  0.658838  0.001499  0.971191  1
  Sc  Sc7  1  0.337824  0.998177  0.470442  1
  V  V8  1  0.330140  0.330306  0.000618  1
  V  V9  1  0.168756  0.834696  0.247827  1
  V  V10  1  0.832782  0.167296  0.749553  1
  V  V11  1  0.667250  0.666903  0.500017  1
  V  V12  1  0.009654  0.156513  0.125215  1
  V  V13  1  0.340903  0.505652  0.375542  1
  V  V14  1  0.660895  0.494776  0.875851  1
  V  V15  1  0.505728  0.341875  0.624496  1
  V  V16  1  0.491349  0.665180  0.123014  1
  V  V17  1  0.994131  0.841333  0.627384  1
  V  V18  1  0.161609  0.004161  0.876680  1
  V  V19  1  0.840697  0.993739  0.373127  1
  Si  Si20  1  0.538063  0.792644  0.315951  1
  Si  Si21  1  0.462296  0.207815  0.814991  1
  Si  Si22  1  0.793069  0.538576  0.684362  1
  Si  Si23  1  0.208930  0.460324  0.186440  1
  Si  Si24  1  0.708880  0.040318  0.563394  1
  Si  Si25  1  0.956515  0.288795  0.935516  1
  Si  Si26  1  0.040736  0.709029  0.436018  1
  Si  Si27  1  0.704024  0.374196  0.070600  1
  Si  Si28  1  0.126966  0.203854  0.321251  1
  Si  Si29  1  0.872405  0.797350  0.821587  1
  Si  Si30  1  0.203866  0.127501  0.679834  1
  Si  Si31  1  0.794700  0.874117  0.180171  1
  Si  Si32  1  0.295215  0.627264  0.569903  1
  Si  Si33  1  0.376118  0.701960  0.927407  1
  Si  Si34  1  0.626617  0.295302  0.429797  1
  P  P35  1  0.291587  0.960516  0.063145  1
