# generated using pymatgen
data_PrNdNi2I
_symmetry_space_group_name_H-M   'P 1'
_cell_length_a   4.08027900
_cell_length_b   4.08027988
_cell_length_c   17.53144900
_cell_angle_alpha   90.00000000
_cell_angle_beta   90.00000000
_cell_angle_gamma   120.00000094
_symmetry_Int_Tables_number   1
_chemical_formula_structural   PrNdNi2I
_chemical_formula_sum   'Pr2 Nd2 Ni4 I2'
_cell_volume   252.77158667
_cell_formula_units_Z   2
loop_
 _symmetry_equiv_pos_site_id
 _symmetry_equiv_pos_as_xyz
  1  'x, y, z'
loop_
 _atom_site_type_symbol
 _atom_site_label
 _atom_site_symmetry_multiplicity
 _atom_site_fract_x
 _atom_site_fract_y
 _atom_site_fract_z
 _atom_site_occupancy
  Pr  Pr0  1  0.000000  0.000000  0.106244  1
  Pr  Pr1  1  0.000000  0.000000  0.893756  1
  Nd  Nd2  1  0.000000  0.000000  0.604798  1
  Nd  Nd3  1  0.000000  0.000000  0.395202  1
  Ni  Ni4  1  0.666667  0.333333  0.500555  1
  Ni  Ni5  1  0.333333  0.666667  0.000402  1
  Ni  Ni6  1  0.666667  0.333333  0.999598  1
  Ni  Ni7  1  0.333333  0.666667  0.499445  1
  I  I8  1  0.666667  0.333333  0.251883  1
  I  I9  1  0.333333  0.666667  0.748117  1
