# generated using pymatgen
data_CeDy3(Al3Rh)6
_symmetry_space_group_name_H-M   'P 1'
_cell_length_a   7.55962597
_cell_length_b   7.55960807
_cell_length_c   9.45268800
_cell_angle_alpha   90.00000000
_cell_angle_beta   90.00000000
_cell_angle_gamma   119.32689140
_symmetry_Int_Tables_number   1
_chemical_formula_structural   CeDy3(Al3Rh)6
_chemical_formula_sum   'Ce1 Dy3 Al18 Rh6'
_cell_volume   470.96805147
_cell_formula_units_Z   1
loop_
 _symmetry_equiv_pos_site_id
 _symmetry_equiv_pos_as_xyz
  1  'x, y, z'
loop_
 _atom_site_type_symbol
 _atom_site_label
 _atom_site_symmetry_multiplicity
 _atom_site_fract_x
 _atom_site_fract_y
 _atom_site_fract_z
 _atom_site_occupancy
  Ce  Ce0  1  0.994499  0.671905  0.750000  1
  Dy  Dy1  1  0.005229  0.329200  0.250000  1
  Dy  Dy2  1  0.673068  0.994541  0.750000  1
  Dy  Dy3  1  0.327430  0.003939  0.250000  1
  Al  Al4  1  0.131174  0.131440  0.750000  1
  Al  Al5  1  0.872786  0.873870  0.250000  1
  Al  Al6  1  0.001113  0.334035  0.574357  1
  Al  Al7  1  0.998643  0.663998  0.421409  1
  Al  Al8  1  0.998643  0.663998  0.078591  1
  Al  Al9  1  0.337945  0.002673  0.925204  1
  Al  Al10  1  0.001113  0.334035  0.925643  1
  Al  Al11  1  0.664359  0.999795  0.076470  1
  Al  Al12  1  0.664359  0.999795  0.423530  1
  Al  Al13  1  0.337945  0.002673  0.574796  1
  Al  Al14  1  0.332210  0.332083  0.052575  1
  Al  Al15  1  0.664823  0.666526  0.953792  1
  Al  Al16  1  0.664823  0.666526  0.546208  1
  Al  Al17  1  0.332210  0.332083  0.447425  1
  Al  Al18  1  0.342301  0.550290  0.750000  1
  Al  Al19  1  0.658727  0.447970  0.250000  1
  Al  Al20  1  0.548346  0.339623  0.750000  1
  Al  Al21  1  0.450134  0.660306  0.250000  1
  Rh  Rh22  1  0.671743  0.327703  0.499926  1
  Rh  Rh23  1  0.327351  0.671649  0.499818  1
  Rh  Rh24  1  0.327351  0.671649  0.000182  1
  Rh  Rh25  1  0.671743  0.327703  0.000074  1
  Rh  Rh26  1  0.999964  0.999996  0.500383  1
  Rh  Rh27  1  0.999964  0.999996  0.999617  1
