# generated using pymatgen
data_Tb8Ho10Sc2Si15Tc
_symmetry_space_group_name_H-M   'P 1'
_cell_length_a   7.27971430
_cell_length_b   7.73870733
_cell_length_c   14.47582300
_cell_angle_alpha   90.00000000
_cell_angle_beta   90.00000000
_cell_angle_gamma   90.15272813
_symmetry_Int_Tables_number   1
_chemical_formula_structural   Tb8Ho10Sc2Si15Tc
_chemical_formula_sum   'Tb8 Ho10 Sc2 Si15 Tc1'
_cell_volume   815.50096381
_cell_formula_units_Z   1
loop_
 _symmetry_equiv_pos_site_id
 _symmetry_equiv_pos_as_xyz
  1  'x, y, z'
loop_
 _atom_site_type_symbol
 _atom_site_label
 _atom_site_symmetry_multiplicity
 _atom_site_fract_x
 _atom_site_fract_y
 _atom_site_fract_z
 _atom_site_occupancy
  Tb  Tb0  1  0.017096  0.183509  0.098472  1
  Tb  Tb1  1  0.986106  0.825744  0.906456  1
  Tb  Tb2  1  0.483743  0.681830  0.905720  1
  Tb  Tb3  1  0.986106  0.825744  0.593544  1
  Tb  Tb4  1  0.516393  0.318172  0.098145  1
  Tb  Tb5  1  0.017096  0.183509  0.401528  1
  Tb  Tb6  1  0.516393  0.318172  0.401855  1
  Tb  Tb7  1  0.483743  0.681830  0.594280  1
  Ho  Ho8  1  0.155249  0.513479  0.750000  1
  Ho  Ho9  1  0.666880  0.988610  0.750000  1
  Ho  Ho10  1  0.312609  0.173693  0.626482  1
  Ho  Ho11  1  0.676568  0.823957  0.372749  1
  Ho  Ho12  1  0.176218  0.679121  0.372415  1
  Ho  Ho13  1  0.676568  0.823957  0.127251  1
  Ho  Ho14  1  0.834314  0.316419  0.624395  1
  Ho  Ho15  1  0.312609  0.173693  0.873518  1
  Ho  Ho16  1  0.834314  0.316419  0.875605  1
  Ho  Ho17  1  0.176218  0.679121  0.127585  1
  Sc  Sc18  1  0.838992  0.483828  0.250000  1
  Sc  Sc19  1  0.340338  0.017559  0.250000  1
  Si  Si20  1  0.977851  0.905102  0.250000  1
  Si  Si21  1  0.479623  0.595413  0.250000  1
  Si  Si22  1  0.529613  0.396758  0.750000  1
  Si  Si23  1  0.277266  0.866019  0.750000  1
  Si  Si24  1  0.715814  0.136244  0.250000  1
  Si  Si25  1  0.218102  0.363925  0.250000  1
  Si  Si26  1  0.769091  0.624977  0.750000  1
  Si  Si27  1  0.157313  0.472825  0.535535  1
  Si  Si28  1  0.846882  0.531139  0.458880  1
  Si  Si29  1  0.346128  0.970237  0.458290  1
  Si  Si30  1  0.846882  0.531139  0.041120  1
  Si  Si31  1  0.649281  0.030644  0.536074  1
  Si  Si32  1  0.157313  0.472825  0.964465  1
  Si  Si33  1  0.649281  0.030644  0.963926  1
  Si  Si34  1  0.346128  0.970237  0.041710  1
  Tc  Tc35  1  0.025878  0.093506  0.750000  1
