# generated using pymatgen
data_Pr3PaHg2Rh3
_symmetry_space_group_name_H-M   'P 1'
_cell_length_a   7.90638655
_cell_length_b   7.90638673
_cell_length_c   4.05318800
_cell_angle_alpha   90.00000000
_cell_angle_beta   90.00000000
_cell_angle_gamma   121.59287933
_symmetry_Int_Tables_number   1
_chemical_formula_structural   Pr3PaHg2Rh3
_chemical_formula_sum   'Pr3 Pa1 Hg2 Rh3'
_cell_volume   215.81738522
_cell_formula_units_Z   1
loop_
 _symmetry_equiv_pos_site_id
 _symmetry_equiv_pos_as_xyz
  1  'x, y, z'
loop_
 _atom_site_type_symbol
 _atom_site_label
 _atom_site_symmetry_multiplicity
 _atom_site_fract_x
 _atom_site_fract_y
 _atom_site_fract_z
 _atom_site_occupancy
  Pr  Pr0  1  0.964807  0.403067  0.500000  1
  Pr  Pr1  1  0.640472  0.640472  0.500000  1
  Pr  Pr2  1  0.403067  0.964807  0.500000  1
  Pa  Pa3  1  0.265125  0.265125  0.000000  1
  Hg  Hg4  1  0.013136  0.744219  0.000000  1
  Hg  Hg5  1  0.744219  0.013136  0.000000  1
  Rh  Rh6  1  0.320772  0.611482  0.000000  1
  Rh  Rh7  1  0.036923  0.036923  0.500000  1
  Rh  Rh8  1  0.611482  0.320772  0.000000  1
