# generated using pymatgen
data_Hf4Co8Si5P
_symmetry_space_group_name_H-M   'P 1'
_cell_length_a   12.24058223
_cell_length_b   12.24488205
_cell_length_c   3.69033800
_cell_angle_alpha   90.00000000
_cell_angle_beta   90.00000000
_cell_angle_gamma   119.96435910
_symmetry_Int_Tables_number   1
_chemical_formula_structural   Hf4Co8Si5P
_chemical_formula_sum   'Hf8 Co16 Si10 P2'
_cell_volume   479.19173603
_cell_formula_units_Z   2
loop_
 _symmetry_equiv_pos_site_id
 _symmetry_equiv_pos_as_xyz
  1  'x, y, z'
loop_
 _atom_site_type_symbol
 _atom_site_label
 _atom_site_symmetry_multiplicity
 _atom_site_fract_x
 _atom_site_fract_y
 _atom_site_fract_z
 _atom_site_occupancy
  Hf  Hf0  1  0.815092  0.814479  0.500000  1
  Hf  Hf1  1  0.437051  0.438953  0.000000  1
  Hf  Hf2  1  0.998566  0.180717  0.500000  1
  Hf  Hf3  1  0.562439  0.000819  0.000000  1
  Hf  Hf4  1  0.332628  0.662476  0.000000  1
  Hf  Hf5  1  0.665493  0.334570  0.000000  1
  Hf  Hf6  1  0.001107  0.560399  0.000000  1
  Hf  Hf7  1  0.184761  0.001246  0.500000  1
  Co  Co8  1  0.624444  0.818893  0.000000  1
  Co  Co9  1  0.371680  0.194701  0.000000  1
  Co  Co10  1  0.001066  0.727240  0.500000  1
  Co  Co11  1  0.275669  0.278654  0.500000  1
  Co  Co12  1  0.882355  0.361233  0.500000  1
  Co  Co13  1  0.721474  0.999352  0.500000  1
  Co  Co14  1  0.824950  0.631149  0.000000  1
  Co  Co15  1  0.176655  0.807820  0.000000  1
  Co  Co16  1  0.358807  0.879735  0.500000  1
  Co  Co17  1  0.127912  0.482606  0.500000  1
  Co  Co18  1  0.642141  0.520433  0.500000  1
  Co  Co19  1  0.997715  0.993559  0.000000  1
  Co  Co20  1  0.514515  0.638177  0.500000  1
  Co  Co21  1  0.481303  0.123074  0.500000  1
  Co  Co22  1  0.195828  0.374487  0.000000  1
  Co  Co23  1  0.806756  0.178968  0.000000  1
  Si  Si24  1  0.001202  0.348610  0.000000  1
  Si  Si25  1  0.824102  0.518373  0.500000  1
  Si  Si26  1  0.696243  0.179666  0.500000  1
  Si  Si27  1  0.174563  0.175089  0.000000  1
  Si  Si28  1  0.649682  0.649115  0.000000  1
  Si  Si29  1  0.821049  0.998176  0.000000  1
  Si  Si30  1  0.515473  0.821958  0.500000  1
  Si  Si31  1  0.178252  0.695647  0.500000  1
  Si  Si32  1  0.350644  0.001345  0.000000  1
  Si  Si33  1  0.481942  0.306359  0.500000  1
  P  P34  1  0.000362  0.821724  0.000000  1
  P  P35  1  0.306080  0.480199  0.500000  1
