# generated using pymatgen
data_KRbThI6
_symmetry_space_group_name_H-M   'P 1'
_cell_length_a   9.13707500
_cell_length_b   8.43622859
_cell_length_c   14.52216075
_cell_angle_alpha   55.08032596
_cell_angle_beta   90.00000000
_cell_angle_gamma   90.00000000
_symmetry_Int_Tables_number   1
_chemical_formula_structural   KRbThI6
_chemical_formula_sum   'K2 Rb2 Th2 I12'
_cell_volume   917.86113446
_cell_formula_units_Z   2
loop_
 _symmetry_equiv_pos_site_id
 _symmetry_equiv_pos_as_xyz
  1  'x, y, z'
loop_
 _atom_site_type_symbol
 _atom_site_label
 _atom_site_symmetry_multiplicity
 _atom_site_fract_x
 _atom_site_fract_y
 _atom_site_fract_z
 _atom_site_occupancy
  K  K0  1  0.408293  0.277481  0.748515  1
  K  K1  1  0.908293  0.722519  0.751485  1
  Rb  Rb2  1  0.590613  0.721795  0.250863  1
  Rb  Rb3  1  0.090613  0.278205  0.249137  1
  Th  Th4  1  0.999726  0.001364  0.998807  1
  Th  Th5  1  0.499726  0.998636  0.501193  1
  I  I6  1  0.976757  0.858895  0.246765  1
  I  I7  1  0.476757  0.141105  0.253235  1
  I  I8  1  0.027407  0.137540  0.752374  1
  I  I9  1  0.527407  0.862460  0.747626  1
  I  I10  1  0.677494  0.641575  0.557808  1
  I  I11  1  0.177494  0.358425  0.942192  1
  I  I12  1  0.320545  0.353176  0.446865  1
  I  I13  1  0.820545  0.646824  0.053135  1
  I  I14  1  0.709502  0.226056  0.945508  1
  I  I15  1  0.209502  0.773944  0.554492  1
  I  I16  1  0.289662  0.777220  0.051174  1
  I  I17  1  0.789662  0.222780  0.448826  1
