# generated using pymatgen
data_Y4Ho6Hg3Ru
_symmetry_space_group_name_H-M   'P 1'
_cell_length_a   9.61688900
_cell_length_b   9.61686374
_cell_length_c   9.63480100
_cell_angle_alpha   90.00000000
_cell_angle_beta   90.00000000
_cell_angle_gamma   119.99998573
_symmetry_Int_Tables_number   1
_chemical_formula_structural   Y4Ho6Hg3Ru
_chemical_formula_sum   'Y8 Ho12 Hg6 Ru2'
_cell_volume   771.68757753
_cell_formula_units_Z   2
loop_
 _symmetry_equiv_pos_site_id
 _symmetry_equiv_pos_as_xyz
  1  'x, y, z'
loop_
 _atom_site_type_symbol
 _atom_site_label
 _atom_site_symmetry_multiplicity
 _atom_site_fract_x
 _atom_site_fract_y
 _atom_site_fract_z
 _atom_site_occupancy
  Y  Y0  1  0.000000  0.000000  0.500000  1
  Y  Y1  1  0.000000  0.000000  0.000000  1
  Y  Y2  1  0.541053  0.458942  0.250000  1
  Y  Y3  1  0.541055  0.082114  0.250000  1
  Y  Y4  1  0.917883  0.458942  0.250000  1
  Y  Y5  1  0.458947  0.541058  0.750000  1
  Y  Y6  1  0.458945  0.917886  0.750000  1
  Y  Y7  1  0.082117  0.541058  0.750000  1
  Ho  Ho8  1  0.209683  0.790316  0.439444  1
  Ho  Ho9  1  0.209684  0.419366  0.439443  1
  Ho  Ho10  1  0.580632  0.790315  0.439442  1
  Ho  Ho11  1  0.790317  0.209684  0.560556  1
  Ho  Ho12  1  0.790316  0.580634  0.560557  1
  Ho  Ho13  1  0.419368  0.209685  0.560558  1
  Ho  Ho14  1  0.790317  0.209684  0.939444  1
  Ho  Ho15  1  0.790316  0.580634  0.939443  1
  Ho  Ho16  1  0.419368  0.209685  0.939442  1
  Ho  Ho17  1  0.209683  0.790316  0.060556  1
  Ho  Ho18  1  0.209684  0.419366  0.060557  1
  Ho  Ho19  1  0.580632  0.790315  0.060558  1
  Hg  Hg20  1  0.881505  0.118496  0.250000  1
  Hg  Hg21  1  0.881503  0.763010  0.250000  1
  Hg  Hg22  1  0.236990  0.118496  0.250000  1
  Hg  Hg23  1  0.118495  0.881504  0.750000  1
  Hg  Hg24  1  0.118497  0.236990  0.750000  1
  Hg  Hg25  1  0.763010  0.881504  0.750000  1
  Ru  Ru26  1  0.333332  0.666660  0.250000  1
  Ru  Ru27  1  0.666668  0.333340  0.750000  1
