# generated using pymatgen
data_Nd2Hg6(PCl3)3
_symmetry_space_group_name_H-M   'P 1'
_cell_length_a   11.21516800
_cell_length_b   10.80464051
_cell_length_c   11.35145700
_cell_angle_alpha   63.73786247
_cell_angle_beta   90.00000000
_cell_angle_gamma   90.00000000
_symmetry_Int_Tables_number   1
_chemical_formula_structural   Nd2Hg6(PCl3)3
_chemical_formula_sum   'Nd4 Hg12 P6 Cl18'
_cell_volume   1233.53977102
_cell_formula_units_Z   2
loop_
 _symmetry_equiv_pos_site_id
 _symmetry_equiv_pos_as_xyz
  1  'x, y, z'
loop_
 _atom_site_type_symbol
 _atom_site_label
 _atom_site_symmetry_multiplicity
 _atom_site_fract_x
 _atom_site_fract_y
 _atom_site_fract_z
 _atom_site_occupancy
  Nd  Nd0  1  0.882810  0.351875  0.918372  1
  Nd  Nd1  1  0.382810  0.648125  0.081628  1
  Nd  Nd2  1  0.735326  0.701300  0.668736  1
  Nd  Nd3  1  0.235326  0.298700  0.331264  1
  Hg  Hg4  1  0.479750  0.169247  0.004489  1
  Hg  Hg5  1  0.979750  0.830753  0.995511  1
  Hg  Hg6  1  0.557989  0.268034  0.624806  1
  Hg  Hg7  1  0.057989  0.731966  0.375194  1
  Hg  Hg8  1  0.311715  0.509917  0.664941  1
  Hg  Hg9  1  0.811715  0.490083  0.335059  1
  Hg  Hg10  1  0.722224  0.871132  0.224171  1
  Hg  Hg11  1  0.222224  0.128868  0.775829  1
  Hg  Hg12  1  0.642887  0.149079  0.347558  1
  Hg  Hg13  1  0.142887  0.850921  0.652442  1
  Hg  Hg14  1  0.384922  0.883263  0.369936  1
  Hg  Hg15  1  0.884922  0.116737  0.630064  1
  P  P16  1  0.555682  0.021139  0.231543  1
  P  P17  1  0.055682  0.978861  0.768457  1
  P  P18  1  0.723277  0.261381  0.481339  1
  P  P19  1  0.223277  0.738619  0.518661  1
  P  P20  1  0.398259  0.271812  0.775191  1
  P  P21  1  0.898259  0.728188  0.224809  1
  Cl  Cl22  1  0.786813  0.120891  0.919592  1
  Cl  Cl23  1  0.286813  0.879109  0.080408  1
  Cl  Cl24  1  0.875000  0.888067  0.475624  1
  Cl  Cl25  1  0.375000  0.111933  0.524376  1
  Cl  Cl26  1  0.647265  0.461028  0.873794  1
  Cl  Cl27  1  0.147265  0.538972  0.126206  1
  Cl  Cl28  1  0.922550  0.635994  0.852194  1
  Cl  Cl29  1  0.422550  0.364006  0.147806  1
  Cl  Cl30  1  0.871587  0.490109  0.639929  1
  Cl  Cl31  1  0.371587  0.509891  0.360071  1
  Cl  Cl32  1  0.583714  0.658425  0.505812  1
  Cl  Cl33  1  0.083714  0.341575  0.494188  1
  Cl  Cl34  1  0.653736  0.908966  0.709058  1
  Cl  Cl35  1  0.153736  0.091034  0.290942  1
  Cl  Cl36  1  0.852370  0.300234  0.170224  1
  Cl  Cl37  1  0.352370  0.699766  0.829776  1
  Cl  Cl38  1  0.113293  0.303548  0.899259  1
  Cl  Cl39  1  0.613293  0.696452  0.100741  1
