# generated using pymatgen
data_Dy3YHo4(B6Os)4
_symmetry_space_group_name_H-M   'P 1'
_cell_length_a   3.65352000
_cell_length_b   9.15680503
_cell_length_c   11.54126600
_cell_angle_alpha   89.99540097
_cell_angle_beta   90.00000000
_cell_angle_gamma   90.00000000
_symmetry_Int_Tables_number   1
_chemical_formula_structural   Dy3YHo4(B6Os)4
_chemical_formula_sum   'Dy3 Y1 Ho4 B24 Os4'
_cell_volume   386.10809364
_cell_formula_units_Z   1
loop_
 _symmetry_equiv_pos_site_id
 _symmetry_equiv_pos_as_xyz
  1  'x, y, z'
loop_
 _atom_site_type_symbol
 _atom_site_label
 _atom_site_symmetry_multiplicity
 _atom_site_fract_x
 _atom_site_fract_y
 _atom_site_fract_z
 _atom_site_occupancy
  Dy  Dy0  1  0.000000  0.677822  0.586101  1
  Dy  Dy1  1  0.000000  0.822177  0.086102  1
  Dy  Dy2  1  0.000000  0.177832  0.913891  1
  Y  Y3  1  0.000000  0.321883  0.413851  1
  Ho  Ho4  1  0.000000  0.943954  0.372946  1
  Ho  Ho5  1  0.000000  0.056003  0.627073  1
  Ho  Ho6  1  0.000000  0.443994  0.127052  1
  Ho  Ho7  1  0.000000  0.556006  0.872948  1
  B  B8  1  0.500000  0.554194  0.432952  1
  B  B9  1  0.500000  0.446111  0.567218  1
  B  B10  1  0.500000  0.054002  0.067048  1
  B  B11  1  0.500000  0.945971  0.932901  1
  B  B12  1  0.500000  0.747988  0.419816  1
  B  B13  1  0.500000  0.252060  0.580345  1
  B  B14  1  0.500000  0.247953  0.080151  1
  B  B15  1  0.500000  0.752065  0.919800  1
  B  B16  1  0.500000  0.791106  0.266545  1
  B  B17  1  0.500000  0.208901  0.733471  1
  B  B18  1  0.500000  0.291052  0.233282  1
  B  B19  1  0.500000  0.708925  0.766571  1
  B  B20  1  0.500000  0.631709  0.185374  1
  B  B21  1  0.500000  0.368326  0.814638  1
  B  B22  1  0.500000  0.131541  0.314509  1
  B  B23  1  0.500000  0.868321  0.685365  1
  B  B24  1  0.500000  0.983294  0.213128  1
  B  B25  1  0.500000  0.016643  0.786857  1
  B  B26  1  0.500000  0.483497  0.286779  1
  B  B27  1  0.500000  0.516689  0.713176  1
  B  B28  1  0.500000  0.607715  0.029852  1
  B  B29  1  0.500000  0.392287  0.970164  1
  B  B30  1  0.500000  0.107647  0.470172  1
  B  B31  1  0.500000  0.892292  0.529855  1
  Os  Os32  1  0.000000  0.637802  0.321238  1
  Os  Os33  1  0.000000  0.362379  0.678992  1
  Os  Os34  1  0.000000  0.137543  0.178591  1
  Os  Os35  1  0.000000  0.862316  0.821245  1
