# generated using pymatgen
data_Tb3ZnCdIn3Ir
_symmetry_space_group_name_H-M   'P 1'
_cell_length_a   7.93451000
_cell_length_b   7.93451167
_cell_length_c   3.85358200
_cell_angle_alpha   90.00000000
_cell_angle_beta   90.00000000
_cell_angle_gamma   120.00000971
_symmetry_Int_Tables_number   1
_chemical_formula_structural   Tb3ZnCdIn3Ir
_chemical_formula_sum   'Tb3 Zn1 Cd1 In3 Ir1'
_cell_volume   210.10457488
_cell_formula_units_Z   1
loop_
 _symmetry_equiv_pos_site_id
 _symmetry_equiv_pos_as_xyz
  1  'x, y, z'
loop_
 _atom_site_type_symbol
 _atom_site_label
 _atom_site_symmetry_multiplicity
 _atom_site_fract_x
 _atom_site_fract_y
 _atom_site_fract_z
 _atom_site_occupancy
  Tb  Tb0  1  0.418531  0.383748  0.000000  1
  Tb  Tb1  1  0.616252  0.034783  0.000000  1
  Tb  Tb2  1  0.965217  0.581469  0.000000  1
  Zn  Zn3  1  0.000000  0.000000  0.000000  1
  Cd  Cd4  1  0.333333  0.666667  0.500000  1
  In  In5  1  0.000999  0.260231  0.500000  1
  In  In6  1  0.739769  0.740767  0.500000  1
  In  In7  1  0.259233  0.999001  0.500000  1
  Ir  Ir8  1  0.666667  0.333333  0.500000  1
