# generated using pymatgen
data_Cs3DyIrBr9
_symmetry_space_group_name_H-M   'P 1'
_cell_length_a   7.91483600
_cell_length_b   7.91483496
_cell_length_c   19.93378500
_cell_angle_alpha   90.00000000
_cell_angle_beta   90.00000000
_cell_angle_gamma   119.99998762
_symmetry_Int_Tables_number   1
_chemical_formula_structural   Cs3DyIrBr9
_chemical_formula_sum   'Cs6 Dy2 Ir2 Br18'
_cell_volume   1081.44450854
_cell_formula_units_Z   2
loop_
 _symmetry_equiv_pos_site_id
 _symmetry_equiv_pos_as_xyz
  1  'x, y, z'
loop_
 _atom_site_type_symbol
 _atom_site_label
 _atom_site_symmetry_multiplicity
 _atom_site_fract_x
 _atom_site_fract_y
 _atom_site_fract_z
 _atom_site_occupancy
  Cs  Cs0  1  0.333333  0.666667  0.067360  1
  Cs  Cs1  1  0.666667  0.333333  0.932640  1
  Cs  Cs2  1  0.666667  0.333333  0.569211  1
  Cs  Cs3  1  0.333333  0.666667  0.430789  1
  Cs  Cs4  1  0.000000  0.000000  0.254286  1
  Cs  Cs5  1  0.000000  0.000000  0.745714  1
  Dy  Dy6  1  0.666667  0.333333  0.163033  1
  Dy  Dy7  1  0.333333  0.666667  0.836967  1
  Ir  Ir8  1  0.333333  0.666667  0.667470  1
  Ir  Ir9  1  0.666667  0.333333  0.332530  1
  Br  Br10  1  0.183754  0.367508  0.595671  1
  Br  Br11  1  0.816246  0.632492  0.404329  1
  Br  Br12  1  0.632492  0.816246  0.595671  1
  Br  Br13  1  0.834088  0.668177  0.090143  1
  Br  Br14  1  0.367508  0.183754  0.404329  1
  Br  Br15  1  0.165912  0.331823  0.909857  1
  Br  Br16  1  0.183754  0.816246  0.595671  1
  Br  Br17  1  0.331823  0.165912  0.090143  1
  Br  Br18  1  0.816246  0.183754  0.404329  1
  Br  Br19  1  0.668177  0.834088  0.909857  1
  Br  Br20  1  0.834088  0.165912  0.090143  1
  Br  Br21  1  0.165912  0.834088  0.909857  1
  Br  Br22  1  0.511043  0.022088  0.260514  1
  Br  Br23  1  0.488957  0.977912  0.739486  1
  Br  Br24  1  0.977912  0.488957  0.260514  1
  Br  Br25  1  0.022088  0.511043  0.739486  1
  Br  Br26  1  0.511043  0.488957  0.260514  1
  Br  Br27  1  0.488957  0.511043  0.739486  1
