# generated using pymatgen
data_Dy17Y3(Sn3Bi)4
_symmetry_space_group_name_H-M   'P 1'
_cell_length_a   8.18084990
_cell_length_b   8.22036312
_cell_length_c   15.54144850
_cell_angle_alpha   90.00660543
_cell_angle_beta   89.94986938
_cell_angle_gamma   89.98134660
_symmetry_Int_Tables_number   1
_chemical_formula_structural   Dy17Y3(Sn3Bi)4
_chemical_formula_sum   'Dy17 Y3 Sn12 Bi4'
_cell_volume   1045.15506146
_cell_formula_units_Z   1
loop_
 _symmetry_equiv_pos_site_id
 _symmetry_equiv_pos_as_xyz
  1  'x, y, z'
loop_
 _atom_site_type_symbol
 _atom_site_label
 _atom_site_symmetry_multiplicity
 _atom_site_fract_x
 _atom_site_fract_y
 _atom_site_fract_z
 _atom_site_occupancy
  Dy  Dy0  1  0.103512  0.338988  0.121304  1
  Dy  Dy1  1  0.611680  0.162523  0.119605  1
  Dy  Dy2  1  0.111443  0.337356  0.380204  1
  Dy  Dy3  1  0.388711  0.837425  0.619780  1
  Dy  Dy4  1  0.888743  0.662829  0.880252  1
  Dy  Dy5  1  0.565546  0.329136  0.889799  1
  Dy  Dy6  1  0.065825  0.170888  0.610336  1
  Dy  Dy7  1  0.434284  0.670651  0.389578  1
  Dy  Dy8  1  0.934802  0.829124  0.110065  1
  Dy  Dy9  1  0.452673  0.667591  0.109348  1
  Dy  Dy10  1  0.952541  0.832281  0.390516  1
  Dy  Dy11  1  0.547635  0.332643  0.609630  1
  Dy  Dy12  1  0.047081  0.167678  0.890731  1
  Dy  Dy13  1  0.225155  0.500813  0.746863  1
  Dy  Dy14  1  0.725031  0.999280  0.753252  1
  Dy  Dy15  1  0.774964  0.499048  0.246567  1
  Dy  Dy16  1  0.274874  0.000783  0.253197  1
  Y  Y17  1  0.395709  0.839389  0.878929  1
  Y  Y18  1  0.895876  0.660717  0.621192  1
  Y  Y19  1  0.603773  0.160739  0.378782  1
  Sn  Sn20  1  0.729040  0.978123  0.955290  1
  Sn  Sn21  1  0.229244  0.521640  0.544795  1
  Sn  Sn22  1  0.270913  0.021599  0.455250  1
  Sn  Sn23  1  0.770955  0.478214  0.044716  1
  Sn  Sn24  1  0.589633  0.628684  0.748982  1
  Sn  Sn25  1  0.089696  0.871535  0.751310  1
  Sn  Sn26  1  0.410013  0.371279  0.248405  1
  Sn  Sn27  1  0.910479  0.128531  0.251353  1
  Sn  Sn28  1  0.360222  0.143475  0.751328  1
  Sn  Sn29  1  0.860262  0.356655  0.748979  1
  Sn  Sn30  1  0.639736  0.856479  0.250934  1
  Sn  Sn31  1  0.139735  0.643091  0.248589  1
  Bi  Bi32  1  0.265310  0.016419  0.045918  1
  Bi  Bi33  1  0.765046  0.484213  0.454113  1
  Bi  Bi34  1  0.735095  0.984158  0.545708  1
  Bi  Bi35  1  0.234761  0.516021  0.954400  1
