# generated using pymatgen
data_Pu2(CuAu2)3
_symmetry_space_group_name_H-M   'P 1'
_cell_length_a   8.60838940
_cell_length_b   8.60838931
_cell_length_c   8.60838937
_cell_angle_alpha   57.65593963
_cell_angle_beta   57.65594208
_cell_angle_gamma   57.65592837
_symmetry_Int_Tables_number   1
_chemical_formula_structural   Pu2(CuAu2)3
_chemical_formula_sum   'Pu4 Cu6 Au12'
_cell_volume   426.77818296
_cell_formula_units_Z   2
loop_
 _symmetry_equiv_pos_site_id
 _symmetry_equiv_pos_as_xyz
  1  'x, y, z'
loop_
 _atom_site_type_symbol
 _atom_site_label
 _atom_site_symmetry_multiplicity
 _atom_site_fract_x
 _atom_site_fract_y
 _atom_site_fract_z
 _atom_site_occupancy
  Pu  Pu0  1  0.906894  0.906894  0.906894  1
  Pu  Pu1  1  0.406894  0.406894  0.406894  1
  Pu  Pu2  1  0.093106  0.093106  0.093106  1
  Pu  Pu3  1  0.593106  0.593106  0.593106  1
  Cu  Cu4  1  0.573987  0.750000  0.926013  1
  Cu  Cu5  1  0.926013  0.573987  0.750000  1
  Cu  Cu6  1  0.750000  0.926013  0.573987  1
  Cu  Cu7  1  0.426013  0.250000  0.073987  1
  Cu  Cu8  1  0.073987  0.426013  0.250000  1
  Cu  Cu9  1  0.250000  0.073987  0.426013  1
  Au  Au10  1  0.481049  0.859834  0.204703  1
  Au  Au11  1  0.204703  0.481049  0.859834  1
  Au  Au12  1  0.859834  0.204703  0.481049  1
  Au  Au13  1  0.704703  0.359834  0.981049  1
  Au  Au14  1  0.981049  0.704703  0.359834  1
  Au  Au15  1  0.359834  0.981049  0.704703  1
  Au  Au16  1  0.518951  0.140166  0.795297  1
  Au  Au17  1  0.795297  0.518951  0.140166  1
  Au  Au18  1  0.140166  0.795297  0.518951  1
  Au  Au19  1  0.295297  0.640166  0.018951  1
  Au  Au20  1  0.018951  0.295297  0.640166  1
  Au  Au21  1  0.640166  0.018951  0.295297  1
