# generated using pymatgen
data_LaY5CuRh17
_symmetry_space_group_name_H-M   'P 1'
_cell_length_a   5.30743912
_cell_length_b   5.30780484
_cell_length_c   17.38669900
_cell_angle_alpha   90.00000000
_cell_angle_beta   90.00000000
_cell_angle_gamma   119.99571833
_symmetry_Int_Tables_number   1
_chemical_formula_structural   LaY5CuRh17
_chemical_formula_sum   'La1 Y5 Cu1 Rh17'
_cell_volume   424.19590428
_cell_formula_units_Z   1
loop_
 _symmetry_equiv_pos_site_id
 _symmetry_equiv_pos_as_xyz
  1  'x, y, z'
loop_
 _atom_site_type_symbol
 _atom_site_label
 _atom_site_symmetry_multiplicity
 _atom_site_fract_x
 _atom_site_fract_y
 _atom_site_fract_z
 _atom_site_occupancy
  La  La0  1  0.666720  0.333334  0.250000  1
  Y  Y1  1  0.333352  0.666693  0.957845  1
  Y  Y2  1  0.666658  0.333319  0.041556  1
  Y  Y3  1  0.666658  0.333319  0.458444  1
  Y  Y4  1  0.333352  0.666693  0.542155  1
  Y  Y5  1  0.333340  0.666654  0.750000  1
  Cu  Cu6  1  0.333518  0.666653  0.250000  1
  Rh  Rh7  1  0.168599  0.831329  0.374528  1
  Rh  Rh8  1  0.168498  0.337150  0.374499  1
  Rh  Rh9  1  0.662828  0.831463  0.374513  1
  Rh  Rh10  1  0.833082  0.166986  0.624942  1
  Rh  Rh11  1  0.833123  0.666120  0.624965  1
  Rh  Rh12  1  0.333913  0.166922  0.624944  1
  Rh  Rh13  1  0.833082  0.166986  0.875058  1
  Rh  Rh14  1  0.833123  0.666120  0.875035  1
  Rh  Rh15  1  0.333913  0.166922  0.875056  1
  Rh  Rh16  1  0.168599  0.831329  0.125472  1
  Rh  Rh17  1  0.168498  0.337150  0.125501  1
  Rh  Rh18  1  0.662828  0.831463  0.125487  1
  Rh  Rh19  1  0.666460  0.333332  0.750000  1
  Rh  Rh20  1  0.999905  0.999948  0.250000  1
  Rh  Rh21  1  0.000032  0.000095  0.750000  1
  Rh  Rh22  1  0.999958  0.000009  0.497994  1
  Rh  Rh23  1  0.999958  0.000009  0.002006  1
