# generated using pymatgen
data_TmLu2Ru2Pt
_symmetry_space_group_name_H-M   'P 1'
_cell_length_a   3.40850300
_cell_length_b   3.40850300
_cell_length_c   9.86773800
_cell_angle_alpha   90.00000000
_cell_angle_beta   90.00000000
_cell_angle_gamma   90.00000000
_symmetry_Int_Tables_number   1
_chemical_formula_structural   TmLu2Ru2Pt
_chemical_formula_sum   'Tm1 Lu2 Ru2 Pt1'
_cell_volume   114.64232129
_cell_formula_units_Z   1
loop_
 _symmetry_equiv_pos_site_id
 _symmetry_equiv_pos_as_xyz
  1  'x, y, z'
loop_
 _atom_site_type_symbol
 _atom_site_label
 _atom_site_symmetry_multiplicity
 _atom_site_fract_x
 _atom_site_fract_y
 _atom_site_fract_z
 _atom_site_occupancy
  Tm  Tm0  1  0.000000  0.000000  0.000000  1
  Lu  Lu1  1  0.000000  0.000000  0.326670  1
  Lu  Lu2  1  0.000000  0.000000  0.673329  1
  Ru  Ru3  1  0.500001  0.500001  0.171128  1
  Ru  Ru4  1  0.500001  0.500001  0.828871  1
  Pt  Pt5  1  0.500001  0.500001  0.500000  1
