# generated using pymatgen
data_Y2InSi4(AsRh6)2
_symmetry_space_group_name_H-M   'P 1'
_cell_length_a   9.96271724
_cell_length_b   9.98906522
_cell_length_c   3.89246921
_cell_angle_alpha   89.99766655
_cell_angle_beta   90.03382468
_cell_angle_gamma   120.52551053
_symmetry_Int_Tables_number   1
_chemical_formula_structural   Y2InSi4(AsRh6)2
_chemical_formula_sum   'Y2 In1 Si4 As2 Rh12'
_cell_volume   333.68306977
_cell_formula_units_Z   1
loop_
 _symmetry_equiv_pos_site_id
 _symmetry_equiv_pos_as_xyz
  1  'x, y, z'
loop_
 _atom_site_type_symbol
 _atom_site_label
 _atom_site_symmetry_multiplicity
 _atom_site_fract_x
 _atom_site_fract_y
 _atom_site_fract_z
 _atom_site_occupancy
  Y  Y0  1  0.334769  0.661289  0.746084  1
  Y  Y1  1  0.000546  0.001957  0.244226  1
  In  In2  1  0.666334  0.334171  0.715320  1
  Si  Si3  1  0.958509  0.222202  0.744067  1
  Si  Si4  1  0.775410  0.733606  0.743317  1
  Si  Si5  1  0.265717  0.047240  0.743609  1
  Si  Si6  1  0.374583  0.439720  0.245222  1
  As  As7  1  0.553780  0.928201  0.245593  1
  As  As8  1  0.071158  0.625557  0.245238  1
  Rh  Rh9  1  0.742173  0.956481  0.744576  1
  Rh  Rh10  1  0.040570  0.785976  0.743978  1
  Rh  Rh11  1  0.219910  0.263786  0.744393  1
  Rh  Rh12  1  0.610727  0.720226  0.244574  1
  Rh  Rh13  1  0.272933  0.893511  0.244560  1
  Rh  Rh14  1  0.114271  0.387409  0.244798  1
  Rh  Rh15  1  0.964056  0.463699  0.745389  1
  Rh  Rh16  1  0.530193  0.494493  0.745499  1
  Rh  Rh17  1  0.500505  0.036453  0.745816  1
  Rh  Rh18  1  0.405065  0.214938  0.242601  1
  Rh  Rh19  1  0.790815  0.190774  0.243413  1
  Rh  Rh20  1  0.807977  0.598310  0.241908  1
