# generated using pymatgen
data_Sr3Cd(WO4)4
_symmetry_space_group_name_H-M   'P 1'
_cell_length_a   5.12420243
_cell_length_b   5.50985661
_cell_length_c   14.15970792
_cell_angle_alpha   66.78947211
_cell_angle_beta   90.39943236
_cell_angle_gamma   90.33035665
_symmetry_Int_Tables_number   1
_chemical_formula_structural   Sr3Cd(WO4)4
_chemical_formula_sum   'Sr3 Cd1 W4 O16'
_cell_volume   367.41190830
_cell_formula_units_Z   1
loop_
 _symmetry_equiv_pos_site_id
 _symmetry_equiv_pos_as_xyz
  1  'x, y, z'
loop_
 _atom_site_type_symbol
 _atom_site_label
 _atom_site_symmetry_multiplicity
 _atom_site_fract_x
 _atom_site_fract_y
 _atom_site_fract_z
 _atom_site_occupancy
  Sr  Sr0  1  0.734645  0.158407  0.342614  1
  Sr  Sr1  1  0.246526  0.852151  0.156609  1
  Sr  Sr2  1  0.286925  0.821885  0.657418  1
  Cd  Cd3  1  0.738679  0.160601  0.849832  1
  W  W4  1  0.250781  0.583544  0.426493  1
  W  W5  1  0.745598  0.436569  0.071806  1
  W  W6  1  0.755882  0.394592  0.581486  1
  W  W7  1  0.243591  0.589198  0.918872  1
  O  O8  1  0.551569  0.733781  0.470529  1
  O  O9  1  0.056320  0.283920  0.040528  1
  O  O10  1  0.446305  0.255728  0.539237  1
  O  O11  1  0.935421  0.762230  0.948235  1
  O  O12  1  0.941200  0.361385  0.452305  1
  O  O13  1  0.434613  0.654143  0.040054  1
  O  O14  1  0.056462  0.629827  0.550510  1
  O  O15  1  0.552531  0.355118  0.951758  1
  O  O16  1  0.130602  0.900785  0.332073  1
  O  O17  1  0.624456  0.124332  0.168441  1
  O  O18  1  0.887174  0.077449  0.664814  1
  O  O19  1  0.396692  0.889029  0.825775  1
  O  O20  1  0.383303  0.483272  0.326976  1
  O  O21  1  0.870673  0.554275  0.167644  1
  O  O22  1  0.628406  0.474598  0.688092  1
  O  O23  1  0.101649  0.463183  0.827898  1
