# generated using pymatgen
data_Hf5Zr5CuSn6Sb
_symmetry_space_group_name_H-M   'P 1'
_cell_length_a   8.71143450
_cell_length_b   8.71143526
_cell_length_c   5.91148108
_cell_angle_alpha   90.00940031
_cell_angle_beta   90.00940068
_cell_angle_gamma   120.03780181
_symmetry_Int_Tables_number   1
_chemical_formula_structural   Hf5Zr5CuSn6Sb
_chemical_formula_sum   'Hf5 Zr5 Cu1 Sn6 Sb1'
_cell_volume   388.36559195
_cell_formula_units_Z   1
loop_
 _symmetry_equiv_pos_site_id
 _symmetry_equiv_pos_as_xyz
  1  'x, y, z'
loop_
 _atom_site_type_symbol
 _atom_site_label
 _atom_site_symmetry_multiplicity
 _atom_site_fract_x
 _atom_site_fract_y
 _atom_site_fract_z
 _atom_site_occupancy
  Hf  Hf0  1  0.666762  0.333723  0.499857  1
  Hf  Hf1  1  0.333723  0.666762  0.499857  1
  Hf  Hf2  1  0.333713  0.666825  0.000174  1
  Hf  Hf3  1  0.666825  0.333713  0.000174  1
  Hf  Hf4  1  0.727860  0.727860  0.236234  1
  Zr  Zr5  1  0.272115  0.000281  0.236956  1
  Zr  Zr6  1  0.000281  0.272115  0.236956  1
  Zr  Zr7  1  0.271480  0.271480  0.762735  1
  Zr  Zr8  1  0.728385  0.999726  0.763281  1
  Zr  Zr9  1  0.999726  0.728385  0.763281  1
  Cu  Cu10  1  0.998843  0.998843  0.001255  1
  Sn  Sn11  1  0.388434  0.388434  0.252435  1
  Sn  Sn12  1  0.612679  0.999596  0.252507  1
  Sn  Sn13  1  0.999596  0.612679  0.252507  1
  Sn  Sn14  1  0.612386  0.612386  0.747606  1
  Sn  Sn15  1  0.387645  0.000017  0.747495  1
  Sn  Sn16  1  0.000017  0.387645  0.747495  1
  Sb  Sb17  1  0.999528  0.999528  0.499197  1
