# generated using pymatgen
data_Y3TmMg2Ir3
_symmetry_space_group_name_H-M   'P 1'
_cell_length_a   7.40739600
_cell_length_b   7.42215737
_cell_length_c   4.13049600
_cell_angle_alpha   90.00000000
_cell_angle_beta   90.00000000
_cell_angle_gamma   119.93422309
_symmetry_Int_Tables_number   1
_chemical_formula_structural   Y3TmMg2Ir3
_chemical_formula_sum   'Y3 Tm1 Mg2 Ir3'
_cell_volume   196.79589381
_cell_formula_units_Z   1
loop_
 _symmetry_equiv_pos_site_id
 _symmetry_equiv_pos_as_xyz
  1  'x, y, z'
loop_
 _atom_site_type_symbol
 _atom_site_label
 _atom_site_symmetry_multiplicity
 _atom_site_fract_x
 _atom_site_fract_y
 _atom_site_fract_z
 _atom_site_occupancy
  Y  Y0  1  0.393077  0.000000  0.499999  1
  Y  Y1  1  0.011635  0.426070  0.499999  1
  Y  Y2  1  0.585563  0.573930  0.499999  1
  Tm  Tm3  1  0.751761  0.000000  0.000000  1
  Mg  Mg4  1  0.248364  0.248430  0.000000  1
  Mg  Mg5  1  0.999935  0.751571  0.000000  1
  Ir  Ir6  1  0.670761  0.331763  0.000000  1
  Ir  Ir7  1  0.338998  0.668236  0.000000  1
  Ir  Ir8  1  0.999905  0.000000  0.499999  1
