# generated using pymatgen
data_LiTm(CuO2)4
_symmetry_space_group_name_H-M   'P 1'
_cell_length_a   6.14053539
_cell_length_b   6.14053602
_cell_length_c   6.14053674
_cell_angle_alpha   125.66653747
_cell_angle_beta   125.66654851
_cell_angle_gamma   80.43688751
_symmetry_Int_Tables_number   1
_chemical_formula_structural   LiTm(CuO2)4
_chemical_formula_sum   'Li1 Tm1 Cu4 O8'
_cell_volume   147.42611970
_cell_formula_units_Z   1
loop_
 _symmetry_equiv_pos_site_id
 _symmetry_equiv_pos_as_xyz
  1  'x, y, z'
loop_
 _atom_site_type_symbol
 _atom_site_label
 _atom_site_symmetry_multiplicity
 _atom_site_fract_x
 _atom_site_fract_y
 _atom_site_fract_z
 _atom_site_occupancy
  Li  Li0  1  0.750000  0.250000  0.500000  1
  Tm  Tm1  1  0.000000  0.000000  0.000000  1
  Cu  Cu2  1  0.380603  0.622576  0.254604  1
  Cu  Cu3  1  0.377424  0.632028  0.758027  1
  Cu  Cu4  1  0.874001  0.619397  0.241973  1
  Cu  Cu5  1  0.367972  0.125999  0.745396  1
  O  O6  1  0.165980  0.601083  0.868407  1
  O  O7  1  0.732676  0.297574  0.131593  1
  O  O8  1  0.337128  0.987830  0.929728  1
  O  O9  1  0.702426  0.834020  0.435102  1
  O  O10  1  0.058102  0.407399  0.070272  1
  O  O11  1  0.398917  0.267324  0.564898  1
  O  O12  1  0.012170  0.941898  0.349297  1
  O  O13  1  0.592601  0.662872  0.650703  1
