# generated using pymatgen
data_Dy19Er(Bi2Ir)4
_symmetry_space_group_name_H-M   'P 1'
_cell_length_a   8.01713888
_cell_length_b   9.01660590
_cell_length_c   12.49635559
_cell_angle_alpha   89.96919116
_cell_angle_beta   90.06687562
_cell_angle_gamma   89.95898582
_symmetry_Int_Tables_number   1
_chemical_formula_structural   Dy19Er(Bi2Ir)4
_chemical_formula_sum   'Dy19 Er1 Bi8 Ir4'
_cell_volume   903.32784857
_cell_formula_units_Z   1
loop_
 _symmetry_equiv_pos_site_id
 _symmetry_equiv_pos_as_xyz
  1  'x, y, z'
loop_
 _atom_site_type_symbol
 _atom_site_label
 _atom_site_symmetry_multiplicity
 _atom_site_fract_x
 _atom_site_fract_y
 _atom_site_fract_z
 _atom_site_occupancy
  Dy  Dy0  1  0.840406  0.750054  0.793296  1
  Dy  Dy1  1  0.159445  0.249990  0.206589  1
  Dy  Dy2  1  0.340888  0.249840  0.706487  1
  Dy  Dy3  1  0.659409  0.750018  0.293594  1
  Dy  Dy4  1  0.377629  0.750120  0.692854  1
  Dy  Dy5  1  0.622928  0.249714  0.307143  1
  Dy  Dy6  1  0.877170  0.249983  0.806821  1
  Dy  Dy7  1  0.122765  0.749978  0.193124  1
  Dy  Dy8  1  0.945780  0.750245  0.501472  1
  Dy  Dy9  1  0.053472  0.249770  0.498576  1
  Dy  Dy10  1  0.446406  0.249948  0.998606  1
  Dy  Dy11  1  0.553644  0.749961  0.001425  1
  Dy  Dy12  1  0.324136  0.958206  0.434209  1
  Dy  Dy13  1  0.176518  0.958077  0.933931  1
  Dy  Dy14  1  0.323572  0.541603  0.434044  1
  Dy  Dy15  1  0.823489  0.041854  0.066097  1
  Dy  Dy16  1  0.676334  0.458075  0.566019  1
  Dy  Dy17  1  0.823533  0.458092  0.066046  1
  Dy  Dy18  1  0.176525  0.541837  0.933933  1
  Er  Er19  1  0.674461  0.042477  0.565611  1
  Bi  Bi20  1  0.569139  0.490871  0.827332  1
  Bi  Bi21  1  0.430872  0.509035  0.172731  1
  Bi  Bi22  1  0.069148  0.509029  0.672654  1
  Bi  Bi23  1  0.430857  0.990949  0.172675  1
  Bi  Bi24  1  0.930895  0.490899  0.327340  1
  Bi  Bi25  1  0.569276  0.009129  0.827135  1
  Bi  Bi26  1  0.931049  0.009100  0.327323  1
  Bi  Bi27  1  0.068544  0.991016  0.672491  1
  Ir  Ir28  1  0.571204  0.750861  0.509147  1
  Ir  Ir29  1  0.430583  0.249321  0.491325  1
  Ir  Ir30  1  0.070494  0.250008  0.990932  1
  Ir  Ir31  1  0.929429  0.749942  0.009038  1
