# generated using pymatgen
data_Ta6Al4Rh2C
_symmetry_space_group_name_H-M   'P 1'
_cell_length_a   8.32323595
_cell_length_b   8.32319962
_cell_length_c   8.32322200
_cell_angle_alpha   59.99987925
_cell_angle_beta   60.00012699
_cell_angle_gamma   59.99998726
_symmetry_Int_Tables_number   1
_chemical_formula_structural   Ta6Al4Rh2C
_chemical_formula_sum   'Ta12 Al8 Rh4 C2'
_cell_volume   407.71714673
_cell_formula_units_Z   2
loop_
 _symmetry_equiv_pos_site_id
 _symmetry_equiv_pos_as_xyz
  1  'x, y, z'
loop_
 _atom_site_type_symbol
 _atom_site_label
 _atom_site_symmetry_multiplicity
 _atom_site_fract_x
 _atom_site_fract_y
 _atom_site_fract_z
 _atom_site_occupancy
  Ta  Ta0  1  0.059817  0.059842  0.440164  1
  Ta  Ta1  1  0.440194  0.059816  0.440172  1
  Ta  Ta2  1  0.059812  0.440195  0.440158  1
  Ta  Ta3  1  0.440170  0.440184  0.059795  1
  Ta  Ta4  1  0.059854  0.440173  0.059819  1
  Ta  Ta5  1  0.440173  0.059856  0.059800  1
  Ta  Ta6  1  0.190183  0.190158  0.809836  1
  Ta  Ta7  1  0.809806  0.190184  0.809828  1
  Ta  Ta8  1  0.190188  0.809805  0.809842  1
  Ta  Ta9  1  0.809830  0.809816  0.190205  1
  Ta  Ta10  1  0.190146  0.809827  0.190181  1
  Ta  Ta11  1  0.809827  0.190144  0.190200  1
  Al  Al12  1  0.415084  0.415108  0.754695  1
  Al  Al13  1  0.415098  0.754676  0.415098  1
  Al  Al14  1  0.754695  0.415109  0.415085  1
  Al  Al15  1  0.415097  0.415123  0.415100  1
  Al  Al16  1  0.834916  0.834892  0.495305  1
  Al  Al17  1  0.834902  0.495324  0.834902  1
  Al  Al18  1  0.495305  0.834891  0.834915  1
  Al  Al19  1  0.834903  0.834877  0.834900  1
  Rh  Rh20  1  0.625000  0.625000  0.125000  1
  Rh  Rh21  1  0.625000  0.125000  0.625000  1
  Rh  Rh22  1  0.125000  0.625000  0.625000  1
  Rh  Rh23  1  0.625000  0.625000  0.625000  1
  C  C24  1  0.250012  0.250021  0.249947  1
  C  C25  1  0.999988  0.999979  0.000053  1
