# generated using pymatgen
data_Ti12Al8Pt4CN3
_symmetry_space_group_name_H-M   'P 1'
_cell_length_a   8.21068312
_cell_length_b   8.19415058
_cell_length_c   8.19417801
_cell_angle_alpha   60.00074190
_cell_angle_beta   60.06032866
_cell_angle_gamma   60.06172989
_symmetry_Int_Tables_number   1
_chemical_formula_structural   Ti12Al8Pt4CN3
_chemical_formula_sum   'Ti12 Al8 Pt4 C1 N3'
_cell_volume   390.18994249
_cell_formula_units_Z   1
loop_
 _symmetry_equiv_pos_site_id
 _symmetry_equiv_pos_as_xyz
  1  'x, y, z'
loop_
 _atom_site_type_symbol
 _atom_site_label
 _atom_site_symmetry_multiplicity
 _atom_site_fract_x
 _atom_site_fract_y
 _atom_site_fract_z
 _atom_site_occupancy
  Ti  Ti0  1  0.819493  0.815085  0.182650  1
  Ti  Ti1  1  0.068260  0.431768  0.431701  1
  Ti  Ti2  1  0.430500  0.067255  0.067289  1
  Ti  Ti3  1  0.068300  0.068380  0.431514  1
  Ti  Ti4  1  0.068308  0.431518  0.068423  1
  Ti  Ti5  1  0.430508  0.067353  0.434876  1
  Ti  Ti6  1  0.181692  0.818482  0.181577  1
  Ti  Ti7  1  0.181740  0.818232  0.818299  1
  Ti  Ti8  1  0.819500  0.182745  0.182711  1
  Ti  Ti9  1  0.819492  0.182647  0.815124  1
  Ti  Ti10  1  0.430507  0.434915  0.067350  1
  Ti  Ti11  1  0.181700  0.181620  0.818486  1
  Al  Al12  1  0.414797  0.757210  0.414012  1
  Al  Al13  1  0.835197  0.835986  0.492802  1
  Al  Al14  1  0.493799  0.835404  0.835382  1
  Al  Al15  1  0.835174  0.836034  0.836029  1
  Al  Al16  1  0.756201  0.414596  0.414618  1
  Al  Al17  1  0.414826  0.413966  0.413971  1
  Al  Al18  1  0.414803  0.414014  0.757198  1
  Al  Al19  1  0.835203  0.492790  0.835988  1
  Pt  Pt20  1  0.625000  0.125000  0.625000  1
  Pt  Pt21  1  0.625000  0.625000  0.125000  1
  Pt  Pt22  1  0.125000  0.625000  0.625000  1
  Pt  Pt23  1  0.625000  0.625000  0.625000  1
  C  C24  1  0.625000  0.125000  0.125000  1
  N  N25  1  0.125000  0.625000  0.125000  1
  N  N26  1  0.125000  0.125000  0.625000  1
  N  N27  1  0.125000  0.125000  0.125000  1
