# generated using pymatgen
data_LiY6(P3Rh5)4
_symmetry_space_group_name_H-M   'P 1'
_cell_length_a   13.43913900
_cell_length_b   13.43913808
_cell_length_c   3.90628100
_cell_angle_alpha   90.00000000
_cell_angle_beta   90.00000000
_cell_angle_gamma   119.99999981
_symmetry_Int_Tables_number   1
_chemical_formula_structural   LiY6(P3Rh5)4
_chemical_formula_sum   'Li1 Y6 P12 Rh20'
_cell_volume   610.99404231
_cell_formula_units_Z   1
loop_
 _symmetry_equiv_pos_site_id
 _symmetry_equiv_pos_as_xyz
  1  'x, y, z'
loop_
 _atom_site_type_symbol
 _atom_site_label
 _atom_site_symmetry_multiplicity
 _atom_site_fract_x
 _atom_site_fract_y
 _atom_site_fract_z
 _atom_site_occupancy
  Li  Li0  1  0.000000  0.000000  0.000000  1
  Y  Y1  1  0.530972  0.717862  0.250417  1
  Y  Y2  1  0.282138  0.813111  0.250417  1
  Y  Y3  1  0.186889  0.469028  0.250417  1
  Y  Y4  1  0.469028  0.282138  0.749583  1
  Y  Y5  1  0.717862  0.186889  0.749583  1
  Y  Y6  1  0.813111  0.530972  0.749583  1
  P  P7  1  0.527045  0.138399  0.250063  1
  P  P8  1  0.861601  0.388647  0.250063  1
  P  P9  1  0.611353  0.472955  0.250063  1
  P  P10  1  0.949506  0.722332  0.248178  1
  P  P11  1  0.277668  0.227175  0.248178  1
  P  P12  1  0.772825  0.050494  0.248178  1
  P  P13  1  0.388647  0.527045  0.749937  1
  P  P14  1  0.472955  0.861601  0.749937  1
  P  P15  1  0.138399  0.611353  0.749937  1
  P  P16  1  0.722332  0.772825  0.751822  1
  P  P17  1  0.227175  0.949506  0.751822  1
  P  P18  1  0.050494  0.277668  0.751822  1
  Rh  Rh19  1  0.333333  0.666667  0.750693  1
  Rh  Rh20  1  0.919954  0.252615  0.248224  1
  Rh  Rh21  1  0.747385  0.667339  0.248224  1
  Rh  Rh22  1  0.332661  0.080046  0.248224  1
  Rh  Rh23  1  0.440989  0.024582  0.749499  1
  Rh  Rh24  1  0.975418  0.416409  0.749499  1
  Rh  Rh25  1  0.583591  0.559011  0.749499  1
  Rh  Rh26  1  0.666667  0.333333  0.249307  1
  Rh  Rh27  1  0.095431  0.204345  0.252188  1
  Rh  Rh28  1  0.795655  0.891086  0.252188  1
  Rh  Rh29  1  0.108914  0.904569  0.252188  1
  Rh  Rh30  1  0.024582  0.583591  0.250501  1
  Rh  Rh31  1  0.416409  0.440989  0.250501  1
  Rh  Rh32  1  0.559011  0.975418  0.250501  1
  Rh  Rh33  1  0.667339  0.919954  0.751776  1
  Rh  Rh34  1  0.080046  0.747385  0.751776  1
  Rh  Rh35  1  0.252615  0.332661  0.751776  1
  Rh  Rh36  1  0.904569  0.795655  0.747812  1
  Rh  Rh37  1  0.204345  0.108914  0.747812  1
  Rh  Rh38  1  0.891086  0.095431  0.747812  1
