# generated using pymatgen
data_PrEu(Al2Ni)2
_symmetry_space_group_name_H-M   'P 1'
_cell_length_a   5.88062098
_cell_length_b   5.88062168
_cell_length_c   7.07142300
_cell_angle_alpha   90.00000000
_cell_angle_beta   90.00000000
_cell_angle_gamma   139.33678333
_symmetry_Int_Tables_number   1
_chemical_formula_structural   PrEu(Al2Ni)2
_chemical_formula_sum   'Pr1 Eu1 Al4 Ni2'
_cell_volume   159.34631460
_cell_formula_units_Z   1
loop_
 _symmetry_equiv_pos_site_id
 _symmetry_equiv_pos_as_xyz
  1  'x, y, z'
loop_
 _atom_site_type_symbol
 _atom_site_label
 _atom_site_symmetry_multiplicity
 _atom_site_fract_x
 _atom_site_fract_y
 _atom_site_fract_z
 _atom_site_occupancy
  Pr  Pr0  1  0.449809  0.550191  0.750000  1
  Eu  Eu1  1  0.550043  0.449957  0.250000  1
  Al  Al2  1  0.825983  0.174017  0.058292  1
  Al  Al3  1  0.173157  0.826843  0.940358  1
  Al  Al4  1  0.173157  0.826843  0.559642  1
  Al  Al5  1  0.825983  0.174017  0.441708  1
  Ni  Ni6  1  0.280046  0.719954  0.250000  1
  Ni  Ni7  1  0.721822  0.278178  0.750000  1
