# generated using pymatgen
data_Tm4VRe2Os5
_symmetry_space_group_name_H-M   'P 1'
_cell_length_a   5.43145959
_cell_length_b   5.17793116
_cell_length_c   8.87769200
_cell_angle_alpha   90.00000000
_cell_angle_beta   90.00000000
_cell_angle_gamma   120.62713003
_symmetry_Int_Tables_number   1
_chemical_formula_structural   Tm4VRe2Os5
_chemical_formula_sum   'Tm4 V1 Re2 Os5'
_cell_volume   214.84449285
_cell_formula_units_Z   1
loop_
 _symmetry_equiv_pos_site_id
 _symmetry_equiv_pos_as_xyz
  1  'x, y, z'
loop_
 _atom_site_type_symbol
 _atom_site_label
 _atom_site_symmetry_multiplicity
 _atom_site_fract_x
 _atom_site_fract_y
 _atom_site_fract_z
 _atom_site_occupancy
  Tm  Tm0  1  0.669881  0.337410  0.564366  1
  Tm  Tm1  1  0.327863  0.661386  0.436139  1
  Tm  Tm2  1  0.327863  0.661386  0.063861  1
  Tm  Tm3  1  0.669881  0.337410  0.935634  1
  V  V4  1  0.169093  0.334693  0.750000  1
  Re  Re5  1  0.837051  0.668706  0.250000  1
  Re  Re6  1  0.831025  0.171135  0.250000  1
  Os  Os7  1  0.995323  0.001530  0.503579  1
  Os  Os8  1  0.995323  0.001530  0.996421  1
  Os  Os9  1  0.173801  0.824946  0.750000  1
  Os  Os10  1  0.651053  0.825453  0.750000  1
  Os  Os11  1  0.351843  0.174416  0.250000  1
