# generated using pymatgen
data_Ti2Be15(NbCu2)4
_symmetry_space_group_name_H-M   'P 1'
_cell_length_a   7.67303997
_cell_length_b   7.63641246
_cell_length_c   7.63641370
_cell_angle_alpha   60.49660488
_cell_angle_beta   59.84121142
_cell_angle_gamma   59.84121226
_symmetry_Int_Tables_number   1
_chemical_formula_structural   Ti2Be15(NbCu2)4
_chemical_formula_sum   'Ti2 Be15 Nb4 Cu8'
_cell_volume   316.79643792
_cell_formula_units_Z   1
loop_
 _symmetry_equiv_pos_site_id
 _symmetry_equiv_pos_as_xyz
  1  'x, y, z'
loop_
 _atom_site_type_symbol
 _atom_site_label
 _atom_site_symmetry_multiplicity
 _atom_site_fract_x
 _atom_site_fract_y
 _atom_site_fract_z
 _atom_site_occupancy
  Ti  Ti0  1  0.799436  0.201383  0.798617  1
  Ti  Ti1  1  0.799436  0.798617  0.201383  1
  Be  Be2  1  0.499358  0.500000  0.500000  1
  Be  Be3  1  0.499393  0.500985  0.000123  1
  Be  Be4  1  0.002040  0.500000  0.500000  1
  Be  Be5  1  0.496519  0.000000  0.000000  1
  Be  Be6  1  0.000501  0.999877  0.499015  1
  Be  Be7  1  0.000501  0.499015  0.999877  1
  Be  Be8  1  0.499393  0.000123  0.500985  1
  Be  Be9  1  0.826792  0.520835  0.824886  1
  Be  Be10  1  0.172512  0.175114  0.479165  1
  Be  Be11  1  0.482769  0.171395  0.171395  1
  Be  Be12  1  0.176189  0.174203  0.174203  1
  Be  Be13  1  0.524595  0.825797  0.825797  1
  Be  Be14  1  0.825560  0.828605  0.828605  1
  Be  Be15  1  0.826792  0.824886  0.520835  1
  Be  Be16  1  0.172512  0.479165  0.175114  1
  Nb  Nb17  1  0.195616  0.195430  0.804570  1
  Nb  Nb18  1  0.181466  0.819344  0.819344  1
  Nb  Nb19  1  0.820154  0.180656  0.180656  1
  Nb  Nb20  1  0.195616  0.804570  0.195430  1
  Cu  Cu21  1  0.624497  0.132588  0.620424  1
  Cu  Cu22  1  0.377512  0.379576  0.867412  1
  Cu  Cu23  1  0.866248  0.376863  0.376863  1
  Cu  Cu24  1  0.380943  0.375363  0.375363  1
  Cu  Cu25  1  0.131669  0.624637  0.624637  1
  Cu  Cu26  1  0.619974  0.623137  0.623137  1
  Cu  Cu27  1  0.624497  0.620424  0.132588  1
  Cu  Cu28  1  0.377512  0.867412  0.379576  1
