# generated using pymatgen
data_Yb7DySb6
_symmetry_space_group_name_H-M   'P 1'
_cell_length_a   8.16877882
_cell_length_b   8.16877848
_cell_length_c   8.13029500
_cell_angle_alpha   109.37581401
_cell_angle_beta   109.37581317
_cell_angle_gamma   109.56646021
_symmetry_Int_Tables_number   1
_chemical_formula_structural   Yb7DySb6
_chemical_formula_sum   'Yb7 Dy1 Sb6'
_cell_volume   418.12743957
_cell_formula_units_Z   1
loop_
 _symmetry_equiv_pos_site_id
 _symmetry_equiv_pos_as_xyz
  1  'x, y, z'
loop_
 _atom_site_type_symbol
 _atom_site_label
 _atom_site_symmetry_multiplicity
 _atom_site_fract_x
 _atom_site_fract_y
 _atom_site_fract_z
 _atom_site_occupancy
  Yb  Yb0  1  0.649874  0.650486  0.650599  1
  Yb  Yb1  1  0.006010  0.358557  0.502475  1
  Yb  Yb2  1  0.352548  0.493990  0.996466  1
  Yb  Yb3  1  0.000612  0.850126  0.500725  1
  Yb  Yb4  1  0.849514  0.499388  0.000113  1
  Yb  Yb5  1  0.500000  0.000000  0.851826  1
  Yb  Yb6  1  0.141443  0.147452  0.143919  1
  Dy  Dy7  1  0.500000  0.000000  0.353587  1
  Sb  Sb8  1  0.870298  0.125565  0.742723  1
  Sb  Sb9  1  0.374435  0.244734  0.617159  1
  Sb  Sb10  1  0.130979  0.755295  0.884753  1
  Sb  Sb11  1  0.744705  0.875686  0.129458  1
  Sb  Sb12  1  0.255266  0.629702  0.372426  1
  Sb  Sb13  1  0.624314  0.369021  0.253772  1
