# generated using pymatgen
data_Dy5Y(AlC3)2
_symmetry_space_group_name_H-M   'P 1'
_cell_length_a   3.57237500
_cell_length_b   7.05258921
_cell_length_c   10.00149930
_cell_angle_alpha   89.97193769
_cell_angle_beta   90.00000000
_cell_angle_gamma   90.00000000
_symmetry_Int_Tables_number   1
_chemical_formula_structural   Dy5Y(AlC3)2
_chemical_formula_sum   'Dy5 Y1 Al2 C6'
_cell_volume   251.98267772
_cell_formula_units_Z   1
loop_
 _symmetry_equiv_pos_site_id
 _symmetry_equiv_pos_as_xyz
  1  'x, y, z'
loop_
 _atom_site_type_symbol
 _atom_site_label
 _atom_site_symmetry_multiplicity
 _atom_site_fract_x
 _atom_site_fract_y
 _atom_site_fract_z
 _atom_site_occupancy
  Dy  Dy0  1  0.500000  0.509880  0.199748  1
  Dy  Dy1  1  0.500000  0.489828  0.800294  1
  Dy  Dy2  1  0.500000  0.990084  0.199585  1
  Dy  Dy3  1  0.000000  0.749846  0.458020  1
  Dy  Dy4  1  0.000000  0.250108  0.542175  1
  Y  Y5  1  0.500000  0.008995  0.800713  1
  Al  Al6  1  0.000000  0.750046  0.005918  1
  Al  Al7  1  0.000000  0.250023  0.994062  1
  C  C8  1  0.500000  0.509122  0.565948  1
  C  C9  1  0.500000  0.490861  0.433997  1
  C  C10  1  0.500000  0.990784  0.565736  1
  C  C11  1  0.500000  0.009132  0.433836  1
  C  C12  1  0.000000  0.750087  0.208648  1
  C  C13  1  0.000000  0.251204  0.791322  1
