# generated using pymatgen
data_TbErTcB6
_symmetry_space_group_name_H-M   'P 1'
_cell_length_a   3.67743800
_cell_length_b   9.14994600
_cell_length_c   11.54633800
_cell_angle_alpha   90.00000000
_cell_angle_beta   90.00000000
_cell_angle_gamma   90.00000000
_symmetry_Int_Tables_number   1
_chemical_formula_structural   TbErTcB6
_chemical_formula_sum   'Tb4 Er4 Tc4 B24'
_cell_volume   388.51532753
_cell_formula_units_Z   4
loop_
 _symmetry_equiv_pos_site_id
 _symmetry_equiv_pos_as_xyz
  1  'x, y, z'
loop_
 _atom_site_type_symbol
 _atom_site_label
 _atom_site_symmetry_multiplicity
 _atom_site_fract_x
 _atom_site_fract_y
 _atom_site_fract_z
 _atom_site_occupancy
  Tb  Tb0  1  0.000000  0.323745  0.414251  1
  Tb  Tb1  1  0.000000  0.676255  0.585749  1
  Tb  Tb2  1  0.000000  0.823745  0.085749  1
  Tb  Tb3  1  0.000000  0.176255  0.914251  1
  Er  Er4  1  0.000000  0.943223  0.369809  1
  Er  Er5  1  0.000000  0.056777  0.630191  1
  Er  Er6  1  0.000000  0.443223  0.130191  1
  Er  Er7  1  0.000000  0.556777  0.869809  1
  Tc  Tc8  1  0.000000  0.639314  0.319900  1
  Tc  Tc9  1  0.000000  0.360686  0.680100  1
  Tc  Tc10  1  0.000000  0.139314  0.180100  1
  Tc  Tc11  1  0.000000  0.860686  0.819900  1
  B  B12  1  0.500000  0.553751  0.432399  1
  B  B13  1  0.500000  0.446249  0.567601  1
  B  B14  1  0.500000  0.053751  0.067601  1
  B  B15  1  0.500000  0.946249  0.932399  1
  B  B16  1  0.500000  0.749427  0.418169  1
  B  B17  1  0.500000  0.250573  0.581831  1
  B  B18  1  0.500000  0.249427  0.081831  1
  B  B19  1  0.500000  0.750573  0.918169  1
  B  B20  1  0.500000  0.792422  0.265580  1
  B  B21  1  0.500000  0.207578  0.734420  1
  B  B22  1  0.500000  0.292422  0.234420  1
  B  B23  1  0.500000  0.707578  0.765580  1
  B  B24  1  0.500000  0.630608  0.185422  1
  B  B25  1  0.500000  0.369392  0.814578  1
  B  B26  1  0.500000  0.130608  0.314578  1
  B  B27  1  0.500000  0.869392  0.685422  1
  B  B28  1  0.500000  0.982340  0.212334  1
  B  B29  1  0.500000  0.017660  0.787666  1
  B  B30  1  0.500000  0.482340  0.287666  1
  B  B31  1  0.500000  0.517660  0.712334  1
  B  B32  1  0.500000  0.599421  0.027651  1
  B  B33  1  0.500000  0.400579  0.972349  1
  B  B34  1  0.500000  0.099421  0.472349  1
  B  B35  1  0.500000  0.900579  0.527651  1
