# generated using pymatgen
data_Dy5ZnTe4
_symmetry_space_group_name_H-M   'P 1'
_cell_length_a   7.58937354
_cell_length_b   7.58937347
_cell_length_c   10.76399790
_cell_angle_alpha   61.10913081
_cell_angle_beta   61.10913207
_cell_angle_gamma   32.20090115
_symmetry_Int_Tables_number   1
_chemical_formula_structural   Dy5ZnTe4
_chemical_formula_sum   'Dy5 Zn1 Te4'
_cell_volume   285.57442848
_cell_formula_units_Z   1
loop_
 _symmetry_equiv_pos_site_id
 _symmetry_equiv_pos_as_xyz
  1  'x, y, z'
loop_
 _atom_site_type_symbol
 _atom_site_label
 _atom_site_symmetry_multiplicity
 _atom_site_fract_x
 _atom_site_fract_y
 _atom_site_fract_z
 _atom_site_occupancy
  Dy  Dy0  1  0.000000  0.000000  0.500000  1
  Dy  Dy1  1  0.588568  0.588568  0.093262  1
  Dy  Dy2  1  0.186960  0.186960  0.725934  1
  Dy  Dy3  1  0.813040  0.813040  0.274066  1
  Dy  Dy4  1  0.411432  0.411432  0.906738  1
  Zn  Zn5  1  0.000000  0.000000  0.000000  1
  Te  Te6  1  0.609878  0.609878  0.587281  1
  Te  Te7  1  0.193673  0.193673  0.195843  1
  Te  Te8  1  0.806327  0.806327  0.804157  1
  Te  Te9  1  0.390122  0.390122  0.412719  1
