# generated using pymatgen
data_TbEr3Al24CuPt8
_symmetry_space_group_name_H-M   'P 1'
_cell_length_a   7.51657965
_cell_length_b   7.51714917
_cell_length_c   13.08704343
_cell_angle_alpha   84.47168748
_cell_angle_beta   100.94331727
_cell_angle_gamma   119.85185961
_symmetry_Int_Tables_number   1
_chemical_formula_structural   TbEr3Al24CuPt8
_chemical_formula_sum   'Tb1 Er3 Al24 Cu1 Pt8'
_cell_volume   629.68134203
_cell_formula_units_Z   1
loop_
 _symmetry_equiv_pos_site_id
 _symmetry_equiv_pos_as_xyz
  1  'x, y, z'
loop_
 _atom_site_type_symbol
 _atom_site_label
 _atom_site_symmetry_multiplicity
 _atom_site_fract_x
 _atom_site_fract_y
 _atom_site_fract_z
 _atom_site_occupancy
  Tb  Tb0  1  0.231404  0.498329  0.191686  1
  Er  Er1  1  0.437628  0.830681  0.807250  1
  Er  Er2  1  0.562359  0.168395  0.192543  1
  Er  Er3  1  0.766747  0.501216  0.807065  1
  Al  Al4  1  0.482645  0.166755  0.944044  1
  Al  Al5  1  0.518109  0.834172  0.055433  1
  Al  Al6  1  0.019231  0.164881  0.561889  1
  Al  Al7  1  0.978328  0.832910  0.437138  1
  Al  Al8  1  0.353115  0.833435  0.559783  1
  Al  Al9  1  0.645873  0.166399  0.440240  1
  Al  Al10  1  0.616683  0.834716  0.329479  1
  Al  Al11  1  0.383638  0.168578  0.671612  1
  Al  Al12  1  0.060069  0.493167  0.671619  1
  Al  Al13  1  0.942836  0.506383  0.329340  1
  Al  Al14  1  0.727806  0.836964  0.670209  1
  Al  Al15  1  0.269665  0.159726  0.330607  1
  Al  Al16  1  0.147808  0.501192  0.943509  1
  Al  Al17  1  0.851163  0.499223  0.055253  1
  Al  Al18  1  0.816676  0.832189  0.953566  1
  Al  Al19  1  0.183575  0.167437  0.046283  1
  Al  Al20  1  0.313242  0.499661  0.442321  1
  Al  Al21  1  0.687145  0.499626  0.559680  1
  Al  Al22  1  0.102635  0.836648  0.183895  1
  Al  Al23  1  0.898492  0.164467  0.816119  1
  Al  Al24  1  0.309864  0.372032  0.812693  1
  Al  Al25  1  0.692165  0.630144  0.185008  1
  Al  Al26  1  0.103557  0.959217  0.815728  1
  Al  Al27  1  0.896586  0.041054  0.184112  1
  Cu  Cu28  1  0.390177  0.509423  0.639883  1
  Pt  Pt29  1  0.611549  0.491484  0.362588  1
  Pt  Pt30  1  0.171351  0.828551  0.999248  1
  Pt  Pt31  1  0.828570  0.171868  0.999568  1
  Pt  Pt32  1  0.295728  0.832760  0.362712  1
  Pt  Pt33  1  0.704181  0.166624  0.638321  1
  Pt  Pt34  1  0.046228  0.824242  0.637447  1
  Pt  Pt35  1  0.953654  0.175406  0.363071  1
  Pt  Pt36  1  0.499512  0.500048  0.999063  1
