# generated using pymatgen
data_Y8Be(Pd11Au)2
_symmetry_space_group_name_H-M   'P 1'
_cell_length_a   8.34569100
_cell_length_b   8.42097100
_cell_length_c   8.41296500
_cell_angle_alpha   90.00000000
_cell_angle_beta   90.00000000
_cell_angle_gamma   90.00000000
_symmetry_Int_Tables_number   1
_chemical_formula_structural   Y8Be(Pd11Au)2
_chemical_formula_sum   'Y8 Be1 Pd22 Au2'
_cell_volume   591.25326877
_cell_formula_units_Z   1
loop_
 _symmetry_equiv_pos_site_id
 _symmetry_equiv_pos_as_xyz
  1  'x, y, z'
loop_
 _atom_site_type_symbol
 _atom_site_label
 _atom_site_symmetry_multiplicity
 _atom_site_fract_x
 _atom_site_fract_y
 _atom_site_fract_z
 _atom_site_occupancy
  Y  Y0  1  0.251472  0.243135  0.251635  1
  Y  Y1  1  0.748402  0.747831  0.748216  1
  Y  Y2  1  0.748402  0.747831  0.251784  1
  Y  Y3  1  0.748402  0.252169  0.748216  1
  Y  Y4  1  0.251472  0.243135  0.748365  1
  Y  Y5  1  0.251472  0.756865  0.251635  1
  Y  Y6  1  0.251472  0.756865  0.748365  1
  Y  Y7  1  0.748402  0.252169  0.251784  1
  Be  Be8  1  0.999101  0.000000  0.000000  1
  Pd  Pd9  1  0.747209  0.500000  0.000000  1
  Pd  Pd10  1  0.000168  0.253057  0.500000  1
  Pd  Pd11  1  0.499861  0.253306  0.000000  1
  Pd  Pd12  1  0.000168  0.746943  0.500000  1
  Pd  Pd13  1  0.499861  0.746694  0.000000  1
  Pd  Pd14  1  0.501626  0.000000  0.254169  1
  Pd  Pd15  1  0.252664  0.000000  0.500000  1
  Pd  Pd16  1  0.501626  0.000000  0.745831  1
  Pd  Pd17  1  0.746906  0.000000  0.500000  1
  Pd  Pd18  1  0.002102  0.500000  0.253403  1
  Pd  Pd19  1  0.002102  0.500000  0.746597  1
  Pd  Pd20  1  0.749281  0.500000  0.500000  1
  Pd  Pd21  1  0.499787  0.251013  0.500000  1
  Pd  Pd22  1  0.499787  0.748987  0.500000  1
  Pd  Pd23  1  0.498458  0.500000  0.251861  1
  Pd  Pd24  1  0.498458  0.500000  0.748139  1
  Pd  Pd25  1  0.268015  0.000000  0.000000  1
  Pd  Pd26  1  0.731624  0.000000  0.000000  1
  Pd  Pd27  1  0.000347  0.267140  0.000000  1
  Pd  Pd28  1  0.000347  0.732860  0.000000  1
  Pd  Pd29  1  0.997729  0.000000  0.268186  1
  Pd  Pd30  1  0.997729  0.000000  0.731814  1
  Au  Au31  1  0.254170  0.500000  0.000000  1
  Au  Au32  1  0.251378  0.500000  0.500000  1
