# generated using pymatgen
data_HoTaSnB2Ru5
_symmetry_space_group_name_H-M   'P 1'
_cell_length_a   9.62346817
_cell_length_b   9.62346811
_cell_length_c   3.09100700
_cell_angle_alpha   90.00000000
_cell_angle_beta   90.00000000
_cell_angle_gamma   91.69502773
_symmetry_Int_Tables_number   1
_chemical_formula_structural   HoTaSnB2Ru5
_chemical_formula_sum   'Ho2 Ta2 Sn2 B4 Ru10'
_cell_volume   286.13641967
_cell_formula_units_Z   2
loop_
 _symmetry_equiv_pos_site_id
 _symmetry_equiv_pos_as_xyz
  1  'x, y, z'
loop_
 _atom_site_type_symbol
 _atom_site_label
 _atom_site_symmetry_multiplicity
 _atom_site_fract_x
 _atom_site_fract_y
 _atom_site_fract_z
 _atom_site_occupancy
  Ho  Ho0  1  0.823662  0.676338  0.000000  1
  Ho  Ho1  1  0.176338  0.323662  0.000000  1
  Ta  Ta2  1  0.325533  0.825533  0.000000  1
  Ta  Ta3  1  0.674467  0.174467  0.000000  1
  Sn  Sn4  1  0.500000  0.500000  0.000000  1
  Sn  Sn5  1  0.000000  0.000000  0.000000  1
  B  B6  1  0.619882  0.880118  0.000000  1
  B  B7  1  0.380118  0.119882  0.000000  1
  B  B8  1  0.122165  0.622165  0.000000  1
  B  B9  1  0.877835  0.377835  0.000000  1
  Ru  Ru10  1  0.554743  0.728354  0.500000  1
  Ru  Ru11  1  0.445257  0.271646  0.500000  1
  Ru  Ru12  1  0.086723  0.783313  0.500000  1
  Ru  Ru13  1  0.913277  0.216687  0.500000  1
  Ru  Ru14  1  0.283313  0.586723  0.500000  1
  Ru  Ru15  1  0.716687  0.413277  0.500000  1
  Ru  Ru16  1  0.228354  0.054743  0.500000  1
  Ru  Ru17  1  0.771646  0.945257  0.500000  1
  Ru  Ru18  1  0.500000  0.000000  0.500000  1
  Ru  Ru19  1  0.000000  0.500000  0.500000  1
