# generated using pymatgen
data_Nd7ThMgCdIr2
_symmetry_space_group_name_H-M   'P 1'
_cell_length_a   10.00357978
_cell_length_b   10.00357922
_cell_length_c   10.04151700
_cell_angle_alpha   59.87446492
_cell_angle_beta   59.87446679
_cell_angle_gamma   59.88665723
_symmetry_Int_Tables_number   1
_chemical_formula_structural   Nd7ThMgCdIr2
_chemical_formula_sum   'Nd14 Th2 Mg2 Cd2 Ir4'
_cell_volume   708.59249180
_cell_formula_units_Z   2
loop_
 _symmetry_equiv_pos_site_id
 _symmetry_equiv_pos_as_xyz
  1  'x, y, z'
loop_
 _atom_site_type_symbol
 _atom_site_label
 _atom_site_symmetry_multiplicity
 _atom_site_fract_x
 _atom_site_fract_y
 _atom_site_fract_z
 _atom_site_occupancy
  Nd  Nd0  1  0.347851  0.954640  0.348754  1
  Nd  Nd1  1  0.954640  0.347851  0.348754  1
  Nd  Nd2  1  0.810912  0.189678  0.189406  1
  Nd  Nd3  1  0.189678  0.810912  0.810003  1
  Nd  Nd4  1  0.189678  0.810912  0.189406  1
  Nd  Nd5  1  0.810912  0.189678  0.810003  1
  Nd  Nd6  1  0.190507  0.190507  0.809493  1
  Nd  Nd7  1  0.811263  0.811263  0.188737  1
  Nd  Nd8  1  0.941599  0.561530  0.562539  1
  Nd  Nd9  1  0.561530  0.941599  0.934331  1
  Nd  Nd10  1  0.561530  0.941599  0.562539  1
  Nd  Nd11  1  0.941599  0.561530  0.934331  1
  Nd  Nd12  1  0.562696  0.562696  0.937304  1
  Nd  Nd13  1  0.938798  0.938798  0.561202  1
  Th  Th14  1  0.344455  0.344455  0.346551  1
  Th  Th15  1  0.344455  0.344455  0.964539  1
  Mg  Mg16  1  0.575698  0.575698  0.580956  1
  Mg  Mg17  1  0.575698  0.575698  0.267648  1
  Cd  Cd18  1  0.579597  0.258215  0.581094  1
  Cd  Cd19  1  0.258215  0.579597  0.581094  1
  Ir  Ir20  1  0.145869  0.145869  0.138048  1
  Ir  Ir21  1  0.145869  0.145869  0.570213  1
  Ir  Ir22  1  0.149918  0.567030  0.141526  1
  Ir  Ir23  1  0.567030  0.149918  0.141526  1
