# generated using pymatgen
data_Sc4Si2B4(IrRu)5
_symmetry_space_group_name_H-M   'P 1'
_cell_length_a   9.37864721
_cell_length_b   9.36181821
_cell_length_c   2.98464000
_cell_angle_alpha   90.00000000
_cell_angle_beta   90.00000000
_cell_angle_gamma   90.02432416
_symmetry_Int_Tables_number   1
_chemical_formula_structural   Sc4Si2B4(IrRu)5
_chemical_formula_sum   'Sc4 Si2 B4 Ir5 Ru5'
_cell_volume   262.05492087
_cell_formula_units_Z   1
loop_
 _symmetry_equiv_pos_site_id
 _symmetry_equiv_pos_as_xyz
  1  'x, y, z'
loop_
 _atom_site_type_symbol
 _atom_site_label
 _atom_site_symmetry_multiplicity
 _atom_site_fract_x
 _atom_site_fract_y
 _atom_site_fract_z
 _atom_site_occupancy
  Sc  Sc0  1  0.174177  0.676085  0.000000  1
  Sc  Sc1  1  0.673561  0.830762  0.000000  1
  Sc  Sc2  1  0.322464  0.170535  0.000000  1
  Sc  Sc3  1  0.829845  0.321505  0.000000  1
  Si  Si4  1  0.001050  0.003985  0.000000  1
  Si  Si5  1  0.499322  0.499439  0.000000  1
  B  B6  1  0.373140  0.879976  0.000000  1
  B  B7  1  0.878392  0.622069  0.000000  1
  B  B8  1  0.121293  0.373948  0.000000  1
  B  B9  1  0.626359  0.119982  0.000000  1
  Ir  Ir10  1  0.288911  0.430596  0.500000  1
  Ir  Ir11  1  0.711335  0.570287  0.500000  1
  Ir  Ir12  1  0.570205  0.288855  0.500000  1
  Ir  Ir13  1  0.431194  0.711194  0.500000  1
  Ir  Ir14  1  0.929309  0.790193  0.500000  1
  Ru  Ru15  1  0.000700  0.500877  0.500000  1
  Ru  Ru16  1  0.498740  0.000767  0.500000  1
  Ru  Ru17  1  0.789957  0.069538  0.500000  1
  Ru  Ru18  1  0.209069  0.928438  0.500000  1
  Ru  Ru19  1  0.070975  0.210968  0.500000  1
