# generated using pymatgen
data_Li2Pr2Si2Pb
_symmetry_space_group_name_H-M   'P 1'
_cell_length_a   9.90491060
_cell_length_b   9.90491078
_cell_length_c   6.92877300
_cell_angle_alpha   90.00000000
_cell_angle_beta   90.00000000
_cell_angle_gamma   153.28688425
_symmetry_Int_Tables_number   1
_chemical_formula_structural   Li2Pr2Si2Pb
_chemical_formula_sum   'Li4 Pr4 Si4 Pb2'
_cell_volume   305.56939417
_cell_formula_units_Z   2
loop_
 _symmetry_equiv_pos_site_id
 _symmetry_equiv_pos_as_xyz
  1  'x, y, z'
loop_
 _atom_site_type_symbol
 _atom_site_label
 _atom_site_symmetry_multiplicity
 _atom_site_fract_x
 _atom_site_fract_y
 _atom_site_fract_z
 _atom_site_occupancy
  Li  Li0  1  0.817192  0.182808  0.553496  1
  Li  Li1  1  0.182808  0.817192  0.446504  1
  Li  Li2  1  0.182808  0.817192  0.053496  1
  Li  Li3  1  0.817192  0.182808  0.946504  1
  Pr  Pr4  1  0.548008  0.451992  0.250000  1
  Pr  Pr5  1  0.451992  0.548008  0.750000  1
  Pr  Pr6  1  0.352112  0.647888  0.250000  1
  Pr  Pr7  1  0.647888  0.352112  0.750000  1
  Si  Si8  1  0.943753  0.056247  0.075143  1
  Si  Si9  1  0.056247  0.943753  0.924857  1
  Si  Si10  1  0.056247  0.943753  0.575143  1
  Si  Si11  1  0.943753  0.056247  0.424857  1
  Pb  Pb12  1  0.719073  0.280927  0.250000  1
  Pb  Pb13  1  0.280927  0.719073  0.750000  1
