# generated using pymatgen
data_ErTm3NiB14
_symmetry_space_group_name_H-M   'P 1'
_cell_length_a   7.17807200
_cell_length_b   7.17803900
_cell_length_c   7.41743000
_cell_angle_alpha   90.00000000
_cell_angle_beta   90.00000000
_cell_angle_gamma   89.99985632
_symmetry_Int_Tables_number   1
_chemical_formula_structural   ErTm3NiB14
_chemical_formula_sum   'Er2 Tm6 Ni2 B28'
_cell_volume   382.17922933
_cell_formula_units_Z   2
loop_
 _symmetry_equiv_pos_site_id
 _symmetry_equiv_pos_as_xyz
  1  'x, y, z'
loop_
 _atom_site_type_symbol
 _atom_site_label
 _atom_site_symmetry_multiplicity
 _atom_site_fract_x
 _atom_site_fract_y
 _atom_site_fract_z
 _atom_site_occupancy
  Er  Er0  1  0.193803  0.332540  0.000000  1
  Er  Er1  1  0.667478  0.193825  0.000000  1
  Tm  Tm2  1  0.332572  0.806175  0.000000  1
  Tm  Tm3  1  0.693832  0.167432  0.500000  1
  Tm  Tm4  1  0.306157  0.832572  0.500000  1
  Tm  Tm5  1  0.806164  0.667447  0.000000  1
  Tm  Tm6  1  0.832583  0.693840  0.500000  1
  Tm  Tm7  1  0.167434  0.306167  0.500000  1
  Ni  Ni8  1  0.000032  0.999846  0.000000  1
  Ni  Ni9  1  0.500002  0.500016  0.500000  1
  B  B10  1  0.175426  0.039196  0.232145  1
  B  B11  1  0.960749  0.175374  0.232190  1
  B  B12  1  0.039260  0.824555  0.232098  1
  B  B13  1  0.675441  0.460785  0.267963  1
  B  B14  1  0.324583  0.539317  0.267989  1
  B  B15  1  0.824605  0.960689  0.232146  1
  B  B16  1  0.539264  0.675458  0.267942  1
  B  B17  1  0.460732  0.324601  0.268011  1
  B  B18  1  0.824605  0.960689  0.767854  1
  B  B19  1  0.039260  0.824555  0.767902  1
  B  B20  1  0.960749  0.175374  0.767810  1
  B  B21  1  0.324583  0.539317  0.732011  1
  B  B22  1  0.675441  0.460785  0.732037  1
  B  B23  1  0.175426  0.039196  0.767855  1
  B  B24  1  0.460732  0.324601  0.731989  1
  B  B25  1  0.539264  0.675458  0.732058  1
  B  B26  1  0.088614  0.588702  0.250062  1
  B  B27  1  0.411309  0.088603  0.250071  1
  B  B28  1  0.588626  0.911323  0.250034  1
  B  B29  1  0.911335  0.411385  0.250042  1
  B  B30  1  0.911335  0.411385  0.749958  1
  B  B31  1  0.588626  0.911323  0.749966  1
  B  B32  1  0.411309  0.088603  0.749929  1
  B  B33  1  0.088614  0.588702  0.749938  1
  B  B34  1  0.999998  0.999981  0.388670  1
  B  B35  1  0.500031  0.500102  0.111423  1
  B  B36  1  0.999998  0.999981  0.611330  1
  B  B37  1  0.500031  0.500102  0.888577  1
