# generated using pymatgen
data_La4InHg7O4
_symmetry_space_group_name_H-M   'P 1'
_cell_length_a   5.92591243
_cell_length_b   5.88122453
_cell_length_c   11.07313174
_cell_angle_alpha   89.27843244
_cell_angle_beta   96.52045008
_cell_angle_gamma   89.83196109
_symmetry_Int_Tables_number   1
_chemical_formula_structural   La4InHg7O4
_chemical_formula_sum   'La4 In1 Hg7 O4'
_cell_volume   383.38614985
_cell_formula_units_Z   1
loop_
 _symmetry_equiv_pos_site_id
 _symmetry_equiv_pos_as_xyz
  1  'x, y, z'
loop_
 _atom_site_type_symbol
 _atom_site_label
 _atom_site_symmetry_multiplicity
 _atom_site_fract_x
 _atom_site_fract_y
 _atom_site_fract_z
 _atom_site_occupancy
  La  La0  1  0.519862  0.181730  0.104413  1
  La  La1  1  0.021568  0.681856  0.106441  1
  La  La2  1  0.978011  0.185074  0.893210  1
  La  La3  1  0.479145  0.685091  0.893022  1
  In  In4  1  0.534511  0.163789  0.423205  1
  Hg  Hg5  1  0.027109  0.654797  0.419444  1
  Hg  Hg6  1  0.977601  0.156825  0.579781  1
  Hg  Hg7  1  0.467677  0.666410  0.582539  1
  Hg  Hg8  1  0.544238  0.673136  0.294963  1
  Hg  Hg9  1  0.044608  0.167960  0.293377  1
  Hg  Hg10  1  0.949167  0.671080  0.707602  1
  Hg  Hg11  1  0.458100  0.177048  0.703683  1
  O  O12  1  0.751115  0.931930  0.999656  1
  O  O13  1  0.248140  0.933259  0.999234  1
  O  O14  1  0.750429  0.435769  0.000107  1
  O  O15  1  0.248727  0.434207  0.999324  1
