# generated using pymatgen
data_CeDy11Ir3Os
_symmetry_space_group_name_H-M   'P 1'
_cell_length_a   6.39381341
_cell_length_b   7.22181711
_cell_length_c   9.24906200
_cell_angle_alpha   90.00000000
_cell_angle_beta   90.00000000
_cell_angle_gamma   90.82027192
_symmetry_Int_Tables_number   1
_chemical_formula_structural   CeDy11Ir3Os
_chemical_formula_sum   'Ce1 Dy11 Ir3 Os1'
_cell_volume   427.03121928
_cell_formula_units_Z   1
loop_
 _symmetry_equiv_pos_site_id
 _symmetry_equiv_pos_as_xyz
  1  'x, y, z'
loop_
 _atom_site_type_symbol
 _atom_site_label
 _atom_site_symmetry_multiplicity
 _atom_site_fract_x
 _atom_site_fract_y
 _atom_site_fract_z
 _atom_site_occupancy
  Ce  Ce0  1  0.865728  0.551462  0.250000  1
  Dy  Dy1  1  0.331777  0.675861  0.060808  1
  Dy  Dy2  1  0.169622  0.177243  0.435080  1
  Dy  Dy3  1  0.673483  0.323098  0.561961  1
  Dy  Dy4  1  0.829626  0.824506  0.937847  1
  Dy  Dy5  1  0.673483  0.323098  0.938039  1
  Dy  Dy6  1  0.829626  0.824506  0.562153  1
  Dy  Dy7  1  0.331777  0.675861  0.439192  1
  Dy  Dy8  1  0.169622  0.177243  0.064920  1
  Dy  Dy9  1  0.626365  0.031371  0.250000  1
  Dy  Dy10  1  0.131452  0.463072  0.750000  1
  Dy  Dy11  1  0.371030  0.967105  0.750000  1
  Ir  Ir12  1  0.461026  0.383224  0.250000  1
  Ir  Ir13  1  0.951664  0.116082  0.750000  1
  Ir  Ir14  1  0.544278  0.615213  0.750000  1
  Os  Os15  1  0.039441  0.871054  0.250000  1
