# generated using pymatgen
data_NdGdSiO5
_symmetry_space_group_name_H-M   'P 1'
_cell_length_a   7.15633000
_cell_length_b   6.89502567
_cell_length_c   9.36235175
_cell_angle_alpha   71.60201224
_cell_angle_beta   90.00000000
_cell_angle_gamma   90.00000000
_symmetry_Int_Tables_number   1
_chemical_formula_structural   NdGdSiO5
_chemical_formula_sum   'Nd4 Gd4 Si4 O20'
_cell_volume   438.35477440
_cell_formula_units_Z   4
loop_
 _symmetry_equiv_pos_site_id
 _symmetry_equiv_pos_as_xyz
  1  'x, y, z'
loop_
 _atom_site_type_symbol
 _atom_site_label
 _atom_site_symmetry_multiplicity
 _atom_site_fract_x
 _atom_site_fract_y
 _atom_site_fract_z
 _atom_site_occupancy
  Nd  Nd0  1  0.853502  0.412552  0.886081  1
  Nd  Nd1  1  0.353502  0.087448  0.113919  1
  Nd  Nd2  1  0.146498  0.587448  0.113919  1
  Nd  Nd3  1  0.646498  0.912552  0.886081  1
  Gd  Gd4  1  0.375499  0.231067  0.474320  1
  Gd  Gd5  1  0.875499  0.268933  0.525680  1
  Gd  Gd6  1  0.624501  0.768933  0.525680  1
  Gd  Gd7  1  0.124501  0.731067  0.474320  1
  Si  Si8  1  0.412408  0.460331  0.795046  1
  Si  Si9  1  0.912408  0.039669  0.204954  1
  Si  Si10  1  0.587592  0.539669  0.204954  1
  Si  Si11  1  0.087592  0.960331  0.795046  1
  O  O12  1  0.567945  0.642154  0.790912  1
  O  O13  1  0.067945  0.857846  0.209088  1
  O  O14  1  0.432055  0.357846  0.209088  1
  O  O15  1  0.932055  0.142154  0.790912  1
  O  O16  1  0.541055  0.254157  0.864043  1
  O  O17  1  0.041055  0.245843  0.135957  1
  O  O18  1  0.458945  0.745843  0.135957  1
  O  O19  1  0.958945  0.754157  0.864043  1
  O  O20  1  0.361423  0.509367  0.614709  1
  O  O21  1  0.861423  0.990633  0.385291  1
  O  O22  1  0.638577  0.490633  0.385291  1
  O  O23  1  0.138577  0.009367  0.614709  1
  O  O24  1  0.234498  0.444660  0.904785  1
  O  O25  1  0.734498  0.055340  0.095215  1
  O  O26  1  0.765502  0.555340  0.095215  1
  O  O27  1  0.265502  0.944660  0.904785  1
  O  O28  1  0.621249  0.053208  0.611483  1
  O  O29  1  0.121249  0.446792  0.388517  1
  O  O30  1  0.378751  0.946792  0.388517  1
  O  O31  1  0.878751  0.553208  0.611483  1
