# generated using pymatgen
data_Sc6Ti5Al11Os7
_symmetry_space_group_name_H-M   'P 1'
_cell_length_a   8.85998467
_cell_length_b   8.85998538
_cell_length_c   8.84895644
_cell_angle_alpha   59.95876619
_cell_angle_beta   59.95876193
_cell_angle_gamma   59.99999998
_symmetry_Int_Tables_number   1
_chemical_formula_structural   Sc6Ti5Al11Os7
_chemical_formula_sum   'Sc6 Ti5 Al11 Os7'
_cell_volume   490.87630189
_cell_formula_units_Z   1
loop_
 _symmetry_equiv_pos_site_id
 _symmetry_equiv_pos_as_xyz
  1  'x, y, z'
loop_
 _atom_site_type_symbol
 _atom_site_label
 _atom_site_symmetry_multiplicity
 _atom_site_fract_x
 _atom_site_fract_y
 _atom_site_fract_z
 _atom_site_occupancy
  Sc  Sc0  1  0.710386  0.710386  0.290301  1
  Sc  Sc1  1  0.288927  0.710386  0.290301  1
  Sc  Sc2  1  0.710386  0.288927  0.290301  1
  Sc  Sc3  1  0.290020  0.290020  0.714547  1
  Sc  Sc4  1  0.705412  0.290020  0.714547  1
  Sc  Sc5  1  0.290020  0.705412  0.714547  1
  Ti  Ti6  1  0.879642  0.879642  0.361074  1
  Ti  Ti7  1  0.878011  0.362810  0.881166  1
  Ti  Ti8  1  0.362810  0.878011  0.881166  1
  Ti  Ti9  1  0.878011  0.878011  0.881166  1
  Ti  Ti10  1  0.122953  0.122953  0.631143  1
  Al  Al11  1  0.118943  0.642262  0.119852  1
  Al  Al12  1  0.642262  0.118943  0.119852  1
  Al  Al13  1  0.118943  0.118943  0.119852  1
  Al  Al14  1  0.665645  0.665645  0.003067  1
  Al  Al15  1  0.665744  0.003061  0.665451  1
  Al  Al16  1  0.003061  0.665744  0.665451  1
  Al  Al17  1  0.665744  0.665744  0.665451  1
  Al  Al18  1  0.332561  0.332561  0.002317  1
  Al  Al19  1  0.336598  0.994316  0.332486  1
  Al  Al20  1  0.994316  0.336598  0.332486  1
  Al  Al21  1  0.336598  0.336598  0.332486  1
  Os  Os22  1  0.004086  0.004086  0.987742  1
  Os  Os23  1  0.999411  0.999411  0.502826  1
  Os  Os24  1  0.498351  0.999411  0.502826  1
  Os  Os25  1  0.999411  0.498351  0.502826  1
  Os  Os26  1  0.500895  0.500895  0.998256  1
  Os  Os27  1  0.999954  0.500895  0.998256  1
  Os  Os28  1  0.500895  0.999954  0.998256  1
