# generated using pymatgen
data_Lu4Tc3Os5
_symmetry_space_group_name_H-M   'P 1'
_cell_length_a   5.27939943
_cell_length_b   5.27265906
_cell_length_c   8.85840800
_cell_angle_alpha   90.00000000
_cell_angle_beta   90.00000000
_cell_angle_gamma   119.95776545
_symmetry_Int_Tables_number   1
_chemical_formula_structural   Lu4Tc3Os5
_chemical_formula_sum   'Lu4 Tc3 Os5'
_cell_volume   213.64129101
_cell_formula_units_Z   1
loop_
 _symmetry_equiv_pos_site_id
 _symmetry_equiv_pos_as_xyz
  1  'x, y, z'
loop_
 _atom_site_type_symbol
 _atom_site_label
 _atom_site_symmetry_multiplicity
 _atom_site_fract_x
 _atom_site_fract_y
 _atom_site_fract_z
 _atom_site_occupancy
  Lu  Lu0  1  0.335819  0.667910  0.434753  1
  Lu  Lu1  1  0.668523  0.334261  0.564233  1
  Lu  Lu2  1  0.668523  0.334261  0.935767  1
  Lu  Lu3  1  0.335819  0.667910  0.065247  1
  Tc  Tc4  1  0.168437  0.340783  0.750000  1
  Tc  Tc5  1  0.168437  0.827655  0.750000  1
  Tc  Tc6  1  0.335973  0.167986  0.250000  1
  Os  Os7  1  0.822820  0.651384  0.250000  1
  Os  Os8  1  0.649883  0.824942  0.750000  1
  Os  Os9  1  0.011474  0.005737  0.000764  1
  Os  Os10  1  0.822820  0.171435  0.250000  1
  Os  Os11  1  0.011474  0.005737  0.499236  1
