# generated using pymatgen
data_Zr4Sc7(OsRu)2
_symmetry_space_group_name_H-M   'P 1'
_cell_length_a   9.49865786
_cell_length_b   9.50181285
_cell_length_c   9.49865852
_cell_angle_alpha   59.98901217
_cell_angle_beta   60.02198349
_cell_angle_gamma   59.98901310
_symmetry_Int_Tables_number   1
_chemical_formula_structural   Zr4Sc7(OsRu)2
_chemical_formula_sum   'Zr8 Sc14 Os4 Ru4'
_cell_volume   606.19999309
_cell_formula_units_Z   2
loop_
 _symmetry_equiv_pos_site_id
 _symmetry_equiv_pos_as_xyz
  1  'x, y, z'
loop_
 _atom_site_type_symbol
 _atom_site_label
 _atom_site_symmetry_multiplicity
 _atom_site_fract_x
 _atom_site_fract_y
 _atom_site_fract_z
 _atom_site_occupancy
  Zr  Zr0  1  0.842206  0.842623  0.842206  1
  Zr  Zr1  1  0.527034  0.157794  0.157377  1
  Zr  Zr2  1  0.157377  0.157794  0.527034  1
  Zr  Zr3  1  0.157794  0.527034  0.157794  1
  Zr  Zr4  1  0.842623  0.842206  0.472966  1
  Zr  Zr5  1  0.842206  0.472966  0.842206  1
  Zr  Zr6  1  0.472966  0.842206  0.842623  1
  Zr  Zr7  1  0.157794  0.157377  0.157794  1
  Sc  Sc8  1  0.199518  0.800482  0.199518  1
  Sc  Sc9  1  0.198532  0.801468  0.801468  1
  Sc  Sc10  1  0.801468  0.198532  0.198532  1
  Sc  Sc11  1  0.801468  0.801468  0.198532  1
  Sc  Sc12  1  0.198532  0.198532  0.801468  1
  Sc  Sc13  1  0.800482  0.199518  0.800482  1
  Sc  Sc14  1  0.382961  0.384800  0.382961  1
  Sc  Sc15  1  0.150723  0.617039  0.615200  1
  Sc  Sc16  1  0.617039  0.150723  0.617039  1
  Sc  Sc17  1  0.615200  0.617039  0.150723  1
  Sc  Sc18  1  0.382961  0.849277  0.382961  1
  Sc  Sc19  1  0.384800  0.382961  0.849277  1
  Sc  Sc20  1  0.849277  0.382961  0.384800  1
  Sc  Sc21  1  0.617039  0.615200  0.617039  1
  Os  Os22  1  0.500000  0.500000  0.000000  1
  Os  Os23  1  0.000000  0.000000  0.500000  1
  Os  Os24  1  0.000000  0.500000  0.500000  1
  Os  Os25  1  0.500000  0.000000  0.000000  1
  Ru  Ru26  1  0.500000  0.000000  0.500000  1
  Ru  Ru27  1  0.000000  0.500000  0.000000  1
  Ru  Ru28  1  0.500000  0.500000  0.500000  1
  Ru  Ru29  1  0.000000  0.000000  0.000000  1
