# generated using pymatgen
data_Ho3Zn3CuPtAu
_symmetry_space_group_name_H-M   'P 1'
_cell_length_a   7.42646000
_cell_length_b   7.42645948
_cell_length_c   3.73401200
_cell_angle_alpha   90.00000000
_cell_angle_beta   90.00000000
_cell_angle_gamma   119.99999340
_symmetry_Int_Tables_number   1
_chemical_formula_structural   Ho3Zn3CuPtAu
_chemical_formula_sum   'Ho3 Zn3 Cu1 Pt1 Au1'
_cell_volume   178.34873450
_cell_formula_units_Z   1
loop_
 _symmetry_equiv_pos_site_id
 _symmetry_equiv_pos_as_xyz
  1  'x, y, z'
loop_
 _atom_site_type_symbol
 _atom_site_label
 _atom_site_symmetry_multiplicity
 _atom_site_fract_x
 _atom_site_fract_y
 _atom_site_fract_z
 _atom_site_occupancy
  Ho  Ho0  1  0.410034  0.398801  0.000000  1
  Ho  Ho1  1  0.601199  0.011233  0.000000  1
  Ho  Ho2  1  0.988767  0.589966  0.000000  1
  Zn  Zn3  1  0.755858  0.755354  0.500000  1
  Zn  Zn4  1  0.244646  0.000504  0.500000  1
  Zn  Zn5  1  0.999496  0.244142  0.500000  1
  Cu  Cu6  1  0.000000  0.000000  0.000000  1
  Pt  Pt7  1  0.666667  0.333333  0.500000  1
  Au  Au8  1  0.333333  0.666667  0.500000  1
