# generated using pymatgen
data_Tb2Y3(GaSb)2
_symmetry_space_group_name_H-M   'P 1'
_cell_length_a   8.67661745
_cell_length_b   8.66885204
_cell_length_c   7.94898415
_cell_angle_alpha   89.98237475
_cell_angle_beta   90.02155120
_cell_angle_gamma   125.40830921
_symmetry_Int_Tables_number   1
_chemical_formula_structural   Tb2Y3(GaSb)2
_chemical_formula_sum   'Tb4 Y6 Ga4 Sb4'
_cell_volume   487.30915996
_cell_formula_units_Z   2
loop_
 _symmetry_equiv_pos_site_id
 _symmetry_equiv_pos_as_xyz
  1  'x, y, z'
loop_
 _atom_site_type_symbol
 _atom_site_label
 _atom_site_symmetry_multiplicity
 _atom_site_fract_x
 _atom_site_fract_y
 _atom_site_fract_z
 _atom_site_occupancy
  Tb  Tb0  1  0.039111  0.301328  0.331906  1
  Tb  Tb1  1  0.960977  0.698927  0.667882  1
  Tb  Tb2  1  0.460902  0.198875  0.831872  1
  Tb  Tb3  1  0.800995  0.539020  0.167984  1
  Y  Y4  1  0.538727  0.800794  0.167579  1
  Y  Y5  1  0.199332  0.461359  0.832567  1
  Y  Y6  1  0.699290  0.961317  0.667671  1
  Y  Y7  1  0.300457  0.038610  0.332538  1
  Y  Y8  1  0.999989  0.000016  0.999997  1
  Y  Y9  1  0.500000  0.499995  0.500001  1
  Ga  Ga10  1  0.375412  0.375540  0.123998  1
  Ga  Ga11  1  0.624612  0.624455  0.875992  1
  Ga  Ga12  1  0.124453  0.124572  0.623999  1
  Ga  Ga13  1  0.875496  0.875468  0.376004  1
  Sb  Sb14  1  0.794894  0.204806  0.999518  1
  Sb  Sb15  1  0.205377  0.794903  0.000477  1
  Sb  Sb16  1  0.704662  0.294498  0.499782  1
  Sb  Sb17  1  0.295312  0.705520  0.500233  1
