# generated using pymatgen
data_YHo2Co8MoP6
_symmetry_space_group_name_H-M   'P 1'
_cell_length_a   3.71946200
_cell_length_b   10.55972400
_cell_length_c   12.24763600
_cell_angle_alpha   90.00000000
_cell_angle_beta   90.00000000
_cell_angle_gamma   90.00000000
_symmetry_Int_Tables_number   1
_chemical_formula_structural   YHo2Co8MoP6
_chemical_formula_sum   'Y2 Ho4 Co16 Mo2 P12'
_cell_volume   481.04417919
_cell_formula_units_Z   2
loop_
 _symmetry_equiv_pos_site_id
 _symmetry_equiv_pos_as_xyz
  1  'x, y, z'
loop_
 _atom_site_type_symbol
 _atom_site_label
 _atom_site_symmetry_multiplicity
 _atom_site_fract_x
 _atom_site_fract_y
 _atom_site_fract_z
 _atom_site_occupancy
  Y  Y0  1  0.000000  0.500000  0.524308  1
  Y  Y1  1  0.500000  0.000000  0.475692  1
  Ho  Ho2  1  0.500000  0.819200  0.204743  1
  Ho  Ho3  1  0.500000  0.180800  0.204743  1
  Ho  Ho4  1  0.000000  0.680800  0.795257  1
  Ho  Ho5  1  0.000000  0.319200  0.795257  1
  Co  Co6  1  0.000000  0.500000  0.986420  1
  Co  Co7  1  0.500000  0.000000  0.013580  1
  Co  Co8  1  0.500000  0.295861  0.431305  1
  Co  Co9  1  0.500000  0.704139  0.431305  1
  Co  Co10  1  0.000000  0.204139  0.568695  1
  Co  Co11  1  0.000000  0.795861  0.568695  1
  Co  Co12  1  0.500000  0.877972  0.707085  1
  Co  Co13  1  0.500000  0.122028  0.707085  1
  Co  Co14  1  0.000000  0.622028  0.292915  1
  Co  Co15  1  0.000000  0.377972  0.292915  1
  Co  Co16  1  0.500000  0.332460  0.990222  1
  Co  Co17  1  0.500000  0.667540  0.990222  1
  Co  Co18  1  0.000000  0.167540  0.009778  1
  Co  Co19  1  0.000000  0.832460  0.009778  1
  Co  Co20  1  0.500000  0.500000  0.702179  1
  Co  Co21  1  0.000000  0.000000  0.297821  1
  Mo  Mo22  1  0.500000  0.500000  0.156238  1
  Mo  Mo23  1  0.000000  0.000000  0.843762  1
  P  P24  1  0.500000  0.311142  0.616371  1
  P  P25  1  0.500000  0.688858  0.616371  1
  P  P26  1  0.000000  0.188858  0.383629  1
  P  P27  1  0.000000  0.811142  0.383629  1
  P  P28  1  0.500000  0.500000  0.881028  1
  P  P29  1  0.000000  0.000000  0.118972  1
  P  P30  1  0.500000  0.844565  0.892976  1
  P  P31  1  0.500000  0.155435  0.892976  1
  P  P32  1  0.000000  0.655435  0.107024  1
  P  P33  1  0.000000  0.344565  0.107024  1
  P  P34  1  0.500000  0.500000  0.349009  1
  P  P35  1  0.000000  0.000000  0.650991  1
