# generated using pymatgen
data_Tb3Yb(ZnRh)4
_symmetry_space_group_name_H-M   'P 1'
_cell_length_a   4.09924500
_cell_length_b   6.95958504
_cell_length_c   8.04215125
_cell_angle_alpha   89.67763167
_cell_angle_beta   90.00000000
_cell_angle_gamma   90.00000000
_symmetry_Int_Tables_number   1
_chemical_formula_structural   Tb3Yb(ZnRh)4
_chemical_formula_sum   'Tb3 Yb1 Zn4 Rh4'
_cell_volume   229.43125677
_cell_formula_units_Z   1
loop_
 _symmetry_equiv_pos_site_id
 _symmetry_equiv_pos_as_xyz
  1  'x, y, z'
loop_
 _atom_site_type_symbol
 _atom_site_label
 _atom_site_symmetry_multiplicity
 _atom_site_fract_x
 _atom_site_fract_y
 _atom_site_fract_z
 _atom_site_occupancy
  Tb  Tb0  1  0.250000  0.528768  0.186038  1
  Tb  Tb1  1  0.750000  0.469245  0.816044  1
  Tb  Tb2  1  0.750000  0.969844  0.681771  1
  Yb  Yb3  1  0.250000  0.028388  0.314967  1
  Zn  Zn4  1  0.250000  0.644306  0.563075  1
  Zn  Zn5  1  0.750000  0.354358  0.434816  1
  Zn  Zn6  1  0.750000  0.859127  0.066391  1
  Zn  Zn7  1  0.250000  0.143225  0.937199  1
  Rh  Rh8  1  0.250000  0.765901  0.876171  1
  Rh  Rh9  1  0.750000  0.237535  0.122369  1
  Rh  Rh10  1  0.750000  0.734142  0.376255  1
  Rh  Rh11  1  0.250000  0.265162  0.624905  1
