# generated using pymatgen
data_TbCu2HgPd2
_symmetry_space_group_name_H-M   'P 1'
_cell_length_a   5.10072559
_cell_length_b   5.23707090
_cell_length_c   5.23706998
_cell_angle_alpha   63.55314045
_cell_angle_beta   60.85753959
_cell_angle_gamma   60.85754405
_symmetry_Int_Tables_number   1
_chemical_formula_structural   TbCu2HgPd2
_chemical_formula_sum   'Tb1 Cu2 Hg1 Pd2'
_cell_volume   102.66801413
_cell_formula_units_Z   1
loop_
 _symmetry_equiv_pos_site_id
 _symmetry_equiv_pos_as_xyz
  1  'x, y, z'
loop_
 _atom_site_type_symbol
 _atom_site_label
 _atom_site_symmetry_multiplicity
 _atom_site_fract_x
 _atom_site_fract_y
 _atom_site_fract_z
 _atom_site_occupancy
  Tb  Tb0  1  0.997538  0.002462  0.002462  1
  Cu  Cu1  1  0.128031  0.620941  0.620941  1
  Cu  Cu2  1  0.630087  0.620941  0.620941  1
  Hg  Hg3  1  0.241055  0.258945  0.258945  1
  Pd  Pd4  1  0.626645  0.623872  0.122840  1
  Pd  Pd5  1  0.626645  0.122840  0.623872  1
