# generated using pymatgen
data_Ba2Li4ThBi3Sb
_symmetry_space_group_name_H-M   'P 1'
_cell_length_a   9.31042570
_cell_length_b   9.31042623
_cell_length_c   9.31042682
_cell_angle_alpha   150.15630372
_cell_angle_beta   126.74007572
_cell_angle_gamma   62.25275526
_symmetry_Int_Tables_number   1
_chemical_formula_structural   Ba2Li4ThBi3Sb
_chemical_formula_sum   'Ba2 Li4 Th1 Bi3 Sb1'
_cell_volume   318.95857620
_cell_formula_units_Z   1
loop_
 _symmetry_equiv_pos_site_id
 _symmetry_equiv_pos_as_xyz
  1  'x, y, z'
loop_
 _atom_site_type_symbol
 _atom_site_label
 _atom_site_symmetry_multiplicity
 _atom_site_fract_x
 _atom_site_fract_y
 _atom_site_fract_z
 _atom_site_occupancy
  Ba  Ba0  1  0.617964  0.119982  0.497982  1
  Ba  Ba1  1  0.378000  0.880018  0.497982  1
  Li  Li2  1  0.992256  0.673201  0.319055  1
  Li  Li3  1  0.009169  0.328332  0.680837  1
  Li  Li4  1  0.645855  0.326799  0.319055  1
  Li  Li5  1  0.352505  0.671668  0.680837  1
  Th  Th6  1  0.007942  0.000000  0.007942  1
  Bi  Bi7  1  0.790435  0.789072  0.001363  1
  Bi  Bi8  1  0.212291  0.210928  0.001363  1
  Bi  Bi9  1  0.736872  0.500000  0.236872  1
  Sb  Sb10  1  0.256711  0.500000  0.756711  1
