# generated using pymatgen
data_LuHf(NbSe2)8
_symmetry_space_group_name_H-M   'P 1'
_cell_length_a   7.00943000
_cell_length_b   7.00942961
_cell_length_c   13.73827700
_cell_angle_alpha   90.00000000
_cell_angle_beta   90.00000000
_cell_angle_gamma   120.00000182
_symmetry_Int_Tables_number   1
_chemical_formula_structural   LuHf(NbSe2)8
_chemical_formula_sum   'Lu1 Hf1 Nb8 Se16'
_cell_volume   584.55889642
_cell_formula_units_Z   1
loop_
 _symmetry_equiv_pos_site_id
 _symmetry_equiv_pos_as_xyz
  1  'x, y, z'
loop_
 _atom_site_type_symbol
 _atom_site_label
 _atom_site_symmetry_multiplicity
 _atom_site_fract_x
 _atom_site_fract_y
 _atom_site_fract_z
 _atom_site_occupancy
  Lu  Lu0  1  0.000000  0.000000  0.000000  1
  Hf  Hf1  1  0.000000  0.000000  0.500000  1
  Nb  Nb2  1  0.000000  0.000000  0.255456  1
  Nb  Nb3  1  0.000000  0.000000  0.744544  1
  Nb  Nb4  1  0.506876  0.013750  0.255204  1
  Nb  Nb5  1  0.986250  0.493124  0.255204  1
  Nb  Nb6  1  0.506876  0.493124  0.255204  1
  Nb  Nb7  1  0.493124  0.986250  0.744796  1
  Nb  Nb8  1  0.013750  0.506876  0.744796  1
  Nb  Nb9  1  0.493124  0.506876  0.744796  1
  Se  Se10  1  0.333333  0.666667  0.870673  1
  Se  Se11  1  0.666667  0.333333  0.129327  1
  Se  Se12  1  0.666667  0.333333  0.380199  1
  Se  Se13  1  0.333333  0.666667  0.619801  1
  Se  Se14  1  0.169209  0.830791  0.377256  1
  Se  Se15  1  0.169209  0.338417  0.377256  1
  Se  Se16  1  0.661583  0.830791  0.377256  1
  Se  Se17  1  0.830791  0.169209  0.622744  1
  Se  Se18  1  0.830791  0.661583  0.622744  1
  Se  Se19  1  0.338417  0.169209  0.622744  1
  Se  Se20  1  0.830198  0.169802  0.865884  1
  Se  Se21  1  0.830198  0.660397  0.865884  1
  Se  Se22  1  0.339603  0.169802  0.865884  1
  Se  Se23  1  0.169802  0.830198  0.134116  1
  Se  Se24  1  0.169802  0.339603  0.134116  1
  Se  Se25  1  0.660397  0.830198  0.134116  1
