# generated using pymatgen
data_NiSn16Rh3
_symmetry_space_group_name_H-M   'P 1'
_cell_length_a   12.65613235
_cell_length_b   12.65613206
_cell_length_c   12.66340959
_cell_angle_alpha   151.04919452
_cell_angle_beta   151.04919417
_cell_angle_gamma   41.31618361
_symmetry_Int_Tables_number   1
_chemical_formula_structural   NiSn16Rh3
_chemical_formula_sum   'Ni1 Sn16 Rh3'
_cell_volume   474.35392481
_cell_formula_units_Z   1
loop_
 _symmetry_equiv_pos_site_id
 _symmetry_equiv_pos_as_xyz
  1  'x, y, z'
loop_
 _atom_site_type_symbol
 _atom_site_label
 _atom_site_symmetry_multiplicity
 _atom_site_fract_x
 _atom_site_fract_y
 _atom_site_fract_z
 _atom_site_occupancy
  Ni  Ni0  1  0.750000  0.750000  0.000000  1
  Sn  Sn1  1  0.131893  0.637396  0.144485  1
  Sn  Sn2  1  0.637527  0.493724  0.505969  1
  Sn  Sn3  1  0.886731  0.887493  0.647430  1
  Sn  Sn4  1  0.386427  0.739413  0.999267  1
  Sn  Sn5  1  0.612507  0.613269  0.352570  1
  Sn  Sn6  1  0.112839  0.759853  0.999267  1
  Sn  Sn7  1  0.862604  0.368107  0.855515  1
  Sn  Sn8  1  0.368442  0.512246  0.505969  1
  Sn  Sn9  1  0.987754  0.131558  0.494031  1
  Sn  Sn10  1  0.492911  0.987408  0.855515  1
  Sn  Sn11  1  0.740147  0.387161  0.000733  1
  Sn  Sn12  1  0.240064  0.239301  0.352570  1
  Sn  Sn13  1  0.760587  0.113573  0.000733  1
  Sn  Sn14  1  0.260699  0.259936  0.647430  1
  Sn  Sn15  1  0.006276  0.862473  0.494031  1
  Sn  Sn16  1  0.512592  0.007089  0.144485  1
  Rh  Rh17  1  0.250000  0.250000  0.000000  1
  Rh  Rh18  1  0.000000  0.500000  0.500000  1
  Rh  Rh19  1  0.500000  0.000000  0.500000  1
