# generated using pymatgen
data_Zr4In2PtAu3
_symmetry_space_group_name_H-M   'P 1'
_cell_length_a   7.60347472
_cell_length_b   7.60347472
_cell_length_c   7.11732893
_cell_angle_alpha   90.16568909
_cell_angle_beta   90.16568909
_cell_angle_gamma   90.26110470
_symmetry_Int_Tables_number   1
_chemical_formula_structural   Zr4In2PtAu3
_chemical_formula_sum   'Zr8 In4 Pt2 Au6'
_cell_volume   411.46518197
_cell_formula_units_Z   2
loop_
 _symmetry_equiv_pos_site_id
 _symmetry_equiv_pos_as_xyz
  1  'x, y, z'
loop_
 _atom_site_type_symbol
 _atom_site_label
 _atom_site_symmetry_multiplicity
 _atom_site_fract_x
 _atom_site_fract_y
 _atom_site_fract_z
 _atom_site_occupancy
  Zr  Zr0  1  0.149217  0.149217  0.005979  1
  Zr  Zr1  1  0.850783  0.850783  0.994021  1
  Zr  Zr2  1  0.644090  0.355910  0.500000  1
  Zr  Zr3  1  0.355910  0.644090  0.500000  1
  Zr  Zr4  1  0.689949  0.310051  0.000000  1
  Zr  Zr5  1  0.310051  0.689949  0.000000  1
  Zr  Zr6  1  0.800496  0.800496  0.505129  1
  Zr  Zr7  1  0.199504  0.199504  0.494871  1
  In  In8  1  0.500167  0.003576  0.248554  1
  In  In9  1  0.499833  0.996424  0.751446  1
  In  In10  1  0.003576  0.500167  0.248554  1
  In  In11  1  0.996424  0.499833  0.751446  1
  Pt  Pt12  1  0.370816  0.370816  0.211050  1
  Pt  Pt13  1  0.629184  0.629184  0.788950  1
  Au  Au14  1  0.630748  0.630748  0.202848  1
  Au  Au15  1  0.870482  0.130724  0.705847  1
  Au  Au16  1  0.869276  0.129518  0.294153  1
  Au  Au17  1  0.369252  0.369252  0.797152  1
  Au  Au18  1  0.129518  0.869276  0.294153  1
  Au  Au19  1  0.130724  0.870482  0.705847  1
