# generated using pymatgen
data_Sc12Mn3Si12Ni
_symmetry_space_group_name_H-M   'P 1'
_cell_length_a   3.96507400
_cell_length_b   10.23258722
_cell_length_c   11.73102573
_cell_angle_alpha   90.14908625
_cell_angle_beta   90.00000000
_cell_angle_gamma   90.00000000
_symmetry_Int_Tables_number   1
_chemical_formula_structural   Sc12Mn3Si12Ni
_chemical_formula_sum   'Sc12 Mn3 Si12 Ni1'
_cell_volume   475.96089140
_cell_formula_units_Z   1
loop_
 _symmetry_equiv_pos_site_id
 _symmetry_equiv_pos_as_xyz
  1  'x, y, z'
loop_
 _atom_site_type_symbol
 _atom_site_label
 _atom_site_symmetry_multiplicity
 _atom_site_fract_x
 _atom_site_fract_y
 _atom_site_fract_z
 _atom_site_occupancy
  Sc  Sc0  1  0.250000  0.878731  0.023504  1
  Sc  Sc1  1  0.250000  0.622715  0.523147  1
  Sc  Sc2  1  0.750000  0.120467  0.978631  1
  Sc  Sc3  1  0.750000  0.380669  0.479045  1
  Sc  Sc4  1  0.250000  0.923846  0.600250  1
  Sc  Sc5  1  0.250000  0.577422  0.100209  1
  Sc  Sc6  1  0.750000  0.077636  0.398303  1
  Sc  Sc7  1  0.750000  0.421843  0.896374  1
  Sc  Sc8  1  0.250000  0.662960  0.799533  1
  Sc  Sc9  1  0.250000  0.837591  0.299531  1
  Sc  Sc10  1  0.750000  0.338613  0.200346  1
  Sc  Sc11  1  0.750000  0.156806  0.699967  1
  Mn  Mn12  1  0.250000  0.388504  0.679107  1
  Mn  Mn13  1  0.250000  0.112514  0.177072  1
  Mn  Mn14  1  0.750000  0.614782  0.323615  1
  Si  Si15  1  0.250000  0.008885  0.823357  1
  Si  Si16  1  0.250000  0.486338  0.322693  1
  Si  Si17  1  0.750000  0.984454  0.176295  1
  Si  Si18  1  0.750000  0.516842  0.678095  1
  Si  Si19  1  0.250000  0.248753  0.840385  1
  Si  Si20  1  0.250000  0.247800  0.342238  1
  Si  Si21  1  0.750000  0.746495  0.158004  1
  Si  Si22  1  0.750000  0.755413  0.659199  1
  Si  Si23  1  0.250000  0.197528  0.544806  1
  Si  Si24  1  0.250000  0.303572  0.043411  1
  Si  Si25  1  0.750000  0.806229  0.456354  1
  Si  Si26  1  0.750000  0.695680  0.955337  1
  Ni  Ni27  1  0.750000  0.886909  0.821194  1
