# generated using pymatgen
data_Hf13Sn3(Rh2N)4
_symmetry_space_group_name_H-M   'P 1'
_cell_length_a   8.65479546
_cell_length_b   8.65479505
_cell_length_c   8.68886203
_cell_angle_alpha   60.12961231
_cell_angle_beta   60.12961484
_cell_angle_gamma   60.00000199
_symmetry_Int_Tables_number   1
_chemical_formula_structural   Hf13Sn3(Rh2N)4
_chemical_formula_sum   'Hf13 Sn3 Rh8 N4'
_cell_volume   461.11533379
_cell_formula_units_Z   1
loop_
 _symmetry_equiv_pos_site_id
 _symmetry_equiv_pos_as_xyz
  1  'x, y, z'
loop_
 _atom_site_type_symbol
 _atom_site_label
 _atom_site_symmetry_multiplicity
 _atom_site_fract_x
 _atom_site_fract_y
 _atom_site_fract_z
 _atom_site_occupancy
  Hf  Hf0  1  0.625000  0.625000  0.125000  1
  Hf  Hf1  1  0.814135  0.814135  0.188316  1
  Hf  Hf2  1  0.184071  0.184071  0.818049  1
  Hf  Hf3  1  0.813809  0.184071  0.818049  1
  Hf  Hf4  1  0.183412  0.814135  0.188316  1
  Hf  Hf5  1  0.184071  0.813809  0.818049  1
  Hf  Hf6  1  0.814135  0.183412  0.188316  1
  Hf  Hf7  1  0.435865  0.435865  0.061684  1
  Hf  Hf8  1  0.065929  0.065929  0.431951  1
  Hf  Hf9  1  0.436191  0.065929  0.431951  1
  Hf  Hf10  1  0.066588  0.435865  0.061684  1
  Hf  Hf11  1  0.065929  0.436191  0.431951  1
  Hf  Hf12  1  0.435865  0.066588  0.061684  1
  Sn  Sn13  1  0.125000  0.625000  0.625000  1
  Sn  Sn14  1  0.625000  0.125000  0.625000  1
  Sn  Sn15  1  0.625000  0.625000  0.625000  1
  Rh  Rh16  1  0.773644  0.413430  0.399497  1
  Rh  Rh17  1  0.413430  0.773644  0.399497  1
  Rh  Rh18  1  0.408067  0.408067  0.775800  1
  Rh  Rh19  1  0.413430  0.413430  0.399497  1
  Rh  Rh20  1  0.476356  0.836570  0.850503  1
  Rh  Rh21  1  0.836570  0.476356  0.850503  1
  Rh  Rh22  1  0.841933  0.841933  0.474200  1
  Rh  Rh23  1  0.836570  0.836570  0.850503  1
  N  N24  1  0.625000  0.125000  0.125000  1
  N  N25  1  0.125000  0.625000  0.125000  1
  N  N26  1  0.125000  0.125000  0.625000  1
  N  N27  1  0.125000  0.125000  0.125000  1
