# generated using pymatgen
data_Ho3(Al3Co)4
_symmetry_space_group_name_H-M   'P 1'
_cell_length_a   8.63263100
_cell_length_b   8.63263060
_cell_length_c   9.26385400
_cell_angle_alpha   90.00000000
_cell_angle_beta   90.00000000
_cell_angle_gamma   120.00000535
_symmetry_Int_Tables_number   1
_chemical_formula_structural   Ho3(Al3Co)4
_chemical_formula_sum   'Ho6 Al24 Co8'
_cell_volume   597.87259255
_cell_formula_units_Z   2
loop_
 _symmetry_equiv_pos_site_id
 _symmetry_equiv_pos_as_xyz
  1  'x, y, z'
loop_
 _atom_site_type_symbol
 _atom_site_label
 _atom_site_symmetry_multiplicity
 _atom_site_fract_x
 _atom_site_fract_y
 _atom_site_fract_z
 _atom_site_occupancy
  Ho  Ho0  1  0.194608  0.389215  0.250000  1
  Ho  Ho1  1  0.805392  0.610785  0.750000  1
  Ho  Ho2  1  0.610785  0.805392  0.250000  1
  Ho  Ho3  1  0.389215  0.194608  0.750000  1
  Ho  Ho4  1  0.194608  0.805392  0.250000  1
  Ho  Ho5  1  0.805392  0.194608  0.750000  1
  Al  Al6  1  0.333333  0.666667  0.018806  1
  Al  Al7  1  0.666667  0.333333  0.981194  1
  Al  Al8  1  0.666667  0.333333  0.518806  1
  Al  Al9  1  0.333333  0.666667  0.481194  1
  Al  Al10  1  0.162682  0.325363  0.575617  1
  Al  Al11  1  0.837318  0.674637  0.424383  1
  Al  Al12  1  0.674637  0.837318  0.575617  1
  Al  Al13  1  0.837318  0.674637  0.075617  1
  Al  Al14  1  0.325363  0.162682  0.424383  1
  Al  Al15  1  0.162682  0.325363  0.924383  1
  Al  Al16  1  0.162682  0.837318  0.575617  1
  Al  Al17  1  0.325363  0.162682  0.075617  1
  Al  Al18  1  0.837318  0.162682  0.424383  1
  Al  Al19  1  0.674637  0.837318  0.924383  1
  Al  Al20  1  0.837318  0.162682  0.075617  1
  Al  Al21  1  0.162682  0.837318  0.924383  1
  Al  Al22  1  0.559468  0.118938  0.250000  1
  Al  Al23  1  0.440532  0.881062  0.750000  1
  Al  Al24  1  0.881062  0.440532  0.250000  1
  Al  Al25  1  0.118938  0.559468  0.750000  1
  Al  Al26  1  0.559468  0.440532  0.250000  1
  Al  Al27  1  0.440532  0.559468  0.750000  1
  Al  Al28  1  0.000000  0.000000  0.250000  1
  Al  Al29  1  0.000000  0.000000  0.750000  1
  Co  Co30  1  0.500000  0.000000  0.000000  1
  Co  Co31  1  0.000000  0.500000  0.000000  1
  Co  Co32  1  0.500000  0.000000  0.500000  1
  Co  Co33  1  0.500000  0.500000  0.000000  1
  Co  Co34  1  0.000000  0.500000  0.500000  1
  Co  Co35  1  0.500000  0.500000  0.500000  1
  Co  Co36  1  0.000000  0.000000  0.000000  1
  Co  Co37  1  0.000000  0.000000  0.500000  1
