# generated using pymatgen
data_Pr2Al3Si2Ag3
_symmetry_space_group_name_H-M   'P 1'
_cell_length_a   8.69313232
_cell_length_b   8.69313259
_cell_length_c   8.69313200
_cell_angle_alpha   138.00530450
_cell_angle_beta   103.66787795
_cell_angle_gamma   91.17463269
_symmetry_Int_Tables_number   1
_chemical_formula_structural   Pr2Al3Si2Ag3
_chemical_formula_sum   'Pr4 Al6 Si4 Ag6'
_cell_volume   407.19382692
_cell_formula_units_Z   2
loop_
 _symmetry_equiv_pos_site_id
 _symmetry_equiv_pos_as_xyz
  1  'x, y, z'
loop_
 _atom_site_type_symbol
 _atom_site_label
 _atom_site_symmetry_multiplicity
 _atom_site_fract_x
 _atom_site_fract_y
 _atom_site_fract_z
 _atom_site_occupancy
  Pr  Pr0  1  0.868818  0.624140  0.244679  1
  Pr  Pr1  1  0.131182  0.375860  0.755321  1
  Pr  Pr2  1  0.379461  0.124140  0.255321  1
  Pr  Pr3  1  0.620539  0.875860  0.744679  1
  Al  Al4  1  0.500000  0.750000  0.250000  1
  Al  Al5  1  0.500000  0.250000  0.750000  1
  Al  Al6  1  0.235950  0.985950  0.750000  1
  Al  Al7  1  0.764050  0.514050  0.750000  1
  Al  Al8  1  0.764050  0.014050  0.250000  1
  Al  Al9  1  0.235950  0.485950  0.250000  1
  Si  Si10  1  0.020939  0.876655  0.144285  1
  Si  Si11  1  0.979061  0.123345  0.855715  1
  Si  Si12  1  0.732370  0.376655  0.355715  1
  Si  Si13  1  0.267630  0.623345  0.644285  1
  Ag  Ag14  1  0.000000  0.750000  0.750000  1
  Ag  Ag15  1  0.000000  0.250000  0.250000  1
  Ag  Ag16  1  0.244285  0.868830  0.375457  1
  Ag  Ag17  1  0.755715  0.131170  0.624543  1
  Ag  Ag18  1  0.493372  0.368830  0.124543  1
  Ag  Ag19  1  0.506628  0.631170  0.875457  1
