# generated using pymatgen
data_Zr10ZnSiSn5Sb
_symmetry_space_group_name_H-M   'P 1'
_cell_length_a   8.70871985
_cell_length_b   8.70333850
_cell_length_c   5.88451357
_cell_angle_alpha   90.02532015
_cell_angle_beta   89.94939097
_cell_angle_gamma   120.02044420
_symmetry_Int_Tables_number   1
_chemical_formula_structural   Zr10ZnSiSn5Sb
_chemical_formula_sum   'Zr10 Zn1 Si1 Sn5 Sb1'
_cell_volume   386.18172704
_cell_formula_units_Z   1
loop_
 _symmetry_equiv_pos_site_id
 _symmetry_equiv_pos_as_xyz
  1  'x, y, z'
loop_
 _atom_site_type_symbol
 _atom_site_label
 _atom_site_symmetry_multiplicity
 _atom_site_fract_x
 _atom_site_fract_y
 _atom_site_fract_z
 _atom_site_occupancy
  Zr  Zr0  1  0.264125  0.000000  0.255007  1
  Zr  Zr1  1  0.262723  0.261986  0.744337  1
  Zr  Zr2  1  0.000737  0.738014  0.744337  1
  Zr  Zr3  1  0.000290  0.263687  0.256054  1
  Zr  Zr4  1  0.736603  0.736313  0.256054  1
  Zr  Zr5  1  0.736409  0.000000  0.743849  1
  Zr  Zr6  1  0.333339  0.667757  0.000434  1
  Zr  Zr7  1  0.665787  0.332333  0.499629  1
  Zr  Zr8  1  0.665582  0.332243  0.000434  1
  Zr  Zr9  1  0.333453  0.667667  0.499629  1
  Zn  Zn10  1  0.998963  0.000000  0.001464  1
  Si  Si11  1  0.999790  0.000000  0.498611  1
  Sn  Sn12  1  0.612452  0.000000  0.247364  1
  Sn  Sn13  1  0.610653  0.610440  0.752991  1
  Sn  Sn14  1  0.000214  0.389560  0.752991  1
  Sn  Sn15  1  0.999044  0.609948  0.246772  1
  Sn  Sn16  1  0.389096  0.390052  0.246772  1
  Sb  Sb17  1  0.390742  0.000000  0.753271  1
