# generated using pymatgen
data_Li2Y4TiPd13
_symmetry_space_group_name_H-M   'P 1'
_cell_length_a   4.16210000
_cell_length_b   4.09311400
_cell_length_c   19.99760500
_cell_angle_alpha   90.00000000
_cell_angle_beta   90.00000000
_cell_angle_gamma   90.00000000
_symmetry_Int_Tables_number   1
_chemical_formula_structural   Li2Y4TiPd13
_chemical_formula_sum   'Li2 Y4 Ti1 Pd13'
_cell_volume   340.67819449
_cell_formula_units_Z   1
loop_
 _symmetry_equiv_pos_site_id
 _symmetry_equiv_pos_as_xyz
  1  'x, y, z'
loop_
 _atom_site_type_symbol
 _atom_site_label
 _atom_site_symmetry_multiplicity
 _atom_site_fract_x
 _atom_site_fract_y
 _atom_site_fract_z
 _atom_site_occupancy
  Li  Li0  1  0.500000  0.500000  0.000000  1
  Li  Li1  1  0.500000  0.000000  0.500000  1
  Y  Y2  1  0.000000  0.000000  0.192181  1
  Y  Y3  1  0.000000  0.000000  0.392981  1
  Y  Y4  1  0.000000  0.000000  0.607019  1
  Y  Y5  1  0.000000  0.000000  0.807819  1
  Ti  Ti6  1  0.000000  0.000000  0.000000  1
  Pd  Pd7  1  0.500000  0.500000  0.188233  1
  Pd  Pd8  1  0.500000  0.500000  0.398692  1
  Pd  Pd9  1  0.500000  0.500000  0.601308  1
  Pd  Pd10  1  0.500000  0.500000  0.811767  1
  Pd  Pd11  1  0.500000  0.000000  0.082019  1
  Pd  Pd12  1  0.500000  0.000000  0.293586  1
  Pd  Pd13  1  0.500000  0.000000  0.706414  1
  Pd  Pd14  1  0.500000  0.000000  0.917981  1
  Pd  Pd15  1  0.000000  0.500000  0.082176  1
  Pd  Pd16  1  0.000000  0.500000  0.293613  1
  Pd  Pd17  1  0.000000  0.500000  0.500000  1
  Pd  Pd18  1  0.000000  0.500000  0.706387  1
  Pd  Pd19  1  0.000000  0.500000  0.917824  1
