# generated using pymatgen
data_Y3Cd2Ag2HgIr
_symmetry_space_group_name_H-M   'P 1'
_cell_length_a   7.93367569
_cell_length_b   8.00396638
_cell_length_c   3.76595000
_cell_angle_alpha   90.00000000
_cell_angle_beta   90.00000000
_cell_angle_gamma   119.93553305
_symmetry_Int_Tables_number   1
_chemical_formula_structural   Y3Cd2Ag2HgIr
_chemical_formula_sum   'Y3 Cd2 Ag2 Hg1 Ir1'
_cell_volume   207.23668519
_cell_formula_units_Z   1
loop_
 _symmetry_equiv_pos_site_id
 _symmetry_equiv_pos_as_xyz
  1  'x, y, z'
loop_
 _atom_site_type_symbol
 _atom_site_label
 _atom_site_symmetry_multiplicity
 _atom_site_fract_x
 _atom_site_fract_y
 _atom_site_fract_z
 _atom_site_occupancy
  Y  Y0  1  0.414599  0.384114  0.500000  1
  Y  Y1  1  0.963037  0.571771  0.500000  1
  Y  Y2  1  0.620375  0.042427  0.500000  1
  Cd  Cd3  1  0.728256  0.733387  0.000000  1
  Cd  Cd4  1  0.264771  0.988710  0.000000  1
  Ag  Ag5  1  0.338162  0.672043  0.000000  1
  Ag  Ag6  1  0.999591  0.995898  0.500000  1
  Hg  Hg7  1  0.011683  0.277550  0.000000  1
  Ir  Ir8  1  0.659525  0.334099  0.000000  1
