# generated using pymatgen
data_Lu5P12IrRu18
_symmetry_space_group_name_H-M   'P 1'
_cell_length_a   12.50263800
_cell_length_b   12.50263826
_cell_length_c   3.96477900
_cell_angle_alpha   90.00000000
_cell_angle_beta   90.00000000
_cell_angle_gamma   119.99999402
_symmetry_Int_Tables_number   1
_chemical_formula_structural   Lu5P12IrRu18
_chemical_formula_sum   'Lu5 P12 Ir1 Ru18'
_cell_volume   536.72640928
_cell_formula_units_Z   1
loop_
 _symmetry_equiv_pos_site_id
 _symmetry_equiv_pos_as_xyz
  1  'x, y, z'
loop_
 _atom_site_type_symbol
 _atom_site_label
 _atom_site_symmetry_multiplicity
 _atom_site_fract_x
 _atom_site_fract_y
 _atom_site_fract_z
 _atom_site_occupancy
  Lu  Lu0  1  0.333333  0.666667  0.500000  1
  Lu  Lu1  1  0.666667  0.333333  0.500000  1
  Lu  Lu2  1  0.186046  0.186046  0.000000  1
  Lu  Lu3  1  0.813954  0.000000  0.000000  1
  Lu  Lu4  1  0.000000  0.813954  0.000000  1
  P  P5  1  0.307063  0.829132  0.000000  1
  P  P6  1  0.170868  0.477931  0.000000  1
  P  P7  1  0.522069  0.692937  0.000000  1
  P  P8  1  0.829132  0.307063  0.000000  1
  P  P9  1  0.477931  0.170868  0.000000  1
  P  P10  1  0.692937  0.522069  0.000000  1
  P  P11  1  0.372556  0.372556  0.500000  1
  P  P12  1  0.627444  0.000000  0.500000  1
  P  P13  1  0.000000  0.627444  0.500000  1
  P  P14  1  0.815253  0.815253  0.500000  1
  P  P15  1  0.184747  0.000000  0.500000  1
  P  P16  1  0.000000  0.184747  0.500000  1
  Ir  Ir17  1  0.000000  0.000000  0.500000  1
  Ru  Ru18  1  0.191563  0.814784  0.500000  1
  Ru  Ru19  1  0.185216  0.376779  0.500000  1
  Ru  Ru20  1  0.623221  0.808437  0.500000  1
  Ru  Ru21  1  0.814784  0.191563  0.500000  1
  Ru  Ru22  1  0.376779  0.185216  0.500000  1
  Ru  Ru23  1  0.808437  0.623221  0.500000  1
  Ru  Ru24  1  0.126645  0.634596  0.000000  1
  Ru  Ru25  1  0.365404  0.492048  0.000000  1
  Ru  Ru26  1  0.507952  0.873355  0.000000  1
  Ru  Ru27  1  0.634596  0.126645  0.000000  1
  Ru  Ru28  1  0.492048  0.365404  0.000000  1
  Ru  Ru29  1  0.873355  0.507952  0.000000  1
  Ru  Ru30  1  0.555064  0.555064  0.500000  1
  Ru  Ru31  1  0.444936  0.000000  0.500000  1
  Ru  Ru32  1  0.000000  0.444936  0.500000  1
  Ru  Ru33  1  0.718843  0.718843  0.000000  1
  Ru  Ru34  1  0.281157  0.000000  0.000000  1
  Ru  Ru35  1  0.000000  0.281157  0.000000  1
