# generated using pymatgen
data_Fe5Ge(Mo3N)2
_symmetry_space_group_name_H-M   'P 1'
_cell_length_a   7.86280486
_cell_length_b   7.88706572
_cell_length_c   7.88706424
_cell_angle_alpha   60.18717736
_cell_angle_beta   60.10170543
_cell_angle_gamma   60.10170406
_symmetry_Int_Tables_number   1
_chemical_formula_structural   Fe5Ge(Mo3N)2
_chemical_formula_sum   'Fe10 Ge2 Mo12 N4'
_cell_volume   346.87398524
_cell_formula_units_Z   2
loop_
 _symmetry_equiv_pos_site_id
 _symmetry_equiv_pos_as_xyz
  1  'x, y, z'
loop_
 _atom_site_type_symbol
 _atom_site_label
 _atom_site_symmetry_multiplicity
 _atom_site_fract_x
 _atom_site_fract_y
 _atom_site_fract_z
 _atom_site_occupancy
  Fe  Fe0  1  0.125000  0.625000  0.625000  1
  Fe  Fe1  1  0.625000  0.625000  0.625000  1
  Fe  Fe2  1  0.743758  0.421965  0.421965  1
  Fe  Fe3  1  0.415426  0.746030  0.423118  1
  Fe  Fe4  1  0.415426  0.423118  0.746030  1
  Fe  Fe5  1  0.412311  0.421965  0.421965  1
  Fe  Fe6  1  0.506242  0.828035  0.828035  1
  Fe  Fe7  1  0.834574  0.503970  0.826882  1
  Fe  Fe8  1  0.834574  0.826882  0.503970  1
  Fe  Fe9  1  0.837689  0.828035  0.828035  1
  Ge  Ge10  1  0.625000  0.125000  0.625000  1
  Ge  Ge11  1  0.625000  0.625000  0.125000  1
  Mo  Mo12  1  0.804014  0.803158  0.198314  1
  Mo  Mo13  1  0.194514  0.198314  0.803158  1
  Mo  Mo14  1  0.804014  0.198314  0.803158  1
  Mo  Mo15  1  0.194514  0.803158  0.198314  1
  Mo  Mo16  1  0.200429  0.799571  0.799571  1
  Mo  Mo17  1  0.805881  0.194119  0.194119  1
  Mo  Mo18  1  0.445986  0.446842  0.051686  1
  Mo  Mo19  1  0.055486  0.051686  0.446842  1
  Mo  Mo20  1  0.445986  0.051686  0.446842  1
  Mo  Mo21  1  0.055486  0.446842  0.051686  1
  Mo  Mo22  1  0.049571  0.450429  0.450429  1
  Mo  Mo23  1  0.444119  0.055881  0.055881  1
  N  N24  1  0.625000  0.125000  0.125000  1
  N  N25  1  0.125000  0.625000  0.125000  1
  N  N26  1  0.125000  0.125000  0.625000  1
  N  N27  1  0.125000  0.125000  0.125000  1
