# generated using pymatgen
data_Nd6ScMn2VC12
_symmetry_space_group_name_H-M   'P 1'
_cell_length_a   8.37919800
_cell_length_b   8.37919908
_cell_length_c   5.24873800
_cell_angle_alpha   90.00000000
_cell_angle_beta   90.00000000
_cell_angle_gamma   120.00001047
_symmetry_Int_Tables_number   1
_chemical_formula_structural   Nd6ScMn2VC12
_chemical_formula_sum   'Nd6 Sc1 Mn2 V1 C12'
_cell_volume   319.14676185
_cell_formula_units_Z   1
loop_
 _symmetry_equiv_pos_site_id
 _symmetry_equiv_pos_as_xyz
  1  'x, y, z'
loop_
 _atom_site_type_symbol
 _atom_site_label
 _atom_site_symmetry_multiplicity
 _atom_site_fract_x
 _atom_site_fract_y
 _atom_site_fract_z
 _atom_site_occupancy
  Nd  Nd0  1  0.612499  0.678645  0.749469  1
  Nd  Nd1  1  0.933854  0.612499  0.250531  1
  Nd  Nd2  1  0.678645  0.066146  0.250531  1
  Nd  Nd3  1  0.321355  0.933854  0.749469  1
  Nd  Nd4  1  0.066146  0.387501  0.749469  1
  Nd  Nd5  1  0.387501  0.321355  0.250531  1
  Sc  Sc6  1  0.000000  0.000000  0.500000  1
  Mn  Mn7  1  0.666667  0.333333  0.752049  1
  Mn  Mn8  1  0.333333  0.666667  0.247951  1
  V  V9  1  0.000000  0.000000  0.000000  1
  C  C10  1  0.957650  0.758399  0.764156  1
  C  C11  1  0.199251  0.957650  0.235844  1
  C  C12  1  0.758399  0.800749  0.235844  1
  C  C13  1  0.241601  0.199251  0.764156  1
  C  C14  1  0.800749  0.042350  0.764156  1
  C  C15  1  0.042350  0.241601  0.235844  1
  C  C16  1  0.855904  0.570453  0.756551  1
  C  C17  1  0.285450  0.855904  0.243449  1
  C  C18  1  0.570453  0.714550  0.243449  1
  C  C19  1  0.429547  0.285450  0.756551  1
  C  C20  1  0.144096  0.429547  0.243449  1
  C  C21  1  0.714550  0.144096  0.756551  1
