# generated using pymatgen
data_Er4Lu16(Bi3Sb)3
_symmetry_space_group_name_H-M   'P 1'
_cell_length_a   8.09413218
_cell_length_b   9.35481200
_cell_length_c   11.77876426
_cell_angle_alpha   90.00000000
_cell_angle_beta   90.02398407
_cell_angle_gamma   90.00000000
_symmetry_Int_Tables_number   1
_chemical_formula_structural   Er4Lu16(Bi3Sb)3
_chemical_formula_sum   'Er4 Lu16 Bi9 Sb3'
_cell_volume   891.87717181
_cell_formula_units_Z   1
loop_
 _symmetry_equiv_pos_site_id
 _symmetry_equiv_pos_as_xyz
  1  'x, y, z'
loop_
 _atom_site_type_symbol
 _atom_site_label
 _atom_site_symmetry_multiplicity
 _atom_site_fract_x
 _atom_site_fract_y
 _atom_site_fract_z
 _atom_site_occupancy
  Er  Er0  1  0.316641  0.250000  0.215064  1
  Er  Er1  1  0.811843  0.250000  0.281171  1
  Er  Er2  1  0.684730  0.750000  0.783346  1
  Er  Er3  1  0.184653  0.750000  0.716612  1
  Lu  Lu4  1  0.352769  0.750000  0.215499  1
  Lu  Lu5  1  0.852813  0.750000  0.284469  1
  Lu  Lu6  1  0.647381  0.250000  0.784569  1
  Lu  Lu7  1  0.147953  0.250000  0.718540  1
  Lu  Lu8  1  0.688340  0.565904  0.058365  1
  Lu  Lu9  1  0.189408  0.930708  0.441407  1
  Lu  Lu10  1  0.311662  0.065734  0.941700  1
  Lu  Lu11  1  0.809094  0.436073  0.559441  1
  Lu  Lu12  1  0.311662  0.434266  0.941700  1
  Lu  Lu13  1  0.809094  0.063927  0.559441  1
  Lu  Lu14  1  0.688340  0.934096  0.058365  1
  Lu  Lu15  1  0.189408  0.569292  0.441407  1
  Lu  Lu16  1  0.477975  0.250000  0.489257  1
  Lu  Lu17  1  0.974335  0.250000  0.010865  1
  Lu  Lu18  1  0.526167  0.750000  0.511087  1
  Lu  Lu19  1  0.025681  0.750000  0.989000  1
  Bi  Bi20  1  0.097457  0.250000  0.457897  1
  Bi  Bi21  1  0.565389  0.995184  0.325329  1
  Bi  Bi22  1  0.065532  0.504636  0.174650  1
  Bi  Bi23  1  0.434340  0.495262  0.674658  1
  Bi  Bi24  1  0.934460  0.004556  0.825387  1
  Bi  Bi25  1  0.434340  0.004738  0.674658  1
  Bi  Bi26  1  0.934460  0.495444  0.825387  1
  Bi  Bi27  1  0.565389  0.504816  0.325329  1
  Bi  Bi28  1  0.065532  0.995364  0.174650  1
  Sb  Sb29  1  0.402906  0.750000  0.959074  1
  Sb  Sb30  1  0.902956  0.750000  0.540932  1
  Sb  Sb31  1  0.597290  0.250000  0.040745  1
