# generated using pymatgen
data_Eu6YLuSb6
_symmetry_space_group_name_H-M   'P 1'
_cell_length_a   8.24716449
_cell_length_b   8.24082451
_cell_length_c   8.31385400
_cell_angle_alpha   70.62661959
_cell_angle_beta   70.58117624
_cell_angle_gamma   108.96911845
_symmetry_Int_Tables_number   1
_chemical_formula_structural   Eu6YLuSb6
_chemical_formula_sum   'Eu6 Y1 Lu1 Sb6'
_cell_volume   438.42720363
_cell_formula_units_Z   1
loop_
 _symmetry_equiv_pos_site_id
 _symmetry_equiv_pos_as_xyz
  1  'x, y, z'
loop_
 _atom_site_type_symbol
 _atom_site_label
 _atom_site_symmetry_multiplicity
 _atom_site_fract_x
 _atom_site_fract_y
 _atom_site_fract_z
 _atom_site_occupancy
  Eu  Eu0  1  0.001107  0.361781  0.493446  1
  Eu  Eu1  1  0.495174  0.495512  0.147467  1
  Eu  Eu2  1  0.642608  0.146343  0.359869  1
  Eu  Eu3  1  0.362876  0.001311  0.993111  1
  Eu  Eu4  1  0.494351  0.494258  0.647994  1
  Eu  Eu5  1  0.146833  0.642384  0.860389  1
  Y  Y6  1  0.002500  0.856985  0.497263  1
  Lu  Lu7  1  0.858512  0.002449  0.997122  1
  Sb  Sb8  1  0.641680  0.875512  0.749631  1
  Sb  Sb9  1  0.874907  0.643728  0.246685  1
  Sb  Sb10  1  0.230142  0.113717  0.634563  1
  Sb  Sb11  1  0.758460  0.376149  0.871226  1
  Sb  Sb12  1  0.378440  0.758798  0.370093  1
  Sb  Sb13  1  0.112411  0.231071  0.131137  1
