# generated using pymatgen
data_PrNd7Ho8(ScSi4)4
_symmetry_space_group_name_H-M   'P 1'
_cell_length_a   7.36517517
_cell_length_b   7.73870826
_cell_length_c   14.66795545
_cell_angle_alpha   90.02290381
_cell_angle_beta   90.01654870
_cell_angle_gamma   90.01856302
_symmetry_Int_Tables_number   1
_chemical_formula_structural   PrNd7Ho8(ScSi4)4
_chemical_formula_sum   'Pr1 Nd7 Ho8 Sc4 Si16'
_cell_volume   836.02845911
_cell_formula_units_Z   1
loop_
 _symmetry_equiv_pos_site_id
 _symmetry_equiv_pos_as_xyz
  1  'x, y, z'
loop_
 _atom_site_type_symbol
 _atom_site_label
 _atom_site_symmetry_multiplicity
 _atom_site_fract_x
 _atom_site_fract_y
 _atom_site_fract_z
 _atom_site_occupancy
  Pr  Pr0  1  0.017638  0.178860  0.098351  1
  Nd  Nd1  1  0.018125  0.179564  0.401162  1
  Nd  Nd2  1  0.518239  0.320477  0.401375  1
  Nd  Nd3  1  0.482053  0.679498  0.901101  1
  Nd  Nd4  1  0.481814  0.679613  0.598772  1
  Nd  Nd5  1  0.981897  0.820504  0.598786  1
  Nd  Nd6  1  0.981889  0.820568  0.901067  1
  Nd  Nd7  1  0.518148  0.320502  0.098808  1
  Ho  Ho8  1  0.322811  0.177648  0.624853  1
  Ho  Ho9  1  0.676919  0.822239  0.375248  1
  Ho  Ho10  1  0.177129  0.677648  0.375266  1
  Ho  Ho11  1  0.822870  0.322456  0.874990  1
  Ho  Ho12  1  0.823069  0.322223  0.624873  1
  Ho  Ho13  1  0.323085  0.177741  0.875024  1
  Ho  Ho14  1  0.177134  0.677580  0.124956  1
  Ho  Ho15  1  0.677026  0.822255  0.125060  1
  Sc  Sc16  1  0.655542  0.988698  0.750048  1
  Sc  Sc17  1  0.844385  0.488983  0.250199  1
  Sc  Sc18  1  0.344507  0.011111  0.250146  1
  Sc  Sc19  1  0.155546  0.511329  0.749939  1
  Si  Si20  1  0.279774  0.872800  0.749956  1
  Si  Si21  1  0.477008  0.605503  0.250114  1
  Si  Si22  1  0.022990  0.105542  0.749939  1
  Si  Si23  1  0.522971  0.394541  0.749902  1
  Si  Si24  1  0.148621  0.468080  0.539483  1
  Si  Si25  1  0.976860  0.893434  0.250429  1
  Si  Si26  1  0.719376  0.127045  0.250427  1
  Si  Si27  1  0.851007  0.532909  0.039068  1
  Si  Si28  1  0.352258  0.967542  0.039259  1
  Si  Si29  1  0.148780  0.468923  0.960160  1
  Si  Si30  1  0.648556  0.031880  0.539518  1
  Si  Si31  1  0.351338  0.968180  0.460484  1
  Si  Si32  1  0.851400  0.531892  0.460567  1
  Si  Si33  1  0.779737  0.627260  0.749915  1
  Si  Si34  1  0.220762  0.373199  0.250356  1
  Si  Si35  1  0.648735  0.031773  0.960398  1
