# generated using pymatgen
data_Li4Sm8Tm8Si15Pt
_symmetry_space_group_name_H-M   'P 1'
_cell_length_a   7.20738700
_cell_length_b   7.75637916
_cell_length_c   14.71072500
_cell_angle_alpha   90.00000000
_cell_angle_beta   90.00000000
_cell_angle_gamma   90.45461820
_symmetry_Int_Tables_number   1
_chemical_formula_structural   Li4Sm8Tm8Si15Pt
_chemical_formula_sum   'Li4 Sm8 Tm8 Si15 Pt1'
_cell_volume   822.35110180
_cell_formula_units_Z   1
loop_
 _symmetry_equiv_pos_site_id
 _symmetry_equiv_pos_as_xyz
  1  'x, y, z'
loop_
 _atom_site_type_symbol
 _atom_site_label
 _atom_site_symmetry_multiplicity
 _atom_site_fract_x
 _atom_site_fract_y
 _atom_site_fract_z
 _atom_site_occupancy
  Li  Li0  1  0.155126  0.519963  0.750000  1
  Li  Li1  1  0.844644  0.479465  0.250000  1
  Li  Li2  1  0.344465  0.022349  0.250000  1
  Li  Li3  1  0.649788  0.978437  0.750000  1
  Sm  Sm4  1  0.022973  0.185128  0.098775  1
  Sm  Sm5  1  0.980843  0.819248  0.899785  1
  Sm  Sm6  1  0.477015  0.684304  0.898993  1
  Sm  Sm7  1  0.980843  0.819248  0.600215  1
  Sm  Sm8  1  0.522718  0.314754  0.100685  1
  Sm  Sm9  1  0.022973  0.185128  0.401225  1
  Sm  Sm10  1  0.522718  0.314754  0.399315  1
  Sm  Sm11  1  0.477015  0.684304  0.601007  1
  Tm  Tm12  1  0.317663  0.176606  0.629215  1
  Tm  Tm13  1  0.675033  0.820531  0.374054  1
  Tm  Tm14  1  0.174573  0.682038  0.373488  1
  Tm  Tm15  1  0.675033  0.820531  0.125946  1
  Tm  Tm16  1  0.827595  0.317485  0.630321  1
  Tm  Tm17  1  0.317663  0.176606  0.870785  1
  Tm  Tm18  1  0.827595  0.317485  0.869679  1
  Tm  Tm19  1  0.174573  0.682038  0.126512  1
  Si  Si20  1  0.976121  0.908336  0.250000  1
  Si  Si21  1  0.477164  0.591634  0.250000  1
  Si  Si22  1  0.520441  0.408312  0.750000  1
  Si  Si23  1  0.278991  0.867181  0.750000  1
  Si  Si24  1  0.730664  0.121407  0.250000  1
  Si  Si25  1  0.227536  0.382523  0.250000  1
  Si  Si26  1  0.770890  0.619524  0.750000  1
  Si  Si27  1  0.150945  0.468255  0.535426  1
  Si  Si28  1  0.849028  0.533700  0.465038  1
  Si  Si29  1  0.348347  0.967680  0.464849  1
  Si  Si30  1  0.849028  0.533700  0.034962  1
  Si  Si31  1  0.651844  0.033043  0.535494  1
  Si  Si32  1  0.150945  0.468255  0.964574  1
  Si  Si33  1  0.651844  0.033043  0.964506  1
  Si  Si34  1  0.348347  0.967680  0.035151  1
  Pt  Pt35  1  0.027018  0.095325  0.750000  1
