# generated using pymatgen
data_Li6Dy5P12Ir9Ru4
_symmetry_space_group_name_H-M   'P 1'
_cell_length_a   12.67481443
_cell_length_b   12.64165535
_cell_length_c   3.96669700
_cell_angle_alpha   90.00000000
_cell_angle_beta   90.00000000
_cell_angle_gamma   119.88092814
_symmetry_Int_Tables_number   1
_chemical_formula_structural   Li6Dy5P12Ir9Ru4
_chemical_formula_sum   'Li6 Dy5 P12 Ir9 Ru4'
_cell_volume   551.09320032
_cell_formula_units_Z   1
loop_
 _symmetry_equiv_pos_site_id
 _symmetry_equiv_pos_as_xyz
  1  'x, y, z'
loop_
 _atom_site_type_symbol
 _atom_site_label
 _atom_site_symmetry_multiplicity
 _atom_site_fract_x
 _atom_site_fract_y
 _atom_site_fract_z
 _atom_site_occupancy
  Li  Li0  1  0.107580  0.625814  0.500000  1
  Li  Li1  1  0.375574  0.482571  0.500000  1
  Li  Li2  1  0.518703  0.893453  0.500000  1
  Li  Li3  1  0.445363  0.001756  0.000000  1
  Li  Li4  1  0.557772  0.553287  0.000000  1
  Li  Li5  1  0.995447  0.442584  0.000000  1
  Dy  Dy6  1  0.666975  0.333554  0.000000  1
  Dy  Dy7  1  0.333474  0.667232  0.000000  1
  Dy  Dy8  1  0.818809  0.005290  0.500000  1
  Dy  Dy9  1  0.186860  0.181627  0.500000  1
  Dy  Dy10  1  0.994310  0.811472  0.500000  1
  P  P11  1  0.649276  0.019311  0.000000  1
  P  P12  1  0.368759  0.351957  0.000000  1
  P  P13  1  0.983455  0.630732  0.000000  1
  P  P14  1  0.679214  0.516916  0.500000  1
  P  P15  1  0.837888  0.317392  0.500000  1
  P  P16  1  0.292411  0.811765  0.500000  1
  P  P17  1  0.520222  0.709056  0.500000  1
  P  P18  1  0.178569  0.991146  0.000000  1
  P  P19  1  0.811395  0.820698  0.000000  1
  P  P20  1  0.006758  0.190111  0.000000  1
  P  P21  1  0.481998  0.160384  0.500000  1
  P  P22  1  0.189454  0.480494  0.500000  1
  Ir  Ir23  1  0.613881  0.812527  0.000000  1
  Ir  Ir24  1  0.200558  0.387654  0.000000  1
  Ir  Ir25  1  0.377897  0.169002  0.000000  1
  Ir  Ir26  1  0.186445  0.801014  0.000000  1
  Ir  Ir27  1  0.792112  0.622290  0.000000  1
  Ir  Ir28  1  0.872898  0.518431  0.500000  1
  Ir  Ir29  1  0.480116  0.352797  0.500000  1
  Ir  Ir30  1  0.646493  0.126807  0.500000  1
  Ir  Ir31  1  0.999310  0.000795  0.000000  1
  Ru  Ru32  1  0.711772  0.723317  0.500000  1
  Ru  Ru33  1  0.012997  0.290565  0.500000  1
  Ru  Ru34  1  0.830130  0.208138  0.000000  1
  Ru  Ru35  1  0.275122  0.988064  0.500000  1
