# generated using pymatgen
data_Dy2Ho10InCo4Os
_symmetry_space_group_name_H-M   'P 1'
_cell_length_a   8.26431354
_cell_length_b   8.26172927
_cell_length_c   8.26431413
_cell_angle_alpha   111.54573570
_cell_angle_beta   110.55147578
_cell_angle_gamma   106.37426466
_symmetry_Int_Tables_number   1
_chemical_formula_structural   Dy2Ho10InCo4Os
_chemical_formula_sum   'Dy2 Ho10 In1 Co4 Os1'
_cell_volume   433.32431086
_cell_formula_units_Z   1
loop_
 _symmetry_equiv_pos_site_id
 _symmetry_equiv_pos_as_xyz
  1  'x, y, z'
loop_
 _atom_site_type_symbol
 _atom_site_label
 _atom_site_symmetry_multiplicity
 _atom_site_fract_x
 _atom_site_fract_y
 _atom_site_fract_z
 _atom_site_occupancy
  Dy  Dy0  1  0.314954  0.009151  0.694198  1
  Dy  Dy1  1  0.685046  0.990849  0.305802  1
  Ho  Ho2  1  0.413694  0.220352  0.193761  1
  Ho  Ho3  1  0.586306  0.779648  0.806239  1
  Ho  Ho4  1  0.026592  0.220352  0.806657  1
  Ho  Ho5  1  0.973408  0.779648  0.193343  1
  Ho  Ho6  1  0.181700  0.281341  0.462524  1
  Ho  Ho7  1  0.818300  0.718659  0.537476  1
  Ho  Ho8  1  0.181184  0.718659  0.900359  1
  Ho  Ho9  1  0.818816  0.281341  0.099641  1
  Ho  Ho10  1  0.314972  0.620973  0.306001  1
  Ho  Ho11  1  0.685028  0.379027  0.693999  1
  In  In12  1  0.500000  0.500000  0.000000  1
  Co  Co13  1  0.375968  0.000000  0.375968  1
  Co  Co14  1  0.624032  0.000000  0.624032  1
  Co  Co15  1  0.111452  0.611369  0.499917  1
  Co  Co16  1  0.888548  0.388631  0.500083  1
  Os  Os17  1  0.000000  0.000000  0.000000  1
