# generated using pymatgen
data_Dy2YAl7Cu2
_symmetry_space_group_name_H-M   'P 1'
_cell_length_a   9.09249309
_cell_length_b   9.09249357
_cell_length_c   9.09249345
_cell_angle_alpha   35.15272310
_cell_angle_beta   35.15272088
_cell_angle_gamma   35.15271620
_symmetry_Int_Tables_number   1
_chemical_formula_structural   Dy2YAl7Cu2
_chemical_formula_sum   'Dy2 Y1 Al7 Cu2'
_cell_volume   222.55412179
_cell_formula_units_Z   1
loop_
 _symmetry_equiv_pos_site_id
 _symmetry_equiv_pos_as_xyz
  1  'x, y, z'
loop_
 _atom_site_type_symbol
 _atom_site_label
 _atom_site_symmetry_multiplicity
 _atom_site_fract_x
 _atom_site_fract_y
 _atom_site_fract_z
 _atom_site_occupancy
  Dy  Dy0  1  0.857674  0.857674  0.857674  1
  Dy  Dy1  1  0.142326  0.142326  0.142326  1
  Y  Y2  1  0.000000  0.000000  0.000000  1
  Al  Al3  1  0.418340  0.418340  0.927022  1
  Al  Al4  1  0.927022  0.418340  0.418340  1
  Al  Al5  1  0.418340  0.927022  0.418340  1
  Al  Al6  1  0.500000  0.500000  0.500000  1
  Al  Al7  1  0.581660  0.072978  0.581660  1
  Al  Al8  1  0.072978  0.581660  0.581660  1
  Al  Al9  1  0.581660  0.581660  0.072978  1
  Cu  Cu10  1  0.664794  0.664794  0.664794  1
  Cu  Cu11  1  0.335206  0.335206  0.335206  1
