# generated using pymatgen
data_Ta12As3P
_symmetry_space_group_name_H-M   'P 1'
_cell_length_a   10.34855899
_cell_length_b   10.34855899
_cell_length_c   5.14209470
_cell_angle_alpha   90.17330214
_cell_angle_beta   89.82669786
_cell_angle_gamma   90.01575596
_symmetry_Int_Tables_number   1
_chemical_formula_structural   Ta12As3P
_chemical_formula_sum   'Ta24 As6 P2'
_cell_volume   550.67560952
_cell_formula_units_Z   2
loop_
 _symmetry_equiv_pos_site_id
 _symmetry_equiv_pos_as_xyz
  1  'x, y, z'
loop_
 _atom_site_type_symbol
 _atom_site_label
 _atom_site_symmetry_multiplicity
 _atom_site_fract_x
 _atom_site_fract_y
 _atom_site_fract_z
 _atom_site_occupancy
  Ta  Ta0  1  0.908702  0.590541  0.500194  1
  Ta  Ta1  1  0.909569  0.409837  0.000623  1
  Ta  Ta2  1  0.590163  0.090431  0.500623  1
  Ta  Ta3  1  0.494361  0.649120  0.250884  1
  Ta  Ta4  1  0.797111  0.298632  0.501003  1
  Ta  Ta5  1  0.095083  0.411867  0.495566  1
  Ta  Ta6  1  0.850556  0.999493  0.749196  1
  Ta  Ta7  1  0.095381  0.588566  0.003662  1
  Ta  Ta8  1  0.204721  0.302950  0.003418  1
  Ta  Ta9  1  0.646041  0.506209  0.749387  1
  Ta  Ta10  1  0.301498  0.796183  0.993645  1
  Ta  Ta11  1  0.297606  0.201808  0.502429  1
  Ta  Ta12  1  0.000449  0.849202  0.250641  1
  Ta  Ta13  1  0.701368  0.202889  0.001003  1
  Ta  Ta14  1  0.588133  0.904917  0.995566  1
  Ta  Ta15  1  0.350880  0.505639  0.750884  1
  Ta  Ta16  1  0.697050  0.795279  0.503418  1
  Ta  Ta17  1  0.000507  0.149444  0.249196  1
  Ta  Ta18  1  0.203817  0.698502  0.493645  1
  Ta  Ta19  1  0.409459  0.091298  0.000194  1
  Ta  Ta20  1  0.493791  0.353959  0.249387  1
  Ta  Ta21  1  0.411434  0.904619  0.503662  1
  Ta  Ta22  1  0.798192  0.702394  0.002429  1
  Ta  Ta23  1  0.150798  0.999551  0.750641  1
  As  As24  1  0.002566  0.791591  0.751387  1
  As  As25  1  0.499934  0.295371  0.749471  1
  As  As26  1  0.208409  0.997434  0.251387  1
  As  As27  1  0.791906  0.997381  0.248698  1
  As  As28  1  0.002619  0.208094  0.748698  1
  As  As29  1  0.704629  0.500066  0.249471  1
  P  P30  1  0.294116  0.500849  0.249798  1
  P  P31  1  0.499151  0.705884  0.749798  1
