# generated using pymatgen
data_Rb6(PtO3)5
_symmetry_space_group_name_H-M   'P 1'
_cell_length_a   7.90715425
_cell_length_b   7.90714946
_cell_length_c   7.90715300
_cell_angle_alpha   89.91238770
_cell_angle_beta   89.91234428
_cell_angle_gamma   89.91239869
_symmetry_Int_Tables_number   1
_chemical_formula_structural   Rb6(PtO3)5
_chemical_formula_sum   'Rb6 Pt5 O15'
_cell_volume   494.37759349
_cell_formula_units_Z   1
loop_
 _symmetry_equiv_pos_site_id
 _symmetry_equiv_pos_as_xyz
  1  'x, y, z'
loop_
 _atom_site_type_symbol
 _atom_site_label
 _atom_site_symmetry_multiplicity
 _atom_site_fract_x
 _atom_site_fract_y
 _atom_site_fract_z
 _atom_site_occupancy
  Rb  Rb0  1  0.317939  0.682271  0.999707  1
  Rb  Rb1  1  0.999707  0.317941  0.682270  1
  Rb  Rb2  1  0.682270  0.999706  0.317941  1
  Rb  Rb3  1  0.148018  0.851686  0.500237  1
  Rb  Rb4  1  0.500237  0.148019  0.851686  1
  Rb  Rb5  1  0.851685  0.500237  0.148018  1
  Pt  Pt6  1  0.500005  0.500004  0.500004  1
  Pt  Pt7  1  0.299693  0.299693  0.299693  1
  Pt  Pt8  1  0.700278  0.700278  0.700278  1
  Pt  Pt9  1  0.099878  0.099878  0.099878  1
  Pt  Pt10  1  0.900192  0.900192  0.900193  1
  O  O11  1  0.133873  0.000361  0.866515  1
  O  O12  1  0.866516  0.133873  0.000362  1
  O  O13  1  0.000361  0.866516  0.133873  1
  O  O14  1  0.056201  0.221905  0.320049  1
  O  O15  1  0.320049  0.056201  0.221905  1
  O  O16  1  0.221905  0.320049  0.056201  1
  O  O17  1  0.777968  0.943539  0.679623  1
  O  O18  1  0.679623  0.777969  0.943539  1
  O  O19  1  0.943539  0.679623  0.777969  1
  O  O20  1  0.343785  0.304434  0.550502  1
  O  O21  1  0.550502  0.343785  0.304434  1
  O  O22  1  0.304435  0.550502  0.343785  1
  O  O23  1  0.695715  0.656029  0.449596  1
  O  O24  1  0.449596  0.695715  0.656029  1
  O  O25  1  0.656030  0.449596  0.695715  1
