# generated using pymatgen
data_Nd12Ga3Si5Rh8
_symmetry_space_group_name_H-M   'P 1'
_cell_length_a   5.74583300
_cell_length_b   8.14422214
_cell_length_c   13.31674452
_cell_angle_alpha   90.28544276
_cell_angle_beta   90.00000000
_cell_angle_gamma   90.00000000
_symmetry_Int_Tables_number   1
_chemical_formula_structural   Nd12Ga3Si5Rh8
_chemical_formula_sum   'Nd12 Ga3 Si5 Rh8'
_cell_volume   623.15385877
_cell_formula_units_Z   1
loop_
 _symmetry_equiv_pos_site_id
 _symmetry_equiv_pos_as_xyz
  1  'x, y, z'
loop_
 _atom_site_type_symbol
 _atom_site_label
 _atom_site_symmetry_multiplicity
 _atom_site_fract_x
 _atom_site_fract_y
 _atom_site_fract_z
 _atom_site_occupancy
  Nd  Nd0  1  0.641470  0.251580  0.249068  1
  Nd  Nd1  1  0.357587  0.748321  0.750648  1
  Nd  Nd2  1  0.357587  0.751679  0.249352  1
  Nd  Nd3  1  0.641470  0.248420  0.750932  1
  Nd  Nd4  1  0.144102  0.394333  0.101026  1
  Nd  Nd5  1  0.852399  0.603254  0.898530  1
  Nd  Nd6  1  0.850679  0.603784  0.601881  1
  Nd  Nd7  1  0.850679  0.896216  0.398119  1
  Nd  Nd8  1  0.148828  0.396878  0.398410  1
  Nd  Nd9  1  0.148828  0.103122  0.601590  1
  Nd  Nd10  1  0.144102  0.105667  0.898974  1
  Nd  Nd11  1  0.852399  0.896746  0.101470  1
  Ga  Ga12  1  0.370645  0.750000  0.000000  1
  Ga  Ga13  1  0.365980  0.750000  0.500000  1
  Ga  Ga14  1  0.633464  0.250000  0.500000  1
  Si  Si15  1  0.148624  0.106453  0.249371  1
  Si  Si16  1  0.850429  0.892837  0.751718  1
  Si  Si17  1  0.850429  0.607163  0.248282  1
  Si  Si18  1  0.148624  0.393547  0.750629  1
  Si  Si19  1  0.619522  0.250000  0.000000  1
  Rh  Rh20  1  0.373439  0.038121  0.093428  1
  Rh  Rh21  1  0.635254  0.977414  0.906953  1
  Rh  Rh22  1  0.637081  0.967957  0.595764  1
  Rh  Rh23  1  0.637081  0.532043  0.404236  1
  Rh  Rh24  1  0.365302  0.031852  0.404144  1
  Rh  Rh25  1  0.365302  0.468148  0.595856  1
  Rh  Rh26  1  0.373439  0.461879  0.906572  1
  Rh  Rh27  1  0.635254  0.522586  0.093047  1
