# generated using pymatgen
data_Te11Ir2Cl7
_symmetry_space_group_name_H-M   'P 1'
_cell_length_a   9.13083626
_cell_length_b   9.51638069
_cell_length_c   9.18442917
_cell_angle_alpha   108.15799216
_cell_angle_beta   109.13911870
_cell_angle_gamma   106.41191473
_symmetry_Int_Tables_number   1
_chemical_formula_structural   Te11Ir2Cl7
_chemical_formula_sum   'Te11 Ir2 Cl7'
_cell_volume   647.27433465
_cell_formula_units_Z   1
loop_
 _symmetry_equiv_pos_site_id
 _symmetry_equiv_pos_as_xyz
  1  'x, y, z'
loop_
 _atom_site_type_symbol
 _atom_site_label
 _atom_site_symmetry_multiplicity
 _atom_site_fract_x
 _atom_site_fract_y
 _atom_site_fract_z
 _atom_site_occupancy
  Te  Te0  1  0.195051  0.937387  0.182399  1
  Te  Te1  1  0.163674  0.172302  0.911052  1
  Te  Te2  1  0.683569  0.652543  0.414739  1
  Te  Te3  1  0.417331  0.681140  0.661886  1
  Te  Te4  1  0.676427  0.433129  0.697777  1
  Te  Te5  1  0.078239  0.823813  0.814171  1
  Te  Te6  1  0.801405  0.051647  0.809474  1
  Te  Te7  1  0.822160  0.790723  0.065845  1
  Te  Te8  1  0.308476  0.334122  0.573041  1
  Te  Te9  1  0.566091  0.313900  0.324508  1
  Te  Te10  1  0.301125  0.560708  0.296151  1
  Ir  Ir11  1  0.244437  0.249492  0.243240  1
  Ir  Ir12  1  0.747094  0.745452  0.746144  1
  Cl  Cl13  1  0.940986  0.172766  0.172702  1
  Cl  Cl14  1  0.017449  0.563120  0.283343  1
  Cl  Cl15  1  0.268312  0.021458  0.528704  1
  Cl  Cl16  1  0.513485  0.252117  0.993746  1
  Cl  Cl17  1  0.747425  0.019645  0.514408  1
  Cl  Cl18  1  0.489498  0.721281  0.007282  1
  Cl  Cl19  1  0.017766  0.503256  0.759388  1
