# generated using pymatgen
data_ZrSc3Fe3Os5
_symmetry_space_group_name_H-M   'P 1'
_cell_length_a   5.07586603
_cell_length_b   5.08381591
_cell_length_c   8.54089357
_cell_angle_alpha   89.99999720
_cell_angle_beta   89.87603463
_cell_angle_gamma   120.05183718
_symmetry_Int_Tables_number   1
_chemical_formula_structural   ZrSc3Fe3Os5
_chemical_formula_sum   'Zr1 Sc3 Fe3 Os5'
_cell_volume   190.76797203
_cell_formula_units_Z   1
loop_
 _symmetry_equiv_pos_site_id
 _symmetry_equiv_pos_as_xyz
  1  'x, y, z'
loop_
 _atom_site_type_symbol
 _atom_site_label
 _atom_site_symmetry_multiplicity
 _atom_site_fract_x
 _atom_site_fract_y
 _atom_site_fract_z
 _atom_site_occupancy
  Zr  Zr0  1  0.331059  0.665530  0.436019  1
  Sc  Sc1  1  0.662106  0.331052  0.569086  1
  Sc  Sc2  1  0.661680  0.330839  0.934910  1
  Sc  Sc3  1  0.329774  0.664888  0.060723  1
  Fe  Fe4  1  0.174534  0.344372  0.749948  1
  Fe  Fe5  1  0.174534  0.830161  0.749948  1
  Fe  Fe6  1  0.339664  0.169833  0.249116  1
  Os  Os7  1  0.830625  0.658367  0.249984  1
  Os  Os8  1  0.657215  0.828607  0.749911  1
  Os  Os9  1  0.000216  0.000107  0.995388  1
  Os  Os10  1  0.830625  0.172258  0.249984  1
  Os  Os11  1  0.007969  0.003984  0.504983  1
