# generated using pymatgen
data_Zr6Al3Ga3(PtRh2)2
_symmetry_space_group_name_H-M   'P 1'
_cell_length_a   7.22764100
_cell_length_b   7.22764063
_cell_length_c   7.00043900
_cell_angle_alpha   90.00000000
_cell_angle_beta   90.00000000
_cell_angle_gamma   120.00000627
_symmetry_Int_Tables_number   1
_chemical_formula_structural   Zr6Al3Ga3(PtRh2)2
_chemical_formula_sum   'Zr6 Al3 Ga3 Pt2 Rh4'
_cell_volume   316.70068546
_cell_formula_units_Z   1
loop_
 _symmetry_equiv_pos_site_id
 _symmetry_equiv_pos_as_xyz
  1  'x, y, z'
loop_
 _atom_site_type_symbol
 _atom_site_label
 _atom_site_symmetry_multiplicity
 _atom_site_fract_x
 _atom_site_fract_y
 _atom_site_fract_z
 _atom_site_occupancy
  Zr  Zr0  1  0.001747  0.602963  0.743053  1
  Zr  Zr1  1  0.998253  0.601217  0.256947  1
  Zr  Zr2  1  0.602963  0.001747  0.256947  1
  Zr  Zr3  1  0.601217  0.998253  0.743053  1
  Zr  Zr4  1  0.398783  0.397037  0.256947  1
  Zr  Zr5  1  0.397037  0.398783  0.743053  1
  Al  Al6  1  0.730461  0.730461  0.000000  1
  Al  Al7  1  0.000000  0.269539  0.000000  1
  Al  Al8  1  0.269539  0.000000  0.000000  1
  Ga  Ga9  1  0.000000  0.255069  0.500000  1
  Ga  Ga10  1  0.255069  0.000000  0.500000  1
  Ga  Ga11  1  0.744931  0.744931  0.500000  1
  Pt  Pt12  1  0.666667  0.333333  0.997391  1
  Pt  Pt13  1  0.333333  0.666667  0.002609  1
  Rh  Rh14  1  0.333333  0.666667  0.497545  1
  Rh  Rh15  1  0.666667  0.333333  0.502455  1
  Rh  Rh16  1  0.000000  0.000000  0.227015  1
  Rh  Rh17  1  0.000000  0.000000  0.772985  1
