# generated using pymatgen
data_Tb3Er9GaNi4Sn
_symmetry_space_group_name_H-M   'P 1'
_cell_length_a   8.31215301
_cell_length_b   8.31479476
_cell_length_c   8.31452229
_cell_angle_alpha   105.95688680
_cell_angle_beta   109.72597951
_cell_angle_gamma   112.81481569
_symmetry_Int_Tables_number   1
_chemical_formula_structural   Tb3Er9GaNi4Sn
_chemical_formula_sum   'Tb3 Er9 Ga1 Ni4 Sn1'
_cell_volume   440.71802184
_cell_formula_units_Z   1
loop_
 _symmetry_equiv_pos_site_id
 _symmetry_equiv_pos_as_xyz
  1  'x, y, z'
loop_
 _atom_site_type_symbol
 _atom_site_label
 _atom_site_symmetry_multiplicity
 _atom_site_fract_x
 _atom_site_fract_y
 _atom_site_fract_z
 _atom_site_occupancy
  Tb  Tb0  1  0.967876  0.786751  0.181127  1
  Tb  Tb1  1  0.031336  0.212971  0.818365  1
  Tb  Tb2  1  0.394918  0.213295  0.181606  1
  Er  Er3  1  0.697769  0.270227  0.968522  1
  Er  Er4  1  0.302406  0.729120  0.031069  1
  Er  Er5  1  0.697775  0.729280  0.427543  1
  Er  Er6  1  0.302394  0.271321  0.573280  1
  Er  Er7  1  0.809678  0.132196  0.322374  1
  Er  Er8  1  0.809682  0.487309  0.677473  1
  Er  Er9  1  0.190653  0.867322  0.677390  1
  Er  Er10  1  0.190633  0.513235  0.323316  1
  Er  Er11  1  0.605450  0.786896  0.818572  1
  Ga  Ga12  1  0.500351  0.500570  0.999780  1
  Ni  Ni13  1  0.852291  0.499971  0.352322  1
  Ni  Ni14  1  0.148309  0.500436  0.647877  1
  Ni  Ni15  1  0.999230  0.122394  0.122525  1
  Ni  Ni16  1  0.999227  0.876702  0.876847  1
  Sn  Sn17  1  0.500021  0.000006  0.500013  1
