# generated using pymatgen
data_Nd6P5Se
_symmetry_space_group_name_H-M   'P 1'
_cell_length_a   4.16810887
_cell_length_b   10.27949961
_cell_length_c   8.34451469
_cell_angle_alpha   90.10064123
_cell_angle_beta   60.02449088
_cell_angle_gamma   89.99631731
_symmetry_Int_Tables_number   1
_chemical_formula_structural   Nd6P5Se
_chemical_formula_sum   'Nd6 P5 Se1'
_cell_volume   309.70551750
_cell_formula_units_Z   1
loop_
 _symmetry_equiv_pos_site_id
 _symmetry_equiv_pos_as_xyz
  1  'x, y, z'
loop_
 _atom_site_type_symbol
 _atom_site_label
 _atom_site_symmetry_multiplicity
 _atom_site_fract_x
 _atom_site_fract_y
 _atom_site_fract_z
 _atom_site_occupancy
  Nd  Nd0  1  0.943869  0.893351  0.649692  1
  Nd  Nd1  1  0.266573  0.236558  0.328542  1
  Nd  Nd2  1  0.605660  0.565004  0.988962  1
  Nd  Nd3  1  0.280379  0.241935  0.814764  1
  Nd  Nd4  1  0.605567  0.564974  0.488985  1
  Nd  Nd5  1  0.929769  0.888058  0.163663  1
  P  P6  1  0.271249  0.730038  0.322475  1
  P  P7  1  0.939549  0.399893  0.655539  1
  P  P8  1  0.604997  0.064918  0.489214  1
  P  P9  1  0.940369  0.397116  0.154757  1
  P  P10  1  0.270532  0.732793  0.823364  1
  Se  Se11  1  0.604997  0.065092  0.989138  1
