# generated using pymatgen
data_Tm8Ta9Ti3Ge16
_symmetry_space_group_name_H-M   'P 1'
_cell_length_a   6.96615404
_cell_length_b   7.09792710
_cell_length_c   13.44210172
_cell_angle_alpha   89.97284781
_cell_angle_beta   90.02604392
_cell_angle_gamma   89.91623619
_symmetry_Int_Tables_number   1
_chemical_formula_structural   Tm8Ta9Ti3Ge16
_chemical_formula_sum   'Tm8 Ta9 Ti3 Ge16'
_cell_volume   664.64727390
_cell_formula_units_Z   1
loop_
 _symmetry_equiv_pos_site_id
 _symmetry_equiv_pos_as_xyz
  1  'x, y, z'
loop_
 _atom_site_type_symbol
 _atom_site_label
 _atom_site_symmetry_multiplicity
 _atom_site_fract_x
 _atom_site_fract_y
 _atom_site_fract_z
 _atom_site_occupancy
  Tm  Tm0  1  0.493664  0.673589  0.594522  1
  Tm  Tm1  1  0.993516  0.826408  0.905400  1
  Tm  Tm2  1  0.506070  0.326541  0.094660  1
  Tm  Tm3  1  0.006679  0.173899  0.405518  1
  Tm  Tm4  1  0.505808  0.326918  0.404621  1
  Tm  Tm5  1  0.004596  0.174995  0.095351  1
  Tm  Tm6  1  0.495692  0.675201  0.904480  1
  Tm  Tm7  1  0.995347  0.824069  0.594719  1
  Ta  Ta8  1  0.839668  0.671768  0.373445  1
  Ta  Ta9  1  0.342818  0.827972  0.372997  1
  Ta  Ta10  1  0.840584  0.670571  0.126925  1
  Ta  Ta11  1  0.658468  0.172224  0.872735  1
  Ta  Ta12  1  0.158158  0.327802  0.627605  1
  Ta  Ta13  1  0.833682  0.487640  0.750276  1
  Ta  Ta14  1  0.334061  0.012983  0.750051  1
  Ta  Ta15  1  0.164327  0.513207  0.250610  1
  Ta  Ta16  1  0.666289  0.986057  0.250721  1
  Ti  Ti17  1  0.660254  0.171799  0.626385  1
  Ti  Ti18  1  0.161672  0.327984  0.873741  1
  Ti  Ti19  1  0.339404  0.828725  0.126122  1
  Ge  Ge20  1  0.677536  0.964890  0.459789  1
  Ge  Ge21  1  0.177454  0.538948  0.041491  1
  Ge  Ge22  1  0.322569  0.038646  0.958657  1
  Ge  Ge23  1  0.821380  0.459653  0.542042  1
  Ge  Ge24  1  0.324167  0.037246  0.542196  1
  Ge  Ge25  1  0.824769  0.462000  0.958001  1
  Ge  Ge26  1  0.675677  0.962071  0.041962  1
  Ge  Ge27  1  0.176392  0.537297  0.458429  1
  Ge  Ge28  1  0.459197  0.378549  0.749054  1
  Ge  Ge29  1  0.958901  0.121659  0.751045  1
  Ge  Ge30  1  0.538293  0.620481  0.247787  1
  Ge  Ge31  1  0.042846  0.880523  0.248900  1
  Ge  Ge32  1  0.693719  0.859143  0.748746  1
  Ge  Ge33  1  0.193563  0.640589  0.751308  1
  Ge  Ge34  1  0.306779  0.140951  0.249265  1
  Ge  Ge35  1  0.805999  0.357003  0.250446  1
