# generated using pymatgen
data_Dy9Y7MgAg3Rh4
_symmetry_space_group_name_H-M   'P 1'
_cell_length_a   9.58822795
_cell_length_b   9.61136014
_cell_length_c   9.60264100
_cell_angle_alpha   60.02988290
_cell_angle_beta   59.95073396
_cell_angle_gamma   60.08007052
_symmetry_Int_Tables_number   1
_chemical_formula_structural   Dy9Y7MgAg3Rh4
_chemical_formula_sum   'Dy9 Y7 Mg1 Ag3 Rh4'
_cell_volume   626.03251165
_cell_formula_units_Z   1
loop_
 _symmetry_equiv_pos_site_id
 _symmetry_equiv_pos_as_xyz
  1  'x, y, z'
loop_
 _atom_site_type_symbol
 _atom_site_label
 _atom_site_symmetry_multiplicity
 _atom_site_fract_x
 _atom_site_fract_y
 _atom_site_fract_z
 _atom_site_occupancy
  Dy  Dy0  1  0.600524  0.598707  0.598800  1
  Dy  Dy1  1  0.600536  0.598716  0.201950  1
  Dy  Dy2  1  0.599907  0.203227  0.598439  1
  Dy  Dy3  1  0.186047  0.604798  0.604588  1
  Dy  Dy4  1  0.059574  0.438626  0.439544  1
  Dy  Dy5  1  0.435841  0.062937  0.063985  1
  Dy  Dy6  1  0.435838  0.062947  0.437232  1
  Dy  Dy7  1  0.059572  0.438623  0.062259  1
  Dy  Dy8  1  0.435675  0.436179  0.064081  1
  Y  Y9  1  0.059446  0.060975  0.439786  1
  Y  Y10  1  0.185355  0.813417  0.814264  1
  Y  Y11  1  0.814278  0.185879  0.185412  1
  Y  Y12  1  0.814275  0.185880  0.814428  1
  Y  Y13  1  0.185356  0.813413  0.186964  1
  Y  Y14  1  0.813420  0.814199  0.186188  1
  Y  Y15  1  0.185205  0.186866  0.813961  1
  Mg  Mg16  1  0.539482  0.820398  0.820046  1
  Ag  Ag17  1  0.832442  0.834984  0.833656  1
  Ag  Ag18  1  0.832439  0.834984  0.498907  1
  Ag  Ag19  1  0.832455  0.499402  0.834066  1
  Rh  Rh20  1  0.389385  0.395053  0.393766  1
  Rh  Rh21  1  0.389388  0.395025  0.821847  1
  Rh  Rh22  1  0.392603  0.819534  0.393926  1
  Rh  Rh23  1  0.820958  0.395233  0.391903  1
