# generated using pymatgen
data_Y6IrAu7
_symmetry_space_group_name_H-M   'P 1'
_cell_length_a   8.10640891
_cell_length_b   8.10640845
_cell_length_c   8.10640941
_cell_angle_alpha   114.33708614
_cell_angle_beta   114.33708058
_cell_angle_gamma   114.33709607
_symmetry_Int_Tables_number   1
_chemical_formula_structural   Y6IrAu7
_chemical_formula_sum   'Y6 Ir1 Au7'
_cell_volume   315.39243660
_cell_formula_units_Z   1
loop_
 _symmetry_equiv_pos_site_id
 _symmetry_equiv_pos_as_xyz
  1  'x, y, z'
loop_
 _atom_site_type_symbol
 _atom_site_label
 _atom_site_symmetry_multiplicity
 _atom_site_fract_x
 _atom_site_fract_y
 _atom_site_fract_z
 _atom_site_occupancy
  Y  Y0  1  0.736537  0.617378  0.986932  1
  Y  Y1  1  0.986932  0.736537  0.617378  1
  Y  Y2  1  0.617378  0.986932  0.736537  1
  Y  Y3  1  0.263463  0.382622  0.013068  1
  Y  Y4  1  0.013068  0.263463  0.382622  1
  Y  Y5  1  0.382622  0.013068  0.263463  1
  Ir  Ir6  1  0.000000  0.000000  0.000000  1
  Au  Au7  1  0.569407  0.235911  0.072574  1
  Au  Au8  1  0.072574  0.569407  0.235911  1
  Au  Au9  1  0.235911  0.072574  0.569407  1
  Au  Au10  1  0.430593  0.764089  0.927426  1
  Au  Au11  1  0.927426  0.430593  0.764089  1
  Au  Au12  1  0.764089  0.927426  0.430593  1
  Au  Au13  1  0.500000  0.500000  0.500000  1
