# generated using pymatgen
data_Sm3In3Ir2Pb
_symmetry_space_group_name_H-M   'P 1'
_cell_length_a   7.85498200
_cell_length_b   7.85498154
_cell_length_c   4.08319700
_cell_angle_alpha   90.00000000
_cell_angle_beta   90.00000000
_cell_angle_gamma   119.99999353
_symmetry_Int_Tables_number   1
_chemical_formula_structural   Sm3In3Ir2Pb
_chemical_formula_sum   'Sm3 In3 Ir2 Pb1'
_cell_volume   218.18322474
_cell_formula_units_Z   1
loop_
 _symmetry_equiv_pos_site_id
 _symmetry_equiv_pos_as_xyz
  1  'x, y, z'
loop_
 _atom_site_type_symbol
 _atom_site_label
 _atom_site_symmetry_multiplicity
 _atom_site_fract_x
 _atom_site_fract_y
 _atom_site_fract_z
 _atom_site_occupancy
  Sm  Sm0  1  0.580776  0.610645  0.000000  1
  Sm  Sm1  1  0.389355  0.970132  0.000000  1
  Sm  Sm2  1  0.029868  0.419224  0.000000  1
  In  In3  1  0.017142  0.764252  0.500000  1
  In  In4  1  0.235748  0.252891  0.500000  1
  In  In5  1  0.747109  0.982858  0.500000  1
  Ir  Ir6  1  0.000000  0.000000  0.000000  1
  Ir  Ir7  1  0.333333  0.666667  0.500000  1
  Pb  Pb8  1  0.666667  0.333333  0.500000  1
