# generated using pymatgen
data_Al8CoPd3Ru4
_symmetry_space_group_name_H-M   'P 1'
_cell_length_a   5.95143100
_cell_length_b   5.95140100
_cell_length_c   6.13060200
_cell_angle_alpha   90.00000000
_cell_angle_beta   90.00000000
_cell_angle_gamma   90.00000000
_symmetry_Int_Tables_number   1
_chemical_formula_structural   Al8CoPd3Ru4
_chemical_formula_sum   'Al8 Co1 Pd3 Ru4'
_cell_volume   217.14195269
_cell_formula_units_Z   1
loop_
 _symmetry_equiv_pos_site_id
 _symmetry_equiv_pos_as_xyz
  1  'x, y, z'
loop_
 _atom_site_type_symbol
 _atom_site_label
 _atom_site_symmetry_multiplicity
 _atom_site_fract_x
 _atom_site_fract_y
 _atom_site_fract_z
 _atom_site_occupancy
  Al  Al0  1  0.993821  0.006179  0.243925  1
  Al  Al1  1  0.993821  0.493820  0.243925  1
  Al  Al2  1  0.506181  0.006178  0.243942  1
  Al  Al3  1  0.506181  0.493823  0.243942  1
  Al  Al4  1  0.506176  0.006178  0.756058  1
  Al  Al5  1  0.506176  0.493821  0.756058  1
  Al  Al6  1  0.993821  0.006179  0.756075  1
  Al  Al7  1  0.993821  0.493822  0.756075  1
  Co  Co8  1  0.749995  0.250000  0.000000  1
  Pd  Pd9  1  0.250005  0.750001  0.000000  1
  Pd  Pd10  1  0.249994  0.750001  0.499999  1
  Pd  Pd11  1  0.750005  0.250000  0.500001  1
  Ru  Ru12  1  0.250009  0.250000  0.000000  1
  Ru  Ru13  1  0.749993  0.750001  0.000000  1
  Ru  Ru14  1  0.750006  0.750001  0.499999  1
  Ru  Ru15  1  0.249993  0.250000  0.500001  1
