# generated using pymatgen
data_Ag3AuF12
_symmetry_space_group_name_H-M   'P 1'
_cell_length_a   5.54171349
_cell_length_b   5.79271736
_cell_length_c   8.16640575
_cell_angle_alpha   95.05744616
_cell_angle_beta   87.37587817
_cell_angle_gamma   91.34412833
_symmetry_Int_Tables_number   1
_chemical_formula_structural   Ag3AuF12
_chemical_formula_sum   'Ag3 Au1 F12'
_cell_volume   260.81039063
_cell_formula_units_Z   1
loop_
 _symmetry_equiv_pos_site_id
 _symmetry_equiv_pos_as_xyz
  1  'x, y, z'
loop_
 _atom_site_type_symbol
 _atom_site_label
 _atom_site_symmetry_multiplicity
 _atom_site_fract_x
 _atom_site_fract_y
 _atom_site_fract_z
 _atom_site_occupancy
  Ag  Ag0  1  0.000000  0.000000  0.000000  1
  Ag  Ag1  1  0.500000  0.500000  0.500000  1
  Ag  Ag2  1  0.000000  0.000000  0.500000  1
  Au  Au3  1  0.500000  0.500000  0.000000  1
  F  F4  1  0.931498  0.999408  0.748015  1
  F  F5  1  0.186007  0.330807  0.552053  1
  F  F6  1  0.221562  0.668446  0.927397  1
  F  F7  1  0.336004  0.488783  0.216318  1
  F  F8  1  0.345754  0.197748  0.930805  1
  F  F9  1  0.333058  0.801773  0.535078  1
  F  F10  1  0.666942  0.198227  0.464922  1
  F  F11  1  0.654246  0.802252  0.069195  1
  F  F12  1  0.663996  0.511217  0.783682  1
  F  F13  1  0.778438  0.331554  0.072603  1
  F  F14  1  0.813993  0.669193  0.447947  1
  F  F15  1  0.068502  0.000592  0.251985  1
