# generated using pymatgen
data_Sc(BrO3)3
_symmetry_space_group_name_H-M   'P 1'
_cell_length_a   7.71213681
_cell_length_b   7.71213760
_cell_length_c   7.83647287
_cell_angle_alpha   82.11929496
_cell_angle_beta   82.11929628
_cell_angle_gamma   76.79235306
_symmetry_Int_Tables_number   1
_chemical_formula_structural   Sc(BrO3)3
_chemical_formula_sum   'Sc2 Br6 O18'
_cell_volume   446.76367773
_cell_formula_units_Z   2
loop_
 _symmetry_equiv_pos_site_id
 _symmetry_equiv_pos_as_xyz
  1  'x, y, z'
loop_
 _atom_site_type_symbol
 _atom_site_label
 _atom_site_symmetry_multiplicity
 _atom_site_fract_x
 _atom_site_fract_y
 _atom_site_fract_z
 _atom_site_occupancy
  Sc  Sc0  1  0.240020  0.748047  0.969958  1
  Sc  Sc1  1  0.748047  0.240020  0.469958  1
  Br  Br2  1  0.170561  0.373120  0.275802  1
  Br  Br3  1  0.373120  0.170561  0.775802  1
  Br  Br4  1  0.080597  0.830567  0.561776  1
  Br  Br5  1  0.830567  0.080597  0.061776  1
  Br  Br6  1  0.677074  0.570806  0.785535  1
  Br  Br7  1  0.570806  0.677074  0.285535  1
  O  O8  1  0.147404  0.522952  0.094323  1
  O  O9  1  0.522952  0.147404  0.594323  1
  O  O10  1  0.955002  0.341743  0.316539  1
  O  O11  1  0.341743  0.955002  0.816539  1
  O  O12  1  0.290934  0.187673  0.205459  1
  O  O13  1  0.187673  0.290934  0.705459  1
  O  O14  1  0.084844  0.734990  0.771243  1
  O  O15  1  0.734990  0.084844  0.271243  1
  O  O16  1  0.926783  0.025338  0.590212  1
  O  O17  1  0.025338  0.926783  0.090212  1
  O  O18  1  0.984725  0.700460  0.473618  1
  O  O19  1  0.700460  0.984725  0.973618  1
  O  O20  1  0.455197  0.565366  0.842903  1
  O  O21  1  0.565366  0.455197  0.342903  1
  O  O22  1  0.748475  0.381723  0.682723  1
  O  O23  1  0.381723  0.748475  0.182723  1
  O  O24  1  0.767361  0.517242  0.968707  1
  O  O25  1  0.517242  0.767361  0.468707  1
