# generated using pymatgen
data_Dy3Y(As4O9)2
_symmetry_space_group_name_H-M   'P 1'
_cell_length_a   6.76235803
_cell_length_b   7.56265994
_cell_length_c   9.83089519
_cell_angle_alpha   94.97673623
_cell_angle_beta   104.18364782
_cell_angle_gamma   104.70185140
_symmetry_Int_Tables_number   1
_chemical_formula_structural   Dy3Y(As4O9)2
_chemical_formula_sum   'Dy3 Y1 As8 O18'
_cell_volume   465.49598681
_cell_formula_units_Z   1
loop_
 _symmetry_equiv_pos_site_id
 _symmetry_equiv_pos_as_xyz
  1  'x, y, z'
loop_
 _atom_site_type_symbol
 _atom_site_label
 _atom_site_symmetry_multiplicity
 _atom_site_fract_x
 _atom_site_fract_y
 _atom_site_fract_z
 _atom_site_occupancy
  Dy  Dy0  1  0.755660  0.060695  0.384507  1
  Dy  Dy1  1  0.721077  0.530250  0.409494  1
  Dy  Dy2  1  0.278878  0.469753  0.590455  1
  Y  Y3  1  0.243975  0.939557  0.615350  1
  As  As4  1  0.681623  0.774868  0.077935  1
  As  As5  1  0.318392  0.225178  0.922188  1
  As  As6  1  0.171769  0.752784  0.912583  1
  As  As7  1  0.828212  0.247186  0.087512  1
  As  As8  1  0.744111  0.915663  0.709340  1
  As  As9  1  0.256047  0.084399  0.290666  1
  As  As10  1  0.809396  0.350736  0.701281  1
  As  As11  1  0.190676  0.649272  0.298651  1
  O  O12  1  0.722532  0.749643  0.258290  1
  O  O13  1  0.277499  0.250587  0.741809  1
  O  O14  1  0.316110  0.978694  0.870450  1
  O  O15  1  0.684047  0.021429  0.129959  1
  O  O16  1  0.607759  0.324015  0.985513  1
  O  O17  1  0.392212  0.675988  0.014475  1
  O  O18  1  0.128438  0.646414  0.737926  1
  O  O19  1  0.871501  0.353344  0.262186  1
  O  O20  1  0.846156  0.874663  0.558989  1
  O  O21  1  0.153241  0.125578  0.440690  1
  O  O22  1  0.484156  0.768372  0.666501  1
  O  O23  1  0.516270  0.231297  0.333625  1
  O  O24  1  0.372597  0.534064  0.379424  1
  O  O25  1  0.627397  0.465930  0.620586  1
  O  O26  1  0.089494  0.669355  0.453426  1
  O  O27  1  0.910228  0.330132  0.546298  1
  O  O28  1  0.376538  0.899238  0.358981  1
  O  O29  1  0.624007  0.100916  0.640909  1
