# generated using pymatgen
data_Be6Co2Mo3Ir
_symmetry_space_group_name_H-M   'P 1'
_cell_length_a   4.52606400
_cell_length_b   4.52606365
_cell_length_c   7.18871600
_cell_angle_alpha   90.00000000
_cell_angle_beta   90.00000000
_cell_angle_gamma   120.00000255
_symmetry_Int_Tables_number   1
_chemical_formula_structural   Be6Co2Mo3Ir
_chemical_formula_sum   'Be6 Co2 Mo3 Ir1'
_cell_volume   127.53321119
_cell_formula_units_Z   1
loop_
 _symmetry_equiv_pos_site_id
 _symmetry_equiv_pos_as_xyz
  1  'x, y, z'
loop_
 _atom_site_type_symbol
 _atom_site_label
 _atom_site_symmetry_multiplicity
 _atom_site_fract_x
 _atom_site_fract_y
 _atom_site_fract_z
 _atom_site_occupancy
  Be  Be0  1  0.831720  0.168280  0.253611  1
  Be  Be1  1  0.831720  0.663439  0.253611  1
  Be  Be2  1  0.336561  0.168280  0.253611  1
  Be  Be3  1  0.167932  0.832068  0.749481  1
  Be  Be4  1  0.167932  0.335865  0.749481  1
  Be  Be5  1  0.664135  0.832068  0.749481  1
  Co  Co6  1  0.000000  0.000000  0.502127  1
  Co  Co7  1  0.000000  0.000000  0.006811  1
  Mo  Mo8  1  0.666667  0.333333  0.565033  1
  Mo  Mo9  1  0.666667  0.333333  0.929389  1
  Mo  Mo10  1  0.333333  0.666667  0.065176  1
  Ir  Ir11  1  0.333333  0.666667  0.422188  1
