# generated using pymatgen
data_NdTi2(Nb2Sn3)2
_symmetry_space_group_name_H-M   'P 1'
_cell_length_a   5.78582600
_cell_length_b   5.78469858
_cell_length_c   9.72343400
_cell_angle_alpha   90.00000000
_cell_angle_beta   90.00000000
_cell_angle_gamma   120.00643591
_symmetry_Int_Tables_number   1
_chemical_formula_structural   NdTi2(Nb2Sn3)2
_chemical_formula_sum   'Nd1 Ti2 Nb4 Sn6'
_cell_volume   281.81768086
_cell_formula_units_Z   1
loop_
 _symmetry_equiv_pos_site_id
 _symmetry_equiv_pos_as_xyz
  1  'x, y, z'
loop_
 _atom_site_type_symbol
 _atom_site_label
 _atom_site_symmetry_multiplicity
 _atom_site_fract_x
 _atom_site_fract_y
 _atom_site_fract_z
 _atom_site_occupancy
  Nd  Nd0  1  0.000000  0.000000  0.000000  1
  Ti  Ti1  1  0.500000  0.000000  0.750696  1
  Ti  Ti2  1  0.500000  0.000000  0.249304  1
  Nb  Nb3  1  0.000000  0.500000  0.751292  1
  Nb  Nb4  1  0.500000  0.500000  0.751292  1
  Nb  Nb5  1  0.000000  0.500000  0.248708  1
  Nb  Nb6  1  0.500000  0.500000  0.248708  1
  Sn  Sn7  1  0.665450  0.330899  0.500000  1
  Sn  Sn8  1  0.334550  0.669101  0.500000  1
  Sn  Sn9  1  0.664181  0.328360  0.000000  1
  Sn  Sn10  1  0.335819  0.671640  0.000000  1
  Sn  Sn11  1  0.000000  0.000000  0.678005  1
  Sn  Sn12  1  0.000000  0.000000  0.321995  1
