# generated using pymatgen
data_K3RbTiS4
_symmetry_space_group_name_H-M   'P 1'
_cell_length_a   8.02103800
_cell_length_b   9.54754800
_cell_length_c   14.59152800
_cell_angle_alpha   90.00000000
_cell_angle_beta   90.00000000
_cell_angle_gamma   90.00000000
_symmetry_Int_Tables_number   1
_chemical_formula_structural   K3RbTiS4
_chemical_formula_sum   'K12 Rb4 Ti4 S16'
_cell_volume   1117.43738529
_cell_formula_units_Z   4
loop_
 _symmetry_equiv_pos_site_id
 _symmetry_equiv_pos_as_xyz
  1  'x, y, z'
loop_
 _atom_site_type_symbol
 _atom_site_label
 _atom_site_symmetry_multiplicity
 _atom_site_fract_x
 _atom_site_fract_y
 _atom_site_fract_z
 _atom_site_occupancy
  K  K0  1  0.974865  0.750000  0.431288  1
  K  K1  1  0.474865  0.250000  0.068712  1
  K  K2  1  0.025135  0.250000  0.568712  1
  K  K3  1  0.525135  0.750000  0.931288  1
  K  K4  1  0.835011  0.054692  0.273879  1
  K  K5  1  0.335011  0.945308  0.226121  1
  K  K6  1  0.164989  0.554692  0.726121  1
  K  K7  1  0.664989  0.445308  0.773879  1
  K  K8  1  0.164989  0.945308  0.726121  1
  K  K9  1  0.664989  0.054692  0.773879  1
  K  K10  1  0.835011  0.445308  0.273879  1
  K  K11  1  0.335011  0.554692  0.226121  1
  Rb  Rb12  1  0.000000  0.000000  0.000000  1
  Rb  Rb13  1  0.500000  0.000000  0.500000  1
  Rb  Rb14  1  0.000000  0.500000  0.000000  1
  Rb  Rb15  1  0.500000  0.500000  0.500000  1
  Ti  Ti16  1  0.766352  0.750000  0.670491  1
  Ti  Ti17  1  0.233648  0.250000  0.329509  1
  Ti  Ti18  1  0.733648  0.750000  0.170491  1
  Ti  Ti19  1  0.266352  0.250000  0.829509  1
  S  S20  1  0.981891  0.250000  0.821602  1
  S  S21  1  0.518109  0.250000  0.321602  1
  S  S22  1  0.481891  0.750000  0.678398  1
  S  S23  1  0.018109  0.750000  0.178398  1
  S  S24  1  0.644536  0.555200  0.097039  1
  S  S25  1  0.144536  0.444800  0.402961  1
  S  S26  1  0.355464  0.055200  0.902961  1
  S  S27  1  0.855464  0.944800  0.597039  1
  S  S28  1  0.355464  0.444800  0.902961  1
  S  S29  1  0.855464  0.555200  0.597039  1
  S  S30  1  0.644536  0.944800  0.097039  1
  S  S31  1  0.144536  0.055200  0.402961  1
  S  S32  1  0.625680  0.750000  0.316796  1
  S  S33  1  0.125680  0.250000  0.183204  1
  S  S34  1  0.374320  0.250000  0.683204  1
  S  S35  1  0.874320  0.750000  0.816796  1
