# generated using pymatgen
data_Pr6Sn7Hg3
_symmetry_space_group_name_H-M   'P 1'
_cell_length_a   6.63961524
_cell_length_b   6.63961442
_cell_length_c   10.48638606
_cell_angle_alpha   90.55530964
_cell_angle_beta   90.55531977
_cell_angle_gamma   102.84498703
_symmetry_Int_Tables_number   1
_chemical_formula_structural   Pr6Sn7Hg3
_chemical_formula_sum   'Pr6 Sn7 Hg3'
_cell_volume   450.66380189
_cell_formula_units_Z   1
loop_
 _symmetry_equiv_pos_site_id
 _symmetry_equiv_pos_as_xyz
  1  'x, y, z'
loop_
 _atom_site_type_symbol
 _atom_site_label
 _atom_site_symmetry_multiplicity
 _atom_site_fract_x
 _atom_site_fract_y
 _atom_site_fract_z
 _atom_site_occupancy
  Pr  Pr0  1  0.627143  0.627143  0.251363  1
  Pr  Pr1  1  0.372395  0.372395  0.746032  1
  Pr  Pr2  1  0.205635  0.797992  0.499248  1
  Pr  Pr3  1  0.205618  0.792159  0.000652  1
  Pr  Pr4  1  0.797992  0.205635  0.499248  1
  Pr  Pr5  1  0.792159  0.205618  0.000652  1
  Sn  Sn6  1  0.017836  0.017836  0.246004  1
  Sn  Sn7  1  0.982256  0.982256  0.752571  1
  Sn  Sn8  1  0.690774  0.690774  0.548220  1
  Sn  Sn9  1  0.492498  0.072416  0.248359  1
  Sn  Sn10  1  0.930357  0.508488  0.752259  1
  Sn  Sn11  1  0.508488  0.930357  0.752259  1
  Sn  Sn12  1  0.072416  0.492498  0.248359  1
  Hg  Hg13  1  0.310284  0.310284  0.039877  1
  Hg  Hg14  1  0.688665  0.688665  0.959996  1
  Hg  Hg15  1  0.305485  0.305485  0.454906  1
