# generated using pymatgen
data_Be8VRe2W
_symmetry_space_group_name_H-M   'P 1'
_cell_length_a   4.37642700
_cell_length_b   4.37642592
_cell_length_c   7.19309400
_cell_angle_alpha   90.00000000
_cell_angle_beta   90.00000000
_cell_angle_gamma   120.00000061
_symmetry_Int_Tables_number   1
_chemical_formula_structural   Be8VRe2W
_chemical_formula_sum   'Be8 V1 Re2 W1'
_cell_volume   119.31241460
_cell_formula_units_Z   1
loop_
 _symmetry_equiv_pos_site_id
 _symmetry_equiv_pos_as_xyz
  1  'x, y, z'
loop_
 _atom_site_type_symbol
 _atom_site_label
 _atom_site_symmetry_multiplicity
 _atom_site_fract_x
 _atom_site_fract_y
 _atom_site_fract_z
 _atom_site_occupancy
  Be  Be0  1  0.000000  0.000000  0.999039  1
  Be  Be1  1  0.000000  0.000000  0.502024  1
  Be  Be2  1  0.830582  0.661165  0.252973  1
  Be  Be3  1  0.169807  0.830193  0.747252  1
  Be  Be4  1  0.660385  0.830193  0.747252  1
  Be  Be5  1  0.338835  0.169418  0.252973  1
  Be  Be6  1  0.830582  0.169418  0.252973  1
  Be  Be7  1  0.169807  0.339615  0.747252  1
  V  V8  1  0.666667  0.333333  0.563165  1
  Re  Re9  1  0.666667  0.333333  0.935280  1
  Re  Re10  1  0.333333  0.666667  0.437961  1
  W  W11  1  0.333333  0.666667  0.061858  1
