# generated using pymatgen
data_Sm2SiTc16C3
_symmetry_space_group_name_H-M   'P 1'
_cell_length_a   6.99472881
_cell_length_b   6.96558693
_cell_length_c   6.96558724
_cell_angle_alpha   82.42356004
_cell_angle_beta   82.62264255
_cell_angle_gamma   82.62265272
_symmetry_Int_Tables_number   1
_chemical_formula_structural   Sm2SiTc16C3
_chemical_formula_sum   'Sm2 Si1 Tc16 C3'
_cell_volume   331.48046121
_cell_formula_units_Z   1
loop_
 _symmetry_equiv_pos_site_id
 _symmetry_equiv_pos_as_xyz
  1  'x, y, z'
loop_
 _atom_site_type_symbol
 _atom_site_label
 _atom_site_symmetry_multiplicity
 _atom_site_fract_x
 _atom_site_fract_y
 _atom_site_fract_z
 _atom_site_occupancy
  Sm  Sm0  1  0.653124  0.651887  0.651887  1
  Sm  Sm1  1  0.346876  0.348113  0.348113  1
  Si  Si2  1  0.500000  0.000000  0.000000  1
  Tc  Tc3  1  0.000000  0.000000  0.500000  1
  Tc  Tc4  1  0.000000  0.500000  0.000000  1
  Tc  Tc5  1  0.719865  0.273395  0.002972  1
  Tc  Tc6  1  0.000000  0.723709  0.276291  1
  Tc  Tc7  1  0.280135  0.997028  0.726605  1
  Tc  Tc8  1  0.000000  0.276291  0.723709  1
  Tc  Tc9  1  0.719865  0.002972  0.273395  1
  Tc  Tc10  1  0.280135  0.726605  0.997028  1
  Tc  Tc11  1  0.348824  0.345584  0.862989  1
  Tc  Tc12  1  0.859218  0.352805  0.352805  1
  Tc  Tc13  1  0.348824  0.862989  0.345584  1
  Tc  Tc14  1  0.651176  0.654416  0.137011  1
  Tc  Tc15  1  0.140782  0.647195  0.647195  1
  Tc  Tc16  1  0.651176  0.137011  0.654416  1
  Tc  Tc17  1  0.905079  0.900196  0.900196  1
  Tc  Tc18  1  0.094921  0.099804  0.099804  1
  C  C19  1  0.500000  0.500000  0.000000  1
  C  C20  1  0.000000  0.500000  0.500000  1
  C  C21  1  0.500000  0.000000  0.500000  1
