# generated using pymatgen
data_ReH8
_symmetry_space_group_name_H-M   'P 1'
_cell_length_a   2.85984535
_cell_length_b   2.72845457
_cell_length_c   10.85761537
_cell_angle_alpha   78.86331860
_cell_angle_beta   88.64019541
_cell_angle_gamma   89.97257280
_symmetry_Int_Tables_number   1
_chemical_formula_structural   ReH8
_chemical_formula_sum   'Re1 H8'
_cell_volume   83.10200748
_cell_formula_units_Z   1
loop_
 _symmetry_equiv_pos_site_id
 _symmetry_equiv_pos_as_xyz
  1  'x, y, z'
loop_
 _atom_site_type_symbol
 _atom_site_label
 _atom_site_symmetry_multiplicity
 _atom_site_fract_x
 _atom_site_fract_y
 _atom_site_fract_z
 _atom_site_occupancy
  Re  Re0  1  0.513975  0.627922  0.484683  1
  H  H1  1  0.919528  0.676919  0.890432  1
  H  H2  1  0.761305  0.802955  0.840201  1
  H  H3  1  0.524976  0.212579  0.369902  1
  H  H4  1  0.376430  0.110825  0.124560  1
  H  H5  1  0.022414  0.712106  0.377345  1
  H  H6  1  0.003072  0.547928  0.591987  1
  H  H7  1  0.504139  0.028695  0.071149  1
  H  H8  1  0.501658  0.036091  0.599416  1
