# generated using pymatgen
data_LuPa3Ge4Ir3Pt
_symmetry_space_group_name_H-M   'P 1'
_cell_length_a   4.35168500
_cell_length_b   6.93946602
_cell_length_c   7.65371211
_cell_angle_alpha   89.61042072
_cell_angle_beta   90.00000000
_cell_angle_gamma   90.00000000
_symmetry_Int_Tables_number   1
_chemical_formula_structural   LuPa3Ge4Ir3Pt
_chemical_formula_sum   'Lu1 Pa3 Ge4 Ir3 Pt1'
_cell_volume   231.12428865
_cell_formula_units_Z   1
loop_
 _symmetry_equiv_pos_site_id
 _symmetry_equiv_pos_as_xyz
  1  'x, y, z'
loop_
 _atom_site_type_symbol
 _atom_site_label
 _atom_site_symmetry_multiplicity
 _atom_site_fract_x
 _atom_site_fract_y
 _atom_site_fract_z
 _atom_site_occupancy
  Lu  Lu0  1  0.250000  0.505121  0.203069  1
  Pa  Pa1  1  0.750000  0.487884  0.796164  1
  Pa  Pa2  1  0.250000  0.009979  0.299788  1
  Pa  Pa3  1  0.750000  0.996893  0.698801  1
  Ge  Ge4  1  0.250000  0.675481  0.579032  1
  Ge  Ge5  1  0.250000  0.183238  0.920014  1
  Ge  Ge6  1  0.750000  0.324521  0.408998  1
  Ge  Ge7  1  0.750000  0.813485  0.088829  1
  Ir  Ir8  1  0.250000  0.272946  0.591003  1
  Ir  Ir9  1  0.750000  0.731912  0.418312  1
  Ir  Ir10  1  0.750000  0.221023  0.085734  1
  Pt  Pt11  1  0.250000  0.777513  0.910258  1
