# generated using pymatgen
data_NdP2Rh3
_symmetry_space_group_name_H-M   'P 1'
_cell_length_a   3.98080100
_cell_length_b   11.28928600
_cell_length_c   12.94294200
_cell_angle_alpha   90.00000000
_cell_angle_beta   90.00000000
_cell_angle_gamma   90.00000000
_symmetry_Int_Tables_number   1
_chemical_formula_structural   NdP2Rh3
_chemical_formula_sum   'Nd6 P12 Rh18'
_cell_volume   581.66100357
_cell_formula_units_Z   6
loop_
 _symmetry_equiv_pos_site_id
 _symmetry_equiv_pos_as_xyz
  1  'x, y, z'
loop_
 _atom_site_type_symbol
 _atom_site_label
 _atom_site_symmetry_multiplicity
 _atom_site_fract_x
 _atom_site_fract_y
 _atom_site_fract_z
 _atom_site_occupancy
  Nd  Nd0  1  0.000000  0.500000  0.518951  1
  Nd  Nd1  1  0.500000  0.000000  0.481049  1
  Nd  Nd2  1  0.500000  0.816740  0.204516  1
  Nd  Nd3  1  0.500000  0.183260  0.204516  1
  Nd  Nd4  1  0.000000  0.683260  0.795484  1
  Nd  Nd5  1  0.000000  0.316740  0.795484  1
  P  P6  1  0.500000  0.500000  0.882566  1
  P  P7  1  0.000000  0.000000  0.117434  1
  P  P8  1  0.500000  0.500000  0.346747  1
  P  P9  1  0.000000  0.000000  0.653253  1
  P  P10  1  0.500000  0.313120  0.617218  1
  P  P11  1  0.500000  0.686880  0.617218  1
  P  P12  1  0.000000  0.186880  0.382782  1
  P  P13  1  0.000000  0.813120  0.382782  1
  P  P14  1  0.500000  0.846006  0.893450  1
  P  P15  1  0.500000  0.153994  0.893450  1
  P  P16  1  0.000000  0.653994  0.106550  1
  P  P17  1  0.000000  0.346006  0.106550  1
  Rh  Rh18  1  0.500000  0.500000  0.168303  1
  Rh  Rh19  1  0.000000  0.000000  0.831697  1
  Rh  Rh20  1  0.500000  0.500000  0.703139  1
  Rh  Rh21  1  0.000000  0.000000  0.296861  1
  Rh  Rh22  1  0.000000  0.500000  0.984663  1
  Rh  Rh23  1  0.500000  0.000000  0.015337  1
  Rh  Rh24  1  0.500000  0.334405  0.995073  1
  Rh  Rh25  1  0.500000  0.665595  0.995073  1
  Rh  Rh26  1  0.000000  0.165595  0.004927  1
  Rh  Rh27  1  0.000000  0.834405  0.004927  1
  Rh  Rh28  1  0.500000  0.293220  0.430661  1
  Rh  Rh29  1  0.500000  0.706780  0.430661  1
  Rh  Rh30  1  0.000000  0.206780  0.569339  1
  Rh  Rh31  1  0.000000  0.793220  0.569339  1
  Rh  Rh32  1  0.500000  0.874426  0.711241  1
  Rh  Rh33  1  0.500000  0.125574  0.711241  1
  Rh  Rh34  1  0.000000  0.625574  0.288759  1
  Rh  Rh35  1  0.000000  0.374426  0.288759  1
