# generated using pymatgen
data_Ba3Na(WN3)2
_symmetry_space_group_name_H-M   'P 1'
_cell_length_a   6.60801964
_cell_length_b   6.60801865
_cell_length_c   13.41335610
_cell_angle_alpha   89.25063422
_cell_angle_beta   90.74936497
_cell_angle_gamma   124.91362812
_symmetry_Int_Tables_number   1
_chemical_formula_structural   Ba3Na(WN3)2
_chemical_formula_sum   'Ba6 Na2 W4 N12'
_cell_volume   480.23630771
_cell_formula_units_Z   2
loop_
 _symmetry_equiv_pos_site_id
 _symmetry_equiv_pos_as_xyz
  1  'x, y, z'
loop_
 _atom_site_type_symbol
 _atom_site_label
 _atom_site_symmetry_multiplicity
 _atom_site_fract_x
 _atom_site_fract_y
 _atom_site_fract_z
 _atom_site_occupancy
  Ba  Ba0  1  0.943184  0.056816  0.143135  1
  Ba  Ba1  1  0.056816  0.943184  0.856865  1
  Ba  Ba2  1  0.858337  0.141663  0.582545  1
  Ba  Ba3  1  0.141663  0.858337  0.417455  1
  Ba  Ba4  1  0.640516  0.359484  0.083205  1
  Ba  Ba5  1  0.359484  0.640516  0.916795  1
  Na  Na6  1  0.554277  0.445723  0.608159  1
  Na  Na7  1  0.445723  0.554277  0.391841  1
  W  W8  1  0.738082  0.261918  0.836405  1
  W  W9  1  0.261918  0.738082  0.163595  1
  W  W10  1  0.758400  0.241600  0.335869  1
  W  W11  1  0.241600  0.758400  0.664131  1
  N  N12  1  0.839432  0.160568  0.946654  1
  N  N13  1  0.160568  0.839432  0.053346  1
  N  N14  1  0.660836  0.339164  0.444183  1
  N  N15  1  0.339164  0.660836  0.555817  1
  N  N16  1  0.588318  0.411682  0.879600  1
  N  N17  1  0.411682  0.588318  0.120400  1
  N  N18  1  0.909050  0.090950  0.377478  1
  N  N19  1  0.090950  0.909050  0.622522  1
  N  N20  1  0.518241  0.982636  0.751871  1
  N  N21  1  0.982636  0.518241  0.248129  1
  N  N22  1  0.481759  0.017364  0.248129  1
  N  N23  1  0.017364  0.481759  0.751871  1
