# generated using pymatgen
data_La3Nd2P12Ru9Rh10
_symmetry_space_group_name_H-M   'P 1'
_cell_length_a   12.76238400
_cell_length_b   12.76238384
_cell_length_c   3.99738900
_cell_angle_alpha   90.00000000
_cell_angle_beta   90.00000000
_cell_angle_gamma   120.00000559
_symmetry_Int_Tables_number   1
_chemical_formula_structural   La3Nd2P12Ru9Rh10
_chemical_formula_sum   'La3 Nd2 P12 Ru9 Rh10'
_cell_volume   563.85914755
_cell_formula_units_Z   1
loop_
 _symmetry_equiv_pos_site_id
 _symmetry_equiv_pos_as_xyz
  1  'x, y, z'
loop_
 _atom_site_type_symbol
 _atom_site_label
 _atom_site_symmetry_multiplicity
 _atom_site_fract_x
 _atom_site_fract_y
 _atom_site_fract_z
 _atom_site_occupancy
  La  La0  1  0.000000  0.185439  0.500000  1
  La  La1  1  0.814561  0.814561  0.500000  1
  La  La2  1  0.185439  0.000000  0.500000  1
  Nd  Nd3  1  0.666667  0.333333  0.000000  1
  Nd  Nd4  1  0.333333  0.666667  0.000000  1
  P  P5  1  0.000000  0.812587  0.000000  1
  P  P6  1  0.187413  0.187413  0.000000  1
  P  P7  1  0.812587  0.000000  0.000000  1
  P  P8  1  0.690468  0.172394  0.500000  1
  P  P9  1  0.827606  0.518074  0.500000  1
  P  P10  1  0.481926  0.309532  0.500000  1
  P  P11  1  0.172394  0.690468  0.500000  1
  P  P12  1  0.518074  0.827606  0.500000  1
  P  P13  1  0.309532  0.481926  0.500000  1
  P  P14  1  0.000000  0.373914  0.000000  1
  P  P15  1  0.626086  0.626086  0.000000  1
  P  P16  1  0.373914  0.000000  0.000000  1
  Ru  Ru17  1  0.000000  0.710625  0.500000  1
  Ru  Ru18  1  0.289375  0.289375  0.500000  1
  Ru  Ru19  1  0.710625  0.000000  0.500000  1
  Ru  Ru20  1  0.874829  0.363349  0.500000  1
  Ru  Ru21  1  0.636651  0.511480  0.500000  1
  Ru  Ru22  1  0.488520  0.125171  0.500000  1
  Ru  Ru23  1  0.363349  0.874829  0.500000  1
  Ru  Ru24  1  0.511480  0.636651  0.500000  1
  Ru  Ru25  1  0.125171  0.488520  0.500000  1
  Rh  Rh26  1  0.000000  0.551380  0.000000  1
  Rh  Rh27  1  0.448620  0.448620  0.000000  1
  Rh  Rh28  1  0.551380  0.000000  0.000000  1
  Rh  Rh29  1  0.804314  0.182570  0.000000  1
  Rh  Rh30  1  0.817430  0.621746  0.000000  1
  Rh  Rh31  1  0.378254  0.195686  0.000000  1
  Rh  Rh32  1  0.182570  0.804314  0.000000  1
  Rh  Rh33  1  0.621746  0.817430  0.000000  1
  Rh  Rh34  1  0.195686  0.378254  0.000000  1
  Rh  Rh35  1  0.000000  0.000000  0.000000  1
