# generated using pymatgen
data_Pr4ErRu2
_symmetry_space_group_name_H-M   'P 1'
_cell_length_a   6.63284756
_cell_length_b   7.31986533
_cell_length_c   8.85370692
_cell_angle_alpha   95.73901535
_cell_angle_beta   111.99836619
_cell_angle_gamma   90.00000309
_symmetry_Int_Tables_number   1
_chemical_formula_structural   Pr4ErRu2
_chemical_formula_sum   'Pr8 Er2 Ru4'
_cell_volume   396.24022746
_cell_formula_units_Z   2
loop_
 _symmetry_equiv_pos_site_id
 _symmetry_equiv_pos_as_xyz
  1  'x, y, z'
loop_
 _atom_site_type_symbol
 _atom_site_label
 _atom_site_symmetry_multiplicity
 _atom_site_fract_x
 _atom_site_fract_y
 _atom_site_fract_z
 _atom_site_occupancy
  Pr  Pr0  1  0.793007  0.584158  0.818325  1
  Pr  Pr1  1  0.974683  0.915842  0.181675  1
  Pr  Pr2  1  0.206993  0.415842  0.181675  1
  Pr  Pr3  1  0.025317  0.084158  0.818325  1
  Pr  Pr4  1  0.208083  0.686020  0.569577  1
  Pr  Pr5  1  0.638506  0.813980  0.430423  1
  Pr  Pr6  1  0.791917  0.313980  0.430423  1
  Pr  Pr7  1  0.361494  0.186020  0.569577  1
  Er  Er8  1  0.428929  0.750000  0.000000  1
  Er  Er9  1  0.571071  0.250000  0.000000  1
  Ru  Ru10  1  0.599945  0.927725  0.787892  1
  Ru  Ru11  1  0.812052  0.572275  0.212108  1
  Ru  Ru12  1  0.400055  0.072275  0.212108  1
  Ru  Ru13  1  0.187948  0.427725  0.787892  1
