# generated using pymatgen
data_LaAlGeAu2
_symmetry_space_group_name_H-M   'P 1'
_cell_length_a   4.43211100
_cell_length_b   4.43211100
_cell_length_c   10.79348900
_cell_angle_alpha   90.00000000
_cell_angle_beta   90.00000000
_cell_angle_gamma   90.00000000
_symmetry_Int_Tables_number   1
_chemical_formula_structural   LaAlGeAu2
_chemical_formula_sum   'La2 Al2 Ge2 Au4'
_cell_volume   212.02306597
_cell_formula_units_Z   2
loop_
 _symmetry_equiv_pos_site_id
 _symmetry_equiv_pos_as_xyz
  1  'x, y, z'
loop_
 _atom_site_type_symbol
 _atom_site_label
 _atom_site_symmetry_multiplicity
 _atom_site_fract_x
 _atom_site_fract_y
 _atom_site_fract_z
 _atom_site_occupancy
  La  La0  1  0.000000  0.500000  0.240361  1
  La  La1  1  0.500000  0.000000  0.759639  1
  Al  Al2  1  0.000000  0.000000  0.500000  1
  Al  Al3  1  0.500000  0.500000  0.500000  1
  Ge  Ge4  1  0.000000  0.500000  0.859941  1
  Ge  Ge5  1  0.500000  0.000000  0.140059  1
  Au  Au6  1  0.000000  0.000000  0.000000  1
  Au  Au7  1  0.500000  0.500000  0.000000  1
  Au  Au8  1  0.000000  0.500000  0.624128  1
  Au  Au9  1  0.500000  0.000000  0.375872  1
