# generated using pymatgen
data_NaDy(AgO2)4
_symmetry_space_group_name_H-M   'P 1'
_cell_length_a   6.58360126
_cell_length_b   6.58360085
_cell_length_c   6.58360000
_cell_angle_alpha   125.73429614
_cell_angle_beta   125.73430430
_cell_angle_gamma   80.32527866
_symmetry_Int_Tables_number   1
_chemical_formula_structural   NaDy(AgO2)4
_chemical_formula_sum   'Na1 Dy1 Ag4 O8'
_cell_volume   181.42697722
_cell_formula_units_Z   1
loop_
 _symmetry_equiv_pos_site_id
 _symmetry_equiv_pos_as_xyz
  1  'x, y, z'
loop_
 _atom_site_type_symbol
 _atom_site_label
 _atom_site_symmetry_multiplicity
 _atom_site_fract_x
 _atom_site_fract_y
 _atom_site_fract_z
 _atom_site_occupancy
  Na  Na0  1  0.000000  0.000000  0.000000  1
  Dy  Dy1  1  0.750000  0.250000  0.500000  1
  Ag  Ag2  1  0.874080  0.634634  0.260508  1
  Ag  Ag3  1  0.374125  0.613572  0.739492  1
  Ag  Ag4  1  0.386428  0.125920  0.760553  1
  Ag  Ag5  1  0.365366  0.625875  0.239447  1
  O  O6  1  0.007284  0.967480  0.372081  1
  O  O7  1  0.032520  0.404602  0.039804  1
  O  O8  1  0.364798  0.992716  0.960196  1
  O  O9  1  0.138145  0.576968  0.828513  1
  O  O10  1  0.423032  0.251545  0.561178  1
  O  O11  1  0.690366  0.861855  0.438822  1
  O  O12  1  0.595398  0.635202  0.627919  1
  O  O13  1  0.748455  0.309634  0.171487  1
