# generated using pymatgen
data_Er3Lu3Si2Os
_symmetry_space_group_name_H-M   'P 1'
_cell_length_a   7.58960700
_cell_length_b   7.58960635
_cell_length_c   4.29722500
_cell_angle_alpha   90.00000000
_cell_angle_beta   90.00000000
_cell_angle_gamma   119.99999849
_symmetry_Int_Tables_number   1
_chemical_formula_structural   Er3Lu3Si2Os
_chemical_formula_sum   'Er3 Lu3 Si2 Os1'
_cell_volume   214.36667452
_cell_formula_units_Z   1
loop_
 _symmetry_equiv_pos_site_id
 _symmetry_equiv_pos_as_xyz
  1  'x, y, z'
loop_
 _atom_site_type_symbol
 _atom_site_label
 _atom_site_symmetry_multiplicity
 _atom_site_fract_x
 _atom_site_fract_y
 _atom_site_fract_z
 _atom_site_occupancy
  Er  Er0  1  0.401592  0.000000  0.000000  1
  Er  Er1  1  0.000000  0.401592  0.000000  1
  Er  Er2  1  0.598408  0.598408  0.000000  1
  Lu  Lu3  1  0.748320  0.000000  0.499999  1
  Lu  Lu4  1  0.251680  0.251680  0.499999  1
  Lu  Lu5  1  0.000000  0.748320  0.499999  1
  Si  Si6  1  0.666667  0.333334  0.499999  1
  Si  Si7  1  0.333334  0.666667  0.499999  1
  Os  Os8  1  0.000000  0.000000  0.000000  1
