# generated using pymatgen
data_Tb4Er4Tc3B24Ru
_symmetry_space_group_name_H-M   'P 1'
_cell_length_a   3.67312500
_cell_length_b   9.14196489
_cell_length_c   11.53852800
_cell_angle_alpha   89.92105002
_cell_angle_beta   90.00000000
_cell_angle_gamma   90.00000000
_symmetry_Int_Tables_number   1
_chemical_formula_structural   Tb4Er4Tc3B24Ru
_chemical_formula_sum   'Tb4 Er4 Tc3 B24 Ru1'
_cell_volume   387.45855362
_cell_formula_units_Z   1
loop_
 _symmetry_equiv_pos_site_id
 _symmetry_equiv_pos_as_xyz
  1  'x, y, z'
loop_
 _atom_site_type_symbol
 _atom_site_label
 _atom_site_symmetry_multiplicity
 _atom_site_fract_x
 _atom_site_fract_y
 _atom_site_fract_z
 _atom_site_occupancy
  Tb  Tb0  1  0.000000  0.323352  0.413949  1
  Tb  Tb1  1  0.000000  0.675403  0.584279  1
  Tb  Tb2  1  0.000000  0.822966  0.087214  1
  Tb  Tb3  1  0.000000  0.178043  0.914481  1
  Er  Er4  1  0.000000  0.942776  0.370233  1
  Er  Er5  1  0.000000  0.057677  0.630667  1
  Er  Er6  1  0.000000  0.443167  0.130040  1
  Er  Er7  1  0.000000  0.557644  0.869159  1
  Tc  Tc8  1  0.000000  0.638878  0.319924  1
  Tc  Tc9  1  0.000000  0.361190  0.680554  1
  Tc  Tc10  1  0.000000  0.138463  0.178900  1
  B  B11  1  0.500000  0.553327  0.432402  1
  B  B12  1  0.500000  0.446377  0.567256  1
  B  B13  1  0.500000  0.053367  0.067292  1
  B  B14  1  0.500000  0.945803  0.932319  1
  B  B15  1  0.500000  0.749126  0.418299  1
  B  B16  1  0.500000  0.250173  0.581885  1
  B  B17  1  0.500000  0.249793  0.081670  1
  B  B18  1  0.500000  0.750848  0.917934  1
  B  B19  1  0.500000  0.792084  0.265706  1
  B  B20  1  0.500000  0.208165  0.735000  1
  B  B21  1  0.500000  0.292024  0.234479  1
  B  B22  1  0.500000  0.708956  0.765363  1
  B  B23  1  0.500000  0.630654  0.185394  1
  B  B24  1  0.500000  0.369449  0.815158  1
  B  B25  1  0.500000  0.130103  0.314248  1
  B  B26  1  0.500000  0.869262  0.685535  1
  B  B27  1  0.500000  0.981967  0.212240  1
  B  B28  1  0.500000  0.016508  0.787934  1
  B  B29  1  0.500000  0.482321  0.287530  1
  B  B30  1  0.500000  0.517537  0.712099  1
  B  B31  1  0.500000  0.600890  0.027598  1
  B  B32  1  0.500000  0.400799  0.972037  1
  B  B33  1  0.500000  0.100176  0.472551  1
  B  B34  1  0.500000  0.899576  0.528333  1
  Ru  Ru35  1  0.000000  0.861155  0.820336  1
