# generated using pymatgen
data_Li12HfSn3O14
_symmetry_space_group_name_H-M   'P 1'
_cell_length_a   6.00969185
_cell_length_b   6.01360072
_cell_length_c   10.14155819
_cell_angle_alpha   81.08870914
_cell_angle_beta   81.18240114
_cell_angle_gamma   59.55124161
_symmetry_Int_Tables_number   1
_chemical_formula_structural   Li12HfSn3O14
_chemical_formula_sum   'Li12 Hf1 Sn3 O14'
_cell_volume   310.94628110
_cell_formula_units_Z   1
loop_
 _symmetry_equiv_pos_site_id
 _symmetry_equiv_pos_as_xyz
  1  'x, y, z'
loop_
 _atom_site_type_symbol
 _atom_site_label
 _atom_site_symmetry_multiplicity
 _atom_site_fract_x
 _atom_site_fract_y
 _atom_site_fract_z
 _atom_site_occupancy
  Li  Li0  1  0.661971  0.923853  0.394245  1
  Li  Li1  1  0.922138  0.663996  0.895321  1
  Li  Li2  1  0.209516  0.916467  0.412602  1
  Li  Li3  1  0.662357  0.469294  0.396053  1
  Li  Li4  1  0.917313  0.206879  0.915655  1
  Li  Li5  1  0.468289  0.664562  0.896973  1
  Li  Li6  1  0.531653  0.336242  0.103977  1
  Li  Li7  1  0.082803  0.792261  0.086741  1
  Li  Li8  1  0.337107  0.533326  0.601681  1
  Li  Li9  1  0.792052  0.082007  0.585733  1
  Li  Li10  1  0.076340  0.336716  0.105804  1
  Li  Li11  1  0.338600  0.074124  0.604622  1
  Hf  Hf12  1  0.439399  0.195169  0.863515  1
  Sn  Sn13  1  0.558474  0.810072  0.134245  1
  Sn  Sn14  1  0.809699  0.558841  0.634863  1
  Sn  Sn15  1  0.190294  0.441173  0.365659  1
  O  O16  1  0.864468  0.636302  0.256516  1
  O  O17  1  0.001422  0.262833  0.497884  1
  O  O18  1  0.638736  0.862195  0.755268  1
  O  O19  1  0.263919  0.002162  0.997031  1
  O  O20  1  0.744588  0.498268  0.023168  1
  O  O21  1  0.346553  0.653704  0.250464  1
  O  O22  1  0.497062  0.744331  0.523043  1
  O  O23  1  0.502227  0.254685  0.477383  1
  O  O24  1  0.652795  0.347060  0.750970  1
  O  O25  1  0.256633  0.499933  0.976382  1
  O  O26  1  0.734671  0.000575  0.002330  1
  O  O27  1  0.363265  0.135013  0.243969  1
  O  O28  1  0.000227  0.736174  0.502601  1
  O  O29  1  0.135429  0.361783  0.745301  1
