# generated using pymatgen
data_Cs6HoBiBr12
_symmetry_space_group_name_H-M   'P 1'
_cell_length_a   10.06048755
_cell_length_b   10.05827355
_cell_length_c   8.36615600
_cell_angle_alpha   90.00000000
_cell_angle_beta   90.00000000
_cell_angle_gamma   90.03775147
_symmetry_Int_Tables_number   1
_chemical_formula_structural   Cs6HoBiBr12
_chemical_formula_sum   'Cs6 Ho1 Bi1 Br12'
_cell_volume   846.58064367
_cell_formula_units_Z   1
loop_
 _symmetry_equiv_pos_site_id
 _symmetry_equiv_pos_as_xyz
  1  'x, y, z'
loop_
 _atom_site_type_symbol
 _atom_site_label
 _atom_site_symmetry_multiplicity
 _atom_site_fract_x
 _atom_site_fract_y
 _atom_site_fract_z
 _atom_site_occupancy
  Cs  Cs0  1  0.000000  0.000000  0.500000  1
  Cs  Cs1  1  0.000000  0.000000  0.000000  1
  Cs  Cs2  1  0.235032  0.580661  0.500000  1
  Cs  Cs3  1  0.764968  0.419339  0.500000  1
  Cs  Cs4  1  0.419462  0.236610  0.000000  1
  Cs  Cs5  1  0.580538  0.763390  0.000000  1
  Ho  Ho6  1  0.000000  0.500000  0.000000  1
  Bi  Bi7  1  0.500000  0.000000  0.500000  1
  Br  Br8  1  0.696070  0.057174  0.744999  1
  Br  Br9  1  0.303930  0.942826  0.744999  1
  Br  Br10  1  0.945414  0.690052  0.237653  1
  Br  Br11  1  0.054586  0.309948  0.237653  1
  Br  Br12  1  0.303930  0.942826  0.255001  1
  Br  Br13  1  0.696070  0.057174  0.255001  1
  Br  Br14  1  0.054586  0.309948  0.762347  1
  Br  Br15  1  0.945414  0.690052  0.762347  1
  Br  Br16  1  0.570934  0.722599  0.500000  1
  Br  Br17  1  0.429066  0.277401  0.500000  1
  Br  Br18  1  0.268580  0.569196  0.000000  1
  Br  Br19  1  0.731420  0.430804  0.000000  1
