# generated using pymatgen
data_Dy3Ho2Tm11(Ga3Co)2
_symmetry_space_group_name_H-M   'P 1'
_cell_length_a   9.88502701
_cell_length_b   9.88503072
_cell_length_c   6.91549000
_cell_angle_alpha   89.99957195
_cell_angle_beta   90.00054986
_cell_angle_gamma   120.00817965
_symmetry_Int_Tables_number   1
_chemical_formula_structural   Dy3Ho2Tm11(Ga3Co)2
_chemical_formula_sum   'Dy3 Ho2 Tm11 Ga6 Co2'
_cell_volume   585.15870671
_cell_formula_units_Z   1
loop_
 _symmetry_equiv_pos_site_id
 _symmetry_equiv_pos_as_xyz
  1  'x, y, z'
loop_
 _atom_site_type_symbol
 _atom_site_label
 _atom_site_symmetry_multiplicity
 _atom_site_fract_x
 _atom_site_fract_y
 _atom_site_fract_z
 _atom_site_occupancy
  Dy  Dy0  1  0.463904  0.536094  0.291591  1
  Dy  Dy1  1  0.999981  0.000024  0.768530  1
  Dy  Dy2  1  0.000014  0.999991  0.268638  1
  Ho  Ho3  1  0.463729  0.927598  0.291755  1
  Ho  Ho4  1  0.072398  0.536266  0.291755  1
  Tm  Tm5  1  0.826200  0.652054  0.489522  1
  Tm  Tm6  1  0.347950  0.173800  0.489525  1
  Tm  Tm7  1  0.825973  0.174027  0.489348  1
  Tm  Tm8  1  0.173668  0.347587  0.986276  1
  Tm  Tm9  1  0.652418  0.826333  0.986280  1
  Tm  Tm10  1  0.173863  0.826134  0.986442  1
  Tm  Tm11  1  0.666768  0.333231  0.172819  1
  Tm  Tm12  1  0.333224  0.666777  0.673778  1
  Tm  Tm13  1  0.537383  0.074762  0.792660  1
  Tm  Tm14  1  0.925237  0.462615  0.792659  1
  Tm  Tm15  1  0.537454  0.462547  0.792602  1
  Ga  Ga16  1  0.835999  0.671971  0.041378  1
  Ga  Ga17  1  0.328028  0.164001  0.041376  1
  Ga  Ga18  1  0.835971  0.164029  0.041526  1
  Ga  Ga19  1  0.163407  0.327004  0.542704  1
  Ga  Ga20  1  0.672997  0.836595  0.542704  1
  Ga  Ga21  1  0.163599  0.836400  0.542491  1
  Co  Co22  1  0.666685  0.333314  0.555710  1
  Co  Co23  1  0.333150  0.666850  0.054007  1
