# generated using pymatgen
data_Y5ErTc2
_symmetry_space_group_name_H-M   'P 1'
_cell_length_a   6.31231387
_cell_length_b   7.41299315
_cell_length_c   9.22944500
_cell_angle_alpha   90.00000000
_cell_angle_beta   90.00000000
_cell_angle_gamma   90.68048339
_symmetry_Int_Tables_number   1
_chemical_formula_structural   Y5ErTc2
_chemical_formula_sum   'Y10 Er2 Tc4'
_cell_volume   431.84424859
_cell_formula_units_Z   2
loop_
 _symmetry_equiv_pos_site_id
 _symmetry_equiv_pos_as_xyz
  1  'x, y, z'
loop_
 _atom_site_type_symbol
 _atom_site_label
 _atom_site_symmetry_multiplicity
 _atom_site_fract_x
 _atom_site_fract_y
 _atom_site_fract_z
 _atom_site_occupancy
  Y  Y0  1  0.839724  0.673561  0.062253  1
  Y  Y1  1  0.656470  0.177750  0.062528  1
  Y  Y2  1  0.160276  0.326439  0.937747  1
  Y  Y3  1  0.343530  0.822250  0.562528  1
  Y  Y4  1  0.872856  0.957734  0.750000  1
  Y  Y5  1  0.127144  0.042266  0.250000  1
  Y  Y6  1  0.160276  0.326439  0.562253  1
  Y  Y7  1  0.656470  0.177750  0.437472  1
  Y  Y8  1  0.343530  0.822250  0.937472  1
  Y  Y9  1  0.839724  0.673561  0.437747  1
  Er  Er10  1  0.370674  0.544503  0.250000  1
  Er  Er11  1  0.629326  0.455497  0.750000  1
  Tc  Tc12  1  0.541170  0.885128  0.250000  1
  Tc  Tc13  1  0.458830  0.114872  0.750000  1
  Tc  Tc14  1  0.037466  0.613156  0.750000  1
  Tc  Tc15  1  0.962534  0.386844  0.250000  1
