# generated using pymatgen
data_Hf6AlHgC2
_symmetry_space_group_name_H-M   'P 1'
_cell_length_a   6.06163141
_cell_length_b   6.06163160
_cell_length_c   9.08397900
_cell_angle_alpha   90.00000000
_cell_angle_beta   90.00000000
_cell_angle_gamma   147.75932535
_symmetry_Int_Tables_number   1
_chemical_formula_structural   Hf6AlHgC2
_chemical_formula_sum   'Hf6 Al1 Hg1 C2'
_cell_volume   178.06180467
_cell_formula_units_Z   1
loop_
 _symmetry_equiv_pos_site_id
 _symmetry_equiv_pos_as_xyz
  1  'x, y, z'
loop_
 _atom_site_type_symbol
 _atom_site_label
 _atom_site_symmetry_multiplicity
 _atom_site_fract_x
 _atom_site_fract_y
 _atom_site_fract_z
 _atom_site_occupancy
  Hf  Hf0  1  0.626260  0.373740  0.464266  1
  Hf  Hf1  1  0.372726  0.627274  0.545919  1
  Hf  Hf2  1  0.626260  0.373740  0.035734  1
  Hf  Hf3  1  0.372726  0.627274  0.954081  1
  Hf  Hf4  1  0.963217  0.036783  0.250000  1
  Hf  Hf5  1  0.043093  0.956907  0.750000  1
  Al  Al6  1  0.747285  0.252715  0.750000  1
  Hg  Hg7  1  0.251543  0.748457  0.250000  1
  C  C8  1  0.998445  0.001555  0.500354  1
  C  C9  1  0.998445  0.001555  0.999646  1
