# generated using pymatgen
data_NdEr2Ga8Ag3
_symmetry_space_group_name_H-M   'P 1'
_cell_length_a   4.37445302
_cell_length_b   8.36570422
_cell_length_c   8.36570413
_cell_angle_alpha   69.28463604
_cell_angle_beta   74.84378388
_cell_angle_gamma   74.84378083
_symmetry_Int_Tables_number   1
_chemical_formula_structural   NdEr2Ga8Ag3
_chemical_formula_sum   'Nd1 Er2 Ga8 Ag3'
_cell_volume   271.50922652
_cell_formula_units_Z   1
loop_
 _symmetry_equiv_pos_site_id
 _symmetry_equiv_pos_as_xyz
  1  'x, y, z'
loop_
 _atom_site_type_symbol
 _atom_site_label
 _atom_site_symmetry_multiplicity
 _atom_site_fract_x
 _atom_site_fract_y
 _atom_site_fract_z
 _atom_site_occupancy
  Nd  Nd0  1  0.500000  0.500000  0.500000  1
  Er  Er1  1  0.200922  0.799078  0.799078  1
  Er  Er2  1  0.799078  0.200922  0.200922  1
  Ga  Ga3  1  0.355656  0.360742  0.927944  1
  Ga  Ga4  1  0.644344  0.639258  0.072056  1
  Ga  Ga5  1  0.355656  0.927944  0.360742  1
  Ga  Ga6  1  0.644344  0.072056  0.639258  1
  Ga  Ga7  1  0.160296  0.472104  0.207306  1
  Ga  Ga8  1  0.839704  0.527896  0.792694  1
  Ga  Ga9  1  0.160296  0.207306  0.472104  1
  Ga  Ga10  1  0.839704  0.792694  0.527896  1
  Ag  Ag11  1  0.500000  0.000000  0.000000  1
  Ag  Ag12  1  0.000000  0.808756  0.191244  1
  Ag  Ag13  1  0.000000  0.191244  0.808756  1
