# generated using pymatgen
data_Dy4Sb3As3Rh7
_symmetry_space_group_name_H-M   'P 1'
_cell_length_a   7.49907477
_cell_length_b   7.43441710
_cell_length_c   7.43441779
_cell_angle_alpha   109.29436627
_cell_angle_beta   109.64748920
_cell_angle_gamma   109.64750021
_symmetry_Int_Tables_number   1
_chemical_formula_structural   Dy4Sb3As3Rh7
_chemical_formula_sum   'Dy4 Sb3 As3 Rh7'
_cell_volume   318.36865085
_cell_formula_units_Z   1
loop_
 _symmetry_equiv_pos_site_id
 _symmetry_equiv_pos_as_xyz
  1  'x, y, z'
loop_
 _atom_site_type_symbol
 _atom_site_label
 _atom_site_symmetry_multiplicity
 _atom_site_fract_x
 _atom_site_fract_y
 _atom_site_fract_z
 _atom_site_occupancy
  Dy  Dy0  1  0.545875  0.000000  0.000000  1
  Dy  Dy1  1  0.988181  0.479085  0.000000  1
  Dy  Dy2  1  0.988181  0.000000  0.479085  1
  Dy  Dy3  1  0.509096  0.520915  0.520915  1
  Sb  Sb4  1  0.010947  0.699235  0.699235  1
  Sb  Sb5  1  0.311713  0.000000  0.300765  1
  Sb  Sb6  1  0.311713  0.300765  0.000000  1
  As  As7  1  0.008825  0.334717  0.334717  1
  As  As8  1  0.674108  0.000000  0.665283  1
  As  As9  1  0.674108  0.665283  0.000000  1
  Rh  Rh10  1  0.963296  0.000000  0.000000  1
  Rh  Rh11  1  0.500766  0.747896  0.247423  1
  Rh  Rh12  1  0.752870  0.499527  0.252104  1
  Rh  Rh13  1  0.253343  0.752577  0.500473  1
  Rh  Rh14  1  0.253343  0.500473  0.752577  1
  Rh  Rh15  1  0.500766  0.247423  0.747896  1
  Rh  Rh16  1  0.752870  0.252104  0.499527  1
