# generated using pymatgen
data_CaDy3(GaRu)4
_symmetry_space_group_name_H-M   'P 1'
_cell_length_a   4.50624300
_cell_length_b   7.17573010
_cell_length_c   7.11997300
_cell_angle_alpha   89.96833283
_cell_angle_beta   90.00000000
_cell_angle_gamma   90.00000000
_symmetry_Int_Tables_number   1
_chemical_formula_structural   CaDy3(GaRu)4
_chemical_formula_sum   'Ca1 Dy3 Ga4 Ru4'
_cell_volume   230.22844640
_cell_formula_units_Z   1
loop_
 _symmetry_equiv_pos_site_id
 _symmetry_equiv_pos_as_xyz
  1  'x, y, z'
loop_
 _atom_site_type_symbol
 _atom_site_label
 _atom_site_symmetry_multiplicity
 _atom_site_fract_x
 _atom_site_fract_y
 _atom_site_fract_z
 _atom_site_occupancy
  Ca  Ca0  1  0.750000  0.512722  0.311943  1
  Dy  Dy1  1  0.250000  0.980707  0.803390  1
  Dy  Dy2  1  0.750000  0.016525  0.195776  1
  Dy  Dy3  1  0.250000  0.483351  0.698604  1
  Ga  Ga4  1  0.250000  0.306097  0.105253  1
  Ga  Ga5  1  0.750000  0.696016  0.894467  1
  Ga  Ga6  1  0.250000  0.802005  0.394781  1
  Ga  Ga7  1  0.750000  0.196374  0.606549  1
  Ru  Ru8  1  0.750000  0.846553  0.565132  1
  Ru  Ru9  1  0.250000  0.157719  0.433890  1
  Ru  Ru10  1  0.750000  0.338113  0.931656  1
  Ru  Ru11  1  0.250000  0.663818  0.058560  1
