# generated using pymatgen
data_Dy7Tm9In4(IrRh)2
_symmetry_space_group_name_H-M   'P 1'
_cell_length_a   9.58987427
_cell_length_b   9.58987326
_cell_length_c   9.57962900
_cell_angle_alpha   60.03532726
_cell_angle_beta   60.03533075
_cell_angle_gamma   60.15607239
_symmetry_Int_Tables_number   1
_chemical_formula_structural   Dy7Tm9In4(IrRh)2
_chemical_formula_sum   'Dy7 Tm9 In4 Ir2 Rh2'
_cell_volume   624.02410712
_cell_formula_units_Z   1
loop_
 _symmetry_equiv_pos_site_id
 _symmetry_equiv_pos_as_xyz
  1  'x, y, z'
loop_
 _atom_site_type_symbol
 _atom_site_label
 _atom_site_symmetry_multiplicity
 _atom_site_fract_x
 _atom_site_fract_y
 _atom_site_fract_z
 _atom_site_occupancy
  Dy  Dy0  1  0.060588  0.060588  0.439412  1
  Dy  Dy1  1  0.189887  0.811197  0.810029  1
  Dy  Dy2  1  0.811197  0.189887  0.188885  1
  Dy  Dy3  1  0.811197  0.189887  0.810029  1
  Dy  Dy4  1  0.189887  0.811197  0.188885  1
  Dy  Dy5  1  0.809860  0.809860  0.190140  1
  Dy  Dy6  1  0.188939  0.188939  0.811061  1
  Tm  Tm7  1  0.598998  0.598998  0.597605  1
  Tm  Tm8  1  0.598998  0.598998  0.204400  1
  Tm  Tm9  1  0.599546  0.203595  0.598429  1
  Tm  Tm10  1  0.203595  0.599546  0.598429  1
  Tm  Tm11  1  0.059910  0.439548  0.439258  1
  Tm  Tm12  1  0.439548  0.059910  0.061284  1
  Tm  Tm13  1  0.439548  0.059910  0.439258  1
  Tm  Tm14  1  0.059910  0.439548  0.061284  1
  Tm  Tm15  1  0.438641  0.438641  0.061359  1
  In  In16  1  0.832545  0.832545  0.832762  1
  In  In17  1  0.832545  0.832545  0.502148  1
  In  In18  1  0.832380  0.502675  0.832472  1
  In  In19  1  0.502675  0.832380  0.832472  1
  Ir  Ir20  1  0.393039  0.824398  0.391283  1
  Ir  Ir21  1  0.824398  0.393039  0.391283  1
  Rh  Rh22  1  0.391085  0.391085  0.392298  1
  Rh  Rh23  1  0.391085  0.391085  0.825533  1
