# generated using pymatgen
data_Tm6Nb5Ga11Os7
_symmetry_space_group_name_H-M   'P 1'
_cell_length_a   9.06035852
_cell_length_b   9.06035929
_cell_length_c   8.98920658
_cell_angle_alpha   59.73781630
_cell_angle_beta   59.73781281
_cell_angle_gamma   60.00000001
_symmetry_Int_Tables_number   1
_chemical_formula_structural   Tm6Nb5Ga11Os7
_chemical_formula_sum   'Tm6 Nb5 Ga11 Os7'
_cell_volume   519.71430508
_cell_formula_units_Z   1
loop_
 _symmetry_equiv_pos_site_id
 _symmetry_equiv_pos_as_xyz
  1  'x, y, z'
loop_
 _atom_site_type_symbol
 _atom_site_label
 _atom_site_symmetry_multiplicity
 _atom_site_fract_x
 _atom_site_fract_y
 _atom_site_fract_z
 _atom_site_occupancy
  Tm  Tm0  1  0.708324  0.708324  0.294528  1
  Tm  Tm1  1  0.288823  0.708324  0.294528  1
  Tm  Tm2  1  0.708324  0.288823  0.294528  1
  Tm  Tm3  1  0.296429  0.296429  0.711213  1
  Tm  Tm4  1  0.695928  0.296429  0.711213  1
  Tm  Tm5  1  0.296429  0.695928  0.711213  1
  Nb  Nb6  1  0.878299  0.878299  0.365105  1
  Nb  Nb7  1  0.875384  0.368853  0.880380  1
  Nb  Nb8  1  0.368853  0.875384  0.880380  1
  Nb  Nb9  1  0.875384  0.875384  0.880380  1
  Nb  Nb10  1  0.127930  0.127930  0.616211  1
  Ga  Ga11  1  0.116751  0.647242  0.119255  1
  Ga  Ga12  1  0.647242  0.116751  0.119255  1
  Ga  Ga13  1  0.116751  0.116751  0.119255  1
  Ga  Ga14  1  0.660685  0.660685  0.017947  1
  Ga  Ga15  1  0.662762  0.013264  0.661212  1
  Ga  Ga16  1  0.013264  0.662762  0.661212  1
  Ga  Ga17  1  0.662762  0.662762  0.661212  1
  Ga  Ga18  1  0.334079  0.334079  0.997764  1
  Ga  Ga19  1  0.338573  0.990114  0.332738  1
  Ga  Ga20  1  0.990114  0.338573  0.332738  1
  Ga  Ga21  1  0.338573  0.338573  0.332738  1
  Os  Os22  1  0.006996  0.006996  0.979011  1
  Os  Os23  1  0.998513  0.998513  0.507849  1
  Os  Os24  1  0.495124  0.998513  0.507849  1
  Os  Os25  1  0.998513  0.495124  0.507849  1
  Os  Os26  1  0.502044  0.502044  0.000811  1
  Os  Os27  1  0.995101  0.502044  0.000811  1
  Os  Os28  1  0.502044  0.995101  0.000811  1
