# generated using pymatgen
data_NdU9O20
_symmetry_space_group_name_H-M   'P 1'
_cell_length_a   6.65633644
_cell_length_b   7.68735317
_cell_length_c   8.59556201
_cell_angle_alpha   102.95036477
_cell_angle_beta   97.40083318
_cell_angle_gamma   106.75806175
_symmetry_Int_Tables_number   1
_chemical_formula_structural   NdU9O20
_chemical_formula_sum   'Nd1 U9 O20'
_cell_volume   401.52614368
_cell_formula_units_Z   1
loop_
 _symmetry_equiv_pos_site_id
 _symmetry_equiv_pos_as_xyz
  1  'x, y, z'
loop_
 _atom_site_type_symbol
 _atom_site_label
 _atom_site_symmetry_multiplicity
 _atom_site_fract_x
 _atom_site_fract_y
 _atom_site_fract_z
 _atom_site_occupancy
  Nd  Nd0  1  0.000000  0.500000  0.000000  1
  U  U1  1  0.799138  0.599991  0.599849  1
  U  U2  1  0.600971  0.200327  0.199896  1
  U  U3  1  0.799915  0.099863  0.599525  1
  U  U4  1  0.399029  0.799673  0.800104  1
  U  U5  1  0.599679  0.699902  0.198981  1
  U  U6  1  0.200862  0.400009  0.400151  1
  U  U7  1  0.400321  0.300098  0.801019  1
  U  U8  1  0.000000  0.000000  0.000000  1
  U  U9  1  0.200085  0.900137  0.400475  1
  O  O10  1  0.647918  0.925428  0.049138  1
  O  O11  1  0.447740  0.525426  0.647827  1
  O  O12  1  0.639236  0.421687  0.053137  1
  O  O13  1  0.740271  0.370608  0.741968  1
  O  O14  1  0.254330  0.126019  0.250232  1
  O  O15  1  0.447080  0.022528  0.649435  1
  O  O16  1  0.050695  0.732775  0.845110  1
  O  O17  1  0.552920  0.977472  0.350565  1
  O  O18  1  0.745670  0.873981  0.749768  1
  O  O19  1  0.259729  0.629392  0.258032  1
  O  O20  1  0.360764  0.578313  0.946863  1
  O  O21  1  0.851335  0.325650  0.450647  1
  O  O22  1  0.052345  0.215272  0.844525  1
  O  O23  1  0.552260  0.474574  0.352173  1
  O  O24  1  0.150330  0.174794  0.547502  1
  O  O25  1  0.352082  0.074572  0.950862  1
  O  O26  1  0.849670  0.825206  0.452498  1
  O  O27  1  0.947655  0.784728  0.155475  1
  O  O28  1  0.148665  0.674350  0.549353  1
  O  O29  1  0.949305  0.267225  0.154890  1
