# generated using pymatgen
data_Gd2ZnRh3
_symmetry_space_group_name_H-M   'P 1'
_cell_length_a   5.59492013
_cell_length_b   5.18532590
_cell_length_c   5.59491900
_cell_angle_alpha   57.35069788
_cell_angle_beta   60.00000076
_cell_angle_gamma   57.35070139
_symmetry_Int_Tables_number   1
_chemical_formula_structural   Gd2ZnRh3
_chemical_formula_sum   'Gd2 Zn1 Rh3'
_cell_volume   109.96232154
_cell_formula_units_Z   1
loop_
 _symmetry_equiv_pos_site_id
 _symmetry_equiv_pos_as_xyz
  1  'x, y, z'
loop_
 _atom_site_type_symbol
 _atom_site_label
 _atom_site_symmetry_multiplicity
 _atom_site_fract_x
 _atom_site_fract_y
 _atom_site_fract_z
 _atom_site_occupancy
  Gd  Gd0  1  0.754772  0.735683  0.754772  1
  Gd  Gd1  1  0.495228  0.514317  0.495228  1
  Zn  Zn2  1  0.125000  0.625000  0.125000  1
  Rh  Rh3  1  0.125000  0.125000  0.625000  1
  Rh  Rh4  1  0.125000  0.125000  0.125000  1
  Rh  Rh5  1  0.625000  0.125000  0.125000  1
