# generated using pymatgen
data_Nd2CrReH18
_symmetry_space_group_name_H-M   'P 1'
_cell_length_a   4.75695906
_cell_length_b   4.75695948
_cell_length_c   8.80402500
_cell_angle_alpha   90.00000000
_cell_angle_beta   90.00000000
_cell_angle_gamma   120.21424378
_symmetry_Int_Tables_number   1
_chemical_formula_structural   Nd2CrReH18
_chemical_formula_sum   'Nd2 Cr1 Re1 H18'
_cell_volume   172.15876095
_cell_formula_units_Z   1
loop_
 _symmetry_equiv_pos_site_id
 _symmetry_equiv_pos_as_xyz
  1  'x, y, z'
loop_
 _atom_site_type_symbol
 _atom_site_label
 _atom_site_symmetry_multiplicity
 _atom_site_fract_x
 _atom_site_fract_y
 _atom_site_fract_z
 _atom_site_occupancy
  Nd  Nd0  1  0.997405  0.002595  0.528118  1
  Nd  Nd1  1  0.997405  0.002595  0.971882  1
  Cr  Cr2  1  0.329576  0.670424  0.750000  1
  Re  Re3  1  0.671109  0.328891  0.250000  1
  H  H4  1  0.467529  0.532471  0.612438  1
  H  H5  1  0.530603  0.469397  0.393545  1
  H  H6  1  0.467529  0.532471  0.887562  1
  H  H7  1  0.530603  0.469397  0.106455  1
  H  H8  1  0.476137  0.961967  0.880132  1
  H  H9  1  0.972428  0.482707  0.114881  1
  H  H10  1  0.476137  0.961967  0.619868  1
  H  H11  1  0.972428  0.482707  0.385119  1
  H  H12  1  0.517293  0.027572  0.114881  1
  H  H13  1  0.038033  0.523863  0.880132  1
  H  H14  1  0.517293  0.027572  0.385119  1
  H  H15  1  0.038033  0.523863  0.619868  1
  H  H16  1  0.725187  0.858299  0.750000  1
  H  H17  1  0.861779  0.734303  0.250000  1
  H  H18  1  0.265697  0.138221  0.250000  1
  H  H19  1  0.141701  0.274813  0.750000  1
  H  H20  1  0.133660  0.866340  0.750000  1
  H  H21  1  0.872433  0.127567  0.250000  1
