# generated using pymatgen
data_CdHg3(Pt2O7)2
_symmetry_space_group_name_H-M   'P 1'
_cell_length_a   7.27954037
_cell_length_b   7.32329787
_cell_length_c   7.27954100
_cell_angle_alpha   60.19746063
_cell_angle_beta   60.00000170
_cell_angle_gamma   60.19746267
_symmetry_Int_Tables_number   1
_chemical_formula_structural   CdHg3(Pt2O7)2
_chemical_formula_sum   'Cd1 Hg3 Pt4 O14'
_cell_volume   275.22599108
_cell_formula_units_Z   1
loop_
 _symmetry_equiv_pos_site_id
 _symmetry_equiv_pos_as_xyz
  1  'x, y, z'
loop_
 _atom_site_type_symbol
 _atom_site_label
 _atom_site_symmetry_multiplicity
 _atom_site_fract_x
 _atom_site_fract_y
 _atom_site_fract_z
 _atom_site_occupancy
  Cd  Cd0  1  0.125000  0.625000  0.125000  1
  Hg  Hg1  1  0.125000  0.125000  0.125000  1
  Hg  Hg2  1  0.625000  0.125000  0.125000  1
  Hg  Hg3  1  0.125000  0.125000  0.625000  1
  Pt  Pt4  1  0.625000  0.625000  0.125000  1
  Pt  Pt5  1  0.625000  0.625000  0.625000  1
  Pt  Pt6  1  0.625000  0.125000  0.625000  1
  Pt  Pt7  1  0.125000  0.625000  0.625000  1
  O  O8  1  0.703065  0.297845  0.296026  1
  O  O9  1  0.703065  0.297845  0.703065  1
  O  O10  1  0.995162  0.014515  0.995162  1
  O  O11  1  0.295015  0.698085  0.295015  1
  O  O12  1  0.711886  0.698085  0.295015  1
  O  O13  1  0.954985  0.551915  0.538114  1
  O  O14  1  0.295015  0.698085  0.711886  1
  O  O15  1  0.254838  0.235485  0.254838  1
  O  O16  1  0.954985  0.551915  0.954985  1
  O  O17  1  0.546935  0.952155  0.546935  1
  O  O18  1  0.538114  0.551915  0.954985  1
  O  O19  1  0.953974  0.952155  0.546935  1
  O  O20  1  0.546935  0.952155  0.953974  1
  O  O21  1  0.296026  0.297845  0.703065  1
