# generated using pymatgen
data_AlCr21WC6
_symmetry_space_group_name_H-M   'P 1'
_cell_length_a   7.50824360
_cell_length_b   7.50824313
_cell_length_c   7.50824300
_cell_angle_alpha   59.99998736
_cell_angle_beta   59.99998942
_cell_angle_gamma   59.99999088
_symmetry_Int_Tables_number   1
_chemical_formula_structural   AlCr21WC6
_chemical_formula_sum   'Al1 Cr21 W1 C6'
_cell_volume   299.29530056
_cell_formula_units_Z   1
loop_
 _symmetry_equiv_pos_site_id
 _symmetry_equiv_pos_as_xyz
  1  'x, y, z'
loop_
 _atom_site_type_symbol
 _atom_site_label
 _atom_site_symmetry_multiplicity
 _atom_site_fract_x
 _atom_site_fract_y
 _atom_site_fract_z
 _atom_site_occupancy
  Al  Al0  1  0.000000  0.000000  0.000000  1
  Cr  Cr1  1  0.250000  0.250000  0.250000  1
  Cr  Cr2  1  0.613694  0.613694  0.158918  1
  Cr  Cr3  1  0.613694  0.158918  0.613694  1
  Cr  Cr4  1  0.158918  0.613694  0.613694  1
  Cr  Cr5  1  0.613694  0.613694  0.613694  1
  Cr  Cr6  1  0.378612  0.378612  0.864163  1
  Cr  Cr7  1  0.378612  0.864163  0.378612  1
  Cr  Cr8  1  0.864163  0.378612  0.378612  1
  Cr  Cr9  1  0.378612  0.378612  0.378612  1
  Cr  Cr10  1  0.000368  0.000368  0.342923  1
  Cr  Cr11  1  0.656340  0.000368  0.342923  1
  Cr  Cr12  1  0.000368  0.656340  0.342923  1
  Cr  Cr13  1  0.656340  0.342923  0.000368  1
  Cr  Cr14  1  0.000368  0.342923  0.000368  1
  Cr  Cr15  1  0.000368  0.342923  0.656340  1
  Cr  Cr16  1  0.342923  0.656340  0.000368  1
  Cr  Cr17  1  0.342923  0.000368  0.656340  1
  Cr  Cr18  1  0.342923  0.000368  0.000368  1
  Cr  Cr19  1  0.000368  0.000368  0.656340  1
  Cr  Cr20  1  0.000368  0.656340  0.000368  1
  Cr  Cr21  1  0.656340  0.000368  0.000368  1
  W  W22  1  0.750000  0.750000  0.750000  1
  C  C23  1  0.722580  0.722580  0.277420  1
  C  C24  1  0.277420  0.722580  0.277420  1
  C  C25  1  0.722580  0.277420  0.277420  1
  C  C26  1  0.277420  0.277420  0.722580  1
  C  C27  1  0.722580  0.277420  0.722580  1
  C  C28  1  0.277420  0.722580  0.722580  1
