# generated using pymatgen
data_Tm20Ir7Os4Au
_symmetry_space_group_name_H-M   'P 1'
_cell_length_a   10.74503495
_cell_length_b   10.74503495
_cell_length_c   6.36729004
_cell_angle_alpha   90.00955962
_cell_angle_beta   90.00955962
_cell_angle_gamma   89.66502387
_symmetry_Int_Tables_number   1
_chemical_formula_structural   Tm20Ir7Os4Au
_chemical_formula_sum   'Tm20 Ir7 Os4 Au1'
_cell_volume   735.12782890
_cell_formula_units_Z   1
loop_
 _symmetry_equiv_pos_site_id
 _symmetry_equiv_pos_as_xyz
  1  'x, y, z'
loop_
 _atom_site_type_symbol
 _atom_site_label
 _atom_site_symmetry_multiplicity
 _atom_site_fract_x
 _atom_site_fract_y
 _atom_site_fract_z
 _atom_site_occupancy
  Tm  Tm0  1  0.292530  0.085115  0.375723  1
  Tm  Tm1  1  0.295237  0.913896  0.876438  1
  Tm  Tm2  1  0.701931  0.082635  0.863639  1
  Tm  Tm3  1  0.703001  0.906919  0.380373  1
  Tm  Tm4  1  0.585587  0.793181  0.877589  1
  Tm  Tm5  1  0.577008  0.207429  0.377486  1
  Tm  Tm6  1  0.412902  0.793019  0.377205  1
  Tm  Tm7  1  0.413496  0.206169  0.877914  1
  Tm  Tm8  1  0.206819  0.414413  0.622411  1
  Tm  Tm9  1  0.206981  0.587098  0.122795  1
  Tm  Tm10  1  0.792571  0.422992  0.122514  1
  Tm  Tm11  1  0.793831  0.586504  0.622086  1
  Tm  Tm12  1  0.914885  0.707470  0.124277  1
  Tm  Tm13  1  0.917365  0.298069  0.636361  1
  Tm  Tm14  1  0.086104  0.704763  0.623562  1
  Tm  Tm15  1  0.093081  0.296999  0.119627  1
  Tm  Tm16  1  0.003568  0.995352  0.503389  1
  Tm  Tm17  1  0.004648  0.996432  0.996611  1
  Tm  Tm18  1  0.499373  0.500186  0.999154  1
  Tm  Tm19  1  0.499814  0.500627  0.500846  1
  Ir  Ir20  1  0.849120  0.849335  0.750592  1
  Ir  Ir21  1  0.150665  0.150880  0.749408  1
  Ir  Ir22  1  0.152809  0.847191  0.250000  1
  Ir  Ir23  1  0.653151  0.346849  0.750000  1
  Ir  Ir24  1  0.651541  0.651848  0.250113  1
  Ir  Ir25  1  0.348152  0.348459  0.249887  1
  Ir  Ir26  1  0.347872  0.652128  0.750000  1
  Os  Os27  1  0.500532  0.999593  0.125747  1
  Os  Os28  1  0.499342  0.999300  0.622846  1
  Os  Os29  1  0.000700  0.500658  0.877154  1
  Os  Os30  1  0.000407  0.499468  0.374253  1
  Au  Au31  1  0.844978  0.155022  0.250000  1
