# generated using pymatgen
data_Dy2Al9Ni2Ru
_symmetry_space_group_name_H-M   'P 1'
_cell_length_a   7.44385700
_cell_length_b   7.44366546
_cell_length_c   9.42709700
_cell_angle_alpha   89.99752918
_cell_angle_beta   89.99826816
_cell_angle_gamma   119.99991340
_symmetry_Int_Tables_number   1
_chemical_formula_structural   Dy2Al9Ni2Ru
_chemical_formula_sum   'Dy4 Al18 Ni4 Ru2'
_cell_volume   452.37006016
_cell_formula_units_Z   2
loop_
 _symmetry_equiv_pos_site_id
 _symmetry_equiv_pos_as_xyz
  1  'x, y, z'
loop_
 _atom_site_type_symbol
 _atom_site_label
 _atom_site_symmetry_multiplicity
 _atom_site_fract_x
 _atom_site_fract_y
 _atom_site_fract_z
 _atom_site_occupancy
  Dy  Dy0  1  0.005304  0.331872  0.749941  1
  Dy  Dy1  1  0.994712  0.668101  0.250026  1
  Dy  Dy2  1  0.331832  0.005253  0.749992  1
  Dy  Dy3  1  0.668130  0.994729  0.250064  1
  Al  Al4  1  0.877515  0.877468  0.750020  1
  Al  Al5  1  0.122420  0.122433  0.249992  1
  Al  Al6  1  0.666566  0.669109  0.451032  1
  Al  Al7  1  0.333489  0.330959  0.950987  1
  Al  Al8  1  0.669332  0.666785  0.049012  1
  Al  Al9  1  0.330692  0.333249  0.548989  1
  Al  Al10  1  0.451346  0.662156  0.750734  1
  Al  Al11  1  0.548602  0.337873  0.250734  1
  Al  Al12  1  0.662100  0.451334  0.749252  1
  Al  Al13  1  0.337811  0.548590  0.249210  1
  Al  Al14  1  0.002126  0.332592  0.072699  1
  Al  Al15  1  0.997841  0.667395  0.572719  1
  Al  Al16  1  0.332386  0.001909  0.427313  1
  Al  Al17  1  0.667607  0.998152  0.927300  1
  Al  Al18  1  0.003466  0.666180  0.927784  1
  Al  Al19  1  0.996480  0.333782  0.427781  1
  Al  Al20  1  0.666013  0.003265  0.572246  1
  Al  Al21  1  0.333983  0.996785  0.072212  1
  Ni  Ni22  1  0.999008  0.001100  0.500087  1
  Ni  Ni23  1  0.001312  0.998903  0.999997  1
  Ni  Ni24  1  0.669711  0.330416  0.499944  1
  Ni  Ni25  1  0.330229  0.669617  0.999929  1
  Ru  Ru26  1  0.326854  0.672928  0.500000  1
  Ru  Ru27  1  0.673135  0.327061  0.000001  1
