# generated using pymatgen
data_LiY3Tl2InPd2
_symmetry_space_group_name_H-M   'P 1'
_cell_length_a   7.91722801
_cell_length_b   7.91029302
_cell_length_c   3.72003400
_cell_angle_alpha   90.00000000
_cell_angle_beta   90.00000000
_cell_angle_gamma   119.97102663
_symmetry_Int_Tables_number   1
_chemical_formula_structural   LiY3Tl2InPd2
_chemical_formula_sum   'Li1 Y3 Tl2 In1 Pd2'
_cell_volume   201.82268755
_cell_formula_units_Z   1
loop_
 _symmetry_equiv_pos_site_id
 _symmetry_equiv_pos_as_xyz
  1  'x, y, z'
loop_
 _atom_site_type_symbol
 _atom_site_label
 _atom_site_symmetry_multiplicity
 _atom_site_fract_x
 _atom_site_fract_y
 _atom_site_fract_z
 _atom_site_occupancy
  Li  Li0  1  0.000000  0.999776  0.500000  1
  Y  Y1  1  0.412626  0.413262  0.500000  1
  Y  Y2  1  0.587374  0.000636  0.500000  1
  Y  Y3  1  0.000000  0.586484  0.500000  1
  Tl  Tl4  1  0.741293  0.742400  0.000000  1
  Tl  Tl5  1  0.258707  0.001107  0.000000  1
  In  In6  1  0.000000  0.260547  0.000000  1
  Pd  Pd7  1  0.669589  0.332688  0.000000  1
  Pd  Pd8  1  0.330411  0.663100  0.000000  1
