# generated using pymatgen
data_Hf10Ga5Sb
_symmetry_space_group_name_H-M   'P 1'
_cell_length_a   8.08424150
_cell_length_b   8.08424156
_cell_length_c   5.69349300
_cell_angle_alpha   90.00000000
_cell_angle_beta   90.00000000
_cell_angle_gamma   120.23845236
_symmetry_Int_Tables_number   1
_chemical_formula_structural   Hf10Ga5Sb
_chemical_formula_sum   'Hf10 Ga5 Sb1'
_cell_volume   321.46924918
_cell_formula_units_Z   1
loop_
 _symmetry_equiv_pos_site_id
 _symmetry_equiv_pos_as_xyz
  1  'x, y, z'
loop_
 _atom_site_type_symbol
 _atom_site_label
 _atom_site_symmetry_multiplicity
 _atom_site_fract_x
 _atom_site_fract_y
 _atom_site_fract_z
 _atom_site_occupancy
  Hf  Hf0  1  0.673158  0.329496  0.002827  1
  Hf  Hf1  1  0.329496  0.673158  0.002827  1
  Hf  Hf2  1  0.329496  0.673158  0.497173  1
  Hf  Hf3  1  0.673158  0.329496  0.497173  1
  Hf  Hf4  1  0.765403  0.765403  0.750000  1
  Hf  Hf5  1  0.242174  0.990218  0.750000  1
  Hf  Hf6  1  0.990218  0.242174  0.750000  1
  Hf  Hf7  1  0.242146  0.242146  0.250000  1
  Hf  Hf8  1  0.754827  0.000501  0.250000  1
  Hf  Hf9  1  0.000501  0.754827  0.250000  1
  Ga  Ga10  1  0.605660  0.996898  0.750000  1
  Ga  Ga11  1  0.996898  0.605660  0.750000  1
  Ga  Ga12  1  0.608769  0.608769  0.250000  1
  Ga  Ga13  1  0.391654  0.002867  0.250000  1
  Ga  Ga14  1  0.002867  0.391654  0.250000  1
  Sb  Sb15  1  0.393575  0.393575  0.750000  1
