# generated using pymatgen
data_Tm4Re5Ru3
_symmetry_space_group_name_H-M   'P 1'
_cell_length_a   5.31645563
_cell_length_b   5.19732648
_cell_length_c   9.03220000
_cell_angle_alpha   90.00000000
_cell_angle_beta   90.00000000
_cell_angle_gamma   119.09421316
_symmetry_Int_Tables_number   1
_chemical_formula_structural   Tm4Re5Ru3
_chemical_formula_sum   'Tm4 Re5 Ru3'
_cell_volume   218.08127824
_cell_formula_units_Z   1
loop_
 _symmetry_equiv_pos_site_id
 _symmetry_equiv_pos_as_xyz
  1  'x, y, z'
loop_
 _atom_site_type_symbol
 _atom_site_label
 _atom_site_symmetry_multiplicity
 _atom_site_fract_x
 _atom_site_fract_y
 _atom_site_fract_z
 _atom_site_occupancy
  Tm  Tm0  1  0.669713  0.335063  0.563091  1
  Tm  Tm1  1  0.328524  0.664176  0.435855  1
  Tm  Tm2  1  0.328524  0.664176  0.064145  1
  Tm  Tm3  1  0.669713  0.335063  0.936909  1
  Re  Re4  1  0.171848  0.341920  0.750000  1
  Re  Re5  1  0.172136  0.832281  0.750000  1
  Re  Re6  1  0.656351  0.827976  0.750000  1
  Re  Re7  1  0.837227  0.663609  0.250000  1
  Re  Re8  1  0.837197  0.173707  0.250000  1
  Ru  Ru9  1  0.986885  0.992217  0.498031  1
  Ru  Ru10  1  0.986885  0.992217  0.001969  1
  Ru  Ru11  1  0.354997  0.177598  0.250000  1
