# generated using pymatgen
data_Pa6Sn8Pt5Au
_symmetry_space_group_name_H-M   'P 1'
_cell_length_a   8.42988737
_cell_length_b   8.43038348
_cell_length_c   8.42963600
_cell_angle_alpha   109.27622335
_cell_angle_beta   109.84301265
_cell_angle_gamma   109.29136412
_symmetry_Int_Tables_number   1
_chemical_formula_structural   Pa6Sn8Pt5Au
_chemical_formula_sum   'Pa6 Sn8 Pt5 Au1'
_cell_volume   461.17109409
_cell_formula_units_Z   1
loop_
 _symmetry_equiv_pos_site_id
 _symmetry_equiv_pos_as_xyz
  1  'x, y, z'
loop_
 _atom_site_type_symbol
 _atom_site_label
 _atom_site_symmetry_multiplicity
 _atom_site_fract_x
 _atom_site_fract_y
 _atom_site_fract_z
 _atom_site_occupancy
  Pa  Pa0  1  0.875027  0.750005  0.125064  1
  Pa  Pa1  1  0.124821  0.377717  0.257061  1
  Pa  Pa2  1  0.625015  0.250014  0.375049  1
  Pa  Pa3  1  0.742894  0.867640  0.620579  1
  Pa  Pa4  1  0.379379  0.122266  0.747064  1
  Pa  Pa5  1  0.252913  0.632352  0.875234  1
  Sn  Sn6  1  0.179725  0.997626  0.000027  1
  Sn  Sn7  1  0.683705  0.001199  0.000658  1
  Sn  Sn8  1  0.502378  0.502361  0.182059  1
  Sn  Sn9  1  0.317373  0.816916  0.316313  1
  Sn  Sn10  1  0.999424  0.683036  0.500464  1
  Sn  Sn11  1  0.999991  0.179728  0.497530  1
  Sn  Sn12  1  0.499461  0.498814  0.682564  1
  Sn  Sn13  1  0.817865  0.320311  0.820334  1
  Pt  Pt14  1  0.749945  0.374433  0.125822  1
  Pt  Pt15  1  0.624485  0.875882  0.250082  1
  Pt  Pt16  1  0.251393  0.125586  0.375534  1
  Pt  Pt17  1  0.375032  0.749988  0.624955  1
  Pt  Pt18  1  0.874193  0.624151  0.748648  1
  Au  Au19  1  0.124982  0.249978  0.874958  1
