# generated using pymatgen
data_Y4CrRe3B16
_symmetry_space_group_name_H-M   'P 1'
_cell_length_a   3.58115900
_cell_length_b   5.96813130
_cell_length_c   11.54131346
_cell_angle_alpha   89.89928158
_cell_angle_beta   90.00000000
_cell_angle_gamma   90.00000000
_symmetry_Int_Tables_number   1
_chemical_formula_structural   Y4CrRe3B16
_chemical_formula_sum   'Y4 Cr1 Re3 B16'
_cell_volume   246.67011635
_cell_formula_units_Z   1
loop_
 _symmetry_equiv_pos_site_id
 _symmetry_equiv_pos_as_xyz
  1  'x, y, z'
loop_
 _atom_site_type_symbol
 _atom_site_label
 _atom_site_symmetry_multiplicity
 _atom_site_fract_x
 _atom_site_fract_y
 _atom_site_fract_z
 _atom_site_occupancy
  Y  Y0  1  0.000000  0.127118  0.152713  1
  Y  Y1  1  0.000000  0.873462  0.849110  1
  Y  Y2  1  0.000000  0.624526  0.350926  1
  Y  Y3  1  0.000000  0.373689  0.648606  1
  Cr  Cr4  1  0.000000  0.127588  0.417143  1
  Re  Re5  1  0.000000  0.872932  0.583187  1
  Re  Re6  1  0.000000  0.633080  0.087110  1
  Re  Re7  1  0.000000  0.367060  0.912794  1
  B  B8  1  0.500000  0.475822  0.193093  1
  B  B9  1  0.500000  0.523330  0.807231  1
  B  B10  1  0.500000  0.979044  0.308604  1
  B  B11  1  0.500000  0.022758  0.691564  1
  B  B12  1  0.500000  0.284439  0.316789  1
  B  B13  1  0.500000  0.713764  0.684022  1
  B  B14  1  0.500000  0.786829  0.185788  1
  B  B15  1  0.500000  0.213518  0.814498  1
  B  B16  1  0.500000  0.362513  0.467097  1
  B  B17  1  0.500000  0.636277  0.531325  1
  B  B18  1  0.500000  0.864095  0.031583  1
  B  B19  1  0.500000  0.135951  0.968703  1
  B  B20  1  0.500000  0.385878  0.047726  1
  B  B21  1  0.500000  0.613706  0.952654  1
  B  B22  1  0.500000  0.887653  0.451793  1
  B  B23  1  0.500000  0.114968  0.545941  1
