# generated using pymatgen
data_Zr10Sn4BiB2Sb
_symmetry_space_group_name_H-M   'P 1'
_cell_length_a   8.58948754
_cell_length_b   8.59248751
_cell_length_c   5.82633500
_cell_angle_alpha   90.00000000
_cell_angle_beta   90.00000000
_cell_angle_gamma   119.85533954
_symmetry_Int_Tables_number   1
_chemical_formula_structural   Zr10Sn4BiB2Sb
_chemical_formula_sum   'Zr10 Sn4 Bi1 B2 Sb1'
_cell_volume   372.94386899
_cell_formula_units_Z   1
loop_
 _symmetry_equiv_pos_site_id
 _symmetry_equiv_pos_as_xyz
  1  'x, y, z'
loop_
 _atom_site_type_symbol
 _atom_site_label
 _atom_site_symmetry_multiplicity
 _atom_site_fract_x
 _atom_site_fract_y
 _atom_site_fract_z
 _atom_site_occupancy
  Zr  Zr0  1  0.668196  0.331034  0.001260  1
  Zr  Zr1  1  0.334205  0.670031  0.001372  1
  Zr  Zr2  1  0.334205  0.670031  0.498628  1
  Zr  Zr3  1  0.668196  0.331034  0.498740  1
  Zr  Zr4  1  0.772481  0.773317  0.750000  1
  Zr  Zr5  1  0.227988  0.995921  0.750000  1
  Zr  Zr6  1  0.995154  0.227770  0.750000  1
  Zr  Zr7  1  0.228999  0.228373  0.250000  1
  Zr  Zr8  1  0.768321  0.999975  0.250000  1
  Zr  Zr9  1  0.000545  0.770073  0.250000  1
  Sn  Sn10  1  0.999449  0.599216  0.750000  1
  Sn  Sn11  1  0.602925  0.602004  0.250000  1
  Sn  Sn12  1  0.398513  0.000414  0.250000  1
  Sn  Sn13  1  0.001427  0.400300  0.250000  1
  Bi  Bi14  1  0.400156  0.400126  0.750000  1
  B  B15  1  0.000349  0.000436  0.000737  1
  B  B16  1  0.000349  0.000436  0.499263  1
  Sb  Sb17  1  0.598541  0.999506  0.750000  1
