# generated using pymatgen
data_Sm2TmCo(P3Rh4)2
_symmetry_space_group_name_H-M   'P 1'
_cell_length_a   3.88095000
_cell_length_b   11.15878200
_cell_length_c   12.83781100
_cell_angle_alpha   90.00000000
_cell_angle_beta   90.00000000
_cell_angle_gamma   90.00000000
_symmetry_Int_Tables_number   1
_chemical_formula_structural   Sm2TmCo(P3Rh4)2
_chemical_formula_sum   'Sm4 Tm2 Co2 P12 Rh16'
_cell_volume   555.96290873
_cell_formula_units_Z   2
loop_
 _symmetry_equiv_pos_site_id
 _symmetry_equiv_pos_as_xyz
  1  'x, y, z'
loop_
 _atom_site_type_symbol
 _atom_site_label
 _atom_site_symmetry_multiplicity
 _atom_site_fract_x
 _atom_site_fract_y
 _atom_site_fract_z
 _atom_site_occupancy
  Sm  Sm0  1  0.000000  0.500000  0.522682  1
  Sm  Sm1  1  0.500000  0.000000  0.478738  1
  Sm  Sm2  1  0.500000  0.814624  0.201409  1
  Sm  Sm3  1  0.500000  0.185376  0.201409  1
  Tm  Tm4  1  0.000000  0.684965  0.797988  1
  Tm  Tm5  1  0.000000  0.315035  0.797988  1
  Co  Co6  1  0.000000  0.500000  0.977023  1
  Co  Co7  1  0.500000  0.000000  0.017627  1
  P  P8  1  0.500000  0.500000  0.880843  1
  P  P9  1  0.000000  0.000000  0.116116  1
  P  P10  1  0.500000  0.500000  0.349539  1
  P  P11  1  0.000000  0.000000  0.650661  1
  P  P12  1  0.500000  0.315221  0.621706  1
  P  P13  1  0.500000  0.684779  0.621706  1
  P  P14  1  0.000000  0.185771  0.382052  1
  P  P15  1  0.000000  0.814229  0.382052  1
  P  P16  1  0.500000  0.851572  0.895612  1
  P  P17  1  0.500000  0.148428  0.895612  1
  P  P18  1  0.000000  0.644327  0.102546  1
  P  P19  1  0.000000  0.355673  0.102546  1
  Rh  Rh20  1  0.500000  0.500000  0.167060  1
  Rh  Rh21  1  0.000000  0.000000  0.831897  1
  Rh  Rh22  1  0.500000  0.500000  0.705708  1
  Rh  Rh23  1  0.000000  0.000000  0.296127  1
  Rh  Rh24  1  0.500000  0.337332  0.992071  1
  Rh  Rh25  1  0.500000  0.662668  0.992071  1
  Rh  Rh26  1  0.000000  0.164144  0.003768  1
  Rh  Rh27  1  0.000000  0.835856  0.003768  1
  Rh  Rh28  1  0.500000  0.293493  0.431231  1
  Rh  Rh29  1  0.500000  0.706507  0.431231  1
  Rh  Rh30  1  0.000000  0.207282  0.572168  1
  Rh  Rh31  1  0.000000  0.792718  0.572168  1
  Rh  Rh32  1  0.500000  0.872468  0.714174  1
  Rh  Rh33  1  0.500000  0.127532  0.714174  1
  Rh  Rh34  1  0.000000  0.625024  0.288264  1
  Rh  Rh35  1  0.000000  0.374976  0.288264  1
