# generated using pymatgen
data_Ge(S4Br)4
_symmetry_space_group_name_H-M   'P 1'
_cell_length_a   12.15108135
_cell_length_b   12.81045198
_cell_length_c   13.13736429
_cell_angle_alpha   102.66966272
_cell_angle_beta   62.45386012
_cell_angle_gamma   118.31146838
_symmetry_Int_Tables_number   1
_chemical_formula_structural   Ge(S4Br)4
_chemical_formula_sum   'Ge2 S32 Br8'
_cell_volume   1596.26753706
_cell_formula_units_Z   2
loop_
 _symmetry_equiv_pos_site_id
 _symmetry_equiv_pos_as_xyz
  1  'x, y, z'
loop_
 _atom_site_type_symbol
 _atom_site_label
 _atom_site_symmetry_multiplicity
 _atom_site_fract_x
 _atom_site_fract_y
 _atom_site_fract_z
 _atom_site_occupancy
  Ge  Ge0  1  0.000990  0.000000  0.000000  1
  Ge  Ge1  1  0.250989  0.500000  0.500001  1
  S  S2  1  0.472288  0.218058  0.004684  1
  S  S3  1  0.392069  0.329363  0.007226  1
  S  S4  1  0.656329  0.316584  0.019485  1
  S  S5  1  0.327309  0.652318  0.141614  1
  S  S6  1  0.920333  0.638120  0.158965  1
  S  S7  1  0.543290  0.007814  0.195295  1
  S  S8  1  0.165935  0.487652  0.198288  1
  S  S9  1  0.876961  0.477909  0.213102  1
  S  S10  1  0.340064  0.977909  0.286898  1
  S  S11  1  0.614222  0.987652  0.301712  1
  S  S12  1  0.988587  0.507815  0.304705  1
  S  S13  1  0.329298  0.138119  0.341035  1
  S  S14  1  0.718925  0.152319  0.358386  1
  S  S15  1  0.925815  0.816585  0.480515  1
  S  S16  1  0.649294  0.829362  0.492775  1
  S  S17  1  0.726972  0.718058  0.495316  1
  S  S18  1  0.504231  0.281942  0.504684  1
  S  S19  1  0.312706  0.170637  0.507225  1
  S  S20  1  0.589745  0.183415  0.519485  1
  S  S21  1  0.924992  0.847682  0.641614  1
  S  S22  1  0.532213  0.861880  0.658964  1
  S  S23  1  0.785477  0.492186  0.695295  1
  S  S24  1  0.928283  0.012348  0.698287  1
  S  S25  1  0.649051  0.022090  0.713103  1
  S  S26  1  0.612155  0.522091  0.786898  1
  S  S27  1  0.876570  0.512348  0.801712  1
  S  S28  1  0.730771  0.992186  0.804705  1
  S  S29  1  0.441179  0.361881  0.841035  1
  S  S30  1  0.816606  0.347681  0.858386  1
  S  S31  1  0.359230  0.683415  0.980515  1
  S  S32  1  0.069931  0.670637  0.992775  1
  S  S33  1  0.258913  0.781942  0.995316  1
  Br  Br34  1  0.808273  0.831700  0.000684  1
  Br  Br35  1  0.030570  0.000485  0.161553  1
  Br  Br36  1  0.442122  0.500485  0.338448  1
  Br  Br37  1  0.058956  0.331700  0.499317  1
  Br  Br38  1  0.226572  0.668300  0.500684  1
  Br  Br39  1  0.280086  0.499515  0.661552  1
  Br  Br40  1  0.191638  0.999515  0.838448  1
  Br  Br41  1  0.977257  0.168300  0.999316  1
