# generated using pymatgen
data_Pr2Nd2Sm2OsI10
_symmetry_space_group_name_H-M   'P 1'
_cell_length_a   7.98320261
_cell_length_b   9.99867525
_cell_length_c   10.04155293
_cell_angle_alpha   107.48258427
_cell_angle_beta   96.80857834
_cell_angle_gamma   105.17339188
_symmetry_Int_Tables_number   1
_chemical_formula_structural   Pr2Nd2Sm2OsI10
_chemical_formula_sum   'Pr2 Nd2 Sm2 Os1 I10'
_cell_volume   720.72925774
_cell_formula_units_Z   1
loop_
 _symmetry_equiv_pos_site_id
 _symmetry_equiv_pos_as_xyz
  1  'x, y, z'
loop_
 _atom_site_type_symbol
 _atom_site_label
 _atom_site_symmetry_multiplicity
 _atom_site_fract_x
 _atom_site_fract_y
 _atom_site_fract_z
 _atom_site_occupancy
  Pr  Pr0  1  0.616205  0.541997  0.259198  1
  Pr  Pr1  1  0.383795  0.458003  0.740802  1
  Nd  Nd2  1  0.531185  0.216767  0.415965  1
  Nd  Nd3  1  0.468815  0.783233  0.584035  1
  Sm  Sm4  1  0.144140  0.369659  0.329494  1
  Sm  Sm5  1  0.855860  0.630341  0.670506  1
  Os  Os6  1  0.500000  0.500000  0.500000  1
  I  I7  1  0.144194  0.048168  0.226934  1
  I  I8  1  0.855806  0.951832  0.773066  1
  I  I9  1  0.234878  0.410273  0.043164  1
  I  I10  1  0.765122  0.589727  0.956836  1
  I  I11  1  0.713638  0.238053  0.151113  1
  I  I12  1  0.286362  0.761947  0.848887  1
  I  I13  1  0.046943  0.680396  0.410889  1
  I  I14  1  0.953057  0.319604  0.589111  1
  I  I15  1  0.413257  0.129662  0.679882  1
  I  I16  1  0.586743  0.870338  0.320118  1
