# generated using pymatgen
data_CsCuPdSe5
_symmetry_space_group_name_H-M   'P 1'
_cell_length_a   7.46669400
_cell_length_b   6.51242795
_cell_length_c   9.54609480
_cell_angle_alpha   76.98486871
_cell_angle_beta   90.00000000
_cell_angle_gamma   90.00000000
_symmetry_Int_Tables_number   1
_chemical_formula_structural   CsCuPdSe5
_chemical_formula_sum   'Cs2 Cu2 Pd2 Se10'
_cell_volume   452.26654746
_cell_formula_units_Z   2
loop_
 _symmetry_equiv_pos_site_id
 _symmetry_equiv_pos_as_xyz
  1  'x, y, z'
loop_
 _atom_site_type_symbol
 _atom_site_label
 _atom_site_symmetry_multiplicity
 _atom_site_fract_x
 _atom_site_fract_y
 _atom_site_fract_z
 _atom_site_occupancy
  Cs  Cs0  1  0.750000  0.749619  0.052026  1
  Cs  Cs1  1  0.250000  0.250381  0.947974  1
  Cu  Cu2  1  0.750000  0.894137  0.607751  1
  Cu  Cu3  1  0.250000  0.105863  0.392249  1
  Pd  Pd4  1  0.500000  0.500000  0.500000  1
  Pd  Pd5  1  0.000000  0.500000  0.500000  1
  Se  Se6  1  0.250000  0.948446  0.645122  1
  Se  Se7  1  0.993608  0.310878  0.299612  1
  Se  Se8  1  0.750000  0.277925  0.629043  1
  Se  Se9  1  0.250000  0.722075  0.370957  1
  Se  Se10  1  0.506392  0.310878  0.299612  1
  Se  Se11  1  0.250000  0.685834  0.127971  1
  Se  Se12  1  0.750000  0.314166  0.872029  1
  Se  Se13  1  0.750000  0.051554  0.354878  1
  Se  Se14  1  0.006392  0.689122  0.700388  1
  Se  Se15  1  0.493608  0.689122  0.700388  1
