# generated using pymatgen
data_PrDy7(Si3Pt)4
_symmetry_space_group_name_H-M   'P 1'
_cell_length_a   8.15989000
_cell_length_b   8.15989084
_cell_length_c   8.24894300
_cell_angle_alpha   90.00000000
_cell_angle_beta   90.00000000
_cell_angle_gamma   119.99999660
_symmetry_Int_Tables_number   1
_chemical_formula_structural   PrDy7(Si3Pt)4
_chemical_formula_sum   'Pr1 Dy7 Si12 Pt4'
_cell_volume   475.66106327
_cell_formula_units_Z   1
loop_
 _symmetry_equiv_pos_site_id
 _symmetry_equiv_pos_as_xyz
  1  'x, y, z'
loop_
 _atom_site_type_symbol
 _atom_site_label
 _atom_site_symmetry_multiplicity
 _atom_site_fract_x
 _atom_site_fract_y
 _atom_site_fract_z
 _atom_site_occupancy
  Pr  Pr0  1  0.000000  0.000000  0.250000  1
  Dy  Dy1  1  0.000000  0.000000  0.750000  1
  Dy  Dy2  1  0.499918  0.500082  0.250000  1
  Dy  Dy3  1  0.499918  0.999837  0.250000  1
  Dy  Dy4  1  0.000163  0.500082  0.250000  1
  Dy  Dy5  1  0.499662  0.500338  0.750000  1
  Dy  Dy6  1  0.499662  0.999323  0.750000  1
  Dy  Dy7  1  0.000677  0.500338  0.750000  1
  Si  Si8  1  0.165996  0.834004  0.502499  1
  Si  Si9  1  0.165996  0.331995  0.502499  1
  Si  Si10  1  0.668005  0.834004  0.502499  1
  Si  Si11  1  0.833964  0.166036  0.504500  1
  Si  Si12  1  0.833964  0.667926  0.504500  1
  Si  Si13  1  0.332074  0.166036  0.504500  1
  Si  Si14  1  0.833964  0.166036  0.995500  1
  Si  Si15  1  0.833964  0.667926  0.995500  1
  Si  Si16  1  0.332074  0.166036  0.995500  1
  Si  Si17  1  0.165996  0.834004  0.997501  1
  Si  Si18  1  0.165996  0.331995  0.997501  1
  Si  Si19  1  0.668005  0.834004  0.997501  1
  Pt  Pt20  1  0.333333  0.666667  0.499917  1
  Pt  Pt21  1  0.666667  0.333333  0.500263  1
  Pt  Pt22  1  0.666667  0.333333  0.999737  1
  Pt  Pt23  1  0.333333  0.666667  0.000083  1
