# generated using pymatgen
data_BaLi2AcSi4
_symmetry_space_group_name_H-M   'P 1'
_cell_length_a   4.00472700
_cell_length_b   8.29927945
_cell_length_c   11.25115600
_cell_angle_alpha   89.96607519
_cell_angle_beta   90.00000000
_cell_angle_gamma   90.00000000
_symmetry_Int_Tables_number   1
_chemical_formula_structural   BaLi2AcSi4
_chemical_formula_sum   'Ba2 Li4 Ac2 Si8'
_cell_volume   373.94727644
_cell_formula_units_Z   2
loop_
 _symmetry_equiv_pos_site_id
 _symmetry_equiv_pos_as_xyz
  1  'x, y, z'
loop_
 _atom_site_type_symbol
 _atom_site_label
 _atom_site_symmetry_multiplicity
 _atom_site_fract_x
 _atom_site_fract_y
 _atom_site_fract_z
 _atom_site_occupancy
  Ba  Ba0  1  0.250000  0.633121  0.631051  1
  Ba  Ba1  1  0.750000  0.366879  0.368949  1
  Li  Li2  1  0.250000  0.004600  0.387832  1
  Li  Li3  1  0.750000  0.995400  0.612168  1
  Li  Li4  1  0.250000  0.496837  0.106853  1
  Li  Li5  1  0.750000  0.503163  0.893147  1
  Ac  Ac6  1  0.250000  0.126555  0.867411  1
  Ac  Ac7  1  0.750000  0.873445  0.132589  1
  Si  Si8  1  0.750000  0.272715  0.068801  1
  Si  Si9  1  0.250000  0.727285  0.931199  1
  Si  Si10  1  0.750000  0.785598  0.419219  1
  Si  Si11  1  0.250000  0.214402  0.580781  1
  Si  Si12  1  0.750000  0.826699  0.831913  1
  Si  Si13  1  0.250000  0.173301  0.168087  1
  Si  Si14  1  0.750000  0.313197  0.680351  1
  Si  Si15  1  0.250000  0.686803  0.319649  1
