# generated using pymatgen
data_YZr(TaS2)8
_symmetry_space_group_name_H-M   'P 1'
_cell_length_a   6.67050400
_cell_length_b   6.67050320
_cell_length_c   13.39410900
_cell_angle_alpha   90.00000000
_cell_angle_beta   90.00000000
_cell_angle_gamma   120.00000395
_symmetry_Int_Tables_number   1
_chemical_formula_structural   YZr(TaS2)8
_chemical_formula_sum   'Y1 Zr1 Ta8 S16'
_cell_volume   516.13307345
_cell_formula_units_Z   1
loop_
 _symmetry_equiv_pos_site_id
 _symmetry_equiv_pos_as_xyz
  1  'x, y, z'
loop_
 _atom_site_type_symbol
 _atom_site_label
 _atom_site_symmetry_multiplicity
 _atom_site_fract_x
 _atom_site_fract_y
 _atom_site_fract_z
 _atom_site_occupancy
  Y  Y0  1  0.000000  0.000000  0.500000  1
  Zr  Zr1  1  0.000000  0.000000  0.000000  1
  Ta  Ta2  1  0.505345  0.494655  0.758429  1
  Ta  Ta3  1  0.010689  0.505345  0.241571  1
  Ta  Ta4  1  0.494655  0.989311  0.241571  1
  Ta  Ta5  1  0.505345  0.010689  0.758429  1
  Ta  Ta6  1  0.989311  0.494655  0.758429  1
  Ta  Ta7  1  0.494655  0.505345  0.241571  1
  Ta  Ta8  1  0.000000  0.000000  0.758289  1
  Ta  Ta9  1  0.000000  0.000000  0.241711  1
  S  S10  1  0.831029  0.168971  0.358712  1
  S  S11  1  0.831029  0.662058  0.358712  1
  S  S12  1  0.337942  0.168971  0.358712  1
  S  S13  1  0.661520  0.830760  0.875925  1
  S  S14  1  0.168971  0.337942  0.641288  1
  S  S15  1  0.169240  0.830760  0.875925  1
  S  S16  1  0.169240  0.338480  0.875925  1
  S  S17  1  0.830760  0.169240  0.124075  1
  S  S18  1  0.338480  0.169240  0.124075  1
  S  S19  1  0.662058  0.831029  0.641288  1
  S  S20  1  0.333333  0.666667  0.121417  1
  S  S21  1  0.666667  0.333333  0.637716  1
  S  S22  1  0.666667  0.333333  0.878583  1
  S  S23  1  0.333333  0.666667  0.362284  1
  S  S24  1  0.830760  0.661520  0.124075  1
  S  S25  1  0.168971  0.831029  0.641288  1
