# generated using pymatgen
data_YPu4(SiB4)2
_symmetry_space_group_name_H-M   'P 1'
_cell_length_a   7.22073000
_cell_length_b   7.22073000
_cell_length_c   8.12064200
_cell_angle_alpha   90.00000000
_cell_angle_beta   90.00000000
_cell_angle_gamma   90.00000000
_symmetry_Int_Tables_number   1
_chemical_formula_structural   YPu4(SiB4)2
_chemical_formula_sum   'Y2 Pu8 Si4 B16'
_cell_volume   423.40168007
_cell_formula_units_Z   2
loop_
 _symmetry_equiv_pos_site_id
 _symmetry_equiv_pos_as_xyz
  1  'x, y, z'
loop_
 _atom_site_type_symbol
 _atom_site_label
 _atom_site_symmetry_multiplicity
 _atom_site_fract_x
 _atom_site_fract_y
 _atom_site_fract_z
 _atom_site_occupancy
  Y  Y0  1  0.000000  0.000000  0.500000  1
  Y  Y1  1  0.500000  0.500000  0.500000  1
  Pu  Pu2  1  0.681868  0.181868  0.227698  1
  Pu  Pu3  1  0.318132  0.818132  0.772302  1
  Pu  Pu4  1  0.318132  0.818132  0.227698  1
  Pu  Pu5  1  0.818132  0.681868  0.227698  1
  Pu  Pu6  1  0.818132  0.681868  0.772302  1
  Pu  Pu7  1  0.681868  0.181868  0.772302  1
  Pu  Pu8  1  0.181868  0.318132  0.772302  1
  Pu  Pu9  1  0.181868  0.318132  0.227698  1
  Si  Si10  1  0.114865  0.614865  0.500000  1
  Si  Si11  1  0.885135  0.385135  0.500000  1
  Si  Si12  1  0.385135  0.114865  0.500000  1
  Si  Si13  1  0.614865  0.885135  0.500000  1
  B  B14  1  0.173141  0.040557  0.000000  1
  B  B15  1  0.826859  0.959443  0.000000  1
  B  B16  1  0.959443  0.173141  0.000000  1
  B  B17  1  0.326859  0.540557  0.000000  1
  B  B18  1  0.040557  0.826859  0.000000  1
  B  B19  1  0.673141  0.459443  0.000000  1
  B  B20  1  0.540557  0.673141  0.000000  1
  B  B21  1  0.459443  0.326859  0.000000  1
  B  B22  1  0.090307  0.590307  0.000000  1
  B  B23  1  0.909693  0.409693  0.000000  1
  B  B24  1  0.409693  0.090307  0.000000  1
  B  B25  1  0.590307  0.909693  0.000000  1
  B  B26  1  0.000000  0.000000  0.160657  1
  B  B27  1  0.000000  0.000000  0.839343  1
  B  B28  1  0.500000  0.500000  0.839343  1
  B  B29  1  0.500000  0.500000  0.160657  1
