# generated using pymatgen
data_BaNb8VSe16
_symmetry_space_group_name_H-M   'P 1'
_cell_length_a   7.01005700
_cell_length_b   7.01005773
_cell_length_c   14.75620000
_cell_angle_alpha   90.00000000
_cell_angle_beta   90.00000000
_cell_angle_gamma   120.00000127
_symmetry_Int_Tables_number   1
_chemical_formula_structural   BaNb8VSe16
_chemical_formula_sum   'Ba1 Nb8 V1 Se16'
_cell_volume   627.98360116
_cell_formula_units_Z   1
loop_
 _symmetry_equiv_pos_site_id
 _symmetry_equiv_pos_as_xyz
  1  'x, y, z'
loop_
 _atom_site_type_symbol
 _atom_site_label
 _atom_site_symmetry_multiplicity
 _atom_site_fract_x
 _atom_site_fract_y
 _atom_site_fract_z
 _atom_site_occupancy
  Ba  Ba0  1  0.000000  0.000000  0.000000  1
  Nb  Nb1  1  0.000000  0.000000  0.281346  1
  Nb  Nb2  1  0.000000  0.000000  0.718654  1
  Nb  Nb3  1  0.506777  0.013555  0.283110  1
  Nb  Nb4  1  0.493223  0.986445  0.716890  1
  Nb  Nb5  1  0.986445  0.493223  0.283110  1
  Nb  Nb6  1  0.013555  0.506777  0.716890  1
  Nb  Nb7  1  0.506777  0.493223  0.283110  1
  Nb  Nb8  1  0.493223  0.506777  0.716890  1
  V  V9  1  0.000000  0.000000  0.500000  1
  Se  Se10  1  0.333333  0.666667  0.601062  1
  Se  Se11  1  0.666667  0.333333  0.398938  1
  Se  Se12  1  0.666667  0.333333  0.165120  1
  Se  Se13  1  0.333333  0.666667  0.834880  1
  Se  Se14  1  0.169523  0.339046  0.170133  1
  Se  Se15  1  0.830477  0.660954  0.829867  1
  Se  Se16  1  0.660954  0.830477  0.170133  1
  Se  Se17  1  0.833266  0.666532  0.605591  1
  Se  Se18  1  0.339046  0.169523  0.829867  1
  Se  Se19  1  0.166734  0.333468  0.394409  1
  Se  Se20  1  0.169523  0.830477  0.170133  1
  Se  Se21  1  0.333468  0.166734  0.605591  1
  Se  Se22  1  0.830477  0.169523  0.829867  1
  Se  Se23  1  0.666532  0.833266  0.394409  1
  Se  Se24  1  0.833266  0.166734  0.605591  1
  Se  Se25  1  0.166734  0.833266  0.394409  1
