# generated using pymatgen
data_TbLuNbB2Ru5
_symmetry_space_group_name_H-M   'P 1'
_cell_length_a   9.65828339
_cell_length_b   9.65828339
_cell_length_c   3.12791400
_cell_angle_alpha   90.00000000
_cell_angle_beta   90.00000000
_cell_angle_gamma   90.57689433
_symmetry_Int_Tables_number   1
_chemical_formula_structural   TbLuNbB2Ru5
_chemical_formula_sum   'Tb2 Lu2 Nb2 B4 Ru10'
_cell_volume   291.76465408
_cell_formula_units_Z   2
loop_
 _symmetry_equiv_pos_site_id
 _symmetry_equiv_pos_as_xyz
  1  'x, y, z'
loop_
 _atom_site_type_symbol
 _atom_site_label
 _atom_site_symmetry_multiplicity
 _atom_site_fract_x
 _atom_site_fract_y
 _atom_site_fract_z
 _atom_site_occupancy
  Tb  Tb0  1  0.824994  0.675006  0.000000  1
  Tb  Tb1  1  0.175006  0.324994  0.000000  1
  Lu  Lu2  1  0.325329  0.825329  0.000000  1
  Lu  Lu3  1  0.674671  0.174671  0.000000  1
  Nb  Nb4  1  0.500000  0.500000  0.000000  1
  Nb  Nb5  1  0.000000  0.000000  0.000000  1
  B  B6  1  0.619419  0.880581  0.000000  1
  B  B7  1  0.380581  0.119419  0.000000  1
  B  B8  1  0.121465  0.621465  0.000000  1
  B  B9  1  0.878535  0.378535  0.000000  1
  Ru  Ru10  1  0.567946  0.719466  0.500000  1
  Ru  Ru11  1  0.432054  0.280534  0.500000  1
  Ru  Ru12  1  0.074365  0.782727  0.500000  1
  Ru  Ru13  1  0.925635  0.217273  0.500000  1
  Ru  Ru14  1  0.282727  0.574365  0.500000  1
  Ru  Ru15  1  0.717273  0.425635  0.500000  1
  Ru  Ru16  1  0.219466  0.067946  0.500000  1
  Ru  Ru17  1  0.780534  0.932054  0.500000  1
  Ru  Ru18  1  0.500000  0.000000  0.500000  1
  Ru  Ru19  1  0.000000  0.500000  0.500000  1
