# generated using pymatgen
data_Tb3ScPI6
_symmetry_space_group_name_H-M   'P 1'
_cell_length_a   4.13165400
_cell_length_b   13.80705921
_cell_length_c   14.57549061
_cell_angle_alpha   89.72654878
_cell_angle_beta   90.00000000
_cell_angle_gamma   90.00000000
_symmetry_Int_Tables_number   1
_chemical_formula_structural   Tb3ScPI6
_chemical_formula_sum   'Tb6 Sc2 P2 I12'
_cell_volume   831.46384245
_cell_formula_units_Z   2
loop_
 _symmetry_equiv_pos_site_id
 _symmetry_equiv_pos_as_xyz
  1  'x, y, z'
loop_
 _atom_site_type_symbol
 _atom_site_label
 _atom_site_symmetry_multiplicity
 _atom_site_fract_x
 _atom_site_fract_y
 _atom_site_fract_z
 _atom_site_occupancy
  Tb  Tb0  1  0.500000  0.614377  0.151037  1
  Tb  Tb1  1  0.500000  0.385623  0.848963  1
  Tb  Tb2  1  0.000000  0.107564  0.572615  1
  Tb  Tb3  1  0.000000  0.892436  0.427385  1
  Tb  Tb4  1  0.000000  0.610818  0.925187  1
  Tb  Tb5  1  0.000000  0.389182  0.074813  1
  Sc  Sc6  1  0.500000  0.107857  0.357170  1
  Sc  Sc7  1  0.500000  0.892143  0.642830  1
  P  P8  1  0.500000  0.000000  0.500000  1
  P  P9  1  0.500000  0.500000  0.000000  1
  I  I10  1  0.500000  0.244081  0.164955  1
  I  I11  1  0.500000  0.755919  0.835045  1
  I  I12  1  0.500000  0.745343  0.338270  1
  I  I13  1  0.500000  0.254657  0.661730  1
  I  I14  1  0.000000  0.250927  0.409824  1
  I  I15  1  0.000000  0.749073  0.590176  1
  I  I16  1  0.000000  0.763176  0.083685  1
  I  I17  1  0.000000  0.236824  0.916315  1
  I  I18  1  0.000000  0.008135  0.245642  1
  I  I19  1  0.000000  0.991865  0.754358  1
  I  I20  1  0.000000  0.498148  0.262736  1
  I  I21  1  0.000000  0.501852  0.737264  1
