# generated using pymatgen
data_Tb2Th3P12Ru19
_symmetry_space_group_name_H-M   'P 1'
_cell_length_a   4.00215100
_cell_length_b   12.63157818
_cell_length_c   12.62773326
_cell_angle_alpha   120.01006956
_cell_angle_beta   90.00000000
_cell_angle_gamma   90.00000000
_symmetry_Int_Tables_number   1
_chemical_formula_structural   Tb2Th3P12Ru19
_chemical_formula_sum   'Tb2 Th3 P12 Ru19'
_cell_volume   552.79364331
_cell_formula_units_Z   1
loop_
 _symmetry_equiv_pos_site_id
 _symmetry_equiv_pos_as_xyz
  1  'x, y, z'
loop_
 _atom_site_type_symbol
 _atom_site_label
 _atom_site_symmetry_multiplicity
 _atom_site_fract_x
 _atom_site_fract_y
 _atom_site_fract_z
 _atom_site_occupancy
  Tb  Tb0  1  0.000000  0.333323  0.666618  1
  Tb  Tb1  1  0.000000  0.666706  0.333382  1
  Th  Th2  1  0.500000  0.999975  0.186795  1
  Th  Th3  1  0.500000  0.186742  0.000000  1
  Th  Th4  1  0.500000  0.813181  0.813205  1
  P  P5  1  0.000000  0.999980  0.811559  1
  P  P6  1  0.000000  0.811547  0.000000  1
  P  P7  1  0.000000  0.188420  0.188441  1
  P  P8  1  0.500000  0.305188  0.479309  1
  P  P9  1  0.500000  0.174211  0.694838  1
  P  P10  1  0.500000  0.520651  0.825796  1
  P  P11  1  0.500000  0.825879  0.520691  1
  P  P12  1  0.500000  0.479372  0.305162  1
  P  P13  1  0.500000  0.694856  0.174204  1
  P  P14  1  0.000000  0.999970  0.376529  1
  P  P15  1  0.000000  0.376462  0.000000  1
  P  P16  1  0.000000  0.623442  0.623471  1
  Ru  Ru17  1  0.000000  0.999969  0.555625  1
  Ru  Ru18  1  0.000000  0.555635  0.000000  1
  Ru  Ru19  1  0.000000  0.444344  0.444375  1
  Ru  Ru20  1  0.500000  0.999994  0.713645  1
  Ru  Ru21  1  0.500000  0.713665  0.000000  1
  Ru  Ru22  1  0.500000  0.286349  0.286355  1
  Ru  Ru23  1  0.000000  0.193267  0.378320  1
  Ru  Ru24  1  0.000000  0.185022  0.806645  1
  Ru  Ru25  1  0.000000  0.621634  0.814971  1
  Ru  Ru26  1  0.000000  0.814947  0.621680  1
  Ru  Ru27  1  0.000000  0.378378  0.193355  1
  Ru  Ru28  1  0.000000  0.806663  0.185029  1
  Ru  Ru29  1  0.500000  0.125561  0.492919  1
  Ru  Ru30  1  0.500000  0.367335  0.874464  1
  Ru  Ru31  1  0.500000  0.507171  0.632641  1
  Ru  Ru32  1  0.500000  0.632642  0.507081  1
  Ru  Ru33  1  0.500000  0.492871  0.125536  1
  Ru  Ru34  1  0.500000  0.874529  0.367359  1
  Ru  Ru35  1  0.000000  0.000018  0.000000  1
