# generated using pymatgen
data_Dy16CdHg3Ir3Ru
_symmetry_space_group_name_H-M   'P 1'
_cell_length_a   9.63088605
_cell_length_b   9.63197117
_cell_length_c   9.63197090
_cell_angle_alpha   59.78937917
_cell_angle_beta   59.79931486
_cell_angle_gamma   59.79931578
_symmetry_Int_Tables_number   1
_chemical_formula_structural   Dy16CdHg3Ir3Ru
_chemical_formula_sum   'Dy16 Cd1 Hg3 Ir3 Ru1'
_cell_volume   628.87695087
_cell_formula_units_Z   1
loop_
 _symmetry_equiv_pos_site_id
 _symmetry_equiv_pos_as_xyz
  1  'x, y, z'
loop_
 _atom_site_type_symbol
 _atom_site_label
 _atom_site_symmetry_multiplicity
 _atom_site_fract_x
 _atom_site_fract_y
 _atom_site_fract_z
 _atom_site_occupancy
  Dy  Dy0  1  0.599582  0.599089  0.599089  1
  Dy  Dy1  1  0.600085  0.599515  0.201847  1
  Dy  Dy2  1  0.600085  0.201847  0.599515  1
  Dy  Dy3  1  0.198832  0.600725  0.600725  1
  Dy  Dy4  1  0.060413  0.439822  0.439822  1
  Dy  Dy5  1  0.438034  0.060217  0.060217  1
  Dy  Dy6  1  0.438582  0.061409  0.439409  1
  Dy  Dy7  1  0.059214  0.439288  0.059569  1
  Dy  Dy8  1  0.438582  0.439409  0.061409  1
  Dy  Dy9  1  0.059214  0.059569  0.439288  1
  Dy  Dy10  1  0.188448  0.811500  0.811500  1
  Dy  Dy11  1  0.809501  0.188876  0.188876  1
  Dy  Dy12  1  0.810945  0.189401  0.811702  1
  Dy  Dy13  1  0.188245  0.809685  0.189468  1
  Dy  Dy14  1  0.810945  0.811702  0.189401  1
  Dy  Dy15  1  0.188245  0.189468  0.809685  1
  Cd  Cd16  1  0.509326  0.830054  0.830054  1
  Hg  Hg17  1  0.833287  0.835072  0.835072  1
  Hg  Hg18  1  0.833886  0.835811  0.494364  1
  Hg  Hg19  1  0.833886  0.494364  0.835811  1
  Ir  Ir20  1  0.392748  0.393503  0.825303  1
  Ir  Ir21  1  0.392748  0.825303  0.393503  1
  Ir  Ir22  1  0.825322  0.393253  0.393253  1
  Ru  Ru23  1  0.389846  0.391123  0.391123  1
