# generated using pymatgen
data_Dy12Er8GaCo4Sb7
_symmetry_space_group_name_H-M   'P 1'
_cell_length_a   7.81448452
_cell_length_b   8.78686481
_cell_length_c   12.10607726
_cell_angle_alpha   90.10662748
_cell_angle_beta   89.92220326
_cell_angle_gamma   89.91937670
_symmetry_Int_Tables_number   1
_chemical_formula_structural   Dy12Er8GaCo4Sb7
_chemical_formula_sum   'Dy12 Er8 Ga1 Co4 Sb7'
_cell_volume   831.25857280
_cell_formula_units_Z   1
loop_
 _symmetry_equiv_pos_site_id
 _symmetry_equiv_pos_as_xyz
  1  'x, y, z'
loop_
 _atom_site_type_symbol
 _atom_site_label
 _atom_site_symmetry_multiplicity
 _atom_site_fract_x
 _atom_site_fract_y
 _atom_site_fract_z
 _atom_site_occupancy
  Dy  Dy0  1  0.149707  0.756165  0.206848  1
  Dy  Dy1  1  0.661481  0.244933  0.293553  1
  Dy  Dy2  1  0.846544  0.251353  0.796196  1
  Dy  Dy3  1  0.345446  0.750047  0.700969  1
  Dy  Dy4  1  0.450280  0.748479  0.997627  1
  Dy  Dy5  1  0.952480  0.241100  0.497427  1
  Dy  Dy6  1  0.544748  0.251740  0.002410  1
  Dy  Dy7  1  0.039543  0.759374  0.492321  1
  Dy  Dy8  1  0.633196  0.755485  0.308366  1
  Dy  Dy9  1  0.117080  0.243716  0.196527  1
  Dy  Dy10  1  0.377725  0.249697  0.691877  1
  Dy  Dy11  1  0.877583  0.749318  0.808033  1
  Er  Er12  1  0.824545  0.966743  0.071709  1
  Er  Er13  1  0.320167  0.034674  0.432472  1
  Er  Er14  1  0.176015  0.462613  0.935356  1
  Er  Er15  1  0.680641  0.532719  0.565338  1
  Er  Er16  1  0.175905  0.034686  0.934660  1
  Er  Er17  1  0.677131  0.963703  0.565534  1
  Er  Er18  1  0.821692  0.536285  0.066268  1
  Er  Er19  1  0.323774  0.466293  0.433286  1
  Ga  Ga20  1  0.930287  0.995368  0.329512  1
  Co  Co21  1  0.439798  0.749381  0.490908  1
  Co  Co22  1  0.932119  0.249568  0.009919  1
  Co  Co23  1  0.565529  0.249166  0.507410  1
  Co  Co24  1  0.065586  0.749273  0.992149  1
  Sb  Sb25  1  0.428518  0.007063  0.171814  1
  Sb  Sb26  1  0.071766  0.492327  0.668938  1
  Sb  Sb27  1  0.569662  0.508059  0.826572  1
  Sb  Sb28  1  0.071131  0.007759  0.674114  1
  Sb  Sb29  1  0.570451  0.992239  0.828568  1
  Sb  Sb30  1  0.930031  0.506800  0.328346  1
  Sb  Sb31  1  0.429438  0.493872  0.174972  1
