# generated using pymatgen
data_Zr6Zn22AuN
_symmetry_space_group_name_H-M   'P 1'
_cell_length_a   8.73441986
_cell_length_b   8.73442428
_cell_length_c   8.73441800
_cell_angle_alpha   59.91599383
_cell_angle_beta   59.91603013
_cell_angle_gamma   59.91608955
_symmetry_Int_Tables_number   1
_chemical_formula_structural   Zr6Zn22AuN
_chemical_formula_sum   'Zr6 Zn22 Au1 N1'
_cell_volume   470.28308834
_cell_formula_units_Z   1
loop_
 _symmetry_equiv_pos_site_id
 _symmetry_equiv_pos_as_xyz
  1  'x, y, z'
loop_
 _atom_site_type_symbol
 _atom_site_label
 _atom_site_symmetry_multiplicity
 _atom_site_fract_x
 _atom_site_fract_y
 _atom_site_fract_z
 _atom_site_occupancy
  Zr  Zr0  1  0.689471  0.311984  0.311980  1
  Zr  Zr1  1  0.312999  0.687946  0.687949  1
  Zr  Zr2  1  0.311983  0.689472  0.311981  1
  Zr  Zr3  1  0.687945  0.313000  0.687950  1
  Zr  Zr4  1  0.311978  0.311980  0.689469  1
  Zr  Zr5  1  0.687952  0.687953  0.312999  1
  Zn  Zn6  1  0.878019  0.878018  0.878019  1
  Zn  Zn7  1  0.121904  0.121903  0.636775  1
  Zn  Zn8  1  0.121904  0.636776  0.121903  1
  Zn  Zn9  1  0.880467  0.880466  0.359442  1
  Zn  Zn10  1  0.880467  0.359441  0.880467  1
  Zn  Zn11  1  0.636776  0.121903  0.121904  1
  Zn  Zn12  1  0.359442  0.880467  0.880466  1
  Zn  Zn13  1  0.504439  0.999586  0.999586  1
  Zn  Zn14  1  0.000494  0.500481  0.500481  1
  Zn  Zn15  1  0.999587  0.504439  0.999586  1
  Zn  Zn16  1  0.500481  0.000494  0.500481  1
  Zn  Zn17  1  0.999587  0.999587  0.504438  1
  Zn  Zn18  1  0.500482  0.500482  0.000493  1
  Zn  Zn19  1  0.332760  0.332760  0.332760  1
  Zn  Zn20  1  0.668776  0.668776  0.668776  1
  Zn  Zn21  1  0.331444  0.331443  0.007044  1
  Zn  Zn22  1  0.331444  0.007044  0.331444  1
  Zn  Zn23  1  0.668287  0.668287  0.995007  1
  Zn  Zn24  1  0.668288  0.995006  0.668287  1
  Zn  Zn25  1  0.007045  0.331444  0.331443  1
  Zn  Zn26  1  0.995007  0.668287  0.668287  1
  Zn  Zn27  1  0.994869  0.994870  0.994868  1
  Au  Au28  1  0.115565  0.115565  0.115578  1
  N  N29  1  0.500139  0.500141  0.500133  1
