# generated using pymatgen
data_K5SiAs3
_symmetry_space_group_name_H-M   'P 1'
_cell_length_a   5.31441600
_cell_length_b   14.63878400
_cell_length_c   15.64166900
_cell_angle_alpha   90.00000000
_cell_angle_beta   90.00000000
_cell_angle_gamma   90.00000000
_symmetry_Int_Tables_number   1
_chemical_formula_structural   K5SiAs3
_chemical_formula_sum   'K20 Si4 As12'
_cell_volume   1216.86847742
_cell_formula_units_Z   4
loop_
 _symmetry_equiv_pos_site_id
 _symmetry_equiv_pos_as_xyz
  1  'x, y, z'
loop_
 _atom_site_type_symbol
 _atom_site_label
 _atom_site_symmetry_multiplicity
 _atom_site_fract_x
 _atom_site_fract_y
 _atom_site_fract_z
 _atom_site_occupancy
  K  K0  1  0.250000  0.950394  0.299811  1
  K  K1  1  0.750000  0.049606  0.700189  1
  K  K2  1  0.750000  0.450394  0.200189  1
  K  K3  1  0.250000  0.549606  0.799811  1
  K  K4  1  0.250000  0.120168  0.517716  1
  K  K5  1  0.750000  0.879832  0.482284  1
  K  K6  1  0.750000  0.620168  0.982284  1
  K  K7  1  0.250000  0.379832  0.017716  1
  K  K8  1  0.250000  0.424074  0.568047  1
  K  K9  1  0.750000  0.575926  0.431953  1
  K  K10  1  0.750000  0.924074  0.931953  1
  K  K11  1  0.250000  0.075926  0.068047  1
  K  K12  1  0.250000  0.817729  0.085168  1
  K  K13  1  0.750000  0.182271  0.914832  1
  K  K14  1  0.750000  0.317729  0.414832  1
  K  K15  1  0.250000  0.682271  0.585168  1
  K  K16  1  0.250000  0.235713  0.262508  1
  K  K17  1  0.750000  0.764287  0.737492  1
  K  K18  1  0.750000  0.735713  0.237492  1
  K  K19  1  0.250000  0.264287  0.762508  1
  Si  Si20  1  0.250000  0.587416  0.283839  1
  Si  Si21  1  0.750000  0.412584  0.716161  1
  Si  Si22  1  0.750000  0.087416  0.216161  1
  Si  Si23  1  0.250000  0.912584  0.783839  1
  As  As24  1  0.250000  0.592582  0.134608  1
  As  As25  1  0.750000  0.407418  0.865392  1
  As  As26  1  0.750000  0.092582  0.365392  1
  As  As27  1  0.250000  0.907418  0.634608  1
  As  As28  1  0.250000  0.446753  0.350942  1
  As  As29  1  0.750000  0.553247  0.649058  1
  As  As30  1  0.750000  0.946753  0.149058  1
  As  As31  1  0.250000  0.053247  0.850942  1
  As  As32  1  0.250000  0.719053  0.368333  1
  As  As33  1  0.750000  0.280947  0.631667  1
  As  As34  1  0.750000  0.219053  0.131667  1
  As  As35  1  0.250000  0.780947  0.868333  1
