# generated using pymatgen
data_Y4Ga18Ru2Pt3Rh
_symmetry_space_group_name_H-M   'P 1'
_cell_length_a   7.60443652
_cell_length_b   7.60440719
_cell_length_c   9.51234790
_cell_angle_alpha   90.02526000
_cell_angle_beta   90.02498082
_cell_angle_gamma   119.57350074
_symmetry_Int_Tables_number   1
_chemical_formula_structural   Y4Ga18Ru2Pt3Rh
_chemical_formula_sum   'Y4 Ga18 Ru2 Pt3 Rh1'
_cell_volume   478.41089398
_cell_formula_units_Z   1
loop_
 _symmetry_equiv_pos_site_id
 _symmetry_equiv_pos_as_xyz
  1  'x, y, z'
loop_
 _atom_site_type_symbol
 _atom_site_label
 _atom_site_symmetry_multiplicity
 _atom_site_fract_x
 _atom_site_fract_y
 _atom_site_fract_z
 _atom_site_occupancy
  Y  Y0  1  0.998601  0.668458  0.249711  1
  Y  Y1  1  0.002427  0.332418  0.750046  1
  Y  Y2  1  0.667583  0.997574  0.249954  1
  Y  Y3  1  0.331541  0.001398  0.750290  1
  Ga  Ga4  1  0.120032  0.120788  0.249616  1
  Ga  Ga5  1  0.879213  0.879967  0.750384  1
  Ga  Ga6  1  0.995832  0.329647  0.080415  1
  Ga  Ga7  1  0.995827  0.666485  0.919592  1
  Ga  Ga8  1  0.999265  0.670297  0.582293  1
  Ga  Ga9  1  0.329702  0.000735  0.417708  1
  Ga  Ga10  1  0.000013  0.329887  0.418123  1
  Ga  Ga11  1  0.670115  0.999986  0.581878  1
  Ga  Ga12  1  0.670351  0.004164  0.919584  1
  Ga  Ga13  1  0.333517  0.004175  0.080407  1
  Ga  Ga14  1  0.326161  0.325967  0.566795  1
  Ga  Ga15  1  0.674031  0.673836  0.433205  1
  Ga  Ga16  1  0.675069  0.671382  0.064408  1
  Ga  Ga17  1  0.328620  0.324930  0.935592  1
  Ga  Ga18  1  0.342258  0.542641  0.249435  1
  Ga  Ga19  1  0.657162  0.453232  0.753403  1
  Ga  Ga20  1  0.546767  0.342838  0.246599  1
  Ga  Ga21  1  0.457361  0.657745  0.750567  1
  Ru  Ru22  1  0.999838  0.000161  0.000000  1
  Ru  Ru23  1  0.999917  0.000090  0.500000  1
  Pt  Pt24  1  0.328197  0.671802  0.999998  1
  Pt  Pt25  1  0.328465  0.671530  0.499998  1
  Pt  Pt26  1  0.670996  0.329005  0.499999  1
  Rh  Rh27  1  0.671139  0.328861  0.000000  1
