# generated using pymatgen
data_Pa2Al20Cr3Os
_symmetry_space_group_name_H-M   'P 1'
_cell_length_a   6.85537340
_cell_length_b   6.84708507
_cell_length_c   9.09855693
_cell_angle_alpha   90.06178835
_cell_angle_beta   90.10640951
_cell_angle_gamma   97.66646318
_symmetry_Int_Tables_number   1
_chemical_formula_structural   Pa2Al20Cr3Os
_chemical_formula_sum   'Pa2 Al20 Cr3 Os1'
_cell_volume   423.26153634
_cell_formula_units_Z   1
loop_
 _symmetry_equiv_pos_site_id
 _symmetry_equiv_pos_as_xyz
  1  'x, y, z'
loop_
 _atom_site_type_symbol
 _atom_site_label
 _atom_site_symmetry_multiplicity
 _atom_site_fract_x
 _atom_site_fract_y
 _atom_site_fract_z
 _atom_site_occupancy
  Pa  Pa0  1  0.864773  0.125461  0.753686  1
  Pa  Pa1  1  0.135227  0.874539  0.246314  1
  Al  Al2  1  0.520912  0.784074  0.748959  1
  Al  Al3  1  0.786097  0.524042  0.248066  1
  Al  Al4  1  0.479088  0.215926  0.251041  1
  Al  Al5  1  0.213903  0.475958  0.751934  1
  Al  Al6  1  0.625417  0.375339  0.956327  1
  Al  Al7  1  0.374583  0.624661  0.043673  1
  Al  Al8  1  0.621839  0.373295  0.543892  1
  Al  Al9  1  0.378161  0.626705  0.456108  1
  Al  Al10  1  0.408950  0.138010  0.749248  1
  Al  Al11  1  0.138216  0.407201  0.247272  1
  Al  Al12  1  0.591050  0.861990  0.250752  1
  Al  Al13  1  0.861784  0.592799  0.752728  1
  Al  Al14  1  0.842970  0.152124  0.400872  1
  Al  Al15  1  0.157030  0.847876  0.599128  1
  Al  Al16  1  0.843266  0.157462  0.099699  1
  Al  Al17  1  0.156734  0.842538  0.900301  1
  Al  Al18  1  0.773032  0.772580  0.002025  1
  Al  Al19  1  0.773169  0.777026  0.501909  1
  Al  Al20  1  0.226968  0.227420  0.997975  1
  Al  Al21  1  0.226831  0.222974  0.498091  1
  Cr  Cr22  1  0.500000  0.000000  0.000000  1
  Cr  Cr23  1  0.000000  0.500000  0.000000  1
  Cr  Cr24  1  0.500000  0.000000  0.500000  1
  Os  Os25  1  0.000000  0.500000  0.500000  1
