# generated using pymatgen
data_Tb2PrCo(P3Rh4)2
_symmetry_space_group_name_H-M   'P 1'
_cell_length_a   3.88800700
_cell_length_b   11.19466700
_cell_length_c   12.88510700
_cell_angle_alpha   90.00000000
_cell_angle_beta   90.00000000
_cell_angle_gamma   90.00000000
_symmetry_Int_Tables_number   1
_chemical_formula_structural   Tb2PrCo(P3Rh4)2
_chemical_formula_sum   'Tb4 Pr2 Co2 P12 Rh16'
_cell_volume   560.82355621
_cell_formula_units_Z   2
loop_
 _symmetry_equiv_pos_site_id
 _symmetry_equiv_pos_as_xyz
  1  'x, y, z'
loop_
 _atom_site_type_symbol
 _atom_site_label
 _atom_site_symmetry_multiplicity
 _atom_site_fract_x
 _atom_site_fract_y
 _atom_site_fract_z
 _atom_site_occupancy
  Tb  Tb0  1  0.500000  0.815188  0.200931  1
  Tb  Tb1  1  0.500000  0.184812  0.200931  1
  Tb  Tb2  1  0.000000  0.684812  0.799069  1
  Tb  Tb3  1  0.000000  0.315188  0.799069  1
  Pr  Pr4  1  0.000000  0.500000  0.522107  1
  Pr  Pr5  1  0.500000  0.000000  0.477893  1
  Co  Co6  1  0.000000  0.500000  0.980849  1
  Co  Co7  1  0.500000  0.000000  0.019151  1
  P  P8  1  0.500000  0.500000  0.883507  1
  P  P9  1  0.000000  0.000000  0.116493  1
  P  P10  1  0.500000  0.500000  0.346570  1
  P  P11  1  0.000000  0.000000  0.653430  1
  P  P12  1  0.500000  0.313631  0.621133  1
  P  P13  1  0.500000  0.686369  0.621133  1
  P  P14  1  0.000000  0.186369  0.378867  1
  P  P15  1  0.000000  0.813631  0.378867  1
  P  P16  1  0.500000  0.853088  0.896649  1
  P  P17  1  0.500000  0.146912  0.896649  1
  P  P18  1  0.000000  0.646912  0.103351  1
  P  P19  1  0.000000  0.353088  0.103351  1
  Rh  Rh20  1  0.500000  0.500000  0.166128  1
  Rh  Rh21  1  0.000000  0.000000  0.833872  1
  Rh  Rh22  1  0.500000  0.500000  0.706968  1
  Rh  Rh23  1  0.000000  0.000000  0.293032  1
  Rh  Rh24  1  0.500000  0.336618  0.994541  1
  Rh  Rh25  1  0.500000  0.663382  0.994541  1
  Rh  Rh26  1  0.000000  0.163382  0.005459  1
  Rh  Rh27  1  0.000000  0.836618  0.005459  1
  Rh  Rh28  1  0.500000  0.292123  0.428726  1
  Rh  Rh29  1  0.500000  0.707877  0.428726  1
  Rh  Rh30  1  0.000000  0.207877  0.571274  1
  Rh  Rh31  1  0.000000  0.792123  0.571274  1
  Rh  Rh32  1  0.500000  0.873663  0.713985  1
  Rh  Rh33  1  0.500000  0.126337  0.713985  1
  Rh  Rh34  1  0.000000  0.626337  0.286015  1
  Rh  Rh35  1  0.000000  0.373663  0.286015  1
