# generated using pymatgen
data_SmCu3AgPt
_symmetry_space_group_name_H-M   'P 1'
_cell_length_a   5.20337876
_cell_length_b   5.20337924
_cell_length_c   5.20337860
_cell_angle_alpha   59.18583060
_cell_angle_beta   59.18582886
_cell_angle_gamma   59.18582277
_symmetry_Int_Tables_number   1
_chemical_formula_structural   SmCu3AgPt
_chemical_formula_sum   'Sm1 Cu3 Ag1 Pt1'
_cell_volume   97.77074384
_cell_formula_units_Z   1
loop_
 _symmetry_equiv_pos_site_id
 _symmetry_equiv_pos_as_xyz
  1  'x, y, z'
loop_
 _atom_site_type_symbol
 _atom_site_label
 _atom_site_symmetry_multiplicity
 _atom_site_fract_x
 _atom_site_fract_y
 _atom_site_fract_z
 _atom_site_occupancy
  Sm  Sm0  1  0.001265  0.001265  0.001265  1
  Cu  Cu1  1  0.871155  0.374975  0.374975  1
  Cu  Cu2  1  0.374975  0.871155  0.374975  1
  Cu  Cu3  1  0.374975  0.374975  0.871155  1
  Ag  Ag4  1  0.753242  0.753242  0.753242  1
  Pt  Pt5  1  0.374388  0.374388  0.374388  1
