# generated using pymatgen
data_HoTmLu2(B6Rh)2
_symmetry_space_group_name_H-M   'P 1'
_cell_length_a   3.60997400
_cell_length_b   9.09643500
_cell_length_c   11.43035623
_cell_angle_alpha   89.98776633
_cell_angle_beta   90.00000000
_cell_angle_gamma   90.00000000
_symmetry_Int_Tables_number   1
_chemical_formula_structural   HoTmLu2(B6Rh)2
_chemical_formula_sum   'Ho2 Tm2 Lu4 B24 Rh4'
_cell_volume   375.34881587
_cell_formula_units_Z   2
loop_
 _symmetry_equiv_pos_site_id
 _symmetry_equiv_pos_as_xyz
  1  'x, y, z'
loop_
 _atom_site_type_symbol
 _atom_site_label
 _atom_site_symmetry_multiplicity
 _atom_site_fract_x
 _atom_site_fract_y
 _atom_site_fract_z
 _atom_site_occupancy
  Ho  Ho0  1  0.500000  0.178463  0.913795  1
  Ho  Ho1  1  0.500000  0.821537  0.086205  1
  Tm  Tm2  1  0.500000  0.321243  0.413909  1
  Tm  Tm3  1  0.500000  0.678757  0.586091  1
  Lu  Lu4  1  0.500000  0.444265  0.126931  1
  Lu  Lu5  1  0.500000  0.555735  0.873069  1
  Lu  Lu6  1  0.500000  0.055707  0.626579  1
  Lu  Lu7  1  0.500000  0.944293  0.373421  1
  B  B8  1  0.000000  0.107151  0.471094  1
  B  B9  1  0.000000  0.892849  0.528906  1
  B  B10  1  0.000000  0.393929  0.971378  1
  B  B11  1  0.000000  0.606071  0.028622  1
  B  B12  1  0.000000  0.132590  0.317238  1
  B  B13  1  0.000000  0.867410  0.682762  1
  B  B14  1  0.000000  0.367863  0.816671  1
  B  B15  1  0.000000  0.632137  0.183329  1
  B  B16  1  0.000000  0.054289  0.065496  1
  B  B17  1  0.000000  0.945711  0.934504  1
  B  B18  1  0.000000  0.445848  0.564848  1
  B  B19  1  0.000000  0.554152  0.435152  1
  B  B20  1  0.000000  0.482080  0.286581  1
  B  B21  1  0.000000  0.517920  0.713419  1
  B  B22  1  0.000000  0.017513  0.785908  1
  B  B23  1  0.000000  0.982487  0.214092  1
  B  B24  1  0.000000  0.250870  0.079852  1
  B  B25  1  0.000000  0.749130  0.920148  1
  B  B26  1  0.000000  0.249500  0.579138  1
  B  B27  1  0.000000  0.750500  0.420862  1
  B  B28  1  0.000000  0.295006  0.236746  1
  B  B29  1  0.000000  0.704994  0.763254  1
  B  B30  1  0.000000  0.205352  0.735773  1
  B  B31  1  0.000000  0.794648  0.264227  1
  Rh  Rh32  1  0.500000  0.140523  0.180273  1
  Rh  Rh33  1  0.500000  0.859477  0.819727  1
  Rh  Rh34  1  0.500000  0.360567  0.679094  1
  Rh  Rh35  1  0.500000  0.639433  0.320906  1
