# generated using pymatgen
data_Tb8Tm12Si15Ru
_symmetry_space_group_name_H-M   'P 1'
_cell_length_a   7.30823291
_cell_length_b   7.71357568
_cell_length_c   14.46272400
_cell_angle_alpha   90.00000000
_cell_angle_beta   90.00000000
_cell_angle_gamma   90.06403695
_symmetry_Int_Tables_number   1
_chemical_formula_structural   Tb8Tm12Si15Ru
_chemical_formula_sum   'Tb8 Tm12 Si15 Ru1'
_cell_volume   815.30095618
_cell_formula_units_Z   1
loop_
 _symmetry_equiv_pos_site_id
 _symmetry_equiv_pos_as_xyz
  1  'x, y, z'
loop_
 _atom_site_type_symbol
 _atom_site_label
 _atom_site_symmetry_multiplicity
 _atom_site_fract_x
 _atom_site_fract_y
 _atom_site_fract_z
 _atom_site_occupancy
  Tb  Tb0  1  0.017513  0.183099  0.096609  1
  Tb  Tb1  1  0.985339  0.826393  0.905089  1
  Tb  Tb2  1  0.484203  0.679605  0.904838  1
  Tb  Tb3  1  0.985339  0.826393  0.594911  1
  Tb  Tb4  1  0.516580  0.319492  0.096229  1
  Tb  Tb5  1  0.017513  0.183099  0.403391  1
  Tb  Tb6  1  0.516580  0.319492  0.403771  1
  Tb  Tb7  1  0.484203  0.679605  0.595162  1
  Tm  Tm8  1  0.156027  0.513164  0.750000  1
  Tm  Tm9  1  0.840102  0.487928  0.250000  1
  Tm  Tm10  1  0.340479  0.014124  0.250000  1
  Tm  Tm11  1  0.667312  0.989287  0.750000  1
  Tm  Tm12  1  0.312535  0.173059  0.627492  1
  Tm  Tm13  1  0.675777  0.824447  0.375339  1
  Tm  Tm14  1  0.174905  0.679613  0.375454  1
  Tm  Tm15  1  0.675777  0.824447  0.124661  1
  Tm  Tm16  1  0.836492  0.314857  0.626740  1
  Tm  Tm17  1  0.312535  0.173059  0.872508  1
  Tm  Tm18  1  0.836492  0.314857  0.873260  1
  Tm  Tm19  1  0.174905  0.679613  0.124546  1
  Si  Si20  1  0.970277  0.892877  0.250000  1
  Si  Si21  1  0.472011  0.608554  0.250000  1
  Si  Si22  1  0.528163  0.394297  0.750000  1
  Si  Si23  1  0.280108  0.866349  0.750000  1
  Si  Si24  1  0.719332  0.130267  0.250000  1
  Si  Si25  1  0.221821  0.371850  0.250000  1
  Si  Si26  1  0.770789  0.623991  0.750000  1
  Si  Si27  1  0.157657  0.472218  0.537490  1
  Si  Si28  1  0.846628  0.532709  0.462459  1
  Si  Si29  1  0.345983  0.969089  0.460981  1
  Si  Si30  1  0.846628  0.532709  0.037541  1
  Si  Si31  1  0.650428  0.031949  0.538285  1
  Si  Si32  1  0.157657  0.472218  0.962510  1
  Si  Si33  1  0.650428  0.031949  0.961715  1
  Si  Si34  1  0.345983  0.969089  0.039019  1
  Ru  Ru35  1  0.025501  0.094249  0.750000  1
