# generated using pymatgen
data_Tb3Pa(VB4)4
_symmetry_space_group_name_H-M   'P 1'
_cell_length_a   3.49718600
_cell_length_b   6.00429126
_cell_length_c   11.62368745
_cell_angle_alpha   90.07436817
_cell_angle_beta   90.00000000
_cell_angle_gamma   90.00000000
_symmetry_Int_Tables_number   1
_chemical_formula_structural   Tb3Pa(VB4)4
_chemical_formula_sum   'Tb3 Pa1 V4 B16'
_cell_volume   244.07541721
_cell_formula_units_Z   1
loop_
 _symmetry_equiv_pos_site_id
 _symmetry_equiv_pos_as_xyz
  1  'x, y, z'
loop_
 _atom_site_type_symbol
 _atom_site_label
 _atom_site_symmetry_multiplicity
 _atom_site_fract_x
 _atom_site_fract_y
 _atom_site_fract_z
 _atom_site_occupancy
  Tb  Tb0  1  0.000000  0.874619  0.848114  1
  Tb  Tb1  1  0.000000  0.623441  0.350326  1
  Tb  Tb2  1  0.000000  0.375659  0.650782  1
  Pa  Pa3  1  0.000000  0.125650  0.151169  1
  V  V4  1  0.000000  0.125846  0.415641  1
  V  V5  1  0.000000  0.873102  0.582077  1
  V  V6  1  0.000000  0.627401  0.083777  1
  V  V7  1  0.000000  0.372183  0.918787  1
  B  B8  1  0.500000  0.474096  0.191096  1
  B  B9  1  0.500000  0.523115  0.807662  1
  B  B10  1  0.500000  0.977043  0.308573  1
  B  B11  1  0.500000  0.023668  0.692018  1
  B  B12  1  0.500000  0.283999  0.314494  1
  B  B13  1  0.500000  0.714968  0.685638  1
  B  B14  1  0.500000  0.785122  0.184590  1
  B  B15  1  0.500000  0.216455  0.814044  1
  B  B16  1  0.500000  0.364503  0.467548  1
  B  B17  1  0.500000  0.635906  0.532622  1
  B  B18  1  0.500000  0.864517  0.033015  1
  B  B19  1  0.500000  0.137073  0.967696  1
  B  B20  1  0.500000  0.387304  0.046697  1
  B  B21  1  0.500000  0.613873  0.952939  1
  B  B22  1  0.500000  0.886109  0.453606  1
  B  B23  1  0.500000  0.114350  0.547090  1
