# generated using pymatgen
data_P3PdO9
_symmetry_space_group_name_H-M   'P 1'
_cell_length_a   5.14636406
_cell_length_b   7.08280934
_cell_length_c   10.53773290
_cell_angle_alpha   98.15087984
_cell_angle_beta   92.25291610
_cell_angle_gamma   90.70376094
_symmetry_Int_Tables_number   1
_chemical_formula_structural   P3PdO9
_chemical_formula_sum   'P6 Pd2 O18'
_cell_volume   379.87188676
_cell_formula_units_Z   2
loop_
 _symmetry_equiv_pos_site_id
 _symmetry_equiv_pos_as_xyz
  1  'x, y, z'
loop_
 _atom_site_type_symbol
 _atom_site_label
 _atom_site_symmetry_multiplicity
 _atom_site_fract_x
 _atom_site_fract_y
 _atom_site_fract_z
 _atom_site_occupancy
  P  P0  1  0.485351  0.325737  0.637553  1
  P  P1  1  0.514649  0.674263  0.362447  1
  P  P2  1  0.471885  0.037531  0.820911  1
  P  P3  1  0.528115  0.962469  0.179089  1
  P  P4  1  0.242968  0.324595  0.231012  1
  P  P5  1  0.757032  0.675405  0.768988  1
  Pd  Pd6  1  0.000000  0.000000  0.000000  1
  Pd  Pd7  1  0.000000  0.500000  0.500000  1
  O  O8  1  0.336726  0.883216  0.071351  1
  O  O9  1  0.663274  0.116784  0.928649  1
  O  O10  1  0.476320  0.871815  0.306450  1
  O  O11  1  0.523680  0.128185  0.693550  1
  O  O12  1  0.606961  0.474164  0.756630  1
  O  O13  1  0.393039  0.525836  0.243370  1
  O  O14  1  0.901767  0.697744  0.648806  1
  O  O15  1  0.098233  0.302256  0.351194  1
  O  O16  1  0.640530  0.320925  0.520212  1
  O  O17  1  0.359470  0.679075  0.479788  1
  O  O18  1  0.487897  0.181848  0.228458  1
  O  O19  1  0.512103  0.818152  0.771542  1
  O  O20  1  0.903233  0.707257  0.896071  1
  O  O21  1  0.096767  0.292743  0.103929  1
  O  O22  1  0.814870  0.930306  0.153529  1
  O  O23  1  0.185130  0.069694  0.846471  1
  O  O24  1  0.807683  0.647034  0.372369  1
  O  O25  1  0.192317  0.352966  0.627631  1
