# generated using pymatgen
data_Nd4Ho4OsPt3
_symmetry_space_group_name_H-M   'P 1'
_cell_length_a   4.74729700
_cell_length_b   7.31994307
_cell_length_c   8.91753137
_cell_angle_alpha   87.88540296
_cell_angle_beta   90.00000000
_cell_angle_gamma   90.00000000
_symmetry_Int_Tables_number   1
_chemical_formula_structural   Nd4Ho4OsPt3
_chemical_formula_sum   'Nd4 Ho4 Os1 Pt3'
_cell_volume   309.67269100
_cell_formula_units_Z   1
loop_
 _symmetry_equiv_pos_site_id
 _symmetry_equiv_pos_as_xyz
  1  'x, y, z'
loop_
 _atom_site_type_symbol
 _atom_site_label
 _atom_site_symmetry_multiplicity
 _atom_site_fract_x
 _atom_site_fract_y
 _atom_site_fract_z
 _atom_site_occupancy
  Nd  Nd0  1  0.750000  0.488387  0.175091  1
  Nd  Nd1  1  0.250000  0.000803  0.668134  1
  Nd  Nd2  1  0.750000  0.981956  0.335605  1
  Nd  Nd3  1  0.250000  0.527847  0.817857  1
  Ho  Ho4  1  0.750000  0.866997  0.920798  1
  Ho  Ho5  1  0.250000  0.639139  0.424988  1
  Ho  Ho6  1  0.750000  0.350900  0.581439  1
  Ho  Ho7  1  0.250000  0.143409  0.076891  1
  Os  Os8  1  0.750000  0.740424  0.596113  1
  Pt  Pt9  1  0.750000  0.253939  0.911919  1
  Pt  Pt10  1  0.250000  0.251974  0.401700  1
  Pt  Pt11  1  0.250000  0.754227  0.089466  1
