# generated using pymatgen
data_Pr5SmCo16(MoP6)2
_symmetry_space_group_name_H-M   'P 1'
_cell_length_a   3.78893200
_cell_length_b   10.72312866
_cell_length_c   12.46229983
_cell_angle_alpha   90.06292462
_cell_angle_beta   90.00000000
_cell_angle_gamma   90.00000000
_symmetry_Int_Tables_number   1
_chemical_formula_structural   Pr5SmCo16(MoP6)2
_chemical_formula_sum   'Pr5 Sm1 Co16 Mo2 P12'
_cell_volume   506.33303317
_cell_formula_units_Z   1
loop_
 _symmetry_equiv_pos_site_id
 _symmetry_equiv_pos_as_xyz
  1  'x, y, z'
loop_
 _atom_site_type_symbol
 _atom_site_label
 _atom_site_symmetry_multiplicity
 _atom_site_fract_x
 _atom_site_fract_y
 _atom_site_fract_z
 _atom_site_occupancy
  Pr  Pr0  1  0.000000  0.500097  0.524058  1
  Pr  Pr1  1  0.500000  0.999833  0.476392  1
  Pr  Pr2  1  0.500000  0.818580  0.204858  1
  Pr  Pr3  1  0.500000  0.181200  0.205872  1
  Pr  Pr4  1  0.000000  0.680939  0.794566  1
  Sm  Sm5  1  0.000000  0.318343  0.795248  1
  Co  Co6  1  0.500000  0.498010  0.704327  1
  Co  Co7  1  0.000000  0.000230  0.296327  1
  Co  Co8  1  0.000000  0.498785  0.986963  1
  Co  Co9  1  0.500000  0.000978  0.011356  1
  Co  Co10  1  0.500000  0.331946  0.990622  1
  Co  Co11  1  0.500000  0.666868  0.991219  1
  Co  Co12  1  0.000000  0.168605  0.007353  1
  Co  Co13  1  0.000000  0.832344  0.007505  1
  Co  Co14  1  0.500000  0.295997  0.432263  1
  Co  Co15  1  0.500000  0.704095  0.430898  1
  Co  Co16  1  0.000000  0.204494  0.570901  1
  Co  Co17  1  0.000000  0.795765  0.569075  1
  Co  Co18  1  0.500000  0.881535  0.708379  1
  Co  Co19  1  0.500000  0.120562  0.709749  1
  Co  Co20  1  0.000000  0.618886  0.291231  1
  Co  Co21  1  0.000000  0.380925  0.291980  1
  Mo  Mo22  1  0.500000  0.499487  0.153627  1
  Mo  Mo23  1  0.000000  0.000791  0.845923  1
  P  P24  1  0.500000  0.498195  0.885049  1
  P  P25  1  0.000000  0.000469  0.112934  1
  P  P26  1  0.500000  0.499874  0.343616  1
  P  P27  1  0.000000  0.000378  0.656477  1
  P  P28  1  0.500000  0.306582  0.616391  1
  P  P29  1  0.500000  0.694034  0.613799  1
  P  P30  1  0.000000  0.194532  0.387360  1
  P  P31  1  0.000000  0.805735  0.386000  1
  P  P32  1  0.500000  0.847142  0.895713  1
  P  P33  1  0.500000  0.154448  0.894406  1
  P  P34  1  0.000000  0.652448  0.103279  1
  P  P35  1  0.000000  0.346870  0.104281  1
