# generated using pymatgen
data_Dy3Zr7Pb6
_symmetry_space_group_name_H-M   'P 1'
_cell_length_a   8.82681300
_cell_length_b   8.82827316
_cell_length_c   5.99723000
_cell_angle_alpha   90.00000000
_cell_angle_beta   90.00000000
_cell_angle_gamma   119.99453266
_symmetry_Int_Tables_number   1
_chemical_formula_structural   Dy3Zr7Pb6
_chemical_formula_sum   'Dy3 Zr7 Pb6'
_cell_volume   404.74822086
_cell_formula_units_Z   1
loop_
 _symmetry_equiv_pos_site_id
 _symmetry_equiv_pos_as_xyz
  1  'x, y, z'
loop_
 _atom_site_type_symbol
 _atom_site_label
 _atom_site_symmetry_multiplicity
 _atom_site_fract_x
 _atom_site_fract_y
 _atom_site_fract_z
 _atom_site_occupancy
  Dy  Dy0  1  0.760855  0.758608  0.250000  1
  Dy  Dy1  1  0.002247  0.241392  0.250000  1
  Dy  Dy2  1  0.760606  0.000000  0.750000  1
  Zr  Zr3  1  0.331099  0.666833  0.501305  1
  Zr  Zr4  1  0.244067  0.000000  0.250000  1
  Zr  Zr5  1  0.664267  0.333167  0.501305  1
  Zr  Zr6  1  0.002554  0.755875  0.750000  1
  Zr  Zr7  1  0.331099  0.666833  0.998695  1
  Zr  Zr8  1  0.246679  0.244125  0.750000  1
  Zr  Zr9  1  0.664267  0.333167  0.998695  1
  Pb  Pb10  1  0.606364  0.604526  0.750000  1
  Pb  Pb11  1  0.387831  0.000000  0.750000  1
  Pb  Pb12  1  0.599648  0.000000  0.250000  1
  Pb  Pb13  1  0.001838  0.395474  0.750000  1
  Pb  Pb14  1  0.394219  0.391860  0.250000  1
  Pb  Pb15  1  0.002359  0.608140  0.250000  1
