# generated using pymatgen
data_NaTb2Dy(Si5Pt3)2
_symmetry_space_group_name_H-M   'P 1'
_cell_length_a   8.23179773
_cell_length_b   8.27850131
_cell_length_c   8.27850000
_cell_angle_alpha   137.24729961
_cell_angle_beta   104.60420070
_cell_angle_gamma   90.86386427
_symmetry_Int_Tables_number   1
_chemical_formula_structural   NaTb2Dy(Si5Pt3)2
_chemical_formula_sum   'Na1 Tb2 Dy1 Si10 Pt6'
_cell_volume   352.96090038
_cell_formula_units_Z   1
loop_
 _symmetry_equiv_pos_site_id
 _symmetry_equiv_pos_as_xyz
  1  'x, y, z'
loop_
 _atom_site_type_symbol
 _atom_site_label
 _atom_site_symmetry_multiplicity
 _atom_site_fract_x
 _atom_site_fract_y
 _atom_site_fract_z
 _atom_site_occupancy
  Na  Na0  1  0.864212  0.628197  0.236015  1
  Tb  Tb1  1  0.397156  0.129355  0.267800  1
  Tb  Tb2  1  0.605883  0.874179  0.731705  1
  Dy  Dy3  1  0.139136  0.369220  0.769916  1
  Si  Si4  1  0.500626  0.746407  0.247457  1
  Si  Si5  1  0.500626  0.253168  0.754218  1
  Si  Si6  1  0.227676  0.979854  0.748043  1
  Si  Si7  1  0.770465  0.521042  0.749885  1
  Si  Si8  1  0.770465  0.020580  0.249423  1
  Si  Si9  1  0.227676  0.479632  0.247822  1
  Si  Si10  1  0.040139  0.887744  0.152395  1
  Si  Si11  1  0.959199  0.111989  0.847209  1
  Si  Si12  1  0.739352  0.389911  0.349441  1
  Si  Si13  1  0.259186  0.609854  0.649332  1
  Pt  Pt14  1  0.001762  0.753121  0.756105  1
  Pt  Pt15  1  0.001762  0.245656  0.248641  1
  Pt  Pt16  1  0.249603  0.863476  0.386127  1
  Pt  Pt17  1  0.747850  0.136732  0.611116  1
  Pt  Pt18  1  0.476516  0.362715  0.113799  1
  Pt  Pt19  1  0.520713  0.637165  0.883548  1
