# generated using pymatgen
data_Ni2Ag4SnPbO8
_symmetry_space_group_name_H-M   'P 1'
_cell_length_a   5.57406596
_cell_length_b   6.39870505
_cell_length_c   7.36433426
_cell_angle_alpha   64.13547346
_cell_angle_beta   104.55859817
_cell_angle_gamma   90.02326574
_symmetry_Int_Tables_number   1
_chemical_formula_structural   Ni2Ag4SnPbO8
_chemical_formula_sum   'Ni2 Ag4 Sn1 Pb1 O8'
_cell_volume   226.95486746
_cell_formula_units_Z   1
loop_
 _symmetry_equiv_pos_site_id
 _symmetry_equiv_pos_as_xyz
  1  'x, y, z'
loop_
 _atom_site_type_symbol
 _atom_site_label
 _atom_site_symmetry_multiplicity
 _atom_site_fract_x
 _atom_site_fract_y
 _atom_site_fract_z
 _atom_site_occupancy
  Ni  Ni0  1  0.500263  0.252670  0.500075  1
  Ni  Ni1  1  0.999802  0.494497  0.499919  1
  Ag  Ag2  1  0.995600  0.003548  0.994767  1
  Ag  Ag3  1  0.498641  0.250806  0.996942  1
  Ag  Ag4  1  0.004344  0.498394  0.005254  1
  Ag  Ag5  1  0.501375  0.747794  0.003066  1
  Sn  Sn6  1  0.000032  0.012856  0.499956  1
  Pb  Pb7  1  0.499911  0.738971  0.499952  1
  O  O8  1  0.907879  0.670023  0.670808  1
  O  O9  1  0.384886  0.922110  0.669060  1
  O  O10  1  0.885735  0.167256  0.664524  1
  O  O11  1  0.379714  0.403490  0.667281  1
  O  O12  1  0.092015  0.841589  0.329182  1
  O  O13  1  0.615244  0.091946  0.330918  1
  O  O14  1  0.114399  0.332531  0.335540  1
  O  O15  1  0.620164  0.571517  0.332757  1
