# generated using pymatgen
data_Ho4CoAg
_symmetry_space_group_name_H-M   'P 1'
_cell_length_a   9.36190786
_cell_length_b   9.36190809
_cell_length_c   9.36190800
_cell_angle_alpha   60.00000031
_cell_angle_beta   59.99999952
_cell_angle_gamma   60.00000047
_symmetry_Int_Tables_number   1
_chemical_formula_structural   Ho4CoAg
_chemical_formula_sum   'Ho16 Co4 Ag4'
_cell_volume   580.20051234
_cell_formula_units_Z   4
loop_
 _symmetry_equiv_pos_site_id
 _symmetry_equiv_pos_as_xyz
  1  'x, y, z'
loop_
 _atom_site_type_symbol
 _atom_site_label
 _atom_site_symmetry_multiplicity
 _atom_site_fract_x
 _atom_site_fract_y
 _atom_site_fract_z
 _atom_site_occupancy
  Ho  Ho0  1  0.347650  0.347650  0.347650  1
  Ho  Ho1  1  0.347650  0.347650  0.957051  1
  Ho  Ho2  1  0.347650  0.957051  0.347650  1
  Ho  Ho3  1  0.957051  0.347650  0.347650  1
  Ho  Ho4  1  0.811338  0.188662  0.188662  1
  Ho  Ho5  1  0.188662  0.811338  0.811338  1
  Ho  Ho6  1  0.188662  0.811338  0.188662  1
  Ho  Ho7  1  0.811338  0.188662  0.811338  1
  Ho  Ho8  1  0.188662  0.188662  0.811338  1
  Ho  Ho9  1  0.811338  0.811338  0.188662  1
  Ho  Ho10  1  0.937226  0.562774  0.562774  1
  Ho  Ho11  1  0.562774  0.937226  0.937226  1
  Ho  Ho12  1  0.562774  0.937226  0.562774  1
  Ho  Ho13  1  0.937226  0.562774  0.937226  1
  Ho  Ho14  1  0.562774  0.562774  0.937226  1
  Ho  Ho15  1  0.937226  0.937226  0.562774  1
  Co  Co16  1  0.141073  0.141073  0.141073  1
  Co  Co17  1  0.141073  0.141073  0.576781  1
  Co  Co18  1  0.141073  0.576781  0.141073  1
  Co  Co19  1  0.576781  0.141073  0.141073  1
  Ag  Ag20  1  0.580834  0.580834  0.580834  1
  Ag  Ag21  1  0.580834  0.580834  0.257497  1
  Ag  Ag22  1  0.580834  0.257497  0.580834  1
  Ag  Ag23  1  0.257497  0.580834  0.580834  1
