# generated using pymatgen
data_Sc12MnInIrBr16
_symmetry_space_group_name_H-M   'P 1'
_cell_length_a   9.06341807
_cell_length_b   11.23574436
_cell_length_c   11.85319142
_cell_angle_alpha   117.15334360
_cell_angle_beta   101.83285703
_cell_angle_gamma   101.34099895
_symmetry_Int_Tables_number   1
_chemical_formula_structural   Sc12MnInIrBr16
_chemical_formula_sum   'Sc12 Mn1 In1 Ir1 Br16'
_cell_volume   991.11283904
_cell_formula_units_Z   1
loop_
 _symmetry_equiv_pos_site_id
 _symmetry_equiv_pos_as_xyz
  1  'x, y, z'
loop_
 _atom_site_type_symbol
 _atom_site_label
 _atom_site_symmetry_multiplicity
 _atom_site_fract_x
 _atom_site_fract_y
 _atom_site_fract_z
 _atom_site_occupancy
  Sc  Sc0  1  0.100718  0.250841  0.346504  1
  Sc  Sc1  1  0.903748  0.756007  0.657661  1
  Sc  Sc2  1  0.756700  0.539778  0.310540  1
  Sc  Sc3  1  0.244046  0.461499  0.684808  1
  Sc  Sc4  1  0.305901  0.750319  0.653826  1
  Sc  Sc5  1  0.693064  0.242906  0.342394  1
  Sc  Sc6  1  0.162078  0.537472  0.316583  1
  Sc  Sc7  1  0.840873  0.461310  0.688524  1
  Sc  Sc8  1  0.399630  0.356394  0.270854  1
  Sc  Sc9  1  0.590159  0.643391  0.728598  1
  Sc  Sc10  1  0.452526  0.306091  0.520391  1
  Sc  Sc11  1  0.537236  0.693965  0.479320  1
  Mn  Mn12  1  0.339751  0.499929  0.499194  1
  In  In13  1  0.000583  0.500150  0.500309  1
  Ir  Ir14  1  0.661294  0.500065  0.500644  1
  Br  Br15  1  0.401217  0.744033  0.888226  1
  Br  Br16  1  0.599723  0.257151  0.113714  1
  Br  Br17  1  0.188525  0.960830  0.781725  1
  Br  Br18  1  0.812554  0.039251  0.218292  1
  Br  Br19  1  0.340663  0.090858  0.248301  1
  Br  Br20  1  0.664385  0.909066  0.751681  1
  Br  Br21  1  0.556903  0.437767  0.801599  1
  Br  Br22  1  0.448092  0.562165  0.198198  1
  Br  Br23  1  0.312291  0.829188  0.461929  1
  Br  Br24  1  0.687637  0.171978  0.537919  1
  Br  Br25  1  0.168263  0.168191  0.532552  1
  Br  Br26  1  0.831132  0.830549  0.467523  1
  Br  Br27  1  0.927606  0.573761  0.163298  1
  Br  Br28  1  0.073660  0.426239  0.836760  1
  Br  Br29  1  0.921357  0.741693  0.886954  1
  Br  Br30  1  0.077686  0.257161  0.111178  1
