# generated using pymatgen
data_Nd4IrPdAu2
_symmetry_space_group_name_H-M   'P 1'
_cell_length_a   4.75627300
_cell_length_b   5.78468302
_cell_length_c   7.36956100
_cell_angle_alpha   88.36987437
_cell_angle_beta   90.00000000
_cell_angle_gamma   90.00000000
_symmetry_Int_Tables_number   1
_chemical_formula_structural   Nd4IrPdAu2
_chemical_formula_sum   'Nd4 Ir1 Pd1 Au2'
_cell_volume   202.68059093
_cell_formula_units_Z   1
loop_
 _symmetry_equiv_pos_site_id
 _symmetry_equiv_pos_as_xyz
  1  'x, y, z'
loop_
 _atom_site_type_symbol
 _atom_site_label
 _atom_site_symmetry_multiplicity
 _atom_site_fract_x
 _atom_site_fract_y
 _atom_site_fract_z
 _atom_site_occupancy
  Nd  Nd0  1  0.250000  0.361131  0.673704  1
  Nd  Nd1  1  0.250000  0.135743  0.196821  1
  Nd  Nd2  1  0.750000  0.650850  0.330681  1
  Nd  Nd3  1  0.750000  0.858566  0.797525  1
  Ir  Ir4  1  0.250000  0.839101  0.540509  1
  Pd  Pd5  1  0.750000  0.156996  0.457010  1
  Au  Au6  1  0.250000  0.649472  0.040396  1
  Au  Au7  1  0.750000  0.348140  0.963355  1
