# generated using pymatgen
data_Er10Hg3Os
_symmetry_space_group_name_H-M   'P 1'
_cell_length_a   9.48339202
_cell_length_b   9.48338655
_cell_length_c   9.70126500
_cell_angle_alpha   90.00000000
_cell_angle_beta   90.00000000
_cell_angle_gamma   119.99133793
_symmetry_Int_Tables_number   1
_chemical_formula_structural   Er10Hg3Os
_chemical_formula_sum   'Er20 Hg6 Os2'
_cell_volume   755.65586479
_cell_formula_units_Z   2
loop_
 _symmetry_equiv_pos_site_id
 _symmetry_equiv_pos_as_xyz
  1  'x, y, z'
loop_
 _atom_site_type_symbol
 _atom_site_label
 _atom_site_symmetry_multiplicity
 _atom_site_fract_x
 _atom_site_fract_y
 _atom_site_fract_z
 _atom_site_occupancy
  Er  Er0  1  0.000000  0.000000  0.500000  1
  Er  Er1  1  0.000000  0.000000  0.000000  1
  Er  Er2  1  0.209383  0.790618  0.440732  1
  Er  Er3  1  0.209461  0.418803  0.440809  1
  Er  Er4  1  0.581196  0.790538  0.440809  1
  Er  Er5  1  0.790617  0.209382  0.559268  1
  Er  Er6  1  0.790539  0.581197  0.559191  1
  Er  Er7  1  0.418804  0.209462  0.559191  1
  Er  Er8  1  0.790617  0.209382  0.940732  1
  Er  Er9  1  0.790539  0.581197  0.940809  1
  Er  Er10  1  0.418804  0.209462  0.940809  1
  Er  Er11  1  0.209383  0.790618  0.059268  1
  Er  Er12  1  0.209461  0.418803  0.059191  1
  Er  Er13  1  0.581196  0.790538  0.059191  1
  Er  Er14  1  0.539722  0.460277  0.250000  1
  Er  Er15  1  0.539727  0.079481  0.250000  1
  Er  Er16  1  0.920519  0.460273  0.250000  1
  Er  Er17  1  0.460278  0.539723  0.750000  1
  Er  Er18  1  0.460273  0.920519  0.750000  1
  Er  Er19  1  0.079481  0.539727  0.750000  1
  Hg  Hg20  1  0.881875  0.118124  0.250000  1
  Hg  Hg21  1  0.882033  0.763761  0.250000  1
  Hg  Hg22  1  0.236238  0.117964  0.250000  1
  Hg  Hg23  1  0.118125  0.881876  0.750000  1
  Hg  Hg24  1  0.117967  0.236239  0.750000  1
  Hg  Hg25  1  0.763762  0.882036  0.750000  1
  Os  Os26  1  0.333323  0.666676  0.250000  1
  Os  Os27  1  0.666677  0.333324  0.750000  1
