# generated using pymatgen
data_Sc6CdCo3(Sn3Pt)2
_symmetry_space_group_name_H-M   'P 1'
_cell_length_a   7.50095800
_cell_length_b   7.50095834
_cell_length_c   7.02010500
_cell_angle_alpha   90.00000000
_cell_angle_beta   90.00000000
_cell_angle_gamma   120.00000731
_symmetry_Int_Tables_number   1
_chemical_formula_structural   Sc6CdCo3(Sn3Pt)2
_chemical_formula_sum   'Sc6 Cd1 Co3 Sn6 Pt2'
_cell_volume   342.06425604
_cell_formula_units_Z   1
loop_
 _symmetry_equiv_pos_site_id
 _symmetry_equiv_pos_as_xyz
  1  'x, y, z'
loop_
 _atom_site_type_symbol
 _atom_site_label
 _atom_site_symmetry_multiplicity
 _atom_site_fract_x
 _atom_site_fract_y
 _atom_site_fract_z
 _atom_site_occupancy
  Sc  Sc0  1  0.399970  0.020620  0.237151  1
  Sc  Sc1  1  0.620651  0.600030  0.237151  1
  Sc  Sc2  1  0.979380  0.379349  0.237151  1
  Sc  Sc3  1  0.397948  0.016568  0.762840  1
  Sc  Sc4  1  0.618620  0.602052  0.762840  1
  Sc  Sc5  1  0.983432  0.381380  0.762840  1
  Cd  Cd6  1  0.333333  0.666667  0.493603  1
  Co  Co7  1  0.000000  0.000000  0.771373  1
  Co  Co8  1  0.000000  0.000000  0.229021  1
  Co  Co9  1  0.666667  0.333333  0.997290  1
  Sn  Sn10  1  0.274205  0.273856  0.999767  1
  Sn  Sn11  1  0.999652  0.725795  0.999767  1
  Sn  Sn12  1  0.999265  0.750970  0.500513  1
  Sn  Sn13  1  0.751704  0.000735  0.500513  1
  Sn  Sn14  1  0.249030  0.248296  0.500513  1
  Sn  Sn15  1  0.726144  0.000348  0.999767  1
  Pt  Pt16  1  0.333333  0.666667  0.004475  1
  Pt  Pt17  1  0.666667  0.333333  0.503421  1
