# generated using pymatgen
data_Tb3Sm7(In3Cl)2
_symmetry_space_group_name_H-M   'P 1'
_cell_length_a   9.30141400
_cell_length_b   9.30148912
_cell_length_c   6.73085200
_cell_angle_alpha   89.99859555
_cell_angle_beta   90.00162621
_cell_angle_gamma   120.00056508
_symmetry_Int_Tables_number   1
_chemical_formula_structural   Tb3Sm7(In3Cl)2
_chemical_formula_sum   'Tb3 Sm7 In6 Cl2'
_cell_volume   504.31241226
_cell_formula_units_Z   1
loop_
 _symmetry_equiv_pos_site_id
 _symmetry_equiv_pos_as_xyz
  1  'x, y, z'
loop_
 _atom_site_type_symbol
 _atom_site_label
 _atom_site_symmetry_multiplicity
 _atom_site_fract_x
 _atom_site_fract_y
 _atom_site_fract_z
 _atom_site_occupancy
  Tb  Tb0  1  0.333306  0.666674  0.999960  1
  Tb  Tb1  1  0.666669  0.333328  0.500042  1
  Tb  Tb2  1  0.333343  0.666640  0.500029  1
  Sm  Sm3  1  0.666591  0.333271  0.000012  1
  Sm  Sm4  1  0.742066  0.742512  0.250148  1
  Sm  Sm5  1  0.257500  0.999550  0.250175  1
  Sm  Sm6  1  0.000469  0.257947  0.250154  1
  Sm  Sm7  1  0.257492  0.257984  0.749828  1
  Sm  Sm8  1  0.742013  0.999564  0.749846  1
  Sm  Sm9  1  0.000459  0.742489  0.749817  1
  In  In10  1  0.603979  0.999105  0.250254  1
  In  In11  1  0.000853  0.604866  0.250279  1
  In  In12  1  0.395151  0.396030  0.250275  1
  In  In13  1  0.395142  0.999113  0.749738  1
  In  In14  1  0.000867  0.395999  0.749674  1
  In  In15  1  0.604011  0.604940  0.749710  1
  Cl  Cl16  1  0.000000  0.000024  0.999988  1
  Cl  Cl17  1  0.000090  0.999963  0.500068  1
