# generated using pymatgen
data_Er2AlFe2Re14C3
_symmetry_space_group_name_H-M   'P 1'
_cell_length_a   6.91606427
_cell_length_b   6.91606476
_cell_length_c   6.96405552
_cell_angle_alpha   82.34581736
_cell_angle_beta   82.34581830
_cell_angle_gamma   82.48280506
_symmetry_Int_Tables_number   1
_chemical_formula_structural   Er2AlFe2Re14C3
_chemical_formula_sum   'Er2 Al1 Fe2 Re14 C3'
_cell_volume   325.01935146
_cell_formula_units_Z   1
loop_
 _symmetry_equiv_pos_site_id
 _symmetry_equiv_pos_as_xyz
  1  'x, y, z'
loop_
 _atom_site_type_symbol
 _atom_site_label
 _atom_site_symmetry_multiplicity
 _atom_site_fract_x
 _atom_site_fract_y
 _atom_site_fract_z
 _atom_site_occupancy
  Er  Er0  1  0.652346  0.652346  0.654022  1
  Er  Er1  1  0.347654  0.347654  0.345978  1
  Al  Al2  1  0.000000  0.000000  0.500000  1
  Fe  Fe3  1  0.500000  0.000000  0.000000  1
  Fe  Fe4  1  0.000000  0.500000  0.000000  1
  Re  Re5  1  0.723110  0.276890  0.000000  1
  Re  Re6  1  0.998181  0.719858  0.276189  1
  Re  Re7  1  0.280142  0.001819  0.723811  1
  Re  Re8  1  0.001819  0.280142  0.723811  1
  Re  Re9  1  0.719858  0.998181  0.276189  1
  Re  Re10  1  0.276890  0.723110  0.000000  1
  Re  Re11  1  0.350615  0.852531  0.346198  1
  Re  Re12  1  0.350373  0.350373  0.857451  1
  Re  Re13  1  0.852531  0.350615  0.346198  1
  Re  Re14  1  0.649385  0.147469  0.653802  1
  Re  Re15  1  0.649627  0.649627  0.142549  1
  Re  Re16  1  0.147469  0.649385  0.653802  1
  Re  Re17  1  0.897355  0.897355  0.904009  1
  Re  Re18  1  0.102645  0.102645  0.095991  1
  C  C19  1  0.500000  0.500000  0.000000  1
  C  C20  1  0.000000  0.500000  0.500000  1
  C  C21  1  0.500000  0.000000  0.500000  1
