# generated using pymatgen
data_ThU2Pa5H24
_symmetry_space_group_name_H-M   'P 1'
_cell_length_a   6.68252000
_cell_length_b   6.64302200
_cell_length_c   6.64302200
_cell_angle_alpha   90.00000000
_cell_angle_beta   90.00000000
_cell_angle_gamma   90.00000000
_symmetry_Int_Tables_number   1
_chemical_formula_structural   ThU2Pa5H24
_chemical_formula_sum   'Th1 U2 Pa5 H24'
_cell_volume   294.89787878
_cell_formula_units_Z   1
loop_
 _symmetry_equiv_pos_site_id
 _symmetry_equiv_pos_as_xyz
  1  'x, y, z'
loop_
 _atom_site_type_symbol
 _atom_site_label
 _atom_site_symmetry_multiplicity
 _atom_site_fract_x
 _atom_site_fract_y
 _atom_site_fract_z
 _atom_site_occupancy
  Th  Th0  1  0.250000  0.000000  0.500000  1
  U  U1  1  0.995907  0.000000  0.000000  1
  U  U2  1  0.504093  0.500000  0.500000  1
  Pa  Pa3  1  0.750000  0.000000  0.500000  1
  Pa  Pa4  1  0.999243  0.500000  0.249258  1
  Pa  Pa5  1  0.999243  0.500000  0.750742  1
  Pa  Pa6  1  0.500757  0.749258  0.000000  1
  Pa  Pa7  1  0.500757  0.250742  0.000000  1
  H  H8  1  0.991029  0.157198  0.302051  1
  H  H9  1  0.508971  0.197949  0.657198  1
  H  H10  1  0.508971  0.802051  0.342802  1
  H  H11  1  0.806143  0.655287  0.500000  1
  H  H12  1  0.195129  0.647891  0.500000  1
  H  H13  1  0.344264  0.500000  0.803553  1
  H  H14  1  0.655583  0.500000  0.805665  1
  H  H15  1  0.304871  0.000000  0.147891  1
  H  H16  1  0.155736  0.303553  0.000000  1
  H  H17  1  0.844417  0.694335  0.000000  1
  H  H18  1  0.304871  0.000000  0.852109  1
  H  H19  1  0.844417  0.305665  0.000000  1
  H  H20  1  0.693857  0.000000  0.155287  1
  H  H21  1  0.693857  0.000000  0.844713  1
  H  H22  1  0.155736  0.696447  0.000000  1
  H  H23  1  0.991029  0.842802  0.697949  1
  H  H24  1  0.991029  0.157198  0.697949  1
  H  H25  1  0.991029  0.842802  0.302051  1
  H  H26  1  0.655583  0.500000  0.194335  1
  H  H27  1  0.344264  0.500000  0.196447  1
  H  H28  1  0.806143  0.344713  0.500000  1
  H  H29  1  0.195129  0.352109  0.500000  1
  H  H30  1  0.508971  0.802051  0.657198  1
  H  H31  1  0.508971  0.197949  0.342802  1
