# generated using pymatgen
data_PRuO5
_symmetry_space_group_name_H-M   'P 1'
_cell_length_a   5.27205255
_cell_length_b   5.30528494
_cell_length_c   7.14943809
_cell_angle_alpha   106.82566406
_cell_angle_beta   106.93117301
_cell_angle_gamma   98.99364412
_symmetry_Int_Tables_number   1
_chemical_formula_structural   PRuO5
_chemical_formula_sum   'P2 Ru2 O10'
_cell_volume   176.67580731
_cell_formula_units_Z   2
loop_
 _symmetry_equiv_pos_site_id
 _symmetry_equiv_pos_as_xyz
  1  'x, y, z'
loop_
 _atom_site_type_symbol
 _atom_site_label
 _atom_site_symmetry_multiplicity
 _atom_site_fract_x
 _atom_site_fract_y
 _atom_site_fract_z
 _atom_site_occupancy
  P  P0  1  0.328267  0.155581  0.753936  1
  P  P1  1  0.671733  0.844419  0.246064  1
  Ru  Ru2  1  0.000000  0.500000  0.000000  1
  Ru  Ru3  1  0.000000  0.500000  0.500000  1
  O  O4  1  0.130737  0.175597  0.878366  1
  O  O5  1  0.288470  0.853609  0.625186  1
  O  O6  1  0.933764  0.550277  0.746442  1
  O  O7  1  0.288607  0.318439  0.602962  1
  O  O8  1  0.711393  0.681561  0.397038  1
  O  O9  1  0.626977  0.255691  0.910632  1
  O  O10  1  0.373023  0.744309  0.089368  1
  O  O11  1  0.066236  0.449723  0.253558  1
  O  O12  1  0.711530  0.146391  0.374814  1
  O  O13  1  0.869263  0.824403  0.121634  1
