# generated using pymatgen
data_Er8Zr11Si16Mo
_symmetry_space_group_name_H-M   'P 1'
_cell_length_a   7.07947973
_cell_length_b   7.24882895
_cell_length_c   13.86277011
_cell_angle_alpha   90.16796182
_cell_angle_beta   89.80367326
_cell_angle_gamma   89.70507736
_symmetry_Int_Tables_number   1
_chemical_formula_structural   Er8Zr11Si16Mo
_chemical_formula_sum   'Er8 Zr11 Si16 Mo1'
_cell_volume   711.39207668
_cell_formula_units_Z   1
loop_
 _symmetry_equiv_pos_site_id
 _symmetry_equiv_pos_as_xyz
  1  'x, y, z'
loop_
 _atom_site_type_symbol
 _atom_site_label
 _atom_site_symmetry_multiplicity
 _atom_site_fract_x
 _atom_site_fract_y
 _atom_site_fract_z
 _atom_site_occupancy
  Er  Er0  1  0.014635  0.177113  0.097063  1
  Er  Er1  1  0.987401  0.824948  0.899764  1
  Er  Er2  1  0.485024  0.677112  0.899473  1
  Er  Er3  1  0.989003  0.825439  0.595926  1
  Er  Er4  1  0.514770  0.324722  0.096794  1
  Er  Er5  1  0.012137  0.177950  0.402108  1
  Er  Er6  1  0.509609  0.322882  0.408242  1
  Er  Er7  1  0.486977  0.671729  0.596535  1
  Zr  Zr8  1  0.159752  0.494098  0.745790  1
  Zr  Zr9  1  0.844130  0.503454  0.250830  1
  Zr  Zr10  1  0.343075  0.999419  0.251497  1
  Zr  Zr11  1  0.654791  0.002900  0.747298  1
  Zr  Zr12  1  0.667595  0.828136  0.378658  1
  Zr  Zr13  1  0.169175  0.680490  0.378004  1
  Zr  Zr14  1  0.671185  0.820833  0.124872  1
  Zr  Zr15  1  0.831019  0.320746  0.622782  1
  Zr  Zr16  1  0.328271  0.177420  0.874836  1
  Zr  Zr17  1  0.830763  0.320140  0.872888  1
  Zr  Zr18  1  0.171889  0.678058  0.125044  1
  Si  Si19  1  0.039309  0.116941  0.745853  1
  Si  Si20  1  0.966969  0.885099  0.250849  1
  Si  Si21  1  0.467524  0.617833  0.252099  1
  Si  Si22  1  0.531475  0.376721  0.746388  1
  Si  Si23  1  0.284189  0.875248  0.746550  1
  Si  Si24  1  0.716213  0.130239  0.250883  1
  Si  Si25  1  0.218602  0.373025  0.250984  1
  Si  Si26  1  0.783021  0.625151  0.747501  1
  Si  Si27  1  0.166936  0.457503  0.541302  1
  Si  Si28  1  0.843284  0.530566  0.459577  1
  Si  Si29  1  0.334606  0.971586  0.469095  1
  Si  Si30  1  0.844588  0.531563  0.038181  1
  Si  Si31  1  0.642948  0.032988  0.545267  1
  Si  Si32  1  0.155201  0.470029  0.959070  1
  Si  Si33  1  0.657467  0.031182  0.959730  1
  Si  Si34  1  0.346195  0.968482  0.040054  1
  Mo  Mo35  1  0.330272  0.178256  0.628214  1
