# generated using pymatgen
data_TbHo3Al18(IrPt)3
_symmetry_space_group_name_H-M   'P 1'
_cell_length_a   7.59063454
_cell_length_b   7.59242114
_cell_length_c   9.42829001
_cell_angle_alpha   89.97970729
_cell_angle_beta   89.98107417
_cell_angle_gamma   119.62797645
_symmetry_Int_Tables_number   1
_chemical_formula_structural   TbHo3Al18(IrPt)3
_chemical_formula_sum   'Tb1 Ho3 Al18 Ir3 Pt3'
_cell_volume   472.32150998
_cell_formula_units_Z   1
loop_
 _symmetry_equiv_pos_site_id
 _symmetry_equiv_pos_as_xyz
  1  'x, y, z'
loop_
 _atom_site_type_symbol
 _atom_site_label
 _atom_site_symmetry_multiplicity
 _atom_site_fract_x
 _atom_site_fract_y
 _atom_site_fract_z
 _atom_site_occupancy
  Tb  Tb0  1  0.995686  0.670297  0.250379  1
  Ho  Ho1  1  0.004609  0.329459  0.749677  1
  Ho  Ho2  1  0.670432  0.995365  0.250343  1
  Ho  Ho3  1  0.329461  0.004389  0.749580  1
  Al  Al4  1  0.126838  0.127805  0.250414  1
  Al  Al5  1  0.872426  0.873250  0.749597  1
  Al  Al6  1  0.000297  0.331238  0.076244  1
  Al  Al7  1  0.999600  0.668652  0.922268  1
  Al  Al8  1  0.997078  0.664751  0.575875  1
  Al  Al9  1  0.335521  0.003237  0.424865  1
  Al  Al10  1  0.996268  0.330646  0.424999  1
  Al  Al11  1  0.668905  0.003675  0.575391  1
  Al  Al12  1  0.668331  0.999716  0.923395  1
  Al  Al13  1  0.331720  0.000789  0.076989  1
  Al  Al14  1  0.332632  0.329342  0.553397  1
  Al  Al15  1  0.670400  0.667357  0.447122  1
  Al  Al16  1  0.669291  0.669510  0.056743  1
  Al  Al17  1  0.330530  0.330453  0.942710  1
  Al  Al18  1  0.340423  0.546600  0.250585  1
  Al  Al19  1  0.658954  0.451657  0.747541  1
  Al  Al20  1  0.547777  0.340475  0.252518  1
  Al  Al21  1  0.453198  0.659830  0.749419  1
  Ir  Ir22  1  0.671748  0.327885  0.500222  1
  Ir  Ir23  1  0.000005  0.000493  0.999705  1
  Ir  Ir24  1  0.000522  0.999948  0.500286  1
  Pt  Pt25  1  0.672135  0.327612  0.999795  1
  Pt  Pt26  1  0.327391  0.672934  0.999762  1
  Pt  Pt27  1  0.327826  0.672631  0.500179  1
