# generated using pymatgen
data_Ho7Lu3(Sn3P)2
_symmetry_space_group_name_H-M   'P 1'
_cell_length_a   8.99508400
_cell_length_b   8.99508365
_cell_length_c   6.61897200
_cell_angle_alpha   90.00000000
_cell_angle_beta   90.00000000
_cell_angle_gamma   119.99998659
_symmetry_Int_Tables_number   1
_chemical_formula_structural   Ho7Lu3(Sn3P)2
_chemical_formula_sum   'Ho7 Lu3 Sn6 P2'
_cell_volume   463.80098208
_cell_formula_units_Z   1
loop_
 _symmetry_equiv_pos_site_id
 _symmetry_equiv_pos_as_xyz
  1  'x, y, z'
loop_
 _atom_site_type_symbol
 _atom_site_label
 _atom_site_symmetry_multiplicity
 _atom_site_fract_x
 _atom_site_fract_y
 _atom_site_fract_z
 _atom_site_occupancy
  Ho  Ho0  1  0.666667  0.333333  0.000000  1
  Ho  Ho1  1  0.757613  0.757815  0.749869  1
  Ho  Ho2  1  0.242185  0.999798  0.749869  1
  Ho  Ho3  1  0.000202  0.242387  0.749869  1
  Ho  Ho4  1  0.242185  0.242387  0.250131  1
  Ho  Ho5  1  0.757613  0.999798  0.250131  1
  Ho  Ho6  1  0.000202  0.757815  0.250131  1
  Lu  Lu7  1  0.333333  0.666667  0.000000  1
  Lu  Lu8  1  0.333333  0.666667  0.500000  1
  Lu  Lu9  1  0.666667  0.333333  0.500000  1
  Sn  Sn10  1  0.399282  0.399946  0.749442  1
  Sn  Sn11  1  0.600054  0.999336  0.749442  1
  Sn  Sn12  1  0.000664  0.600718  0.749442  1
  Sn  Sn13  1  0.600054  0.600718  0.250558  1
  Sn  Sn14  1  0.399282  0.999336  0.250558  1
  Sn  Sn15  1  0.000664  0.399946  0.250558  1
  P  P16  1  0.000000  0.000000  0.000000  1
  P  P17  1  0.000000  0.000000  0.500000  1
