# generated using pymatgen
data_Tb17Dy3Si15Pt
_symmetry_space_group_name_H-M   'P 1'
_cell_length_a   7.40939736
_cell_length_b   7.73696053
_cell_length_c   14.66831000
_cell_angle_alpha   90.00256229
_cell_angle_beta   89.98226084
_cell_angle_gamma   90.09447974
_symmetry_Int_Tables_number   1
_chemical_formula_structural   Tb17Dy3Si15Pt
_chemical_formula_sum   'Tb17 Dy3 Si15 Pt1'
_cell_volume   840.87750636
_cell_formula_units_Z   1
loop_
 _symmetry_equiv_pos_site_id
 _symmetry_equiv_pos_as_xyz
  1  'x, y, z'
loop_
 _atom_site_type_symbol
 _atom_site_label
 _atom_site_symmetry_multiplicity
 _atom_site_fract_x
 _atom_site_fract_y
 _atom_site_fract_z
 _atom_site_occupancy
  Tb  Tb0  1  0.317729  0.820001  0.123115  1
  Tb  Tb1  1  0.817256  0.678187  0.376644  1
  Tb  Tb2  1  0.317746  0.820091  0.376992  1
  Tb  Tb3  1  0.817242  0.678171  0.123447  1
  Tb  Tb4  1  0.679963  0.179109  0.876940  1
  Tb  Tb5  1  0.186764  0.323437  0.623484  1
  Tb  Tb6  1  0.525139  0.681567  0.594269  1
  Tb  Tb7  1  0.026923  0.817532  0.904110  1
  Tb  Tb8  1  0.472986  0.315742  0.097472  1
  Tb  Tb9  1  0.973041  0.183088  0.402670  1
  Tb  Tb10  1  0.473130  0.315734  0.402619  1
  Tb  Tb11  1  0.973280  0.183195  0.097370  1
  Tb  Tb12  1  0.524935  0.681504  0.905655  1
  Tb  Tb13  1  0.026825  0.817568  0.595830  1
  Tb  Tb14  1  0.356480  0.983886  0.749915  1
  Tb  Tb15  1  0.148279  0.485395  0.250035  1
  Tb  Tb16  1  0.648470  0.013232  0.250075  1
  Dy  Dy17  1  0.679787  0.179108  0.622960  1
  Dy  Dy18  1  0.186835  0.323899  0.876440  1
  Dy  Dy19  1  0.843810  0.509588  0.749942  1
  Si  Si20  1  0.646420  0.972056  0.459493  1
  Si  Si21  1  0.146137  0.527650  0.039823  1
  Si  Si22  1  0.351818  0.026765  0.960405  1
  Si  Si23  1  0.852409  0.471994  0.539825  1
  Si  Si24  1  0.352502  0.026561  0.539631  1
  Si  Si25  1  0.853253  0.472199  0.960125  1
  Si  Si26  1  0.646134  0.971690  0.040786  1
  Si  Si27  1  0.145996  0.527924  0.459909  1
  Si  Si28  1  0.979568  0.102421  0.749895  1
  Si  Si29  1  0.522284  0.602710  0.250084  1
  Si  Si30  1  0.022082  0.895749  0.250080  1
  Si  Si31  1  0.742082  0.875731  0.749795  1
  Si  Si32  1  0.228875  0.630981  0.750034  1
  Si  Si33  1  0.266227  0.126735  0.250088  1
  Si  Si34  1  0.765682  0.373300  0.250096  1
  Pt  Pt35  1  0.481908  0.405498  0.749945  1
