# generated using pymatgen
data_Ho4CdPd4Au
_symmetry_space_group_name_H-M   'P 1'
_cell_length_a   7.65569400
_cell_length_b   7.65569400
_cell_length_c   3.69334200
_cell_angle_alpha   90.00000000
_cell_angle_beta   90.00000000
_cell_angle_gamma   90.00000000
_symmetry_Int_Tables_number   1
_chemical_formula_structural   Ho4CdPd4Au
_chemical_formula_sum   'Ho4 Cd1 Pd4 Au1'
_cell_volume   216.46548425
_cell_formula_units_Z   1
loop_
 _symmetry_equiv_pos_site_id
 _symmetry_equiv_pos_as_xyz
  1  'x, y, z'
loop_
 _atom_site_type_symbol
 _atom_site_label
 _atom_site_symmetry_multiplicity
 _atom_site_fract_x
 _atom_site_fract_y
 _atom_site_fract_z
 _atom_site_occupancy
  Ho  Ho0  1  0.691850  0.150573  0.500000  1
  Ho  Ho1  1  0.308150  0.849427  0.500000  1
  Ho  Ho2  1  0.150573  0.308150  0.500000  1
  Ho  Ho3  1  0.849427  0.691850  0.500000  1
  Cd  Cd4  1  0.500000  0.500000  0.000000  1
  Pd  Pd5  1  0.143012  0.615921  0.000000  1
  Pd  Pd6  1  0.856988  0.384079  0.000000  1
  Pd  Pd7  1  0.615921  0.856988  0.000000  1
  Pd  Pd8  1  0.384079  0.143012  0.000000  1
  Au  Au9  1  0.000000  0.000000  0.000000  1
