# generated using pymatgen
data_BaInGaAu5
_symmetry_space_group_name_H-M   'P 1'
_cell_length_a   7.41483200
_cell_length_b   9.27278100
_cell_length_c   10.56212200
_cell_angle_alpha   90.00000000
_cell_angle_beta   90.00000000
_cell_angle_gamma   90.00000000
_symmetry_Int_Tables_number   1
_chemical_formula_structural   BaInGaAu5
_chemical_formula_sum   'Ba4 In4 Ga4 Au20'
_cell_volume   726.21045679
_cell_formula_units_Z   4
loop_
 _symmetry_equiv_pos_site_id
 _symmetry_equiv_pos_as_xyz
  1  'x, y, z'
loop_
 _atom_site_type_symbol
 _atom_site_label
 _atom_site_symmetry_multiplicity
 _atom_site_fract_x
 _atom_site_fract_y
 _atom_site_fract_z
 _atom_site_occupancy
  Ba  Ba0  1  0.250000  0.250400  0.119110  1
  Ba  Ba1  1  0.250000  0.750400  0.380890  1
  Ba  Ba2  1  0.750000  0.749600  0.880890  1
  Ba  Ba3  1  0.750000  0.249600  0.619110  1
  In  In4  1  0.250000  0.362906  0.475110  1
  In  In5  1  0.250000  0.862906  0.024890  1
  In  In6  1  0.750000  0.637094  0.524890  1
  In  In7  1  0.750000  0.137094  0.975110  1
  Ga  Ga8  1  0.250000  0.054068  0.610241  1
  Ga  Ga9  1  0.250000  0.554068  0.889759  1
  Ga  Ga10  1  0.750000  0.945932  0.389759  1
  Ga  Ga11  1  0.750000  0.445932  0.110241  1
  Au  Au12  1  0.055856  0.100254  0.393739  1
  Au  Au13  1  0.444144  0.600254  0.106261  1
  Au  Au14  1  0.555856  0.899746  0.606261  1
  Au  Au15  1  0.944144  0.399746  0.893739  1
  Au  Au16  1  0.944144  0.899746  0.606261  1
  Au  Au17  1  0.555856  0.399746  0.893739  1
  Au  Au18  1  0.444144  0.100254  0.393739  1
  Au  Au19  1  0.055856  0.600254  0.106261  1
  Au  Au20  1  0.048736  0.063108  0.841295  1
  Au  Au21  1  0.451264  0.563108  0.658705  1
  Au  Au22  1  0.548736  0.936892  0.158705  1
  Au  Au23  1  0.951264  0.436892  0.341295  1
  Au  Au24  1  0.951264  0.936892  0.158705  1
  Au  Au25  1  0.548736  0.436892  0.341295  1
  Au  Au26  1  0.451264  0.063108  0.841295  1
  Au  Au27  1  0.048736  0.563108  0.658705  1
  Au  Au28  1  0.250000  0.303950  0.735128  1
  Au  Au29  1  0.250000  0.803950  0.764872  1
  Au  Au30  1  0.750000  0.696050  0.264872  1
  Au  Au31  1  0.750000  0.196050  0.235128  1
