# generated using pymatgen
data_Sr8Tc3NiO16
_symmetry_space_group_name_H-M   'P 1'
_cell_length_a   5.54755304
_cell_length_b   8.95524049
_cell_length_c   8.95547702
_cell_angle_alpha   87.85268449
_cell_angle_beta   71.86868133
_cell_angle_gamma   108.13462385
_symmetry_Int_Tables_number   1
_chemical_formula_structural   Sr8Tc3NiO16
_chemical_formula_sum   'Sr8 Tc3 Ni1 O16'
_cell_volume   397.34231140
_cell_formula_units_Z   1
loop_
 _symmetry_equiv_pos_site_id
 _symmetry_equiv_pos_as_xyz
  1  'x, y, z'
loop_
 _atom_site_type_symbol
 _atom_site_label
 _atom_site_symmetry_multiplicity
 _atom_site_fract_x
 _atom_site_fract_y
 _atom_site_fract_z
 _atom_site_occupancy
  Sr  Sr0  1  0.260204  0.407535  0.886528  1
  Sr  Sr1  1  0.000019  0.645652  0.645495  1
  Sr  Sr2  1  0.739606  0.886215  0.407643  1
  Sr  Sr3  1  0.499987  0.150126  0.150111  1
  Sr  Sr4  1  0.000142  0.354491  0.354355  1
  Sr  Sr5  1  0.739756  0.592499  0.113593  1
  Sr  Sr6  1  0.499889  0.849759  0.850005  1
  Sr  Sr7  1  0.260329  0.113644  0.592332  1
  Tc  Tc8  1  0.251066  0.750974  0.249066  1
  Tc  Tc9  1  0.000040  0.000030  0.999976  1
  Tc  Tc10  1  0.748904  0.249017  0.750938  1
  Ni  Ni11  1  0.500095  0.500077  0.499955  1
  O  O12  1  0.251799  0.590736  0.088122  1
  O  O13  1  0.999710  0.838429  0.838951  1
  O  O14  1  0.748551  0.088455  0.590513  1
  O  O15  1  0.499727  0.333869  0.334162  1
  O  O16  1  0.000314  0.161610  0.161015  1
  O  O17  1  0.748172  0.409177  0.911816  1
  O  O18  1  0.500225  0.666117  0.665846  1
  O  O19  1  0.251423  0.911573  0.409602  1
  O  O20  1  0.877632  0.124731  0.875051  1
  O  O21  1  0.620471  0.368365  0.631779  1
  O  O22  1  0.379454  0.631651  0.368179  1
  O  O23  1  0.122365  0.875250  0.124985  1
  O  O24  1  0.374918  0.122215  0.877507  1
  O  O25  1  0.112572  0.371074  0.629147  1
  O  O26  1  0.887583  0.628959  0.370810  1
  O  O27  1  0.625043  0.877770  0.122515  1
