# generated using pymatgen
data_Ti3Re2Si2BRh
_symmetry_space_group_name_H-M   'P 1'
_cell_length_a   6.61735800
_cell_length_b   6.64594766
_cell_length_c   3.18942300
_cell_angle_alpha   90.00000000
_cell_angle_beta   90.00000000
_cell_angle_gamma   119.85779870
_symmetry_Int_Tables_number   1
_chemical_formula_structural   Ti3Re2Si2BRh
_chemical_formula_sum   'Ti3 Re2 Si2 B1 Rh1'
_cell_volume   121.64795886
_cell_formula_units_Z   1
loop_
 _symmetry_equiv_pos_site_id
 _symmetry_equiv_pos_as_xyz
  1  'x, y, z'
loop_
 _atom_site_type_symbol
 _atom_site_label
 _atom_site_symmetry_multiplicity
 _atom_site_fract_x
 _atom_site_fract_y
 _atom_site_fract_z
 _atom_site_occupancy
  Ti  Ti0  1  0.614251  0.000000  0.000000  1
  Ti  Ti1  1  0.393626  0.402748  0.000000  1
  Ti  Ti2  1  0.990878  0.597252  0.000000  1
  Re  Re3  1  0.758998  0.755704  0.500000  1
  Re  Re4  1  0.003294  0.244296  0.500000  1
  Si  Si5  1  0.333014  0.671243  0.500000  1
  Si  Si6  1  0.661772  0.328757  0.500000  1
  B  B7  1  0.997321  0.000000  0.000000  1
  Rh  Rh8  1  0.246847  0.000000  0.500000  1
