# generated using pymatgen
data_Nb6OsPbS12
_symmetry_space_group_name_H-M   'P 1'
_cell_length_a   5.82072700
_cell_length_b   5.82072686
_cell_length_c   13.56221100
_cell_angle_alpha   90.00000000
_cell_angle_beta   90.00000000
_cell_angle_gamma   120.00000648
_symmetry_Int_Tables_number   1
_chemical_formula_structural   Nb6OsPbS12
_chemical_formula_sum   'Nb6 Os1 Pb1 S12'
_cell_volume   397.93812676
_cell_formula_units_Z   1
loop_
 _symmetry_equiv_pos_site_id
 _symmetry_equiv_pos_as_xyz
  1  'x, y, z'
loop_
 _atom_site_type_symbol
 _atom_site_label
 _atom_site_symmetry_multiplicity
 _atom_site_fract_x
 _atom_site_fract_y
 _atom_site_fract_z
 _atom_site_occupancy
  Nb  Nb0  1  0.000000  0.000000  0.531042  1
  Nb  Nb1  1  0.000000  0.000000  0.968958  1
  Nb  Nb2  1  0.333333  0.666667  0.968965  1
  Nb  Nb3  1  0.666667  0.333333  0.972811  1
  Nb  Nb4  1  0.666667  0.333333  0.527189  1
  Nb  Nb5  1  0.333333  0.666667  0.531035  1
  Os  Os6  1  0.666667  0.333333  0.750000  1
  Pb  Pb7  1  0.333333  0.666667  0.250000  1
  S  S8  1  0.330174  0.330407  0.412705  1
  S  S9  1  0.669593  0.999767  0.412705  1
  S  S10  1  0.000233  0.669826  0.412705  1
  S  S11  1  0.336084  0.333274  0.644691  1
  S  S12  1  0.997190  0.663916  0.644691  1
  S  S13  1  0.666726  0.002810  0.644691  1
  S  S14  1  0.666726  0.663916  0.855309  1
  S  S15  1  0.336084  0.002810  0.855309  1
  S  S16  1  0.997190  0.333274  0.855309  1
  S  S17  1  0.669593  0.669826  0.087295  1
  S  S18  1  0.000233  0.330407  0.087295  1
  S  S19  1  0.330174  0.999767  0.087295  1
