# generated using pymatgen
data_Pr3Ho(Mo2O7)2
_symmetry_space_group_name_H-M   'P 1'
_cell_length_a   7.51106340
_cell_length_b   7.50356623
_cell_length_c   7.51619843
_cell_angle_alpha   120.10147689
_cell_angle_beta   119.90033851
_cell_angle_gamma   90.11685991
_symmetry_Int_Tables_number   1
_chemical_formula_structural   Pr3Ho(Mo2O7)2
_chemical_formula_sum   'Pr3 Ho1 Mo4 O14'
_cell_volume   299.22228281
_cell_formula_units_Z   1
loop_
 _symmetry_equiv_pos_site_id
 _symmetry_equiv_pos_as_xyz
  1  'x, y, z'
loop_
 _atom_site_type_symbol
 _atom_site_label
 _atom_site_symmetry_multiplicity
 _atom_site_fract_x
 _atom_site_fract_y
 _atom_site_fract_z
 _atom_site_occupancy
  Pr  Pr0  1  0.375000  0.625000  0.750000  1
  Pr  Pr1  1  0.375000  0.625000  0.250000  1
  Pr  Pr2  1  0.875000  0.625000  0.250000  1
  Ho  Ho3  1  0.375000  0.125000  0.750000  1
  Mo  Mo4  1  0.875000  0.625000  0.750000  1
  Mo  Mo5  1  0.375000  0.125000  0.250000  1
  Mo  Mo6  1  0.875000  0.125000  0.250000  1
  Mo  Mo7  1  0.875000  0.125000  0.750000  1
  O  O8  1  0.775225  0.196884  0.990982  1
  O  O9  1  0.546193  0.464031  0.498034  1
  O  O10  1  0.208580  0.205247  0.995982  1
  O  O11  1  0.957930  0.457245  0.498980  1
  O  O12  1  0.797985  0.795218  0.581407  1
  O  O13  1  0.535774  0.037152  0.082216  1
  O  O14  1  0.255431  0.765519  0.510819  1
  O  O15  1  0.952015  0.454782  0.918593  1
  O  O16  1  0.974775  0.053116  0.509018  1
  O  O17  1  0.541420  0.044753  0.504018  1
  O  O18  1  0.214226  0.212848  0.417784  1
  O  O19  1  0.494569  0.484481  0.989181  1
  O  O20  1  0.792070  0.792755  0.001020  1
  O  O21  1  0.203807  0.785969  0.001966  1
