# generated using pymatgen
data_Pr2Cu17Si8Pt
_symmetry_space_group_name_H-M   'P 1'
_cell_length_a   8.20793652
_cell_length_b   8.20793760
_cell_length_c   8.18063062
_cell_angle_alpha   120.07573946
_cell_angle_beta   120.34238454
_cell_angle_gamma   89.83024804
_symmetry_Int_Tables_number   1
_chemical_formula_structural   Pr2Cu17Si8Pt
_chemical_formula_sum   'Pr2 Cu17 Si8 Pt1'
_cell_volume   387.81484138
_cell_formula_units_Z   1
loop_
 _symmetry_equiv_pos_site_id
 _symmetry_equiv_pos_as_xyz
  1  'x, y, z'
loop_
 _atom_site_type_symbol
 _atom_site_label
 _atom_site_symmetry_multiplicity
 _atom_site_fract_x
 _atom_site_fract_y
 _atom_site_fract_z
 _atom_site_occupancy
  Pr  Pr0  1  0.246172  0.249631  0.998232  1
  Pr  Pr1  1  0.748601  0.752060  0.998232  1
  Cu  Cu2  1  0.212394  0.056216  0.268610  1
  Cu  Cu3  1  0.793434  0.920935  0.714369  1
  Cu  Cu4  1  0.434915  0.297096  0.732011  1
  Cu  Cu5  1  0.065713  0.797936  0.863648  1
  Cu  Cu6  1  0.807459  0.059432  0.499357  1
  Cu  Cu7  1  0.558930  0.308964  0.503912  1
  Cu  Cu8  1  0.194946  0.944982  0.503912  1
  Cu  Cu9  1  0.439926  0.691899  0.499357  1
  Cu  Cu10  1  0.942530  0.441762  0.751243  1
  Cu  Cu11  1  0.685107  0.196647  0.253249  1
  Cu  Cu12  1  0.056600  0.568140  0.253249  1
  Cu  Cu13  1  0.699991  0.439892  0.139883  1
  Cu  Cu14  1  0.563257  0.702748  0.266004  1
  Cu  Cu15  1  0.502954  0.000665  0.503619  1
  Cu  Cu16  1  0.998850  0.506799  0.505650  1
  Cu  Cu17  1  0.309483  0.808715  0.751243  1
  Cu  Cu18  1  0.298229  0.562703  0.860934  1
  Si  Si19  1  0.793186  0.293093  0.851863  1
  Si  Si20  1  0.558770  0.058676  0.851863  1
  Si  Si21  1  0.057909  0.206890  0.499445  1
  Si  Si22  1  0.292555  0.441536  0.499445  1
  Si  Si23  1  0.942770  0.794377  0.498570  1
  Si  Si24  1  0.443631  0.939665  0.148999  1
  Si  Si25  1  0.209334  0.705367  0.148999  1
  Si  Si26  1  0.704193  0.555799  0.498570  1
  Pt  Pt27  1  0.938160  0.197375  0.135534  1
