# generated using pymatgen
data_Ho3Zr2Sn2Sb
_symmetry_space_group_name_H-M   'P 1'
_cell_length_a   8.83211456
_cell_length_b   8.82668437
_cell_length_c   6.03500200
_cell_angle_alpha   90.00000000
_cell_angle_beta   90.00000000
_cell_angle_gamma   119.97966122
_symmetry_Int_Tables_number   1
_chemical_formula_structural   Ho3Zr2Sn2Sb
_chemical_formula_sum   'Ho6 Zr4 Sn4 Sb2'
_cell_volume   407.52974369
_cell_formula_units_Z   2
loop_
 _symmetry_equiv_pos_site_id
 _symmetry_equiv_pos_as_xyz
  1  'x, y, z'
loop_
 _atom_site_type_symbol
 _atom_site_label
 _atom_site_symmetry_multiplicity
 _atom_site_fract_x
 _atom_site_fract_y
 _atom_site_fract_z
 _atom_site_occupancy
  Ho  Ho0  1  0.999692  0.759230  0.750000  1
  Ho  Ho1  1  0.999692  0.240462  0.250000  1
  Ho  Ho2  1  0.759206  0.758151  0.250000  1
  Ho  Ho3  1  0.759206  0.001055  0.750000  1
  Ho  Ho4  1  0.241815  0.243023  0.750000  1
  Ho  Ho5  1  0.241815  0.998792  0.250000  1
  Zr  Zr6  1  0.334321  0.667161  0.500000  1
  Zr  Zr7  1  0.665670  0.332835  0.000000  1
  Zr  Zr8  1  0.665670  0.332835  0.500000  1
  Zr  Zr9  1  0.334321  0.667161  0.000000  1
  Sn  Sn10  1  0.000314  0.599796  0.250000  1
  Sn  Sn11  1  0.000314  0.400517  0.750000  1
  Sn  Sn12  1  0.600845  0.600822  0.750000  1
  Sn  Sn13  1  0.600845  0.000023  0.250000  1
  Sb  Sb14  1  0.398136  0.999922  0.750000  1
  Sb  Sb15  1  0.398136  0.398214  0.250000  1
