# generated using pymatgen
data_Er2MgB2RuRh4
_symmetry_space_group_name_H-M   'P 1'
_cell_length_a   9.65746900
_cell_length_b   9.65746900
_cell_length_c   3.13292500
_cell_angle_alpha   90.00000000
_cell_angle_beta   90.00000000
_cell_angle_gamma   90.00000000
_symmetry_Int_Tables_number   1
_chemical_formula_structural   Er2MgB2RuRh4
_chemical_formula_sum   'Er4 Mg2 B4 Ru2 Rh8'
_cell_volume   292.19759955
_cell_formula_units_Z   2
loop_
 _symmetry_equiv_pos_site_id
 _symmetry_equiv_pos_as_xyz
  1  'x, y, z'
loop_
 _atom_site_type_symbol
 _atom_site_label
 _atom_site_symmetry_multiplicity
 _atom_site_fract_x
 _atom_site_fract_y
 _atom_site_fract_z
 _atom_site_occupancy
  Er  Er0  1  0.675203  0.175203  0.000000  1
  Er  Er1  1  0.324797  0.824797  0.000000  1
  Er  Er2  1  0.175203  0.324797  0.000000  1
  Er  Er3  1  0.824797  0.675203  0.000000  1
  Mg  Mg4  1  0.000000  0.000000  0.000000  1
  Mg  Mg5  1  0.500000  0.500000  0.000000  1
  B  B6  1  0.120788  0.620788  0.000000  1
  B  B7  1  0.879212  0.379212  0.000000  1
  B  B8  1  0.620788  0.879212  0.000000  1
  B  B9  1  0.379212  0.120788  0.000000  1
  Ru  Ru10  1  0.500000  0.000000  0.500000  1
  Ru  Ru11  1  0.000000  0.500000  0.500000  1
  Rh  Rh12  1  0.222398  0.071288  0.500000  1
  Rh  Rh13  1  0.777602  0.928712  0.500000  1
  Rh  Rh14  1  0.071288  0.777602  0.500000  1
  Rh  Rh15  1  0.722398  0.428712  0.500000  1
  Rh  Rh16  1  0.928712  0.222398  0.500000  1
  Rh  Rh17  1  0.277602  0.571288  0.500000  1
  Rh  Rh18  1  0.571288  0.722398  0.500000  1
  Rh  Rh19  1  0.428712  0.277602  0.500000  1
