# generated using pymatgen
data_LuNb8GaSe16
_symmetry_space_group_name_H-M   'P 1'
_cell_length_a   7.04562300
_cell_length_b   7.04562418
_cell_length_c   14.67527900
_cell_angle_alpha   90.00000000
_cell_angle_beta   90.00000000
_cell_angle_gamma   120.00000855
_symmetry_Int_Tables_number   1
_chemical_formula_structural   LuNb8GaSe16
_chemical_formula_sum   'Lu1 Nb8 Ga1 Se16'
_cell_volume   630.89318451
_cell_formula_units_Z   1
loop_
 _symmetry_equiv_pos_site_id
 _symmetry_equiv_pos_as_xyz
  1  'x, y, z'
loop_
 _atom_site_type_symbol
 _atom_site_label
 _atom_site_symmetry_multiplicity
 _atom_site_fract_x
 _atom_site_fract_y
 _atom_site_fract_z
 _atom_site_occupancy
  Lu  Lu0  1  0.000000  0.000000  0.500000  1
  Nb  Nb1  1  0.000000  0.000000  0.264780  1
  Nb  Nb2  1  0.000000  0.000000  0.735220  1
  Nb  Nb3  1  0.504978  0.009956  0.261990  1
  Nb  Nb4  1  0.495022  0.990044  0.738010  1
  Nb  Nb5  1  0.990044  0.495022  0.261990  1
  Nb  Nb6  1  0.009956  0.504978  0.738010  1
  Nb  Nb7  1  0.504978  0.495022  0.261990  1
  Nb  Nb8  1  0.495022  0.504978  0.738010  1
  Ga  Ga9  1  0.000000  0.000000  0.000000  1
  Se  Se10  1  0.333333  0.666667  0.622019  1
  Se  Se11  1  0.666667  0.333333  0.377981  1
  Se  Se12  1  0.666667  0.333333  0.147467  1
  Se  Se13  1  0.333333  0.666667  0.852533  1
  Se  Se14  1  0.165534  0.331067  0.151172  1
  Se  Se15  1  0.834466  0.668933  0.848828  1
  Se  Se16  1  0.668933  0.834466  0.151172  1
  Se  Se17  1  0.829585  0.659169  0.623806  1
  Se  Se18  1  0.331067  0.165534  0.848828  1
  Se  Se19  1  0.170415  0.340831  0.376194  1
  Se  Se20  1  0.165534  0.834466  0.151172  1
  Se  Se21  1  0.340831  0.170415  0.623806  1
  Se  Se22  1  0.834466  0.165534  0.848828  1
  Se  Se23  1  0.659169  0.829585  0.376194  1
  Se  Se24  1  0.829585  0.170415  0.623806  1
  Se  Se25  1  0.170415  0.829585  0.376194  1
