# generated using pymatgen
data_Sm3Ga2Co8NiB4
_symmetry_space_group_name_H-M   'P 1'
_cell_length_a   5.18801300
_cell_length_b   5.18801303
_cell_length_c   9.61143600
_cell_angle_alpha   90.00000000
_cell_angle_beta   90.00000000
_cell_angle_gamma   119.84083003
_symmetry_Int_Tables_number   1
_chemical_formula_structural   Sm3Ga2Co8NiB4
_chemical_formula_sum   'Sm3 Ga2 Co8 Ni1 B4'
_cell_volume   224.39612784
_cell_formula_units_Z   1
loop_
 _symmetry_equiv_pos_site_id
 _symmetry_equiv_pos_as_xyz
  1  'x, y, z'
loop_
 _atom_site_type_symbol
 _atom_site_label
 _atom_site_symmetry_multiplicity
 _atom_site_fract_x
 _atom_site_fract_y
 _atom_site_fract_z
 _atom_site_occupancy
  Sm  Sm0  1  0.000000  0.000000  0.003927  1
  Sm  Sm1  1  0.000000  0.000000  0.659173  1
  Sm  Sm2  1  0.000000  0.000000  0.341389  1
  Ga  Ga3  1  0.668104  0.331896  0.000523  1
  Ga  Ga4  1  0.331896  0.668104  0.000523  1
  Co  Co5  1  0.500000  0.500000  0.499551  1
  Co  Co6  1  0.500000  0.000000  0.499982  1
  Co  Co7  1  0.000000  0.500000  0.499982  1
  Co  Co8  1  0.500000  0.000000  0.791000  1
  Co  Co9  1  0.000000  0.500000  0.791000  1
  Co  Co10  1  0.500000  0.500000  0.207758  1
  Co  Co11  1  0.500000  0.000000  0.208754  1
  Co  Co12  1  0.000000  0.500000  0.208754  1
  Ni  Ni13  1  0.500000  0.500000  0.791907  1
  B  B14  1  0.670091  0.329909  0.648909  1
  B  B15  1  0.329909  0.670091  0.648909  1
  B  B16  1  0.333394  0.666606  0.348979  1
  B  B17  1  0.666606  0.333394  0.348979  1
