# generated using pymatgen
data_Ho3Lu5Ga3Co
_symmetry_space_group_name_H-M   'P 1'
_cell_length_a   9.81389700
_cell_length_b   9.82224122
_cell_length_c   6.90532000
_cell_angle_alpha   90.00985476
_cell_angle_beta   90.00000000
_cell_angle_gamma   119.97189860
_symmetry_Int_Tables_number   1
_chemical_formula_structural   Ho3Lu5Ga3Co
_chemical_formula_sum   'Ho6 Lu10 Ga6 Co2'
_cell_volume   576.61964259
_cell_formula_units_Z   2
loop_
 _symmetry_equiv_pos_site_id
 _symmetry_equiv_pos_as_xyz
  1  'x, y, z'
loop_
 _atom_site_type_symbol
 _atom_site_label
 _atom_site_symmetry_multiplicity
 _atom_site_fract_x
 _atom_site_fract_y
 _atom_site_fract_z
 _atom_site_occupancy
  Ho  Ho0  1  0.463549  0.927100  0.208445  1
  Ho  Ho1  1  0.535587  0.464456  0.708351  1
  Ho  Ho2  1  0.928870  0.464456  0.708351  1
  Ho  Ho3  1  0.535874  0.071749  0.708753  1
  Ho  Ho4  1  0.000026  0.000053  0.231813  1
  Ho  Ho5  1  0.999930  0.999860  0.731833  1
  Lu  Lu6  1  0.173615  0.825043  0.511661  1
  Lu  Lu7  1  0.651428  0.825043  0.511661  1
  Lu  Lu8  1  0.174453  0.348907  0.510504  1
  Lu  Lu9  1  0.826866  0.175044  0.013926  1
  Lu  Lu10  1  0.348179  0.175044  0.013926  1
  Lu  Lu11  1  0.825610  0.651220  0.014846  1
  Lu  Lu12  1  0.332779  0.665559  0.826770  1
  Lu  Lu13  1  0.667169  0.334338  0.325631  1
  Lu  Lu14  1  0.462704  0.536943  0.207667  1
  Lu  Lu15  1  0.074238  0.536943  0.207667  1
  Ga  Ga16  1  0.163387  0.835843  0.957100  1
  Ga  Ga17  1  0.672456  0.835843  0.957100  1
  Ga  Ga18  1  0.164330  0.328661  0.958014  1
  Ga  Ga19  1  0.836410  0.163268  0.456411  1
  Ga  Ga20  1  0.326859  0.163268  0.456411  1
  Ga  Ga21  1  0.836495  0.672990  0.455461  1
  Co  Co22  1  0.332520  0.665042  0.445467  1
  Co  Co23  1  0.666665  0.333329  0.947066  1
