# generated using pymatgen
data_NaV(FeCl4)3
_symmetry_space_group_name_H-M   'P 1'
_cell_length_a   12.51821700
_cell_length_b   13.00801805
_cell_length_c   14.16680900
_cell_angle_alpha   73.16265363
_cell_angle_beta   90.00000000
_cell_angle_gamma   90.00000000
_symmetry_Int_Tables_number   1
_chemical_formula_structural   NaV(FeCl4)3
_chemical_formula_sum   'Na4 V4 Fe12 Cl48'
_cell_volume   2207.98938732
_cell_formula_units_Z   4
loop_
 _symmetry_equiv_pos_site_id
 _symmetry_equiv_pos_as_xyz
  1  'x, y, z'
loop_
 _atom_site_type_symbol
 _atom_site_label
 _atom_site_symmetry_multiplicity
 _atom_site_fract_x
 _atom_site_fract_y
 _atom_site_fract_z
 _atom_site_occupancy
  Na  Na0  1  0.209483  0.512386  0.712996  1
  Na  Na1  1  0.790517  0.487614  0.287004  1
  Na  Na2  1  0.290517  0.012386  0.712996  1
  Na  Na3  1  0.709483  0.987614  0.287004  1
  V  V4  1  0.732536  0.258078  0.785514  1
  V  V5  1  0.232536  0.241922  0.214486  1
  V  V6  1  0.267464  0.741922  0.214486  1
  V  V7  1  0.767464  0.758078  0.785514  1
  Fe  Fe8  1  0.995956  0.185131  0.273093  1
  Fe  Fe9  1  0.752758  0.622033  0.007556  1
  Fe  Fe10  1  0.093371  0.675789  0.379534  1
  Fe  Fe11  1  0.495956  0.314869  0.726907  1
  Fe  Fe12  1  0.747242  0.122033  0.007556  1
  Fe  Fe13  1  0.406629  0.175789  0.379534  1
  Fe  Fe14  1  0.593371  0.824211  0.620466  1
  Fe  Fe15  1  0.906629  0.324211  0.620466  1
  Fe  Fe16  1  0.504044  0.685131  0.273093  1
  Fe  Fe17  1  0.252758  0.877967  0.992444  1
  Fe  Fe18  1  0.004044  0.814869  0.726907  1
  Fe  Fe19  1  0.247242  0.377967  0.992444  1
  Cl  Cl20  1  0.124918  0.251651  0.352441  1
  Cl  Cl21  1  0.625848  0.662420  0.733171  1
  Cl  Cl22  1  0.341661  0.230273  0.078184  1
  Cl  Cl23  1  0.841239  0.587941  0.879517  1
  Cl  Cl24  1  0.875082  0.748349  0.647559  1
  Cl  Cl25  1  0.925169  0.630502  0.380315  1
  Cl  Cl26  1  0.624918  0.248349  0.647559  1
  Cl  Cl27  1  0.096426  0.150342  0.151721  1
  Cl  Cl28  1  0.148300  0.007160  0.912249  1
  Cl  Cl29  1  0.425169  0.869498  0.619685  1
  Cl  Cl30  1  0.374152  0.337580  0.266829  1
  Cl  Cl31  1  0.874152  0.162420  0.733171  1
  Cl  Cl32  1  0.375082  0.751651  0.352441  1
  Cl  Cl33  1  0.903574  0.849658  0.848279  1
  Cl  Cl34  1  0.851158  0.323152  0.473807  1
  Cl  Cl35  1  0.351700  0.507160  0.912249  1
  Cl  Cl36  1  0.122237  0.689673  0.789387  1
  Cl  Cl37  1  0.299512  0.071630  0.314728  1
  Cl  Cl38  1  0.351158  0.176848  0.526193  1
  Cl  Cl39  1  0.700488  0.928370  0.685272  1
  Cl  Cl40  1  0.200488  0.571630  0.314728  1
  Cl  Cl41  1  0.658761  0.087941  0.879517  1
  Cl  Cl42  1  0.133551  0.350033  0.884816  1
  Cl  Cl43  1  0.080561  0.963859  0.639214  1
  Cl  Cl44  1  0.158761  0.412059  0.120483  1
  Cl  Cl45  1  0.148842  0.676848  0.526193  1
  Cl  Cl46  1  0.158339  0.730273  0.078184  1
  Cl  Cl47  1  0.919439  0.036141  0.360786  1
  Cl  Cl48  1  0.377763  0.189673  0.789387  1
  Cl  Cl49  1  0.633551  0.149967  0.115184  1
  Cl  Cl50  1  0.580561  0.536141  0.360786  1
  Cl  Cl51  1  0.877763  0.310327  0.210613  1
  Cl  Cl52  1  0.851700  0.992840  0.087751  1
  Cl  Cl53  1  0.866449  0.649967  0.115184  1
  Cl  Cl54  1  0.403574  0.650342  0.151721  1
  Cl  Cl55  1  0.366449  0.850033  0.884816  1
  Cl  Cl56  1  0.341239  0.912059  0.120483  1
  Cl  Cl57  1  0.648300  0.492840  0.087751  1
  Cl  Cl58  1  0.799512  0.428370  0.685272  1
  Cl  Cl59  1  0.841661  0.269727  0.921816  1
  Cl  Cl60  1  0.648842  0.823152  0.473807  1
  Cl  Cl61  1  0.574831  0.130502  0.380315  1
  Cl  Cl62  1  0.596426  0.349658  0.848279  1
  Cl  Cl63  1  0.419439  0.463859  0.639214  1
  Cl  Cl64  1  0.658339  0.769727  0.921816  1
  Cl  Cl65  1  0.622237  0.810327  0.210613  1
  Cl  Cl66  1  0.125848  0.837580  0.266829  1
  Cl  Cl67  1  0.074831  0.369498  0.619685  1
