# generated using pymatgen
data_Ac8Er5Tm7Si16
_symmetry_space_group_name_H-M   'P 1'
_cell_length_a   7.97822714
_cell_length_b   7.97723217
_cell_length_c   14.72248900
_cell_angle_alpha   90.02995067
_cell_angle_beta   90.01083691
_cell_angle_gamma   90.00809610
_symmetry_Int_Tables_number   1
_chemical_formula_structural   Ac8Er5Tm7Si16
_chemical_formula_sum   'Ac8 Er5 Tm7 Si16'
_cell_volume   937.00044183
_cell_formula_units_Z   1
loop_
 _symmetry_equiv_pos_site_id
 _symmetry_equiv_pos_as_xyz
  1  'x, y, z'
loop_
 _atom_site_type_symbol
 _atom_site_label
 _atom_site_symmetry_multiplicity
 _atom_site_fract_x
 _atom_site_fract_y
 _atom_site_fract_z
 _atom_site_occupancy
  Ac  Ac0  1  0.991362  0.644305  0.040914  1
  Ac  Ac1  1  0.008761  0.355805  0.540368  1
  Ac  Ac2  1  0.644251  0.990957  0.959571  1
  Ac  Ac3  1  0.144100  0.508672  0.790867  1
  Ac  Ac4  1  0.855485  0.491221  0.290446  1
  Ac  Ac5  1  0.509076  0.144380  0.209686  1
  Ac  Ac6  1  0.491005  0.855724  0.709099  1
  Ac  Ac7  1  0.355618  0.009102  0.459178  1
  Er  Er8  1  0.005494  0.859691  0.624468  1
  Er  Er9  1  0.640285  0.505236  0.874950  1
  Er  Er10  1  0.494714  0.359681  0.625051  1
  Er  Er11  1  0.505377  0.640232  0.125631  1
  Er  Er12  1  0.140040  0.994407  0.875450  1
  Tm  Tm13  1  0.359738  0.495397  0.374344  1
  Tm  Tm14  1  0.859714  0.004661  0.375324  1
  Tm  Tm15  1  0.995374  0.140567  0.124908  1
  Tm  Tm16  1  0.681504  0.682019  0.499785  1
  Tm  Tm17  1  0.817895  0.181718  0.749934  1
  Tm  Tm18  1  0.181447  0.818579  0.250005  1
  Tm  Tm19  1  0.317968  0.317901  0.000250  1
  Si  Si20  1  0.063784  0.714679  0.436291  1
  Si  Si21  1  0.936445  0.284881  0.937159  1
  Si  Si22  1  0.714896  0.063388  0.562857  1
  Si  Si23  1  0.214707  0.436149  0.186912  1
  Si  Si24  1  0.785289  0.563679  0.686716  1
  Si  Si25  1  0.436299  0.214497  0.813254  1
  Si  Si26  1  0.563820  0.785523  0.313588  1
  Si  Si27  1  0.285183  0.936710  0.063543  1
  Si  Si28  1  0.850772  0.796988  0.807524  1
  Si  Si29  1  0.148365  0.203037  0.307952  1
  Si  Si30  1  0.797865  0.852028  0.192338  1
  Si  Si31  1  0.297457  0.648714  0.557075  1
  Si  Si32  1  0.703497  0.350789  0.058244  1
  Si  Si33  1  0.648656  0.297024  0.441491  1
  Si  Si34  1  0.351082  0.702649  0.942576  1
  Si  Si35  1  0.202676  0.149009  0.692251  1
