# generated using pymatgen
data_TbHo3Mg2(B2Rh5)2
_symmetry_space_group_name_H-M   'P 1'
_cell_length_a   9.64368720
_cell_length_b   9.64368720
_cell_length_c   3.18880800
_cell_angle_alpha   90.00000000
_cell_angle_beta   90.00000000
_cell_angle_gamma   89.84172443
_symmetry_Int_Tables_number   1
_chemical_formula_structural   TbHo3Mg2(B2Rh5)2
_chemical_formula_sum   'Tb1 Ho3 Mg2 B4 Rh10'
_cell_volume   296.56025353
_cell_formula_units_Z   1
loop_
 _symmetry_equiv_pos_site_id
 _symmetry_equiv_pos_as_xyz
  1  'x, y, z'
loop_
 _atom_site_type_symbol
 _atom_site_label
 _atom_site_symmetry_multiplicity
 _atom_site_fract_x
 _atom_site_fract_y
 _atom_site_fract_z
 _atom_site_occupancy
  Tb  Tb0  1  0.675609  0.175609  0.000000  1
  Ho  Ho1  1  0.324164  0.824164  0.000000  1
  Ho  Ho2  1  0.175855  0.324261  0.000000  1
  Ho  Ho3  1  0.824261  0.675855  0.000000  1
  Mg  Mg4  1  0.000175  0.999886  0.000000  1
  Mg  Mg5  1  0.499886  0.500175  0.000000  1
  B  B6  1  0.122688  0.622688  0.000000  1
  B  B7  1  0.878023  0.378023  0.000000  1
  B  B8  1  0.622154  0.877101  0.000000  1
  B  B9  1  0.377101  0.122154  0.000000  1
  Rh  Rh10  1  0.499167  0.999167  0.500000  1
  Rh  Rh11  1  0.000345  0.500345  0.500000  1
  Rh  Rh12  1  0.223945  0.070525  0.500000  1
  Rh  Rh13  1  0.775770  0.928118  0.500000  1
  Rh  Rh14  1  0.070437  0.775498  0.500000  1
  Rh  Rh15  1  0.725218  0.431062  0.500000  1
  Rh  Rh16  1  0.931062  0.225218  0.500000  1
  Rh  Rh17  1  0.275498  0.570437  0.500000  1
  Rh  Rh18  1  0.570525  0.723945  0.500000  1
  Rh  Rh19  1  0.428118  0.275770  0.500000  1
