# generated using pymatgen
data_Nd3Eu(SeO4)6
_symmetry_space_group_name_H-M   'P 1'
_cell_length_a   10.24439939
_cell_length_b   10.24440089
_cell_length_c   10.24440032
_cell_angle_alpha   58.07266837
_cell_angle_beta   58.07266782
_cell_angle_gamma   58.07266696
_symmetry_Int_Tables_number   1
_chemical_formula_structural   Nd3Eu(SeO4)6
_chemical_formula_sum   'Nd3 Eu1 Se6 O24'
_cell_volume   726.63216430
_cell_formula_units_Z   1
loop_
 _symmetry_equiv_pos_site_id
 _symmetry_equiv_pos_as_xyz
  1  'x, y, z'
loop_
 _atom_site_type_symbol
 _atom_site_label
 _atom_site_symmetry_multiplicity
 _atom_site_fract_x
 _atom_site_fract_y
 _atom_site_fract_z
 _atom_site_occupancy
  Nd  Nd0  1  0.642517  0.642517  0.642517  1
  Nd  Nd1  1  0.356508  0.356508  0.356508  1
  Nd  Nd2  1  0.142899  0.142899  0.142899  1
  Eu  Eu3  1  0.855952  0.855952  0.855952  1
  Se  Se4  1  0.748446  0.035951  0.466727  1
  Se  Se5  1  0.964441  0.539157  0.245533  1
  Se  Se6  1  0.539157  0.245533  0.964442  1
  Se  Se7  1  0.466726  0.748446  0.035952  1
  Se  Se8  1  0.035952  0.466726  0.748446  1
  Se  Se9  1  0.245533  0.964441  0.539157  1
  O  O10  1  0.911794  0.063315  0.299710  1
  O  O11  1  0.773523  0.007028  0.628916  1
  O  O12  1  0.993771  0.376685  0.220336  1
  O  O13  1  0.705694  0.081413  0.939216  1
  O  O14  1  0.584188  0.202395  0.440959  1
  O  O15  1  0.874611  0.495309  0.721945  1
  O  O16  1  0.509421  0.271627  0.126751  1
  O  O17  1  0.797409  0.567142  0.408709  1
  O  O18  1  0.939216  0.705694  0.081413  1
  O  O19  1  0.567142  0.408709  0.797409  1
  O  O20  1  0.376685  0.220336  0.993771  1
  O  O21  1  0.271627  0.126751  0.509421  1
  O  O22  1  0.721945  0.874611  0.495309  1
  O  O23  1  0.628916  0.773523  0.007028  1
  O  O24  1  0.440959  0.584188  0.202395  1
  O  O25  1  0.063315  0.299710  0.911794  1
  O  O26  1  0.202395  0.440959  0.584188  1
  O  O27  1  0.495309  0.721945  0.874611  1
  O  O28  1  0.126751  0.509421  0.271627  1
  O  O29  1  0.408709  0.797409  0.567142  1
  O  O30  1  0.299710  0.911794  0.063315  1
  O  O31  1  0.007028  0.628916  0.773523  1
  O  O32  1  0.220336  0.993771  0.376685  1
  O  O33  1  0.081413  0.939216  0.705694  1
