# generated using pymatgen
data_Dy3Ho7OsRu3
_symmetry_space_group_name_H-M   'P 1'
_cell_length_a   6.33186974
_cell_length_b   7.29267518
_cell_length_c   8.45080244
_cell_angle_alpha   96.81041815
_cell_angle_beta   112.09844849
_cell_angle_gamma   89.85816002
_symmetry_Int_Tables_number   1
_chemical_formula_structural   Dy3Ho7OsRu3
_chemical_formula_sum   'Dy3 Ho7 Os1 Ru3'
_cell_volume   358.63211686
_cell_formula_units_Z   1
loop_
 _symmetry_equiv_pos_site_id
 _symmetry_equiv_pos_as_xyz
  1  'x, y, z'
loop_
 _atom_site_type_symbol
 _atom_site_label
 _atom_site_symmetry_multiplicity
 _atom_site_fract_x
 _atom_site_fract_y
 _atom_site_fract_z
 _atom_site_occupancy
  Dy  Dy0  1  0.978570  0.916276  0.186373  1
  Dy  Dy1  1  0.792087  0.584403  0.814840  1
  Dy  Dy2  1  0.021803  0.084760  0.813834  1
  Ho  Ho3  1  0.208904  0.415703  0.186638  1
  Ho  Ho4  1  0.641062  0.814579  0.434303  1
  Ho  Ho5  1  0.204422  0.684297  0.564343  1
  Ho  Ho6  1  0.359686  0.185079  0.565303  1
  Ho  Ho7  1  0.793833  0.315132  0.434713  1
  Ho  Ho8  1  0.420668  0.749246  0.000335  1
  Ho  Ho9  1  0.580347  0.250785  0.000471  1
  Os  Os10  1  0.821942  0.576439  0.219624  1
  Ru  Ru11  1  0.602947  0.924717  0.778947  1
  Ru  Ru12  1  0.176675  0.423106  0.779578  1
  Ru  Ru13  1  0.397053  0.075478  0.220699  1
