# generated using pymatgen
data_CaAcGa12Cu
_symmetry_space_group_name_H-M   'P 1'
_cell_length_a   6.24412600
_cell_length_b   6.24412600
_cell_length_c   15.58399800
_cell_angle_alpha   90.00000000
_cell_angle_beta   90.00000000
_cell_angle_gamma   90.00000000
_symmetry_Int_Tables_number   1
_chemical_formula_structural   CaAcGa12Cu
_chemical_formula_sum   'Ca2 Ac2 Ga24 Cu2'
_cell_volume   607.60620453
_cell_formula_units_Z   2
loop_
 _symmetry_equiv_pos_site_id
 _symmetry_equiv_pos_as_xyz
  1  'x, y, z'
loop_
 _atom_site_type_symbol
 _atom_site_label
 _atom_site_symmetry_multiplicity
 _atom_site_fract_x
 _atom_site_fract_y
 _atom_site_fract_z
 _atom_site_occupancy
  Ca  Ca0  1  0.000000  0.500000  0.755692  1
  Ca  Ca1  1  0.500000  0.000000  0.755692  1
  Ac  Ac2  1  0.000000  0.500000  0.246548  1
  Ac  Ac3  1  0.500000  0.000000  0.246548  1
  Ga  Ga4  1  0.677806  0.177806  0.433382  1
  Ga  Ga5  1  0.674884  0.825116  0.572816  1
  Ga  Ga6  1  0.174884  0.674884  0.572816  1
  Ga  Ga7  1  0.825116  0.325116  0.572816  1
  Ga  Ga8  1  0.500000  0.500000  0.176755  1
  Ga  Ga9  1  0.500000  0.500000  0.819147  1
  Ga  Ga10  1  0.000000  0.000000  0.819147  1
  Ga  Ga11  1  0.000000  0.000000  0.176755  1
  Ga  Ga12  1  0.500000  0.500000  0.343486  1
  Ga  Ga13  1  0.500000  0.500000  0.659508  1
  Ga  Ga14  1  0.000000  0.000000  0.659508  1
  Ga  Ga15  1  0.000000  0.000000  0.343486  1
  Ga  Ga16  1  0.249757  0.749757  0.913085  1
  Ga  Ga17  1  0.250243  0.249757  0.913085  1
  Ga  Ga18  1  0.749757  0.750243  0.913085  1
  Ga  Ga19  1  0.250347  0.249653  0.080634  1
  Ga  Ga20  1  0.749653  0.750347  0.080634  1
  Ga  Ga21  1  0.750243  0.250243  0.913085  1
  Ga  Ga22  1  0.750347  0.250347  0.080634  1
  Ga  Ga23  1  0.249653  0.749653  0.080634  1
  Ga  Ga24  1  0.322194  0.822194  0.433382  1
  Ga  Ga25  1  0.177806  0.322194  0.433382  1
  Ga  Ga26  1  0.822194  0.677806  0.433382  1
  Ga  Ga27  1  0.325116  0.174884  0.572816  1
  Cu  Cu28  1  0.500000  0.000000  0.999030  1
  Cu  Cu29  1  0.000000  0.500000  0.999030  1
