# generated using pymatgen
data_Ac16Nd4Si15Rh
_symmetry_space_group_name_H-M   'P 1'
_cell_length_a   8.19144145
_cell_length_b   8.21404933
_cell_length_c   16.41095200
_cell_angle_alpha   89.84202232
_cell_angle_beta   90.11827162
_cell_angle_gamma   90.08565527
_symmetry_Int_Tables_number   1
_chemical_formula_structural   Ac16Nd4Si15Rh
_chemical_formula_sum   'Ac16 Nd4 Si15 Rh1'
_cell_volume   1104.20155861
_cell_formula_units_Z   1
loop_
 _symmetry_equiv_pos_site_id
 _symmetry_equiv_pos_as_xyz
  1  'x, y, z'
loop_
 _atom_site_type_symbol
 _atom_site_label
 _atom_site_symmetry_multiplicity
 _atom_site_fract_x
 _atom_site_fract_y
 _atom_site_fract_z
 _atom_site_occupancy
  Ac  Ac0  1  0.471351  0.376054  0.129637  1
  Ac  Ac1  1  0.987034  0.112888  0.617203  1
  Ac  Ac2  1  0.878544  0.028196  0.879180  1
  Ac  Ac3  1  0.123241  0.969489  0.381768  1
  Ac  Ac4  1  0.523796  0.630924  0.627449  1
  Ac  Ac5  1  0.376640  0.473922  0.871211  1
  Ac  Ac6  1  0.619433  0.527750  0.371612  1
  Ac  Ac7  1  0.029277  0.879757  0.120440  1
  Ac  Ac8  1  0.614732  0.985699  0.445347  1
  Ac  Ac9  1  0.384691  0.015253  0.941744  1
  Ac  Ac10  1  0.980558  0.611411  0.555083  1
  Ac  Ac11  1  0.483874  0.881936  0.194818  1
  Ac  Ac12  1  0.513562  0.118693  0.689348  1
  Ac  Ac13  1  0.882627  0.485732  0.806571  1
  Ac  Ac14  1  0.114145  0.514388  0.306458  1
  Ac  Ac15  1  0.015836  0.382049  0.055776  1
  Nd  Nd16  1  0.314120  0.312388  0.501648  1
  Nd  Nd17  1  0.191771  0.811179  0.742110  1
  Nd  Nd18  1  0.812517  0.187502  0.251803  1
  Nd  Nd19  1  0.689143  0.694072  0.999799  1
  Si  Si20  1  0.714930  0.086766  0.064284  1
  Si  Si21  1  0.913821  0.285153  0.436474  1
  Si  Si22  1  0.415663  0.211838  0.314005  1
  Si  Si23  1  0.586588  0.785050  0.812477  1
  Si  Si24  1  0.213416  0.416241  0.687941  1
  Si  Si25  1  0.784170  0.586117  0.186331  1
  Si  Si26  1  0.081001  0.712350  0.937372  1
  Si  Si27  1  0.812636  0.826359  0.713683  1
  Si  Si28  1  0.185275  0.175900  0.216532  1
  Si  Si29  1  0.822150  0.811026  0.286783  1
  Si  Si30  1  0.317376  0.683953  0.464898  1
  Si  Si31  1  0.675799  0.313733  0.965270  1
  Si  Si32  1  0.689872  0.324478  0.536488  1
  Si  Si33  1  0.313881  0.677157  0.034219  1
  Si  Si34  1  0.172999  0.191999  0.787092  1
  Rh  Rh35  1  0.293532  0.912594  0.567146  1
