# generated using pymatgen
data_CdFe(S2O7)2
_symmetry_space_group_name_H-M   'P 1'
_cell_length_a   5.15770505
_cell_length_b   7.08708461
_cell_length_c   8.83592541
_cell_angle_alpha   93.06297618
_cell_angle_beta   94.61152997
_cell_angle_gamma   106.96441462
_symmetry_Int_Tables_number   1
_chemical_formula_structural   CdFe(S2O7)2
_chemical_formula_sum   'Cd1 Fe1 S4 O14'
_cell_volume   306.92308322
_cell_formula_units_Z   1
loop_
 _symmetry_equiv_pos_site_id
 _symmetry_equiv_pos_as_xyz
  1  'x, y, z'
loop_
 _atom_site_type_symbol
 _atom_site_label
 _atom_site_symmetry_multiplicity
 _atom_site_fract_x
 _atom_site_fract_y
 _atom_site_fract_z
 _atom_site_occupancy
  Cd  Cd0  1  0.000000  0.500000  0.000000  1
  Fe  Fe1  1  0.500000  0.000000  0.500000  1
  S  S2  1  0.504753  0.648058  0.762113  1
  S  S3  1  0.495247  0.351942  0.237887  1
  S  S4  1  0.133752  0.247374  0.682932  1
  S  S5  1  0.866248  0.752626  0.317068  1
  O  O6  1  0.719999  0.560392  0.804217  1
  O  O7  1  0.280001  0.439608  0.195783  1
  O  O8  1  0.361388  0.693791  0.888516  1
  O  O9  1  0.638612  0.306209  0.111484  1
  O  O10  1  0.586896  0.807797  0.663871  1
  O  O11  1  0.413104  0.192203  0.336129  1
  O  O12  1  0.276440  0.478934  0.643844  1
  O  O13  1  0.723560  0.521066  0.356156  1
  O  O14  1  0.908591  0.191018  0.563794  1
  O  O15  1  0.091409  0.808982  0.436206  1
  O  O16  1  0.340136  0.145502  0.667575  1
  O  O17  1  0.659864  0.854498  0.332425  1
  O  O18  1  0.060370  0.253210  0.838890  1
  O  O19  1  0.939630  0.746790  0.161110  1
