# generated using pymatgen
data_PrTm19(Bi3Sb)3
_symmetry_space_group_name_H-M   'P 1'
_cell_length_a   8.11390419
_cell_length_b   9.39681700
_cell_length_c   11.84425500
_cell_angle_alpha   90.00000000
_cell_angle_beta   90.05821445
_cell_angle_gamma   90.00000000
_symmetry_Int_Tables_number   1
_chemical_formula_structural   PrTm19(Bi3Sb)3
_chemical_formula_sum   'Pr1 Tm19 Bi9 Sb3'
_cell_volume   903.06324989
_cell_formula_units_Z   1
loop_
 _symmetry_equiv_pos_site_id
 _symmetry_equiv_pos_as_xyz
  1  'x, y, z'
loop_
 _atom_site_type_symbol
 _atom_site_label
 _atom_site_symmetry_multiplicity
 _atom_site_fract_x
 _atom_site_fract_y
 _atom_site_fract_z
 _atom_site_occupancy
  Pr  Pr0  1  0.813083  0.250000  0.278102  1
  Tm  Tm1  1  0.352110  0.750000  0.213314  1
  Tm  Tm2  1  0.853302  0.750000  0.284918  1
  Tm  Tm3  1  0.646730  0.250000  0.784866  1
  Tm  Tm4  1  0.148139  0.250000  0.719211  1
  Tm  Tm5  1  0.688770  0.564497  0.057405  1
  Tm  Tm6  1  0.188895  0.932019  0.442014  1
  Tm  Tm7  1  0.311009  0.063579  0.941841  1
  Tm  Tm8  1  0.809123  0.438112  0.560323  1
  Tm  Tm9  1  0.311009  0.436421  0.941841  1
  Tm  Tm10  1  0.809123  0.061888  0.560323  1
  Tm  Tm11  1  0.688770  0.935503  0.057405  1
  Tm  Tm12  1  0.188895  0.567981  0.442014  1
  Tm  Tm13  1  0.477692  0.250000  0.489760  1
  Tm  Tm14  1  0.974745  0.250000  0.010508  1
  Tm  Tm15  1  0.526649  0.750000  0.513271  1
  Tm  Tm16  1  0.026659  0.750000  0.988025  1
  Tm  Tm17  1  0.318274  0.250000  0.215030  1
  Tm  Tm18  1  0.683984  0.750000  0.783706  1
  Tm  Tm19  1  0.184001  0.750000  0.716386  1
  Bi  Bi20  1  0.099574  0.250000  0.460841  1
  Bi  Bi21  1  0.560066  0.992030  0.326521  1
  Bi  Bi22  1  0.070240  0.506582  0.172694  1
  Bi  Bi23  1  0.434188  0.496442  0.675581  1
  Bi  Bi24  1  0.933881  0.003311  0.825799  1
  Bi  Bi25  1  0.434188  0.003558  0.675581  1
  Bi  Bi26  1  0.933881  0.496689  0.825799  1
  Bi  Bi27  1  0.560066  0.507970  0.326521  1
  Bi  Bi28  1  0.070240  0.993418  0.172694  1
  Sb  Sb29  1  0.404753  0.750000  0.957615  1
  Sb  Sb30  1  0.904870  0.750000  0.541579  1
  Sb  Sb31  1  0.593095  0.250000  0.038509  1
