# generated using pymatgen
data_Sc6Al13Fe7MoW2
_symmetry_space_group_name_H-M   'P 1'
_cell_length_a   8.57920963
_cell_length_b   8.59569013
_cell_length_c   8.58921211
_cell_angle_alpha   59.87377200
_cell_angle_beta   59.75588399
_cell_angle_gamma   59.79730002
_symmetry_Int_Tables_number   1
_chemical_formula_structural   Sc6Al13Fe7MoW2
_chemical_formula_sum   'Sc6 Al13 Fe7 Mo1 W2'
_cell_volume   445.94185207
_cell_formula_units_Z   1
loop_
 _symmetry_equiv_pos_site_id
 _symmetry_equiv_pos_as_xyz
  1  'x, y, z'
loop_
 _atom_site_type_symbol
 _atom_site_label
 _atom_site_symmetry_multiplicity
 _atom_site_fract_x
 _atom_site_fract_y
 _atom_site_fract_z
 _atom_site_occupancy
  Sc  Sc0  1  0.706101  0.707327  0.290088  1
  Sc  Sc1  1  0.294793  0.707807  0.293809  1
  Sc  Sc2  1  0.706884  0.294670  0.294761  1
  Sc  Sc3  1  0.294685  0.293856  0.707795  1
  Sc  Sc4  1  0.706198  0.290095  0.707167  1
  Sc  Sc5  1  0.289794  0.707524  0.707600  1
  Al  Al6  1  0.881114  0.881540  0.881408  1
  Al  Al7  1  0.119570  0.120039  0.642686  1
  Al  Al8  1  0.119618  0.642726  0.120062  1
  Al  Al9  1  0.643104  0.119610  0.119613  1
  Al  Al10  1  0.119874  0.120263  0.120433  1
  Al  Al11  1  0.666307  0.667213  0.003770  1
  Al  Al12  1  0.666367  0.003771  0.667256  1
  Al  Al13  1  0.004820  0.666744  0.666251  1
  Al  Al14  1  0.662203  0.663047  0.663011  1
  Al  Al15  1  0.333328  0.332864  0.000936  1
  Al  Al16  1  0.333021  0.000892  0.333113  1
  Al  Al17  1  0.000355  0.333329  0.333407  1
  Al  Al18  1  0.334685  0.334476  0.334472  1
  Fe  Fe19  1  0.004332  0.004586  0.004465  1
  Fe  Fe20  1  0.995540  0.995773  0.492925  1
  Fe  Fe21  1  0.507505  0.993222  0.503725  1
  Fe  Fe22  1  0.993095  0.506081  0.506103  1
  Fe  Fe23  1  0.507510  0.503620  0.993255  1
  Fe  Fe24  1  0.995821  0.492890  0.995355  1
  Fe  Fe25  1  0.493353  0.995770  0.996322  1
  Mo  Mo26  1  0.361078  0.879701  0.879819  1
  W  W27  1  0.879512  0.879478  0.361017  1
  W  W28  1  0.879438  0.361090  0.879374  1
