# generated using pymatgen
data_Ce4DyCr3(P3Ir4)4
_symmetry_space_group_name_H-M   'P 1'
_cell_length_a   12.73079600
_cell_length_b   12.70335570
_cell_length_c   3.97661000
_cell_angle_alpha   90.00000000
_cell_angle_beta   90.00000000
_cell_angle_gamma   120.07148073
_symmetry_Int_Tables_number   1
_chemical_formula_structural   Ce4DyCr3(P3Ir4)4
_chemical_formula_sum   'Ce4 Dy1 Cr3 P12 Ir16'
_cell_volume   556.55024983
_cell_formula_units_Z   1
loop_
 _symmetry_equiv_pos_site_id
 _symmetry_equiv_pos_as_xyz
  1  'x, y, z'
loop_
 _atom_site_type_symbol
 _atom_site_label
 _atom_site_symmetry_multiplicity
 _atom_site_fract_x
 _atom_site_fract_y
 _atom_site_fract_z
 _atom_site_occupancy
  Ce  Ce0  1  0.333456  0.666404  0.500000  1
  Ce  Ce1  1  0.667053  0.333596  0.500000  1
  Ce  Ce2  1  0.999222  0.814225  0.000000  1
  Ce  Ce3  1  0.184996  0.185775  0.000000  1
  Dy  Dy4  1  0.810728  0.000000  0.000000  1
  Cr  Cr5  1  0.999363  0.454597  0.500000  1
  Cr  Cr6  1  0.544766  0.545403  0.500000  1
  Cr  Cr7  1  0.457524  0.000000  0.500000  1
  P  P8  1  0.999768  0.631729  0.500000  1
  P  P9  1  0.368038  0.368271  0.500000  1
  P  P10  1  0.634639  0.000000  0.500000  1
  P  P11  1  0.518662  0.684453  0.000000  1
  P  P12  1  0.315916  0.833654  0.000000  1
  P  P13  1  0.165961  0.481181  0.000000  1
  P  P14  1  0.482262  0.166346  0.000000  1
  P  P15  1  0.684780  0.518819  0.000000  1
  P  P16  1  0.834210  0.315547  0.000000  1
  P  P17  1  0.996523  0.175980  0.500000  1
  P  P18  1  0.820543  0.824020  0.500000  1
  P  P19  1  0.180225  0.000000  0.500000  1
  Ir  Ir20  1  0.509641  0.869616  0.000000  1
  Ir  Ir21  1  0.129528  0.639278  0.000000  1
  Ir  Ir22  1  0.359880  0.489326  0.000000  1
  Ir  Ir23  1  0.490250  0.360722  0.000000  1
  Ir  Ir24  1  0.870555  0.510674  0.000000  1
  Ir  Ir25  1  0.640025  0.130384  0.000000  1
  Ir  Ir26  1  0.999652  0.285183  0.000000  1
  Ir  Ir27  1  0.714469  0.714817  0.000000  1
  Ir  Ir28  1  0.285817  0.000000  0.000000  1
  Ir  Ir29  1  0.624124  0.803986  0.500000  1
  Ir  Ir30  1  0.198280  0.820351  0.500000  1
  Ir  Ir31  1  0.178471  0.377407  0.500000  1
  Ir  Ir32  1  0.377929  0.179649  0.500000  1
  Ir  Ir33  1  0.801065  0.622593  0.500000  1
  Ir  Ir34  1  0.820137  0.196014  0.500000  1
  Ir  Ir35  1  0.001540  0.000000  0.500000  1
