# generated using pymatgen
data_Y4Ga18(OsPd)3
_symmetry_space_group_name_H-M   'P 1'
_cell_length_a   7.61962619
_cell_length_b   7.61960899
_cell_length_c   9.56754206
_cell_angle_alpha   89.92267703
_cell_angle_beta   89.92296228
_cell_angle_gamma   119.79387680
_symmetry_Int_Tables_number   1
_chemical_formula_structural   Y4Ga18(OsPd)3
_chemical_formula_sum   'Y4 Ga18 Os3 Pd3'
_cell_volume   482.05223291
_cell_formula_units_Z   1
loop_
 _symmetry_equiv_pos_site_id
 _symmetry_equiv_pos_as_xyz
  1  'x, y, z'
loop_
 _atom_site_type_symbol
 _atom_site_label
 _atom_site_symmetry_multiplicity
 _atom_site_fract_x
 _atom_site_fract_y
 _atom_site_fract_z
 _atom_site_occupancy
  Y  Y0  1  0.996155  0.669675  0.252034  1
  Y  Y1  1  0.002338  0.329530  0.747200  1
  Y  Y2  1  0.670470  0.997664  0.252800  1
  Y  Y3  1  0.330326  0.003844  0.747967  1
  Ga  Ga4  1  0.133327  0.130428  0.250347  1
  Ga  Ga5  1  0.869573  0.866674  0.749653  1
  Ga  Ga6  1  0.004492  0.337566  0.080884  1
  Ga  Ga7  1  0.001389  0.664576  0.918751  1
  Ga  Ga8  1  0.999926  0.660932  0.578287  1
  Ga  Ga9  1  0.339065  0.000068  0.421713  1
  Ga  Ga10  1  0.001057  0.339123  0.420450  1
  Ga  Ga11  1  0.660878  0.998946  0.579549  1
  Ga  Ga12  1  0.662438  0.995511  0.919114  1
  Ga  Ga13  1  0.335424  0.998607  0.081250  1
  Ga  Ga14  1  0.339280  0.338667  0.563248  1
  Ga  Ga15  1  0.661332  0.660720  0.436752  1
  Ga  Ga16  1  0.661600  0.665989  0.068426  1
  Ga  Ga17  1  0.334014  0.338400  0.931574  1
  Ga  Ga18  1  0.337696  0.550838  0.250944  1
  Ga  Ga19  1  0.665190  0.454947  0.747734  1
  Ga  Ga20  1  0.545050  0.334810  0.252264  1
  Ga  Ga21  1  0.449165  0.662303  0.749057  1
  Os  Os22  1  0.327002  0.672998  0.000001  1
  Os  Os23  1  0.327025  0.672974  0.499999  1
  Os  Os24  1  0.673253  0.326753  0.500003  1
  Pd  Pd25  1  0.671995  0.327999  0.000001  1
  Pd  Pd26  1  0.000912  0.999087  0.999999  1
  Pd  Pd27  1  0.999633  0.000368  0.499999  1
