# generated using pymatgen
data_Sm2Y3Er3(Ni4As3)4
_symmetry_space_group_name_H-M   'P 1'
_cell_length_a   12.89699500
_cell_length_b   12.89699499
_cell_length_c   3.96722100
_cell_angle_alpha   90.00000000
_cell_angle_beta   90.00000000
_cell_angle_gamma   120.00000260
_symmetry_Int_Tables_number   1
_chemical_formula_structural   Sm2Y3Er3(Ni4As3)4
_chemical_formula_sum   'Sm2 Y3 Er3 Ni16 As12'
_cell_volume   571.47084283
_cell_formula_units_Z   1
loop_
 _symmetry_equiv_pos_site_id
 _symmetry_equiv_pos_as_xyz
  1  'x, y, z'
loop_
 _atom_site_type_symbol
 _atom_site_label
 _atom_site_symmetry_multiplicity
 _atom_site_fract_x
 _atom_site_fract_y
 _atom_site_fract_z
 _atom_site_occupancy
  Sm  Sm0  1  0.333333  0.666667  0.000000  1
  Sm  Sm1  1  0.666667  0.333333  0.000000  1
  Y  Y2  1  0.182525  0.182525  0.500000  1
  Y  Y3  1  0.817475  0.000000  0.500000  1
  Y  Y4  1  0.000000  0.817475  0.500000  1
  Er  Er5  1  0.565901  0.565901  0.000000  1
  Er  Er6  1  0.434099  0.000000  0.000000  1
  Er  Er7  1  0.000000  0.434099  0.000000  1
  Ni  Ni8  1  0.726304  0.726304  0.500000  1
  Ni  Ni9  1  0.273696  0.000000  0.500000  1
  Ni  Ni10  1  0.000000  0.273696  0.500000  1
  Ni  Ni11  1  0.186186  0.376663  0.000000  1
  Ni  Ni12  1  0.623337  0.809524  0.000000  1
  Ni  Ni13  1  0.190476  0.813814  0.000000  1
  Ni  Ni14  1  0.809524  0.623337  0.000000  1
  Ni  Ni15  1  0.813814  0.190476  0.000000  1
  Ni  Ni16  1  0.376663  0.186186  0.000000  1
  Ni  Ni17  1  0.361938  0.480431  0.500000  1
  Ni  Ni18  1  0.519569  0.881507  0.500000  1
  Ni  Ni19  1  0.118493  0.638062  0.500000  1
  Ni  Ni20  1  0.881507  0.519569  0.500000  1
  Ni  Ni21  1  0.638062  0.118493  0.500000  1
  Ni  Ni22  1  0.480431  0.361938  0.500000  1
  Ni  Ni23  1  0.000000  0.000000  0.000000  1
  As  As24  1  0.822506  0.822506  0.000000  1
  As  As25  1  0.177494  0.000000  0.000000  1
  As  As26  1  0.000000  0.177494  0.000000  1
  As  As27  1  0.174436  0.475774  0.500000  1
  As  As28  1  0.524226  0.698662  0.500000  1
  As  As29  1  0.301338  0.825564  0.500000  1
  As  As30  1  0.698662  0.524226  0.500000  1
  As  As31  1  0.825564  0.301338  0.500000  1
  As  As32  1  0.475774  0.174436  0.500000  1
  As  As33  1  0.352356  0.352356  0.000000  1
  As  As34  1  0.647644  0.000000  0.000000  1
  As  As35  1  0.000000  0.647644  0.000000  1
