# generated using pymatgen
data_BaNaMoF6
_symmetry_space_group_name_H-M   'P 1'
_cell_length_a   5.81651500
_cell_length_b   10.03885000
_cell_length_c   10.97523500
_cell_angle_alpha   90.00000000
_cell_angle_beta   90.00000000
_cell_angle_gamma   90.00000000
_symmetry_Int_Tables_number   1
_chemical_formula_structural   BaNaMoF6
_chemical_formula_sum   'Ba4 Na4 Mo4 F24'
_cell_volume   640.85628156
_cell_formula_units_Z   4
loop_
 _symmetry_equiv_pos_site_id
 _symmetry_equiv_pos_as_xyz
  1  'x, y, z'
loop_
 _atom_site_type_symbol
 _atom_site_label
 _atom_site_symmetry_multiplicity
 _atom_site_fract_x
 _atom_site_fract_y
 _atom_site_fract_z
 _atom_site_occupancy
  Ba  Ba0  1  0.503911  0.314498  0.178860  1
  Ba  Ba1  1  0.996089  0.685502  0.678860  1
  Ba  Ba2  1  0.496089  0.814498  0.321140  1
  Ba  Ba3  1  0.003911  0.185502  0.821140  1
  Na  Na4  1  0.041662  0.648061  0.087428  1
  Na  Na5  1  0.458338  0.351939  0.587428  1
  Na  Na6  1  0.958338  0.148061  0.412572  1
  Na  Na7  1  0.541662  0.851939  0.912572  1
  Mo  Mo8  1  0.037593  0.997005  0.125056  1
  Mo  Mo9  1  0.462407  0.002995  0.625056  1
  Mo  Mo10  1  0.962407  0.497005  0.374944  1
  Mo  Mo11  1  0.537593  0.502995  0.874944  1
  F  F12  1  0.206234  0.146096  0.579507  1
  F  F13  1  0.293766  0.853904  0.079507  1
  F  F14  1  0.793766  0.646096  0.920493  1
  F  F15  1  0.706234  0.353904  0.420493  1
  F  F16  1  0.209661  0.621118  0.294418  1
  F  F17  1  0.290339  0.378882  0.794418  1
  F  F18  1  0.790339  0.121118  0.205582  1
  F  F19  1  0.709661  0.878882  0.705582  1
  F  F20  1  0.216007  0.160550  0.047935  1
  F  F21  1  0.283993  0.839450  0.547935  1
  F  F22  1  0.783993  0.660550  0.452065  1
  F  F23  1  0.716007  0.339450  0.952065  1
  F  F24  1  0.145510  0.328961  0.317245  1
  F  F25  1  0.354490  0.671039  0.817245  1
  F  F26  1  0.854490  0.828961  0.182755  1
  F  F27  1  0.645510  0.171039  0.682755  1
  F  F28  1  0.344829  0.510276  0.037051  1
  F  F29  1  0.155171  0.489724  0.537051  1
  F  F30  1  0.655171  0.010276  0.462949  1
  F  F31  1  0.844829  0.989724  0.962949  1
  F  F32  1  0.216295  0.020375  0.290478  1
  F  F33  1  0.283705  0.979625  0.790478  1
  F  F34  1  0.783705  0.520375  0.209522  1
  F  F35  1  0.716295  0.479625  0.709522  1
