# generated using pymatgen
data_Th7IrOs2
_symmetry_space_group_name_H-M   'P 1'
_cell_length_a   10.06882191
_cell_length_b   10.06637744
_cell_length_c   6.32575853
_cell_angle_alpha   90.00000353
_cell_angle_beta   90.06883554
_cell_angle_gamma   119.99197154
_symmetry_Int_Tables_number   1
_chemical_formula_structural   Th7IrOs2
_chemical_formula_sum   'Th14 Ir2 Os4'
_cell_volume   555.30274692
_cell_formula_units_Z   2
loop_
 _symmetry_equiv_pos_site_id
 _symmetry_equiv_pos_as_xyz
  1  'x, y, z'
loop_
 _atom_site_type_symbol
 _atom_site_label
 _atom_site_symmetry_multiplicity
 _atom_site_fract_x
 _atom_site_fract_y
 _atom_site_fract_z
 _atom_site_occupancy
  Th  Th0  1  0.459120  0.539020  0.300674  1
  Th  Th1  1  0.080469  0.540234  0.299813  1
  Th  Th2  1  0.922855  0.461428  0.794741  1
  Th  Th3  1  0.252357  0.126178  0.501707  1
  Th  Th4  1  0.537069  0.077560  0.797954  1
  Th  Th5  1  0.744912  0.872456  0.000758  1
  Th  Th6  1  0.665862  0.332931  0.292395  1
  Th  Th7  1  0.128423  0.875421  0.001950  1
  Th  Th8  1  0.459120  0.920100  0.300674  1
  Th  Th9  1  0.537069  0.459509  0.797954  1
  Th  Th10  1  0.874185  0.125764  0.503745  1
  Th  Th11  1  0.128423  0.253002  0.001950  1
  Th  Th12  1  0.874185  0.748421  0.503745  1
  Th  Th13  1  0.333271  0.666636  0.786013  1
  Ir  Ir14  1  0.813669  0.625420  0.050901  1
  Ir  Ir15  1  0.813669  0.188250  0.050901  1
  Os  Os16  1  0.628742  0.814371  0.549496  1
  Os  Os17  1  0.375747  0.187873  0.049097  1
  Os  Os18  1  0.185426  0.372139  0.549765  1
  Os  Os19  1  0.185426  0.813287  0.549765  1
