# generated using pymatgen
data_AsRh3(SeO3)8
_symmetry_space_group_name_H-M   'P 1'
_cell_length_a   8.07110881
_cell_length_b   8.07110883
_cell_length_c   8.07110900
_cell_angle_alpha   89.25035888
_cell_angle_beta   90.74964112
_cell_angle_gamma   90.74963856
_symmetry_Int_Tables_number   1
_chemical_formula_structural   AsRh3(SeO3)8
_chemical_formula_sum   'As1 Rh3 Se8 O24'
_cell_volume   525.64078247
_cell_formula_units_Z   1
loop_
 _symmetry_equiv_pos_site_id
 _symmetry_equiv_pos_as_xyz
  1  'x, y, z'
loop_
 _atom_site_type_symbol
 _atom_site_label
 _atom_site_symmetry_multiplicity
 _atom_site_fract_x
 _atom_site_fract_y
 _atom_site_fract_z
 _atom_site_occupancy
  As  As0  1  0.000000  0.000000  0.500000  1
  Rh  Rh1  1  0.500000  0.500000  0.500000  1
  Rh  Rh2  1  0.500000  0.000000  0.000000  1
  Rh  Rh3  1  0.000000  0.500000  0.000000  1
  Se  Se4  1  0.836781  0.680260  0.317123  1
  Se  Se5  1  0.182877  0.163219  0.180260  1
  Se  Se6  1  0.671836  0.328164  0.828164  1
  Se  Se7  1  0.319740  0.817123  0.663219  1
  Se  Se8  1  0.163219  0.319740  0.682877  1
  Se  Se9  1  0.817123  0.836781  0.819740  1
  Se  Se10  1  0.328164  0.671836  0.171836  1
  Se  Se11  1  0.680260  0.182877  0.336781  1
  O  O12  1  0.742496  0.534383  0.445427  1
  O  O13  1  0.253700  0.010777  0.050491  1
  O  O14  1  0.758770  0.434680  0.997585  1
  O  O15  1  0.229050  0.975064  0.531059  1
  O  O16  1  0.449509  0.746300  0.510777  1
  O  O17  1  0.054573  0.257504  0.034383  1
  O  O18  1  0.968941  0.770950  0.475064  1
  O  O19  1  0.502415  0.241230  0.934680  1
  O  O20  1  0.565320  0.497585  0.741230  1
  O  O21  1  0.024936  0.031059  0.270950  1
  O  O22  1  0.465617  0.945427  0.757504  1
  O  O23  1  0.989223  0.550491  0.246300  1
  O  O24  1  0.257504  0.465617  0.554573  1
  O  O25  1  0.746300  0.989223  0.949509  1
  O  O26  1  0.241230  0.565320  0.002415  1
  O  O27  1  0.770950  0.024936  0.468941  1
  O  O28  1  0.550491  0.253700  0.489223  1
  O  O29  1  0.945427  0.742496  0.965617  1
  O  O30  1  0.031059  0.229050  0.524936  1
  O  O31  1  0.497585  0.758770  0.065320  1
  O  O32  1  0.434680  0.502415  0.258770  1
  O  O33  1  0.975064  0.968941  0.729050  1
  O  O34  1  0.534383  0.054573  0.242496  1
  O  O35  1  0.010777  0.449509  0.753700  1
