# generated using pymatgen
data_Li7Dy7ErZnSn8
_symmetry_space_group_name_H-M   'P 1'
_cell_length_a   9.37697202
_cell_length_b   9.37617379
_cell_length_c   7.28203307
_cell_angle_alpha   90.04305132
_cell_angle_beta   90.00258376
_cell_angle_gamma   119.99217803
_symmetry_Int_Tables_number   1
_chemical_formula_structural   Li7Dy7ErZnSn8
_chemical_formula_sum   'Li7 Dy7 Er1 Zn1 Sn8'
_cell_volume   554.50516917
_cell_formula_units_Z   1
loop_
 _symmetry_equiv_pos_site_id
 _symmetry_equiv_pos_as_xyz
  1  'x, y, z'
loop_
 _atom_site_type_symbol
 _atom_site_label
 _atom_site_symmetry_multiplicity
 _atom_site_fract_x
 _atom_site_fract_y
 _atom_site_fract_z
 _atom_site_occupancy
  Li  Li0  1  0.165126  0.832381  0.212076  1
  Li  Li1  1  0.667131  0.832208  0.212043  1
  Li  Li2  1  0.667563  0.335613  0.325296  1
  Li  Li3  1  0.832958  0.666369  0.711591  1
  Li  Li4  1  0.334356  0.166751  0.711840  1
  Li  Li5  1  0.832264  0.166415  0.712029  1
  Li  Li6  1  0.334120  0.667960  0.822503  1
  Dy  Dy7  1  0.999693  0.999423  0.000693  1
  Dy  Dy8  1  0.511431  0.022915  0.002454  1
  Dy  Dy9  1  0.511104  0.488539  0.006446  1
  Dy  Dy10  1  0.977493  0.488571  0.006531  1
  Dy  Dy11  1  0.000866  0.001629  0.501395  1
  Dy  Dy12  1  0.488584  0.977169  0.509897  1
  Dy  Dy13  1  0.023256  0.510549  0.506981  1
  Er  Er14  1  0.487482  0.510692  0.507021  1
  Zn  Zn15  1  0.166529  0.333029  0.203538  1
  Sn  Sn16  1  0.334714  0.668600  0.242369  1
  Sn  Sn17  1  0.832856  0.666411  0.269742  1
  Sn  Sn18  1  0.334780  0.166364  0.272673  1
  Sn  Sn19  1  0.831173  0.165551  0.271949  1
  Sn  Sn20  1  0.666855  0.334392  0.739532  1
  Sn  Sn21  1  0.166951  0.333216  0.768474  1
  Sn  Sn22  1  0.166069  0.832841  0.770691  1
  Sn  Sn23  1  0.666645  0.832412  0.770219  1
