# generated using pymatgen
data_Te13Ir2I5
_symmetry_space_group_name_H-M   'P 1'
_cell_length_a   9.74405547
_cell_length_b   9.74405740
_cell_length_c   10.02035964
_cell_angle_alpha   108.81946947
_cell_angle_beta   108.81947241
_cell_angle_gamma   108.90712862
_symmetry_Int_Tables_number   1
_chemical_formula_structural   Te13Ir2I5
_chemical_formula_sum   'Te13 Ir2 I5'
_cell_volume   748.79192503
_cell_formula_units_Z   1
loop_
 _symmetry_equiv_pos_site_id
 _symmetry_equiv_pos_as_xyz
  1  'x, y, z'
loop_
 _atom_site_type_symbol
 _atom_site_label
 _atom_site_symmetry_multiplicity
 _atom_site_fract_x
 _atom_site_fract_y
 _atom_site_fract_z
 _atom_site_occupancy
  Te  Te0  1  0.993477  0.506523  0.250000  1
  Te  Te1  1  0.934208  0.175021  0.179418  1
  Te  Te2  1  0.182925  0.935960  0.163873  1
  Te  Te3  1  0.172816  0.196372  0.947555  1
  Te  Te4  1  0.707473  0.675472  0.451607  1
  Te  Te5  1  0.437528  0.683970  0.664492  1
  Te  Te6  1  0.660960  0.430404  0.677656  1
  Te  Te7  1  0.069596  0.839040  0.822344  1
  Te  Te8  1  0.816030  0.062472  0.835508  1
  Te  Te9  1  0.824528  0.792527  0.048393  1
  Te  Te10  1  0.303628  0.327184  0.552445  1
  Te  Te11  1  0.564040  0.317075  0.336127  1
  Te  Te12  1  0.324979  0.565792  0.320582  1
  Ir  Ir13  1  0.248896  0.251104  0.250000  1
  Ir  Ir14  1  0.751208  0.748792  0.750000  1
  I  I15  1  0.215143  0.960885  0.495254  1
  I  I16  1  0.539115  0.284857  0.004746  1
  I  I17  1  0.759604  0.020519  0.490126  1
  I  I18  1  0.479481  0.740396  0.009874  1
  I  I19  1  0.014364  0.485636  0.750000  1
