# generated using pymatgen
data_Tb2Ho(ErC2)5
_symmetry_space_group_name_H-M   'P 1'
_cell_length_a   3.65526000
_cell_length_b   6.54743272
_cell_length_c   11.85689571
_cell_angle_alpha   91.01260538
_cell_angle_beta   90.00000000
_cell_angle_gamma   90.00000000
_symmetry_Int_Tables_number   1
_chemical_formula_structural   Tb2Ho(ErC2)5
_chemical_formula_sum   'Tb2 Ho1 Er5 C10'
_cell_volume   283.72165848
_cell_formula_units_Z   1
loop_
 _symmetry_equiv_pos_site_id
 _symmetry_equiv_pos_as_xyz
  1  'x, y, z'
loop_
 _atom_site_type_symbol
 _atom_site_label
 _atom_site_symmetry_multiplicity
 _atom_site_fract_x
 _atom_site_fract_y
 _atom_site_fract_z
 _atom_site_occupancy
  Tb  Tb0  1  0.500000  0.605170  0.698685  1
  Tb  Tb1  1  0.500000  0.395312  0.301054  1
  Ho  Ho2  1  0.000000  0.255743  0.542052  1
  Er  Er3  1  0.000000  0.743765  0.457668  1
  Er  Er4  1  0.000000  0.757937  0.957155  1
  Er  Er5  1  0.000000  0.242281  0.042982  1
  Er  Er6  1  0.500000  0.109687  0.805286  1
  Er  Er7  1  0.500000  0.890194  0.194779  1
  C  C8  1  0.500000  0.500993  0.499787  1
  C  C9  1  0.500000  0.000247  0.000028  1
  C  C10  1  0.000000  0.360219  0.735679  1
  C  C11  1  0.000000  0.640048  0.264743  1
  C  C12  1  0.000000  0.860581  0.763481  1
  C  C13  1  0.000000  0.139374  0.236637  1
  C  C14  1  0.000000  0.388791  0.847778  1
  C  C15  1  0.000000  0.611881  0.152527  1
  C  C16  1  0.000000  0.075126  0.342574  1
  C  C17  1  0.000000  0.922651  0.657105  1
