# generated using pymatgen
data_Sr2Si4P2Pd21
_symmetry_space_group_name_H-M   'P 1'
_cell_length_a   8.74578836
_cell_length_b   8.71981530
_cell_length_c   8.71981507
_cell_angle_alpha   60.09895964
_cell_angle_beta   59.90141938
_cell_angle_gamma   59.90141149
_symmetry_Int_Tables_number   1
_chemical_formula_structural   Sr2Si4P2Pd21
_chemical_formula_sum   'Sr2 Si4 P2 Pd21'
_cell_volume   469.86440863
_cell_formula_units_Z   1
loop_
 _symmetry_equiv_pos_site_id
 _symmetry_equiv_pos_as_xyz
  1  'x, y, z'
loop_
 _atom_site_type_symbol
 _atom_site_label
 _atom_site_symmetry_multiplicity
 _atom_site_fract_x
 _atom_site_fract_y
 _atom_site_fract_z
 _atom_site_occupancy
  Sr  Sr0  1  0.750043  0.749318  0.750596  1
  Sr  Sr1  1  0.249957  0.249404  0.250682  1
  Si  Si2  1  0.735810  0.262520  0.265861  1
  Si  Si3  1  0.264851  0.263775  0.736225  1
  Si  Si4  1  0.735149  0.263775  0.736225  1
  Si  Si5  1  0.264190  0.734139  0.737480  1
  P  P6  1  0.735850  0.733883  0.266117  1
  P  P7  1  0.264150  0.733883  0.266117  1
  Pd  Pd8  1  0.000000  0.002974  0.997026  1
  Pd  Pd9  1  0.612199  0.613318  0.162284  1
  Pd  Pd10  1  0.613529  0.159852  0.613090  1
  Pd  Pd11  1  0.161040  0.614132  0.611526  1
  Pd  Pd12  1  0.613302  0.614132  0.611526  1
  Pd  Pd13  1  0.386471  0.386910  0.840148  1
  Pd  Pd14  1  0.387801  0.837716  0.386682  1
  Pd  Pd15  1  0.838960  0.388474  0.385868  1
  Pd  Pd16  1  0.386698  0.388474  0.385868  1
  Pd  Pd17  1  0.002778  0.999355  0.341398  1
  Pd  Pd18  1  0.656469  0.999355  0.341398  1
  Pd  Pd19  1  0.000000  0.659834  0.340166  1
  Pd  Pd20  1  0.656324  0.344072  0.000599  1
  Pd  Pd21  1  0.999005  0.344072  0.000599  1
  Pd  Pd22  1  0.000000  0.344086  0.655914  1
  Pd  Pd23  1  0.343531  0.658602  0.000645  1
  Pd  Pd24  1  0.343676  0.999401  0.655928  1
  Pd  Pd25  1  0.342106  0.998270  0.001730  1
  Pd  Pd26  1  0.000995  0.999401  0.655928  1
  Pd  Pd27  1  0.997222  0.658602  0.000645  1
  Pd  Pd28  1  0.657894  0.998270  0.001730  1
