# generated using pymatgen
data_Ho3ErSiI6
_symmetry_space_group_name_H-M   'P 1'
_cell_length_a   4.20348400
_cell_length_b   13.90265487
_cell_length_c   14.71413133
_cell_angle_alpha   89.96870203
_cell_angle_beta   90.00000000
_cell_angle_gamma   90.00000000
_symmetry_Int_Tables_number   1
_chemical_formula_structural   Ho3ErSiI6
_chemical_formula_sum   'Ho6 Er2 Si2 I12'
_cell_volume   859.88763408
_cell_formula_units_Z   2
loop_
 _symmetry_equiv_pos_site_id
 _symmetry_equiv_pos_as_xyz
  1  'x, y, z'
loop_
 _atom_site_type_symbol
 _atom_site_label
 _atom_site_symmetry_multiplicity
 _atom_site_fract_x
 _atom_site_fract_y
 _atom_site_fract_z
 _atom_site_occupancy
  Ho  Ho0  1  0.500000  0.113749  0.347738  1
  Ho  Ho1  1  0.500000  0.886251  0.652262  1
  Ho  Ho2  1  0.500000  0.613652  0.152178  1
  Ho  Ho3  1  0.500000  0.386348  0.847822  1
  Ho  Ho4  1  0.000000  0.110194  0.573774  1
  Ho  Ho5  1  0.000000  0.889806  0.426226  1
  Er  Er6  1  0.000000  0.609519  0.926664  1
  Er  Er7  1  0.000000  0.390481  0.073336  1
  Si  Si8  1  0.500000  0.000000  0.500000  1
  Si  Si9  1  0.500000  0.500000  0.000000  1
  I  I10  1  0.500000  0.247470  0.161537  1
  I  I11  1  0.500000  0.752530  0.838463  1
  I  I12  1  0.500000  0.746500  0.337748  1
  I  I13  1  0.500000  0.253500  0.662252  1
  I  I14  1  0.000000  0.258819  0.414455  1
  I  I15  1  0.000000  0.741181  0.585545  1
  I  I16  1  0.000000  0.758463  0.084947  1
  I  I17  1  0.000000  0.241537  0.915053  1
  I  I18  1  0.000000  0.999529  0.240212  1
  I  I19  1  0.000000  0.000471  0.759788  1
  I  I20  1  0.000000  0.498987  0.259276  1
  I  I21  1  0.000000  0.501013  0.740724  1
