# generated using pymatgen
data_Y3Lu5(AlIr)2
_symmetry_space_group_name_H-M   'P 1'
_cell_length_a   9.43370682
_cell_length_b   9.43370725
_cell_length_c   9.43370800
_cell_angle_alpha   60.00000440
_cell_angle_beta   60.00000289
_cell_angle_gamma   60.00000141
_symmetry_Int_Tables_number   1
_chemical_formula_structural   Y3Lu5(AlIr)2
_chemical_formula_sum   'Y6 Lu10 Al4 Ir4'
_cell_volume   593.65240379
_cell_formula_units_Z   2
loop_
 _symmetry_equiv_pos_site_id
 _symmetry_equiv_pos_as_xyz
  1  'x, y, z'
loop_
 _atom_site_type_symbol
 _atom_site_label
 _atom_site_symmetry_multiplicity
 _atom_site_fract_x
 _atom_site_fract_y
 _atom_site_fract_z
 _atom_site_occupancy
  Y  Y0  1  0.940011  0.559989  0.559989  1
  Y  Y1  1  0.559989  0.940011  0.940011  1
  Y  Y2  1  0.559989  0.940011  0.559989  1
  Y  Y3  1  0.940011  0.559989  0.940011  1
  Y  Y4  1  0.559989  0.559989  0.940011  1
  Y  Y5  1  0.940011  0.940011  0.559989  1
  Lu  Lu6  1  0.351109  0.351109  0.351109  1
  Lu  Lu7  1  0.351109  0.351109  0.946673  1
  Lu  Lu8  1  0.351109  0.946673  0.351109  1
  Lu  Lu9  1  0.946673  0.351109  0.351109  1
  Lu  Lu10  1  0.806391  0.193609  0.193609  1
  Lu  Lu11  1  0.193609  0.806391  0.806391  1
  Lu  Lu12  1  0.193609  0.806391  0.193609  1
  Lu  Lu13  1  0.806391  0.193609  0.806391  1
  Lu  Lu14  1  0.193609  0.193609  0.806391  1
  Lu  Lu15  1  0.806391  0.806391  0.193609  1
  Al  Al16  1  0.577608  0.577608  0.577608  1
  Al  Al17  1  0.577608  0.577608  0.267177  1
  Al  Al18  1  0.577608  0.267177  0.577608  1
  Al  Al19  1  0.267177  0.577608  0.577608  1
  Ir  Ir20  1  0.140957  0.140957  0.140957  1
  Ir  Ir21  1  0.140957  0.140957  0.577128  1
  Ir  Ir22  1  0.140957  0.577128  0.140957  1
  Ir  Ir23  1  0.577128  0.140957  0.140957  1
