# generated using pymatgen
data_TbHo3(ZnGa)4
_symmetry_space_group_name_H-M   'P 1'
_cell_length_a   4.43466600
_cell_length_b   7.24731127
_cell_length_c   7.65852700
_cell_angle_alpha   90.03386844
_cell_angle_beta   90.00000000
_cell_angle_gamma   90.00000000
_symmetry_Int_Tables_number   1
_chemical_formula_structural   TbHo3(ZnGa)4
_chemical_formula_sum   'Tb1 Ho3 Zn4 Ga4'
_cell_volume   246.14045691
_cell_formula_units_Z   1
loop_
 _symmetry_equiv_pos_site_id
 _symmetry_equiv_pos_as_xyz
  1  'x, y, z'
loop_
 _atom_site_type_symbol
 _atom_site_label
 _atom_site_symmetry_multiplicity
 _atom_site_fract_x
 _atom_site_fract_y
 _atom_site_fract_z
 _atom_site_occupancy
  Tb  Tb0  1  0.250000  0.999033  0.755539  1
  Ho  Ho1  1  0.250000  0.499258  0.745120  1
  Ho  Ho2  1  0.750000  0.999014  0.244911  1
  Ho  Ho3  1  0.750000  0.498707  0.254498  1
  Zn  Zn4  1  0.250000  0.789899  0.416422  1
  Zn  Zn5  1  0.250000  0.291432  0.083410  1
  Zn  Zn6  1  0.750000  0.280102  0.582659  1
  Zn  Zn7  1  0.750000  0.774714  0.917351  1
  Ga  Ga8  1  0.250000  0.213177  0.416128  1
  Ga  Ga9  1  0.250000  0.711952  0.083794  1
  Ga  Ga10  1  0.750000  0.719678  0.582578  1
  Ga  Ga11  1  0.750000  0.223033  0.917587  1
