# generated using pymatgen
data_Ac2Yb5Co4Sn13
_symmetry_space_group_name_H-M   'P 1'
_cell_length_a   11.26482800
_cell_length_b   11.26482800
_cell_length_c   4.65005800
_cell_angle_alpha   90.00000000
_cell_angle_beta   90.00000000
_cell_angle_gamma   90.00000000
_symmetry_Int_Tables_number   1
_chemical_formula_structural   Ac2Yb5Co4Sn13
_chemical_formula_sum   'Ac2 Yb5 Co4 Sn13'
_cell_volume   590.07538688
_cell_formula_units_Z   1
loop_
 _symmetry_equiv_pos_site_id
 _symmetry_equiv_pos_as_xyz
  1  'x, y, z'
loop_
 _atom_site_type_symbol
 _atom_site_label
 _atom_site_symmetry_multiplicity
 _atom_site_fract_x
 _atom_site_fract_y
 _atom_site_fract_z
 _atom_site_occupancy
  Ac  Ac0  1  0.500000  0.000000  0.500000  1
  Ac  Ac1  1  0.000000  0.500000  0.500000  1
  Yb  Yb2  1  0.000000  0.000000  0.000000  1
  Yb  Yb3  1  0.337793  0.671024  0.500000  1
  Yb  Yb4  1  0.662207  0.328976  0.500000  1
  Yb  Yb5  1  0.328976  0.337793  0.500000  1
  Yb  Yb6  1  0.671024  0.662207  0.500000  1
  Co  Co7  1  0.118368  0.723937  0.000000  1
  Co  Co8  1  0.881632  0.276063  0.000000  1
  Co  Co9  1  0.276063  0.118368  0.000000  1
  Co  Co10  1  0.723937  0.881632  0.000000  1
  Sn  Sn11  1  0.280133  0.887345  0.000000  1
  Sn  Sn12  1  0.719867  0.112655  0.000000  1
  Sn  Sn13  1  0.112655  0.280133  0.000000  1
  Sn  Sn14  1  0.887345  0.719867  0.000000  1
  Sn  Sn15  1  0.078804  0.807922  0.500000  1
  Sn  Sn16  1  0.921196  0.192078  0.500000  1
  Sn  Sn17  1  0.192078  0.078804  0.500000  1
  Sn  Sn18  1  0.807922  0.921196  0.500000  1
  Sn  Sn19  1  0.521335  0.778981  0.000000  1
  Sn  Sn20  1  0.478665  0.221019  0.000000  1
  Sn  Sn21  1  0.221019  0.521335  0.000000  1
  Sn  Sn22  1  0.778981  0.478665  0.000000  1
  Sn  Sn23  1  0.500000  0.500000  0.000000  1
