# generated using pymatgen
data_Ti4Nb2Co16Si6Ge
_symmetry_space_group_name_H-M   'P 1'
_cell_length_a   7.88283787
_cell_length_b   7.88394960
_cell_length_c   7.88177992
_cell_angle_alpha   59.98655516
_cell_angle_beta   60.01665654
_cell_angle_gamma   59.99171626
_symmetry_Int_Tables_number   1
_chemical_formula_structural   Ti4Nb2Co16Si6Ge
_chemical_formula_sum   'Ti4 Nb2 Co16 Si6 Ge1'
_cell_volume   346.35305579
_cell_formula_units_Z   1
loop_
 _symmetry_equiv_pos_site_id
 _symmetry_equiv_pos_as_xyz
  1  'x, y, z'
loop_
 _atom_site_type_symbol
 _atom_site_label
 _atom_site_symmetry_multiplicity
 _atom_site_fract_x
 _atom_site_fract_y
 _atom_site_fract_z
 _atom_site_occupancy
  Ti  Ti0  1  0.798603  0.202877  0.201386  1
  Ti  Ti1  1  0.201468  0.202823  0.798635  1
  Ti  Ti2  1  0.797904  0.203288  0.797953  1
  Ti  Ti3  1  0.202160  0.799119  0.202097  1
  Nb  Nb4  1  0.200449  0.800753  0.799654  1
  Nb  Nb5  1  0.799619  0.800761  0.200390  1
  Co  Co6  1  0.620455  0.620121  0.138127  1
  Co  Co7  1  0.167062  0.499777  0.166939  1
  Co  Co8  1  0.861967  0.378710  0.379464  1
  Co  Co9  1  0.498407  0.833755  0.834253  1
  Co  Co10  1  0.501362  0.166525  0.165720  1
  Co  Co11  1  0.834194  0.833640  0.498469  1
  Co  Co12  1  0.165707  0.166400  0.501414  1
  Co  Co13  1  0.138049  0.620219  0.620465  1
  Co  Co14  1  0.166110  0.165441  0.166188  1
  Co  Co15  1  0.379442  0.378630  0.862041  1
  Co  Co16  1  0.620738  0.619815  0.620856  1
  Co  Co17  1  0.379225  0.861489  0.379101  1
  Co  Co18  1  0.379130  0.378764  0.379169  1
  Co  Co19  1  0.832859  0.833729  0.833002  1
  Co  Co20  1  0.620845  0.137242  0.620766  1
  Co  Co21  1  0.833882  0.497607  0.833857  1
  Si  Si22  1  0.500045  0.003126  0.500007  1
  Si  Si23  1  0.501787  0.498387  0.001480  1
  Si  Si24  1  0.998410  0.001352  0.498640  1
  Si  Si25  1  0.999925  0.496917  0.999877  1
  Si  Si26  1  0.001603  0.498341  0.501671  1
  Si  Si27  1  0.498613  0.001422  0.998428  1
  Ge  Ge28  1  0.499983  0.498968  0.499951  1
