# generated using pymatgen
data_Dy5Tm(Si3Ru)8
_symmetry_space_group_name_H-M   'P 1'
_cell_length_a   10.10658535
_cell_length_b   10.10658506
_cell_length_c   8.14421186
_cell_angle_alpha   90.02120658
_cell_angle_beta   90.02120313
_cell_angle_gamma   132.57902064
_symmetry_Int_Tables_number   1
_chemical_formula_structural   Dy5Tm(Si3Ru)8
_chemical_formula_sum   'Dy5 Tm1 Si24 Ru8'
_cell_volume   612.54646037
_cell_formula_units_Z   1
loop_
 _symmetry_equiv_pos_site_id
 _symmetry_equiv_pos_as_xyz
  1  'x, y, z'
loop_
 _atom_site_type_symbol
 _atom_site_label
 _atom_site_symmetry_multiplicity
 _atom_site_fract_x
 _atom_site_fract_y
 _atom_site_fract_z
 _atom_site_occupancy
  Dy  Dy0  1  0.000000  0.000000  0.000000  1
  Dy  Dy1  1  0.502800  0.002713  0.749751  1
  Dy  Dy2  1  0.997287  0.497200  0.250249  1
  Dy  Dy3  1  0.497200  0.997287  0.250249  1
  Dy  Dy4  1  0.002713  0.502800  0.749751  1
  Tm  Tm5  1  0.500000  0.500000  0.500000  1
  Si  Si6  1  0.794763  0.205237  0.500000  1
  Si  Si7  1  0.295050  0.704950  0.000000  1
  Si  Si8  1  0.205237  0.794763  0.500000  1
  Si  Si9  1  0.704950  0.295050  0.000000  1
  Si  Si10  1  0.332248  0.332248  0.833389  1
  Si  Si11  1  0.667752  0.667752  0.166611  1
  Si  Si12  1  0.167161  0.167161  0.333058  1
  Si  Si13  1  0.832839  0.832839  0.666942  1
  Si  Si14  1  0.122341  0.887789  0.728438  1
  Si  Si15  1  0.112211  0.877659  0.271562  1
  Si  Si16  1  0.611469  0.377107  0.228850  1
  Si  Si17  1  0.622893  0.388531  0.771150  1
  Si  Si18  1  0.877659  0.112211  0.271562  1
  Si  Si19  1  0.887789  0.122341  0.728438  1
  Si  Si20  1  0.388531  0.622893  0.771150  1
  Si  Si21  1  0.377107  0.611469  0.228850  1
  Si  Si22  1  0.345364  0.111842  0.505572  1
  Si  Si23  1  0.888158  0.654636  0.494428  1
  Si  Si24  1  0.387954  0.154506  0.005521  1
  Si  Si25  1  0.845494  0.612046  0.994479  1
  Si  Si26  1  0.654636  0.888158  0.494428  1
  Si  Si27  1  0.111842  0.345364  0.505572  1
  Si  Si28  1  0.612046  0.845494  0.994479  1
  Si  Si29  1  0.154506  0.387954  0.005521  1
  Ru  Ru30  1  0.668590  0.331410  0.500000  1
  Ru  Ru31  1  0.169235  0.830765  0.000000  1
  Ru  Ru32  1  0.331410  0.668590  0.500000  1
  Ru  Ru33  1  0.830765  0.169235  0.000000  1
  Ru  Ru34  1  0.127376  0.127376  0.626277  1
  Ru  Ru35  1  0.872624  0.872624  0.373723  1
  Ru  Ru36  1  0.374204  0.374204  0.128571  1
  Ru  Ru37  1  0.625796  0.625796  0.871429  1
