# generated using pymatgen
data_La6In9Cl
_symmetry_space_group_name_H-M   'P 1'
_cell_length_a   8.65654270
_cell_length_b   8.65654158
_cell_length_c   8.65654200
_cell_angle_alpha   119.09993605
_cell_angle_beta   119.09993951
_cell_angle_gamma   91.56615631
_symmetry_Int_Tables_number   1
_chemical_formula_structural   La6In9Cl
_chemical_formula_sum   'La6 In9 Cl1'
_cell_volume   464.74131844
_cell_formula_units_Z   1
loop_
 _symmetry_equiv_pos_site_id
 _symmetry_equiv_pos_as_xyz
  1  'x, y, z'
loop_
 _atom_site_type_symbol
 _atom_site_label
 _atom_site_symmetry_multiplicity
 _atom_site_fract_x
 _atom_site_fract_y
 _atom_site_fract_z
 _atom_site_occupancy
  La  La0  1  0.765366  0.765366  0.000000  1
  La  La1  1  0.234634  0.234634  0.000000  1
  La  La2  1  0.335492  0.844439  0.179928  1
  La  La3  1  0.664508  0.155561  0.820072  1
  La  La4  1  0.844439  0.664508  0.508947  1
  La  La5  1  0.155561  0.335492  0.491053  1
  In  In6  1  0.500000  0.500000  0.000000  1
  In  In7  1  0.968038  0.452451  0.788981  1
  In  In8  1  0.663469  0.179057  0.211019  1
  In  In9  1  0.452451  0.663469  0.484413  1
  In  In10  1  0.179057  0.968038  0.515587  1
  In  In11  1  0.031962  0.547549  0.211019  1
  In  In12  1  0.336531  0.820943  0.788981  1
  In  In13  1  0.547549  0.336531  0.515587  1
  In  In14  1  0.820943  0.031962  0.484413  1
  Cl  Cl15  1  0.000000  0.000000  0.000000  1
