# generated using pymatgen
data_LiNp6(BrN)6
_symmetry_space_group_name_H-M   'P 1'
_cell_length_a   6.63114540
_cell_length_b   6.63114535
_cell_length_c   10.78591471
_cell_angle_alpha   84.11846514
_cell_angle_beta   84.11846147
_cell_angle_gamma   120.06346588
_symmetry_Int_Tables_number   1
_chemical_formula_structural   LiNp6(BrN)6
_chemical_formula_sum   'Li1 Np6 Br6 N6'
_cell_volume   401.74512082
_cell_formula_units_Z   1
loop_
 _symmetry_equiv_pos_site_id
 _symmetry_equiv_pos_as_xyz
  1  'x, y, z'
loop_
 _atom_site_type_symbol
 _atom_site_label
 _atom_site_symmetry_multiplicity
 _atom_site_fract_x
 _atom_site_fract_y
 _atom_site_fract_z
 _atom_site_occupancy
  Li  Li0  1  0.000000  0.000000  0.000000  1
  Np  Np1  1  0.211796  0.211796  0.368083  1
  Np  Np2  1  0.544298  0.876556  0.367998  1
  Np  Np3  1  0.876556  0.544298  0.367998  1
  Np  Np4  1  0.123444  0.455702  0.632002  1
  Np  Np5  1  0.455702  0.123444  0.632002  1
  Np  Np6  1  0.788204  0.788204  0.631917  1
  Br  Br7  1  0.055015  0.726456  0.833375  1
  Br  Br8  1  0.383749  0.383749  0.833460  1
  Br  Br9  1  0.726456  0.055015  0.833375  1
  Br  Br10  1  0.273544  0.944985  0.166625  1
  Br  Br11  1  0.616251  0.616251  0.166540  1
  Br  Br12  1  0.944985  0.273544  0.166625  1
  N  N13  1  0.139955  0.139955  0.580780  1
  N  N14  1  0.472882  0.806276  0.581350  1
  N  N15  1  0.806276  0.472882  0.581350  1
  N  N16  1  0.193724  0.527118  0.418650  1
  N  N17  1  0.527118  0.193724  0.418650  1
  N  N18  1  0.860045  0.860045  0.419220  1
