# generated using pymatgen
data_Hf6BeGaTe
_symmetry_space_group_name_H-M   'P 1'
_cell_length_a   3.67088500
_cell_length_b   7.50665085
_cell_length_c   7.50665200
_cell_angle_alpha   120.00000507
_cell_angle_beta   90.00000000
_cell_angle_gamma   90.00000000
_symmetry_Int_Tables_number   1
_chemical_formula_structural   Hf6BeGaTe
_chemical_formula_sum   'Hf6 Be1 Ga1 Te1'
_cell_volume   179.14054373
_cell_formula_units_Z   1
loop_
 _symmetry_equiv_pos_site_id
 _symmetry_equiv_pos_as_xyz
  1  'x, y, z'
loop_
 _atom_site_type_symbol
 _atom_site_label
 _atom_site_symmetry_multiplicity
 _atom_site_fract_x
 _atom_site_fract_y
 _atom_site_fract_z
 _atom_site_occupancy
  Hf  Hf0  1  0.500000  0.758116  0.766865  1
  Hf  Hf1  1  0.500000  0.008748  0.241884  1
  Hf  Hf2  1  0.500000  0.233135  0.991252  1
  Hf  Hf3  1  0.000000  0.393639  0.402873  1
  Hf  Hf4  1  0.000000  0.009232  0.606361  1
  Hf  Hf5  1  0.000000  0.597127  0.990768  1
  Be  Be6  1  0.000000  0.000000  0.000000  1
  Ga  Ga7  1  0.500000  0.333333  0.666667  1
  Te  Te8  1  0.500000  0.666667  0.333333  1
