# generated using pymatgen
data_Tb3Y3(SiPd5)2
_symmetry_space_group_name_H-M   'P 1'
_cell_length_a   8.24928993
_cell_length_b   8.24272489
_cell_length_c   8.24272483
_cell_angle_alpha   127.22361105
_cell_angle_beta   125.74976822
_cell_angle_gamma   79.07707629
_symmetry_Int_Tables_number   1
_chemical_formula_structural   Tb3Y3(SiPd5)2
_chemical_formula_sum   'Tb3 Y3 Si2 Pd10'
_cell_volume   350.35613837
_cell_formula_units_Z   1
loop_
 _symmetry_equiv_pos_site_id
 _symmetry_equiv_pos_as_xyz
  1  'x, y, z'
loop_
 _atom_site_type_symbol
 _atom_site_label
 _atom_site_symmetry_multiplicity
 _atom_site_fract_x
 _atom_site_fract_y
 _atom_site_fract_z
 _atom_site_occupancy
  Tb  Tb0  1  0.388977  0.249775  0.139203  1
  Tb  Tb1  1  0.774837  0.550299  0.224536  1
  Tb  Tb2  1  0.608214  0.750006  0.858208  1
  Y  Y3  1  0.825561  0.049836  0.775725  1
  Y  Y4  1  0.225382  0.449999  0.775383  1
  Y  Y5  1  0.173784  0.949643  0.224141  1
  Si  Si6  1  0.215367  0.750323  0.465043  1
  Si  Si7  1  0.782048  0.249987  0.532060  1
  Pd  Pd8  1  0.831855  0.599254  0.643501  1
  Pd  Pd9  1  0.544589  0.311877  0.644016  1
  Pd  Pd10  1  0.455482  0.099042  0.766794  1
  Pd  Pd11  1  0.831855  0.188354  0.232602  1
  Pd  Pd12  1  0.168002  0.401167  0.356749  1
  Pd  Pd13  1  0.455482  0.688688  0.356440  1
  Pd  Pd14  1  0.544589  0.900573  0.232712  1
  Pd  Pd15  1  0.168002  0.811252  0.766835  1
  Pd  Pd16  1  0.002986  0.005013  0.508078  1
  Pd  Pd17  1  0.002986  0.494910  0.997974  1
