# generated using pymatgen
data_Zr2Co3P7Ru9
_symmetry_space_group_name_H-M   'P 1'
_cell_length_a   9.26630300
_cell_length_b   9.26630256
_cell_length_c   3.78738300
_cell_angle_alpha   90.00000000
_cell_angle_beta   90.00000000
_cell_angle_gamma   120.00000514
_symmetry_Int_Tables_number   1
_chemical_formula_structural   Zr2Co3P7Ru9
_chemical_formula_sum   'Zr2 Co3 P7 Ru9'
_cell_volume   281.63252463
_cell_formula_units_Z   1
loop_
 _symmetry_equiv_pos_site_id
 _symmetry_equiv_pos_as_xyz
  1  'x, y, z'
loop_
 _atom_site_type_symbol
 _atom_site_label
 _atom_site_symmetry_multiplicity
 _atom_site_fract_x
 _atom_site_fract_y
 _atom_site_fract_z
 _atom_site_occupancy
  Zr  Zr0  1  0.333333  0.666667  0.000000  1
  Zr  Zr1  1  0.666667  0.333333  0.500000  1
  Co  Co2  1  0.157649  0.272828  0.000000  1
  Co  Co3  1  0.727172  0.884821  0.000000  1
  Co  Co4  1  0.115179  0.842351  0.000000  1
  P  P5  1  0.118351  0.404261  0.500000  1
  P  P6  1  0.595739  0.714091  0.500000  1
  P  P7  1  0.285909  0.881649  0.500000  1
  P  P8  1  0.000000  0.000000  0.000000  1
  P  P9  1  0.410149  0.298681  0.000000  1
  P  P10  1  0.701319  0.111468  0.000000  1
  P  P11  1  0.888532  0.589851  0.000000  1
  Ru  Ru12  1  0.432129  0.066747  0.000000  1
  Ru  Ru13  1  0.933253  0.365383  0.000000  1
  Ru  Ru14  1  0.634617  0.567871  0.000000  1
  Ru  Ru15  1  0.382308  0.438976  0.500000  1
  Ru  Ru16  1  0.561024  0.943331  0.500000  1
  Ru  Ru17  1  0.056669  0.617692  0.500000  1
  Ru  Ru18  1  0.212317  0.087826  0.500000  1
  Ru  Ru19  1  0.912174  0.124490  0.500000  1
  Ru  Ru20  1  0.875510  0.787683  0.500000  1
