# generated using pymatgen
data_Y8Nb12Si15P
_symmetry_space_group_name_H-M   'P 1'
_cell_length_a   7.07252139
_cell_length_b   7.06801456
_cell_length_c   13.07520377
_cell_angle_alpha   89.92907794
_cell_angle_beta   89.99375194
_cell_angle_gamma   89.98008912
_symmetry_Int_Tables_number   1
_chemical_formula_structural   Y8Nb12Si15P
_chemical_formula_sum   'Y8 Nb12 Si15 P1'
_cell_volume   653.61168789
_cell_formula_units_Z   1
loop_
 _symmetry_equiv_pos_site_id
 _symmetry_equiv_pos_as_xyz
  1  'x, y, z'
loop_
 _atom_site_type_symbol
 _atom_site_label
 _atom_site_symmetry_multiplicity
 _atom_site_fract_x
 _atom_site_fract_y
 _atom_site_fract_z
 _atom_site_occupancy
  Y  Y0  1  0.002062  0.339017  0.218408  1
  Y  Y1  1  0.001209  0.658526  0.717639  1
  Y  Y2  1  0.158193  0.500111  0.467725  1
  Y  Y3  1  0.499203  0.842317  0.033322  1
  Y  Y4  1  0.840453  0.501130  0.968388  1
  Y  Y5  1  0.498849  0.159212  0.531597  1
  Y  Y6  1  0.341324  0.999465  0.782351  1
  Y  Y7  1  0.654845  0.000841  0.281124  1
  Nb  Nb8  1  0.171913  0.168966  0.001686  1
  Nb  Nb9  1  0.829090  0.829796  0.499910  1
  Nb  Nb10  1  0.329506  0.670965  0.249198  1
  Nb  Nb11  1  0.670883  0.329068  0.750159  1
  Nb  Nb12  1  0.155193  0.994814  0.372972  1
  Nb  Nb13  1  0.845500  0.007584  0.876122  1
  Nb  Nb14  1  0.507714  0.654601  0.625608  1
  Nb  Nb15  1  0.346002  0.492518  0.873941  1
  Nb  Nb16  1  0.489385  0.342193  0.127083  1
  Nb  Nb17  1  0.655522  0.509035  0.373659  1
  Nb  Nb18  1  0.992025  0.154208  0.623804  1
  Nb  Nb19  1  0.009601  0.848014  0.124725  1
  Si  Si20  1  0.706359  0.954847  0.687126  1
  Si  Si21  1  0.454683  0.793313  0.437035  1
  Si  Si22  1  0.206560  0.545233  0.062580  1
  Si  Si23  1  0.545140  0.206416  0.937106  1
  Si  Si24  1  0.793122  0.454833  0.562918  1
  Si  Si25  1  0.045720  0.292863  0.813641  1
  Si  Si26  1  0.955082  0.706425  0.312758  1
  Si  Si27  1  0.369745  0.299993  0.320452  1
  Si  Si28  1  0.632387  0.704371  0.817950  1
  Si  Si29  1  0.203576  0.868714  0.566850  1
  Si  Si30  1  0.132124  0.795102  0.932120  1
  Si  Si31  1  0.795600  0.132119  0.067725  1
  Si  Si32  1  0.867662  0.203279  0.431615  1
  Si  Si33  1  0.296259  0.367509  0.682279  1
  Si  Si34  1  0.705069  0.630603  0.181605  1
  P  P35  1  0.292440  0.041995  0.186821  1
