# generated using pymatgen
data_MgFe3(PtO3)8
_symmetry_space_group_name_H-M   'P 1'
_cell_length_a   4.60087785
_cell_length_b   9.19823373
_cell_length_c   9.46737400
_cell_angle_alpha   90.00000000
_cell_angle_beta   90.00000000
_cell_angle_gamma   89.81710171
_symmetry_Int_Tables_number   1
_chemical_formula_structural   MgFe3(PtO3)8
_chemical_formula_sum   'Mg1 Fe3 Pt8 O24'
_cell_volume   400.65675163
_cell_formula_units_Z   1
loop_
 _symmetry_equiv_pos_site_id
 _symmetry_equiv_pos_as_xyz
  1  'x, y, z'
loop_
 _atom_site_type_symbol
 _atom_site_label
 _atom_site_symmetry_multiplicity
 _atom_site_fract_x
 _atom_site_fract_y
 _atom_site_fract_z
 _atom_site_occupancy
  Mg  Mg0  1  0.000000  0.500000  0.000000  1
  Fe  Fe1  1  0.500307  0.750115  0.500000  1
  Fe  Fe2  1  0.000000  0.000000  0.000000  1
  Fe  Fe3  1  0.499693  0.249885  0.500000  1
  Pt  Pt4  1  0.000000  0.000000  0.331784  1
  Pt  Pt5  1  0.000000  0.500000  0.331697  1
  Pt  Pt6  1  0.497533  0.250607  0.831976  1
  Pt  Pt7  1  0.502467  0.749393  0.831976  1
  Pt  Pt8  1  0.497533  0.250607  0.168024  1
  Pt  Pt9  1  0.502467  0.749393  0.168024  1
  Pt  Pt10  1  0.000000  0.000000  0.668216  1
  Pt  Pt11  1  0.000000  0.500000  0.668303  1
  O  O12  1  0.306428  0.154286  0.000000  1
  O  O13  1  0.314031  0.655803  0.000000  1
  O  O14  1  0.192059  0.404261  0.500000  1
  O  O15  1  0.191102  0.904395  0.500000  1
  O  O16  1  0.808898  0.095605  0.500000  1
  O  O17  1  0.807941  0.595739  0.500000  1
  O  O18  1  0.685969  0.344197  0.000000  1
  O  O19  1  0.693572  0.845714  0.000000  1
  O  O20  1  0.307688  0.153154  0.336354  1
  O  O21  1  0.306483  0.653984  0.335874  1
  O  O22  1  0.193517  0.402657  0.833512  1
  O  O23  1  0.193997  0.903612  0.836207  1
  O  O24  1  0.806003  0.096388  0.836207  1
  O  O25  1  0.806483  0.597343  0.833512  1
  O  O26  1  0.806003  0.096388  0.163793  1
  O  O27  1  0.806483  0.597343  0.166488  1
  O  O28  1  0.193517  0.402657  0.166488  1
  O  O29  1  0.193997  0.903612  0.163793  1
  O  O30  1  0.693517  0.346016  0.335874  1
  O  O31  1  0.692312  0.846846  0.336354  1
  O  O32  1  0.307688  0.153154  0.663646  1
  O  O33  1  0.306483  0.653984  0.664126  1
  O  O34  1  0.693517  0.346016  0.664126  1
  O  O35  1  0.692312  0.846846  0.663646  1
