# generated using pymatgen
data_Y3TmTh6(Sn3C)2
_symmetry_space_group_name_H-M   'P 1'
_cell_length_a   9.22696900
_cell_length_b   9.22696877
_cell_length_c   6.50773300
_cell_angle_alpha   90.00000000
_cell_angle_beta   90.00000000
_cell_angle_gamma   120.00000441
_symmetry_Int_Tables_number   1
_chemical_formula_structural   Y3TmTh6(Sn3C)2
_chemical_formula_sum   'Y3 Tm1 Th6 Sn6 C2'
_cell_volume   479.82011551
_cell_formula_units_Z   1
loop_
 _symmetry_equiv_pos_site_id
 _symmetry_equiv_pos_as_xyz
  1  'x, y, z'
loop_
 _atom_site_type_symbol
 _atom_site_label
 _atom_site_symmetry_multiplicity
 _atom_site_fract_x
 _atom_site_fract_y
 _atom_site_fract_z
 _atom_site_occupancy
  Y  Y0  1  0.333333  0.666667  0.500000  1
  Y  Y1  1  0.333333  0.666667  0.000000  1
  Y  Y2  1  0.666667  0.333333  0.000000  1
  Tm  Tm3  1  0.666667  0.333333  0.500000  1
  Th  Th4  1  0.777453  0.777628  0.250063  1
  Th  Th5  1  0.222372  0.999825  0.250063  1
  Th  Th6  1  0.000175  0.222547  0.250063  1
  Th  Th7  1  0.222372  0.222547  0.749937  1
  Th  Th8  1  0.777453  0.999825  0.749937  1
  Th  Th9  1  0.000175  0.777628  0.749937  1
  Sn  Sn10  1  0.406431  0.405188  0.251537  1
  Sn  Sn11  1  0.594812  0.001243  0.251537  1
  Sn  Sn12  1  0.998757  0.593569  0.251537  1
  Sn  Sn13  1  0.594812  0.593569  0.748463  1
  Sn  Sn14  1  0.406431  0.001243  0.748463  1
  Sn  Sn15  1  0.998757  0.405188  0.748463  1
  C  C16  1  0.000000  0.000000  0.500000  1
  C  C17  1  0.000000  0.000000  0.000000  1
