# generated using pymatgen
data_Ho6Tm2Tc(B8Os)3
_symmetry_space_group_name_H-M   'P 1'
_cell_length_a   3.64582000
_cell_length_b   9.12038995
_cell_length_c   11.50449830
_cell_angle_alpha   89.97556055
_cell_angle_beta   90.00000000
_cell_angle_gamma   90.00000000
_symmetry_Int_Tables_number   1
_chemical_formula_structural   Ho6Tm2Tc(B8Os)3
_chemical_formula_sum   'Ho6 Tm2 Tc1 B24 Os3'
_cell_volume   382.53949033
_cell_formula_units_Z   1
loop_
 _symmetry_equiv_pos_site_id
 _symmetry_equiv_pos_as_xyz
  1  'x, y, z'
loop_
 _atom_site_type_symbol
 _atom_site_label
 _atom_site_symmetry_multiplicity
 _atom_site_fract_x
 _atom_site_fract_y
 _atom_site_fract_z
 _atom_site_occupancy
  Ho  Ho0  1  0.000000  0.323879  0.412900  1
  Ho  Ho1  1  0.000000  0.677140  0.583698  1
  Ho  Ho2  1  0.000000  0.819741  0.087874  1
  Ho  Ho3  1  0.000000  0.178116  0.914913  1
  Ho  Ho4  1  0.000000  0.942586  0.372329  1
  Ho  Ho5  1  0.000000  0.057020  0.627732  1
  Tm  Tm6  1  0.000000  0.444582  0.127972  1
  Tm  Tm7  1  0.000000  0.556581  0.872495  1
  Tc  Tc8  1  0.000000  0.636843  0.320830  1
  B  B9  1  0.500000  0.552739  0.433003  1
  B  B10  1  0.500000  0.446756  0.567287  1
  B  B11  1  0.500000  0.053793  0.066910  1
  B  B12  1  0.500000  0.946176  0.933357  1
  B  B13  1  0.500000  0.747841  0.419310  1
  B  B14  1  0.500000  0.252280  0.580592  1
  B  B15  1  0.500000  0.249213  0.080303  1
  B  B16  1  0.500000  0.750871  0.919660  1
  B  B17  1  0.500000  0.790947  0.265902  1
  B  B18  1  0.500000  0.209392  0.734043  1
  B  B19  1  0.500000  0.291679  0.233040  1
  B  B20  1  0.500000  0.708640  0.766423  1
  B  B21  1  0.500000  0.630691  0.185191  1
  B  B22  1  0.500000  0.369165  0.815236  1
  B  B23  1  0.500000  0.131685  0.313972  1
  B  B24  1  0.500000  0.868585  0.685597  1
  B  B25  1  0.500000  0.982927  0.212539  1
  B  B26  1  0.500000  0.016997  0.787814  1
  B  B27  1  0.500000  0.481822  0.286778  1
  B  B28  1  0.500000  0.517479  0.713301  1
  B  B29  1  0.500000  0.605246  0.028805  1
  B  B30  1  0.500000  0.394556  0.970571  1
  B  B31  1  0.500000  0.107626  0.470331  1
  B  B32  1  0.500000  0.893442  0.530019  1
  Os  Os33  1  0.000000  0.362934  0.679766  1
  Os  Os34  1  0.000000  0.138153  0.177810  1
  Os  Os35  1  0.000000  0.861875  0.821699  1
