# generated using pymatgen
data_Th7Tc2Pt
_symmetry_space_group_name_H-M   'P 1'
_cell_length_a   10.03884600
_cell_length_b   10.05999111
_cell_length_c   6.32147854
_cell_angle_alpha   89.81604762
_cell_angle_beta   90.00000000
_cell_angle_gamma   119.93049399
_symmetry_Int_Tables_number   1
_chemical_formula_structural   Th7Tc2Pt
_chemical_formula_sum   'Th14 Tc4 Pt2'
_cell_volume   553.26278357
_cell_formula_units_Z   2
loop_
 _symmetry_equiv_pos_site_id
 _symmetry_equiv_pos_as_xyz
  1  'x, y, z'
loop_
 _atom_site_type_symbol
 _atom_site_label
 _atom_site_symmetry_multiplicity
 _atom_site_fract_x
 _atom_site_fract_y
 _atom_site_fract_z
 _atom_site_occupancy
  Th  Th0  1  0.668798  0.337594  0.556842  1
  Th  Th1  1  0.333022  0.666045  0.035721  1
  Th  Th2  1  0.876585  0.753170  0.748718  1
  Th  Th3  1  0.245928  0.123926  0.756191  1
  Th  Th4  1  0.877998  0.123926  0.756191  1
  Th  Th5  1  0.131830  0.263660  0.250804  1
  Th  Th6  1  0.746821  0.867526  0.250433  1
  Th  Th7  1  0.120706  0.867526  0.250433  1
  Th  Th8  1  0.457589  0.915178  0.546040  1
  Th  Th9  1  0.082744  0.544047  0.549276  1
  Th  Th10  1  0.461302  0.544047  0.549276  1
  Th  Th11  1  0.536168  0.072334  0.036715  1
  Th  Th12  1  0.919440  0.464601  0.043911  1
  Th  Th13  1  0.545162  0.464601  0.043911  1
  Tc  Tc14  1  0.184263  0.368526  0.799481  1
  Tc  Tc15  1  0.630967  0.817931  0.799947  1
  Tc  Tc16  1  0.186965  0.817931  0.799947  1
  Tc  Tc17  1  0.809497  0.618995  0.302495  1
  Pt  Pt18  1  0.376398  0.184218  0.305882  1
  Pt  Pt19  1  0.807820  0.184218  0.305882  1
