# generated using pymatgen
data_Ti5Co8Si14Mo3
_symmetry_space_group_name_H-M   'P 1'
_cell_length_a   9.12470576
_cell_length_b   9.12466832
_cell_length_c   9.12957527
_cell_angle_alpha   94.18283536
_cell_angle_beta   94.17991376
_cell_angle_gamma   148.65700856
_symmetry_Int_Tables_number   1
_chemical_formula_structural   Ti5Co8Si14Mo3
_chemical_formula_sum   'Ti5 Co8 Si14 Mo3'
_cell_volume   380.71120840
_cell_formula_units_Z   1
loop_
 _symmetry_equiv_pos_site_id
 _symmetry_equiv_pos_as_xyz
  1  'x, y, z'
loop_
 _atom_site_type_symbol
 _atom_site_label
 _atom_site_symmetry_multiplicity
 _atom_site_fract_x
 _atom_site_fract_y
 _atom_site_fract_z
 _atom_site_occupancy
  Ti  Ti0  1  0.134712  0.865275  0.999991  1
  Ti  Ti1  1  0.499144  0.690575  0.189731  1
  Ti  Ti2  1  0.500684  0.311106  0.811772  1
  Ti  Ti3  1  0.309422  0.500870  0.810280  1
  Ti  Ti4  1  0.688888  0.499336  0.188238  1
  Co  Co5  1  0.399830  0.900127  0.798820  1
  Co  Co6  1  0.099884  0.600168  0.201186  1
  Co  Co7  1  0.099930  0.900057  0.499999  1
  Co  Co8  1  0.399702  0.600295  0.499993  1
  Co  Co9  1  0.599930  0.400081  0.500002  1
  Co  Co10  1  0.899700  0.100292  0.499994  1
  Co  Co11  1  0.898713  0.399003  0.798831  1
  Co  Co12  1  0.601004  0.101283  0.201174  1
  Si  Si13  1  0.294047  0.294322  0.588465  1
  Si  Si14  1  0.705678  0.705949  0.411531  1
  Si  Si15  1  0.705675  0.294381  0.000029  1
  Si  Si16  1  0.293778  0.706204  0.000013  1
  Si  Si17  1  0.000346  0.291850  0.292213  1
  Si  Si18  1  0.999074  0.706253  0.705311  1
  Si  Si19  1  0.708163  0.999655  0.707782  1
  Si  Si20  1  0.293735  0.000910  0.294680  1
  Si  Si21  1  0.499896  0.905376  0.405224  1
  Si  Si22  1  0.499681  0.094512  0.594177  1
  Si  Si23  1  0.094597  0.500102  0.594763  1
  Si  Si24  1  0.905479  0.500326  0.405809  1
  Si  Si25  1  0.750159  0.751697  0.000004  1
  Si  Si26  1  0.248309  0.249846  0.000012  1
  Mo  Mo27  1  0.132808  0.130047  0.262836  1
  Mo  Mo28  1  0.869958  0.867195  0.737168  1
  Mo  Mo29  1  0.867074  0.132908  0.999974  1
