# generated using pymatgen
data_Cs2TaAuSe4
_symmetry_space_group_name_H-M   'P 1'
_cell_length_a   15.17810783
_cell_length_b   13.50675186
_cell_length_c   8.13829235
_cell_angle_alpha   85.22793707
_cell_angle_beta   62.47373597
_cell_angle_gamma   32.29831909
_symmetry_Int_Tables_number   1
_chemical_formula_structural   Cs2TaAuSe4
_chemical_formula_sum   'Cs4 Ta2 Au2 Se8'
_cell_volume   601.54183290
_cell_formula_units_Z   2
loop_
 _symmetry_equiv_pos_site_id
 _symmetry_equiv_pos_as_xyz
  1  'x, y, z'
loop_
 _atom_site_type_symbol
 _atom_site_label
 _atom_site_symmetry_multiplicity
 _atom_site_fract_x
 _atom_site_fract_y
 _atom_site_fract_z
 _atom_site_occupancy
  Cs  Cs0  1  0.678376  0.678376  0.321624  1
  Cs  Cs1  1  0.321624  0.321624  0.678376  1
  Cs  Cs2  1  0.571624  0.571624  0.928376  1
  Cs  Cs3  1  0.928376  0.928376  0.571624  1
  Ta  Ta4  1  0.500000  0.500000  0.500000  1
  Ta  Ta5  1  0.750000  0.750000  0.750000  1
  Au  Au6  1  0.000000  0.000000  0.000000  1
  Au  Au7  1  0.250000  0.250000  0.250000  1
  Se  Se8  1  0.237729  0.871525  0.569838  1
  Se  Se9  1  0.320909  0.569838  0.871525  1
  Se  Se10  1  0.569838  0.320909  0.237729  1
  Se  Se11  1  0.871525  0.237729  0.320909  1
  Se  Se12  1  0.378475  0.012271  0.929091  1
  Se  Se13  1  0.929091  0.680162  0.378475  1
  Se  Se14  1  0.680162  0.929091  0.012271  1
  Se  Se15  1  0.012271  0.378475  0.680162  1
