# generated using pymatgen
data_Pr10InSi4Pt
_symmetry_space_group_name_H-M   'P 1'
_cell_length_a   7.79333656
_cell_length_b   7.79333701
_cell_length_c   9.29832591
_cell_angle_alpha   114.77602024
_cell_angle_beta   114.77602328
_cell_angle_gamma   89.99999974
_symmetry_Int_Tables_number   1
_chemical_formula_structural   Pr10InSi4Pt
_chemical_formula_sum   'Pr10 In1 Si4 Pt1'
_cell_volume   454.87567088
_cell_formula_units_Z   1
loop_
 _symmetry_equiv_pos_site_id
 _symmetry_equiv_pos_as_xyz
  1  'x, y, z'
loop_
 _atom_site_type_symbol
 _atom_site_label
 _atom_site_symmetry_multiplicity
 _atom_site_fract_x
 _atom_site_fract_y
 _atom_site_fract_z
 _atom_site_occupancy
  Pr  Pr0  1  0.525992  0.525992  0.051985  1
  Pr  Pr1  1  0.974008  0.974008  0.948015  1
  Pr  Pr2  1  0.980047  0.833801  0.279700  1
  Pr  Pr3  1  0.299653  0.445899  0.279700  1
  Pr  Pr4  1  0.833801  0.299653  0.279700  1
  Pr  Pr5  1  0.445899  0.980047  0.279700  1
  Pr  Pr6  1  0.054101  0.200347  0.720300  1
  Pr  Pr7  1  0.666199  0.519953  0.720300  1
  Pr  Pr8  1  0.200347  0.666199  0.720300  1
  Pr  Pr9  1  0.519953  0.054101  0.720300  1
  In  In10  1  0.750000  0.750000  0.500000  1
  Si  Si11  1  0.614454  0.885546  0.000000  1
  Si  Si12  1  0.385546  0.114454  0.000000  1
  Si  Si13  1  0.885546  0.385546  0.000000  1
  Si  Si14  1  0.114454  0.614454  0.000000  1
  Pt  Pt15  1  0.250000  0.250000  0.500000  1
