# generated using pymatgen
data_Y2(CdIn)3
_symmetry_space_group_name_H-M   'P 1'
_cell_length_a   4.60314200
_cell_length_b   4.57060800
_cell_length_c   9.29869500
_cell_angle_alpha   90.00000000
_cell_angle_beta   90.00000000
_cell_angle_gamma   90.00000000
_symmetry_Int_Tables_number   1
_chemical_formula_structural   Y2(CdIn)3
_chemical_formula_sum   'Y2 Cd3 In3'
_cell_volume   195.63671005
_cell_formula_units_Z   1
loop_
 _symmetry_equiv_pos_site_id
 _symmetry_equiv_pos_as_xyz
  1  'x, y, z'
loop_
 _atom_site_type_symbol
 _atom_site_label
 _atom_site_symmetry_multiplicity
 _atom_site_fract_x
 _atom_site_fract_y
 _atom_site_fract_z
 _atom_site_occupancy
  Y  Y0  1  0.000000  0.000000  0.254342  1
  Y  Y1  1  0.000000  0.000000  0.745658  1
  Cd  Cd2  1  0.000000  0.500000  0.000000  1
  Cd  Cd3  1  0.500000  0.000000  0.500000  1
  Cd  Cd4  1  0.500000  0.000000  0.000000  1
  In  In5  1  0.500000  0.500000  0.243855  1
  In  In6  1  0.500000  0.500000  0.756145  1
  In  In7  1  0.000000  0.500000  0.500000  1
