# generated using pymatgen
data_Hf8Fe3Tc4Pd
_symmetry_space_group_name_H-M   'P 1'
_cell_length_a   6.44636700
_cell_length_b   4.56722400
_cell_length_c   9.13610000
_cell_angle_alpha   90.00000000
_cell_angle_beta   90.00018295
_cell_angle_gamma   90.00000000
_symmetry_Int_Tables_number   1
_chemical_formula_structural   Hf8Fe3Tc4Pd
_chemical_formula_sum   'Hf8 Fe3 Tc4 Pd1'
_cell_volume   268.98507516
_cell_formula_units_Z   1
loop_
 _symmetry_equiv_pos_site_id
 _symmetry_equiv_pos_as_xyz
  1  'x, y, z'
loop_
 _atom_site_type_symbol
 _atom_site_label
 _atom_site_symmetry_multiplicity
 _atom_site_fract_x
 _atom_site_fract_y
 _atom_site_fract_z
 _atom_site_occupancy
  Hf  Hf0  1  0.496065  0.750000  0.130989  1
  Hf  Hf1  1  0.003936  0.750000  0.130991  1
  Hf  Hf2  1  0.501382  0.250000  0.375005  1
  Hf  Hf3  1  0.998621  0.250000  0.375007  1
  Hf  Hf4  1  0.003961  0.750000  0.619014  1
  Hf  Hf5  1  0.496037  0.750000  0.619015  1
  Hf  Hf6  1  0.009882  0.250000  0.875007  1
  Hf  Hf7  1  0.490115  0.250000  0.875009  1
  Fe  Fe8  1  0.250000  0.250000  0.124593  1
  Fe  Fe9  1  0.749999  0.750000  0.375012  1
  Fe  Fe10  1  0.250001  0.250000  0.625360  1
  Tc  Tc11  1  0.750002  0.250000  0.124283  1
  Tc  Tc12  1  0.250002  0.750000  0.375012  1
  Tc  Tc13  1  0.749998  0.250000  0.625706  1
  Tc  Tc14  1  0.249998  0.750000  0.874996  1
  Pd  Pd15  1  0.750001  0.750000  0.875002  1
