# generated using pymatgen
data_Dy6NiI10
_symmetry_space_group_name_H-M   'P 1'
_cell_length_a   7.71103059
_cell_length_b   9.68573822
_cell_length_c   9.70320934
_cell_angle_alpha   107.20977961
_cell_angle_beta   96.97249145
_cell_angle_gamma   104.75420905
_symmetry_Int_Tables_number   1
_chemical_formula_structural   Dy6NiI10
_chemical_formula_sum   'Dy6 Ni1 I10'
_cell_volume   654.07150712
_cell_formula_units_Z   1
loop_
 _symmetry_equiv_pos_site_id
 _symmetry_equiv_pos_as_xyz
  1  'x, y, z'
loop_
 _atom_site_type_symbol
 _atom_site_label
 _atom_site_symmetry_multiplicity
 _atom_site_fract_x
 _atom_site_fract_y
 _atom_site_fract_z
 _atom_site_occupancy
  Dy  Dy0  1  0.340195  0.121376  0.161715  1
  Dy  Dy1  1  0.659805  0.878624  0.838285  1
  Dy  Dy2  1  0.970254  0.279759  0.083873  1
  Dy  Dy3  1  0.029746  0.720241  0.916127  1
  Dy  Dy4  1  0.888410  0.960514  0.235803  1
  Dy  Dy5  1  0.111590  0.039486  0.764197  1
  Ni  Ni6  1  0.000000  0.000000  0.000000  1
  I  I7  1  0.353093  0.451481  0.272466  1
  I  I8  1  0.646907  0.548519  0.727534  1
  I  I9  1  0.777283  0.257483  0.345483  1
  I  I10  1  0.222717  0.742517  0.654517  1
  I  I11  1  0.545984  0.184516  0.907235  1
  I  I12  1  0.454016  0.815484  0.092765  1
  I  I13  1  0.740554  0.911757  0.537250  1
  I  I14  1  0.259446  0.088243  0.462750  1
  I  I15  1  0.914637  0.628292  0.180600  1
  I  I16  1  0.085363  0.371708  0.819400  1
