# generated using pymatgen
data_Ho4Al18(IrPd)3
_symmetry_space_group_name_H-M   'P 1'
_cell_length_a   7.59573043
_cell_length_b   7.59573065
_cell_length_c   9.43240990
_cell_angle_alpha   89.97489639
_cell_angle_beta   89.97489169
_cell_angle_gamma   119.65582018
_symmetry_Int_Tables_number   1
_chemical_formula_structural   Ho4Al18(IrPd)3
_chemical_formula_sum   'Ho4 Al18 Ir3 Pd3'
_cell_volume   472.92037046
_cell_formula_units_Z   1
loop_
 _symmetry_equiv_pos_site_id
 _symmetry_equiv_pos_as_xyz
  1  'x, y, z'
loop_
 _atom_site_type_symbol
 _atom_site_label
 _atom_site_symmetry_multiplicity
 _atom_site_fract_x
 _atom_site_fract_y
 _atom_site_fract_z
 _atom_site_occupancy
  Ho  Ho0  1  0.995541  0.670270  0.250472  1
  Ho  Ho1  1  0.004423  0.329503  0.749514  1
  Ho  Ho2  1  0.670497  0.995577  0.250486  1
  Ho  Ho3  1  0.329730  0.004459  0.749528  1
  Al  Al4  1  0.126800  0.127598  0.250408  1
  Al  Al5  1  0.872402  0.873200  0.749592  1
  Al  Al6  1  0.000369  0.331742  0.076515  1
  Al  Al7  1  0.999723  0.668606  0.922710  1
  Al  Al8  1  0.997112  0.664947  0.575195  1
  Al  Al9  1  0.335053  0.002888  0.424805  1
  Al  Al10  1  0.996339  0.330979  0.424842  1
  Al  Al11  1  0.669021  0.003661  0.575158  1
  Al  Al12  1  0.668258  0.999631  0.923485  1
  Al  Al13  1  0.331394  0.000277  0.077290  1
  Al  Al14  1  0.332922  0.329827  0.553779  1
  Al  Al15  1  0.670173  0.667078  0.446221  1
  Al  Al16  1  0.669144  0.669123  0.057273  1
  Al  Al17  1  0.330877  0.330856  0.942727  1
  Al  Al18  1  0.339929  0.547139  0.250645  1
  Al  Al19  1  0.659442  0.452112  0.747710  1
  Al  Al20  1  0.547888  0.340558  0.252290  1
  Al  Al21  1  0.452861  0.660071  0.749355  1
  Ir  Ir22  1  0.671940  0.328060  0.500000  1
  Ir  Ir23  1  0.999999  0.000001  0.000000  1
  Ir  Ir24  1  0.000425  0.999575  0.500000  1
  Pd  Pd25  1  0.672493  0.327507  0.000000  1
  Pd  Pd26  1  0.327617  0.672383  0.000000  1
  Pd  Pd27  1  0.327630  0.672370  0.500000  1
