# generated using pymatgen
data_Sr3La(LuSe2)8
_symmetry_space_group_name_H-M   'P 1'
_cell_length_a   4.07212300
_cell_length_b   12.46903830
_cell_length_c   14.74787962
_cell_angle_alpha   90.19626850
_cell_angle_beta   90.00000000
_cell_angle_gamma   90.00000000
_symmetry_Int_Tables_number   1
_chemical_formula_structural   Sr3La(LuSe2)8
_chemical_formula_sum   'Sr3 La1 Lu8 Se16'
_cell_volume   748.82594355
_cell_formula_units_Z   1
loop_
 _symmetry_equiv_pos_site_id
 _symmetry_equiv_pos_as_xyz
  1  'x, y, z'
loop_
 _atom_site_type_symbol
 _atom_site_label
 _atom_site_symmetry_multiplicity
 _atom_site_fract_x
 _atom_site_fract_y
 _atom_site_fract_z
 _atom_site_occupancy
  Sr  Sr0  1  0.250000  0.258092  0.165104  1
  Sr  Sr1  1  0.750000  0.239550  0.667085  1
  Sr  Sr2  1  0.750000  0.740937  0.832900  1
  La  La3  1  0.250000  0.759981  0.331406  1
  Lu  Lu4  1  0.250000  0.439296  0.389518  1
  Lu  Lu5  1  0.250000  0.936139  0.109996  1
  Lu  Lu6  1  0.750000  0.561427  0.610171  1
  Lu  Lu7  1  0.750000  0.061319  0.889639  1
  Lu  Lu8  1  0.250000  0.418255  0.902842  1
  Lu  Lu9  1  0.250000  0.915726  0.596431  1
  Lu  Lu10  1  0.750000  0.583949  0.097128  1
  Lu  Lu11  1  0.750000  0.082008  0.402822  1
  Se  Se12  1  0.250000  0.205252  0.833465  1
  Se  Se13  1  0.250000  0.704585  0.666820  1
  Se  Se14  1  0.750000  0.795760  0.172093  1
  Se  Se15  1  0.750000  0.295388  0.331355  1
  Se  Se16  1  0.250000  0.126505  0.529402  1
  Se  Se17  1  0.250000  0.629479  0.971108  1
  Se  Se18  1  0.750000  0.869368  0.467639  1
  Se  Se19  1  0.750000  0.373342  0.031461  1
  Se  Se20  1  0.250000  0.020803  0.286178  1
  Se  Se21  1  0.250000  0.536207  0.218300  1
  Se  Se22  1  0.750000  0.971875  0.715069  1
  Se  Se23  1  0.750000  0.472413  0.784318  1
  Se  Se24  1  0.250000  0.410336  0.575110  1
  Se  Se25  1  0.250000  0.909497  0.923125  1
  Se  Se26  1  0.750000  0.593651  0.422102  1
  Se  Se27  1  0.750000  0.088858  0.077412  1
