# generated using pymatgen
data_Sc2Ni7B2Au
_symmetry_space_group_name_H-M   'P 1'
_cell_length_a   4.88596439
_cell_length_b   4.89333191
_cell_length_c   13.88460800
_cell_angle_alpha   90.00000000
_cell_angle_beta   90.00000000
_cell_angle_gamma   119.96534154
_symmetry_Int_Tables_number   1
_chemical_formula_structural   Sc2Ni7B2Au
_chemical_formula_sum   'Sc4 Ni14 B4 Au2'
_cell_volume   287.58802271
_cell_formula_units_Z   2
loop_
 _symmetry_equiv_pos_site_id
 _symmetry_equiv_pos_as_xyz
  1  'x, y, z'
loop_
 _atom_site_type_symbol
 _atom_site_label
 _atom_site_symmetry_multiplicity
 _atom_site_fract_x
 _atom_site_fract_y
 _atom_site_fract_z
 _atom_site_occupancy
  Sc  Sc0  1  0.666039  0.332896  0.470783  1
  Sc  Sc1  1  0.333961  0.667104  0.970783  1
  Sc  Sc2  1  0.332511  0.666739  0.740612  1
  Sc  Sc3  1  0.667489  0.333261  0.240612  1
  Ni  Ni4  1  0.000406  0.000130  0.000983  1
  Ni  Ni5  1  0.999594  0.999870  0.500983  1
  Ni  Ni6  1  0.166254  0.331431  0.146805  1
  Ni  Ni7  1  0.833746  0.668569  0.646805  1
  Ni  Ni8  1  0.669486  0.833780  0.146902  1
  Ni  Ni9  1  0.167345  0.834717  0.146599  1
  Ni  Ni10  1  0.832655  0.165283  0.646599  1
  Ni  Ni11  1  0.330514  0.166220  0.646902  1
  Ni  Ni12  1  0.833236  0.667140  0.854051  1
  Ni  Ni13  1  0.832746  0.166609  0.854441  1
  Ni  Ni14  1  0.332372  0.166691  0.853907  1
  Ni  Ni15  1  0.667628  0.833309  0.353907  1
  Ni  Ni16  1  0.167254  0.833391  0.354441  1
  Ni  Ni17  1  0.166764  0.332860  0.354051  1
  B  B18  1  0.333645  0.666587  0.250657  1
  B  B19  1  0.666355  0.333413  0.750657  1
  B  B20  1  0.001301  0.999698  0.253163  1
  B  B21  1  0.998699  0.000302  0.753163  1
  Au  Au22  1  0.332820  0.666381  0.531097  1
  Au  Au23  1  0.667180  0.333619  0.031097  1
