# generated using pymatgen
data_YbY2Tm3(CoSn6)2
_symmetry_space_group_name_H-M   'P 1'
_cell_length_a   8.42496583
_cell_length_b   8.42496612
_cell_length_c   13.11790101
_cell_angle_alpha   90.04879774
_cell_angle_beta   89.95120972
_cell_angle_gamma   148.43546675
_symmetry_Int_Tables_number   1
_chemical_formula_structural   YbY2Tm3(CoSn6)2
_chemical_formula_sum   'Yb1 Y2 Tm3 Co2 Sn12'
_cell_volume   487.39695330
_cell_formula_units_Z   1
loop_
 _symmetry_equiv_pos_site_id
 _symmetry_equiv_pos_as_xyz
  1  'x, y, z'
loop_
 _atom_site_type_symbol
 _atom_site_label
 _atom_site_symmetry_multiplicity
 _atom_site_fract_x
 _atom_site_fract_y
 _atom_site_fract_z
 _atom_site_occupancy
  Yb  Yb0  1  0.899910  0.100090  0.403313  1
  Y  Y1  1  0.899001  0.100999  0.094421  1
  Y  Y2  1  0.100969  0.899031  0.595809  1
  Tm  Tm3  1  0.901242  0.098758  0.752193  1
  Tm  Tm4  1  0.101064  0.898936  0.905239  1
  Tm  Tm5  1  0.099304  0.900696  0.248973  1
  Co  Co6  1  0.298290  0.701710  0.249893  1
  Co  Co7  1  0.700385  0.299615  0.750278  1
  Sn  Sn8  1  0.757715  0.242285  0.572222  1
  Sn  Sn9  1  0.427732  0.572268  0.577221  1
  Sn  Sn10  1  0.573628  0.426372  0.423787  1
  Sn  Sn11  1  0.732498  0.267502  0.249024  1
  Sn  Sn12  1  0.266792  0.733208  0.750470  1
  Sn  Sn13  1  0.242469  0.757531  0.071060  1
  Sn  Sn14  1  0.243232  0.756768  0.428726  1
  Sn  Sn15  1  0.573102  0.426898  0.074069  1
  Sn  Sn16  1  0.454761  0.545239  0.248001  1
  Sn  Sn17  1  0.545362  0.454638  0.751757  1
  Sn  Sn18  1  0.756477  0.243523  0.928237  1
  Sn  Sn19  1  0.426065  0.573935  0.925307  1
