# generated using pymatgen
data_La3Pr5Cd2PdRu
_symmetry_space_group_name_H-M   'P 1'
_cell_length_a   10.04695963
_cell_length_b   10.10409242
_cell_length_c   10.19662305
_cell_angle_alpha   59.32510202
_cell_angle_beta   59.87891308
_cell_angle_gamma   59.90994331
_symmetry_Int_Tables_number   1
_chemical_formula_structural   La3Pr5Cd2PdRu
_chemical_formula_sum   'La6 Pr10 Cd4 Pd2 Ru2'
_cell_volume   726.97790997
_cell_formula_units_Z   2
loop_
 _symmetry_equiv_pos_site_id
 _symmetry_equiv_pos_as_xyz
  1  'x, y, z'
loop_
 _atom_site_type_symbol
 _atom_site_label
 _atom_site_symmetry_multiplicity
 _atom_site_fract_x
 _atom_site_fract_y
 _atom_site_fract_z
 _atom_site_occupancy
  La  La0  1  0.345062  0.345591  0.358411  1
  La  La1  1  0.345591  0.345062  0.950937  1
  La  La2  1  0.342677  0.958544  0.347514  1
  La  La3  1  0.958544  0.342677  0.351266  1
  La  La4  1  0.822644  0.186512  0.189662  1
  La  La5  1  0.186512  0.822644  0.801181  1
  Pr  Pr6  1  0.190508  0.812905  0.193384  1
  Pr  Pr7  1  0.812905  0.190508  0.803202  1
  Pr  Pr8  1  0.190139  0.190139  0.809861  1
  Pr  Pr9  1  0.804097  0.804097  0.195903  1
  Pr  Pr10  1  0.934683  0.561236  0.567838  1
  Pr  Pr11  1  0.561236  0.934683  0.936244  1
  Pr  Pr12  1  0.560856  0.935244  0.566422  1
  Pr  Pr13  1  0.935244  0.560856  0.937477  1
  Pr  Pr14  1  0.563650  0.563650  0.936350  1
  Pr  Pr15  1  0.936356  0.936356  0.563644  1
  Cd  Cd16  1  0.580989  0.579445  0.580084  1
  Cd  Cd17  1  0.579445  0.580989  0.259480  1
  Cd  Cd18  1  0.581132  0.256847  0.581945  1
  Cd  Cd19  1  0.256847  0.581132  0.580076  1
  Pd  Pd20  1  0.149515  0.574315  0.135731  1
  Pd  Pd21  1  0.574315  0.149515  0.140440  1
  Ru  Ru22  1  0.137128  0.149924  0.139486  1
  Ru  Ru23  1  0.149924  0.137128  0.573463  1
