# generated using pymatgen
data_Lu8CdHgRh2
_symmetry_space_group_name_H-M   'P 1'
_cell_length_a   9.41929578
_cell_length_b   9.41929533
_cell_length_c   9.44126700
_cell_angle_alpha   59.92281091
_cell_angle_beta   59.92281250
_cell_angle_gamma   59.86888096
_symmetry_Int_Tables_number   1
_chemical_formula_structural   Lu8CdHgRh2
_chemical_formula_sum   'Lu16 Cd2 Hg2 Rh4'
_cell_volume   591.03507114
_cell_formula_units_Z   2
loop_
 _symmetry_equiv_pos_site_id
 _symmetry_equiv_pos_as_xyz
  1  'x, y, z'
loop_
 _atom_site_type_symbol
 _atom_site_label
 _atom_site_symmetry_multiplicity
 _atom_site_fract_x
 _atom_site_fract_y
 _atom_site_fract_z
 _atom_site_occupancy
  Lu  Lu0  1  0.350324  0.350324  0.348514  1
  Lu  Lu1  1  0.350324  0.350324  0.950835  1
  Lu  Lu2  1  0.352010  0.947688  0.350151  1
  Lu  Lu3  1  0.947688  0.352010  0.350151  1
  Lu  Lu4  1  0.810700  0.187929  0.189722  1
  Lu  Lu5  1  0.187929  0.810700  0.811648  1
  Lu  Lu6  1  0.187929  0.810700  0.189722  1
  Lu  Lu7  1  0.810700  0.187929  0.811648  1
  Lu  Lu8  1  0.188172  0.188172  0.811828  1
  Lu  Lu9  1  0.809980  0.809980  0.190020  1
  Lu  Lu10  1  0.936294  0.562815  0.563793  1
  Lu  Lu11  1  0.562815  0.936294  0.937099  1
  Lu  Lu12  1  0.562815  0.936294  0.563793  1
  Lu  Lu13  1  0.936294  0.562815  0.937099  1
  Lu  Lu14  1  0.563159  0.563159  0.936841  1
  Lu  Lu15  1  0.936839  0.936839  0.563161  1
  Cd  Cd16  1  0.580069  0.257620  0.581155  1
  Cd  Cd17  1  0.257620  0.580069  0.581155  1
  Hg  Hg18  1  0.584050  0.584050  0.586782  1
  Hg  Hg19  1  0.584050  0.584050  0.245118  1
  Rh  Rh20  1  0.142793  0.142793  0.142689  1
  Rh  Rh21  1  0.142793  0.142793  0.571723  1
  Rh  Rh22  1  0.142009  0.572642  0.142674  1
  Rh  Rh23  1  0.572642  0.142009  0.142674  1
