# generated using pymatgen
data_HoMg2Ni7B2
_symmetry_space_group_name_H-M   'P 1'
_cell_length_a   4.92725539
_cell_length_b   4.92725566
_cell_length_c   13.92869900
_cell_angle_alpha   90.00000000
_cell_angle_beta   90.00000000
_cell_angle_gamma   119.99387616
_symmetry_Int_Tables_number   1
_chemical_formula_structural   HoMg2Ni7B2
_chemical_formula_sum   'Ho2 Mg4 Ni14 B4'
_cell_volume   292.87220136
_cell_formula_units_Z   2
loop_
 _symmetry_equiv_pos_site_id
 _symmetry_equiv_pos_as_xyz
  1  'x, y, z'
loop_
 _atom_site_type_symbol
 _atom_site_label
 _atom_site_symmetry_multiplicity
 _atom_site_fract_x
 _atom_site_fract_y
 _atom_site_fract_z
 _atom_site_occupancy
  Ho  Ho0  1  0.666662  0.333338  0.250000  1
  Ho  Ho1  1  0.333338  0.666662  0.750000  1
  Mg  Mg2  1  0.666657  0.333343  0.027582  1
  Mg  Mg3  1  0.333343  0.666657  0.972418  1
  Mg  Mg4  1  0.333343  0.666657  0.527582  1
  Mg  Mg5  1  0.666657  0.333343  0.472418  1
  Ni  Ni6  1  0.833534  0.667069  0.644800  1
  Ni  Ni7  1  0.833535  0.166465  0.644804  1
  Ni  Ni8  1  0.332931  0.166466  0.644800  1
  Ni  Ni9  1  0.166466  0.332931  0.355200  1
  Ni  Ni10  1  0.166465  0.833535  0.355196  1
  Ni  Ni11  1  0.667069  0.833534  0.355200  1
  Ni  Ni12  1  0.166466  0.332931  0.144800  1
  Ni  Ni13  1  0.166465  0.833535  0.144804  1
  Ni  Ni14  1  0.667069  0.833534  0.144800  1
  Ni  Ni15  1  0.833534  0.667069  0.855200  1
  Ni  Ni16  1  0.833535  0.166465  0.855196  1
  Ni  Ni17  1  0.332931  0.166466  0.855200  1
  Ni  Ni18  1  0.000000  0.000000  0.500000  1
  Ni  Ni19  1  0.000000  0.000000  0.000000  1
  B  B20  1  0.666664  0.333336  0.750000  1
  B  B21  1  0.333336  0.666664  0.250000  1
  B  B22  1  0.000009  0.999991  0.750000  1
  B  B23  1  0.999991  0.000009  0.250000  1
