# generated using pymatgen
data_SmHo2ZnAg3Ge2
_symmetry_space_group_name_H-M   'P 1'
_cell_length_a   7.25370594
_cell_length_b   7.25370664
_cell_length_c   4.17569200
_cell_angle_alpha   90.00000000
_cell_angle_beta   90.00000000
_cell_angle_gamma   120.13691076
_symmetry_Int_Tables_number   1
_chemical_formula_structural   SmHo2ZnAg3Ge2
_chemical_formula_sum   'Sm1 Ho2 Zn1 Ag3 Ge2'
_cell_volume   190.01076805
_cell_formula_units_Z   1
loop_
 _symmetry_equiv_pos_site_id
 _symmetry_equiv_pos_as_xyz
  1  'x, y, z'
loop_
 _atom_site_type_symbol
 _atom_site_label
 _atom_site_symmetry_multiplicity
 _atom_site_fract_x
 _atom_site_fract_y
 _atom_site_fract_z
 _atom_site_occupancy
  Sm  Sm0  1  0.418093  0.418093  0.000000  1
  Ho  Ho1  1  0.000300  0.581522  0.000000  1
  Ho  Ho2  1  0.581522  0.000300  0.000000  1
  Zn  Zn3  1  0.998890  0.998890  0.000000  1
  Ag  Ag4  1  0.754620  0.754620  0.500000  1
  Ag  Ag5  1  0.247015  0.998184  0.500000  1
  Ag  Ag6  1  0.998184  0.247015  0.500000  1
  Ge  Ge7  1  0.669163  0.332215  0.500000  1
  Ge  Ge8  1  0.332215  0.669163  0.500000  1
