# generated using pymatgen
data_Ho4ThPt15
_symmetry_space_group_name_H-M   'P 1'
_cell_length_a   4.15095600
_cell_length_b   4.15095600
_cell_length_c   20.59310300
_cell_angle_alpha   90.00000000
_cell_angle_beta   90.00000000
_cell_angle_gamma   90.00000000
_symmetry_Int_Tables_number   1
_chemical_formula_structural   Ho4ThPt15
_chemical_formula_sum   'Ho4 Th1 Pt15'
_cell_volume   354.82813739
_cell_formula_units_Z   1
loop_
 _symmetry_equiv_pos_site_id
 _symmetry_equiv_pos_as_xyz
  1  'x, y, z'
loop_
 _atom_site_type_symbol
 _atom_site_label
 _atom_site_symmetry_multiplicity
 _atom_site_fract_x
 _atom_site_fract_y
 _atom_site_fract_z
 _atom_site_occupancy
  Ho  Ho0  1  0.000000  0.000000  0.204631  1
  Ho  Ho1  1  0.000000  0.000000  0.401388  1
  Ho  Ho2  1  0.000000  0.000000  0.598612  1
  Ho  Ho3  1  0.000000  0.000000  0.795369  1
  Th  Th4  1  0.000000  0.000000  0.000000  1
  Pt  Pt5  1  0.500000  0.500000  0.000000  1
  Pt  Pt6  1  0.500000  0.500000  0.203228  1
  Pt  Pt7  1  0.500000  0.500000  0.401592  1
  Pt  Pt8  1  0.500000  0.500000  0.598408  1
  Pt  Pt9  1  0.500000  0.500000  0.796772  1
  Pt  Pt10  1  0.500000  0.000000  0.103594  1
  Pt  Pt11  1  0.500000  0.000000  0.302572  1
  Pt  Pt12  1  0.500000  0.000000  0.500000  1
  Pt  Pt13  1  0.500000  0.000000  0.697428  1
  Pt  Pt14  1  0.500000  0.000000  0.896406  1
  Pt  Pt15  1  0.000000  0.500000  0.103594  1
  Pt  Pt16  1  0.000000  0.500000  0.302572  1
  Pt  Pt17  1  0.000000  0.500000  0.500000  1
  Pt  Pt18  1  0.000000  0.500000  0.697428  1
  Pt  Pt19  1  0.000000  0.500000  0.896406  1
