# generated using pymatgen
data_Sc(GeRh2)2
_symmetry_space_group_name_H-M   'P 1'
_cell_length_a   4.13488000
_cell_length_b   9.10902700
_cell_length_c   11.37888200
_cell_angle_alpha   90.00000000
_cell_angle_beta   90.00000000
_cell_angle_gamma   90.00000000
_symmetry_Int_Tables_number   1
_chemical_formula_structural   Sc(GeRh2)2
_chemical_formula_sum   'Sc4 Ge8 Rh16'
_cell_volume   428.58255876
_cell_formula_units_Z   4
loop_
 _symmetry_equiv_pos_site_id
 _symmetry_equiv_pos_as_xyz
  1  'x, y, z'
loop_
 _atom_site_type_symbol
 _atom_site_label
 _atom_site_symmetry_multiplicity
 _atom_site_fract_x
 _atom_site_fract_y
 _atom_site_fract_z
 _atom_site_occupancy
  Sc  Sc0  1  0.250000  0.146487  0.826514  1
  Sc  Sc1  1  0.250000  0.353513  0.326514  1
  Sc  Sc2  1  0.750000  0.853513  0.173486  1
  Sc  Sc3  1  0.750000  0.646487  0.673486  1
  Ge  Ge4  1  0.250000  0.416602  0.639460  1
  Ge  Ge5  1  0.250000  0.083398  0.139460  1
  Ge  Ge6  1  0.750000  0.583398  0.360540  1
  Ge  Ge7  1  0.750000  0.916602  0.860540  1
  Ge  Ge8  1  0.250000  0.620027  0.059793  1
  Ge  Ge9  1  0.250000  0.879973  0.559793  1
  Ge  Ge10  1  0.750000  0.379973  0.940207  1
  Ge  Ge11  1  0.750000  0.120027  0.440207  1
  Rh  Rh12  1  0.250000  0.615911  0.498846  1
  Rh  Rh13  1  0.250000  0.884089  0.998846  1
  Rh  Rh14  1  0.750000  0.384089  0.501154  1
  Rh  Rh15  1  0.750000  0.115911  0.001154  1
  Rh  Rh16  1  0.250000  0.704101  0.266625  1
  Rh  Rh17  1  0.250000  0.795899  0.766625  1
  Rh  Rh18  1  0.750000  0.295899  0.733375  1
  Rh  Rh19  1  0.750000  0.204101  0.233375  1
  Rh  Rh20  1  0.250000  0.171126  0.563869  1
  Rh  Rh21  1  0.250000  0.328874  0.063869  1
  Rh  Rh22  1  0.750000  0.828874  0.436131  1
  Rh  Rh23  1  0.750000  0.671126  0.936131  1
  Rh  Rh24  1  0.250000  0.006110  0.343149  1
  Rh  Rh25  1  0.250000  0.493890  0.843149  1
  Rh  Rh26  1  0.750000  0.993890  0.656851  1
  Rh  Rh27  1  0.750000  0.506110  0.156851  1
