# generated using pymatgen
data_Ta3TiGa3ReB
_symmetry_space_group_name_H-M   'P 1'
_cell_length_a   7.71564200
_cell_length_b   7.71564202
_cell_length_c   5.19039600
_cell_angle_alpha   90.00000000
_cell_angle_beta   90.00000000
_cell_angle_gamma   119.99999992
_symmetry_Int_Tables_number   1
_chemical_formula_structural   Ta3TiGa3ReB
_chemical_formula_sum   'Ta6 Ti2 Ga6 Re2 B2'
_cell_volume   267.59331739
_cell_formula_units_Z   2
loop_
 _symmetry_equiv_pos_site_id
 _symmetry_equiv_pos_as_xyz
  1  'x, y, z'
loop_
 _atom_site_type_symbol
 _atom_site_label
 _atom_site_symmetry_multiplicity
 _atom_site_fract_x
 _atom_site_fract_y
 _atom_site_fract_z
 _atom_site_occupancy
  Ta  Ta0  1  0.242256  0.000000  0.252791  1
  Ta  Ta1  1  0.757744  0.000000  0.747209  1
  Ta  Ta2  1  0.000000  0.242256  0.252791  1
  Ta  Ta3  1  0.000000  0.757744  0.747209  1
  Ta  Ta4  1  0.757744  0.757744  0.252791  1
  Ta  Ta5  1  0.242256  0.242256  0.747209  1
  Ti  Ti6  1  0.666667  0.333333  0.500000  1
  Ti  Ti7  1  0.333333  0.666667  0.500000  1
  Ga  Ga8  1  0.594826  0.000000  0.246537  1
  Ga  Ga9  1  0.405174  0.000000  0.753463  1
  Ga  Ga10  1  0.000000  0.594826  0.246537  1
  Ga  Ga11  1  0.000000  0.405174  0.753463  1
  Ga  Ga12  1  0.405174  0.405174  0.246537  1
  Ga  Ga13  1  0.594826  0.594826  0.753463  1
  Re  Re14  1  0.333333  0.666667  0.000000  1
  Re  Re15  1  0.666667  0.333333  0.000000  1
  B  B16  1  0.000000  0.000000  0.000000  1
  B  B17  1  0.000000  0.000000  0.500000  1
