# generated using pymatgen
data_TbLu(MgIr4)2
_symmetry_space_group_name_H-M   'P 1'
_cell_length_a   5.28105200
_cell_length_b   5.28105183
_cell_length_c   8.56628000
_cell_angle_alpha   90.00000000
_cell_angle_beta   90.00000000
_cell_angle_gamma   120.00000103
_symmetry_Int_Tables_number   1
_chemical_formula_structural   TbLu(MgIr4)2
_chemical_formula_sum   'Tb1 Lu1 Mg2 Ir8'
_cell_volume   206.90156085
_cell_formula_units_Z   1
loop_
 _symmetry_equiv_pos_site_id
 _symmetry_equiv_pos_as_xyz
  1  'x, y, z'
loop_
 _atom_site_type_symbol
 _atom_site_label
 _atom_site_symmetry_multiplicity
 _atom_site_fract_x
 _atom_site_fract_y
 _atom_site_fract_z
 _atom_site_occupancy
  Tb  Tb0  1  0.333333  0.666667  0.069628  1
  Lu  Lu1  1  0.666667  0.333333  0.569598  1
  Mg  Mg2  1  0.666667  0.333333  0.934837  1
  Mg  Mg3  1  0.333333  0.666667  0.438060  1
  Ir  Ir4  1  0.000000  0.000000  0.995814  1
  Ir  Ir5  1  0.000000  0.000000  0.496215  1
  Ir  Ir6  1  0.828802  0.657605  0.250834  1
  Ir  Ir7  1  0.171000  0.829000  0.747781  1
  Ir  Ir8  1  0.658000  0.829000  0.747781  1
  Ir  Ir9  1  0.342395  0.171198  0.250834  1
  Ir  Ir10  1  0.828802  0.171198  0.250834  1
  Ir  Ir11  1  0.171000  0.342000  0.747781  1
