# generated using pymatgen
data_Ta8Nb4Al8Pd3PtC4
_symmetry_space_group_name_H-M   'P 1'
_cell_length_a   8.37232235
_cell_length_b   8.37220036
_cell_length_c   8.37439900
_cell_angle_alpha   59.99227269
_cell_angle_beta   59.98832921
_cell_angle_gamma   60.01689906
_symmetry_Int_Tables_number   1
_chemical_formula_structural   Ta8Nb4Al8Pd3PtC4
_chemical_formula_sum   'Ta8 Nb4 Al8 Pd3 Pt1 C4'
_cell_volume   415.06483395
_cell_formula_units_Z   1
loop_
 _symmetry_equiv_pos_site_id
 _symmetry_equiv_pos_as_xyz
  1  'x, y, z'
loop_
 _atom_site_type_symbol
 _atom_site_label
 _atom_site_symmetry_multiplicity
 _atom_site_fract_x
 _atom_site_fract_y
 _atom_site_fract_z
 _atom_site_occupancy
  Ta  Ta0  1  0.681614  0.680927  0.318461  1
  Ta  Ta1  1  0.318134  0.317890  0.682636  1
  Ta  Ta2  1  0.569318  0.568572  0.931567  1
  Ta  Ta3  1  0.932559  0.567640  0.568271  1
  Ta  Ta4  1  0.567298  0.932516  0.932862  1
  Ta  Ta5  1  0.931972  0.931659  0.568138  1
  Ta  Ta6  1  0.681895  0.317772  0.681831  1
  Ta  Ta7  1  0.932374  0.567332  0.932351  1
  Nb  Nb8  1  0.567453  0.932964  0.567459  1
  Nb  Nb9  1  0.317322  0.682013  0.682689  1
  Nb  Nb10  1  0.683427  0.317042  0.317251  1
  Nb  Nb11  1  0.316708  0.683551  0.316709  1
  Al  Al12  1  0.916475  0.915140  0.915412  1
  Al  Al13  1  0.997484  0.334071  0.334346  1
  Al  Al14  1  0.334305  0.996998  0.335734  1
  Al  Al15  1  0.334457  0.335699  0.997486  1
  Al  Al16  1  0.915102  0.252257  0.916183  1
  Al  Al17  1  0.914786  0.916053  0.252669  1
  Al  Al18  1  0.252723  0.914921  0.914734  1
  Al  Al19  1  0.335436  0.334192  0.333997  1
  Pd  Pd20  1  0.625415  0.124773  0.121965  1
  Pd  Pd21  1  0.123050  0.624630  0.126351  1
  Pd  Pd22  1  0.121934  0.127847  0.625398  1
  Pt  Pt23  1  0.126377  0.125979  0.123049  1
  C  C24  1  0.627056  0.623114  0.625351  1
  C  C25  1  0.123535  0.624109  0.626499  1
  C  C26  1  0.625316  0.124442  0.627102  1
  C  C27  1  0.626470  0.625898  0.123498  1
