# generated using pymatgen
data_Ho2Fe3P6Rh7
_symmetry_space_group_name_H-M   'P 1'
_cell_length_a   3.83136100
_cell_length_b   10.66479100
_cell_length_c   12.37162600
_cell_angle_alpha   90.00000000
_cell_angle_beta   90.00000000
_cell_angle_gamma   90.00000000
_symmetry_Int_Tables_number   1
_chemical_formula_structural   Ho2Fe3P6Rh7
_chemical_formula_sum   'Ho4 Fe6 P12 Rh14'
_cell_volume   505.51285696
_cell_formula_units_Z   2
loop_
 _symmetry_equiv_pos_site_id
 _symmetry_equiv_pos_as_xyz
  1  'x, y, z'
loop_
 _atom_site_type_symbol
 _atom_site_label
 _atom_site_symmetry_multiplicity
 _atom_site_fract_x
 _atom_site_fract_y
 _atom_site_fract_z
 _atom_site_occupancy
  Ho  Ho0  1  0.250000  0.576520  0.711224  1
  Ho  Ho1  1  0.250000  0.923480  0.211224  1
  Ho  Ho2  1  0.750000  0.415717  0.290775  1
  Ho  Ho3  1  0.750000  0.084283  0.790775  1
  Fe  Fe4  1  0.750000  0.123429  0.302221  1
  Fe  Fe5  1  0.750000  0.376571  0.802221  1
  Fe  Fe6  1  0.250000  0.459786  0.932848  1
  Fe  Fe7  1  0.250000  0.040214  0.432848  1
  Fe  Fe8  1  0.750000  0.539854  0.064698  1
  Fe  Fe9  1  0.750000  0.960146  0.564698  1
  P  P10  1  0.250000  0.430681  0.105663  1
  P  P11  1  0.250000  0.069319  0.605663  1
  P  P12  1  0.750000  0.559031  0.888288  1
  P  P13  1  0.750000  0.940969  0.388288  1
  P  P14  1  0.250000  0.274375  0.863761  1
  P  P15  1  0.250000  0.225625  0.363761  1
  P  P16  1  0.750000  0.731658  0.130353  1
  P  P17  1  0.750000  0.768342  0.630353  1
  P  P18  1  0.250000  0.600119  0.389738  1
  P  P19  1  0.250000  0.899881  0.889738  1
  P  P20  1  0.750000  0.397457  0.620333  1
  P  P21  1  0.750000  0.102543  0.120333  1
  Rh  Rh22  1  0.250000  0.716189  0.991474  1
  Rh  Rh23  1  0.250000  0.783811  0.491474  1
  Rh  Rh24  1  0.750000  0.286032  0.009401  1
  Rh  Rh25  1  0.750000  0.213968  0.509401  1
  Rh  Rh26  1  0.250000  0.405118  0.477247  1
  Rh  Rh27  1  0.250000  0.094882  0.977247  1
  Rh  Rh28  1  0.750000  0.588476  0.520205  1
  Rh  Rh29  1  0.750000  0.911524  0.020205  1
  Rh  Rh30  1  0.250000  0.228314  0.174557  1
  Rh  Rh31  1  0.250000  0.271686  0.674557  1
  Rh  Rh32  1  0.750000  0.764923  0.825748  1
  Rh  Rh33  1  0.750000  0.735077  0.325748  1
  Rh  Rh34  1  0.250000  0.881365  0.701466  1
  Rh  Rh35  1  0.250000  0.618635  0.201466  1
