# generated using pymatgen
data_Lu4Mn5V2Fe13P12
_symmetry_space_group_name_H-M   'P 1'
_cell_length_a   3.63011400
_cell_length_b   10.28423725
_cell_length_c   12.07360819
_cell_angle_alpha   89.78471416
_cell_angle_beta   90.00000000
_cell_angle_gamma   90.00000000
_symmetry_Int_Tables_number   1
_chemical_formula_structural   Lu4Mn5V2Fe13P12
_chemical_formula_sum   'Lu4 Mn5 V2 Fe13 P12'
_cell_volume   450.74027270
_cell_formula_units_Z   1
loop_
 _symmetry_equiv_pos_site_id
 _symmetry_equiv_pos_as_xyz
  1  'x, y, z'
loop_
 _atom_site_type_symbol
 _atom_site_label
 _atom_site_symmetry_multiplicity
 _atom_site_fract_x
 _atom_site_fract_y
 _atom_site_fract_z
 _atom_site_occupancy
  Lu  Lu0  1  0.250000  0.575994  0.708992  1
  Lu  Lu1  1  0.250000  0.921207  0.210621  1
  Lu  Lu2  1  0.750000  0.418298  0.289194  1
  Lu  Lu3  1  0.750000  0.083983  0.790239  1
  Mn  Mn4  1  0.750000  0.294901  0.008557  1
  Mn  Mn5  1  0.750000  0.204546  0.508275  1
  Mn  Mn6  1  0.750000  0.585172  0.507789  1
  Mn  Mn7  1  0.750000  0.914642  0.010622  1
  Mn  Mn8  1  0.750000  0.784927  0.823648  1
  V  V9  1  0.250000  0.704900  0.989938  1
  V  V10  1  0.250000  0.795960  0.489982  1
  Fe  Fe11  1  0.250000  0.406560  0.489828  1
  Fe  Fe12  1  0.250000  0.096399  0.992064  1
  Fe  Fe13  1  0.250000  0.223967  0.173712  1
  Fe  Fe14  1  0.250000  0.275742  0.673697  1
  Fe  Fe15  1  0.750000  0.716279  0.325220  1
  Fe  Fe16  1  0.250000  0.874237  0.699956  1
  Fe  Fe17  1  0.250000  0.624757  0.196795  1
  Fe  Fe18  1  0.750000  0.120688  0.304465  1
  Fe  Fe19  1  0.750000  0.377981  0.804169  1
  Fe  Fe20  1  0.250000  0.461480  0.935635  1
  Fe  Fe21  1  0.250000  0.038022  0.435876  1
  Fe  Fe22  1  0.750000  0.535385  0.065169  1
  Fe  Fe23  1  0.750000  0.963571  0.565628  1
  P  P24  1  0.250000  0.425002  0.114863  1
  P  P25  1  0.250000  0.074847  0.614945  1
  P  P26  1  0.750000  0.575398  0.886469  1
  P  P27  1  0.750000  0.921713  0.386221  1
  P  P28  1  0.250000  0.266543  0.862726  1
  P  P29  1  0.250000  0.233222  0.361083  1
  P  P30  1  0.750000  0.733479  0.136308  1
  P  P31  1  0.750000  0.763640  0.632457  1
  P  P32  1  0.250000  0.596814  0.380554  1
  P  P33  1  0.250000  0.910770  0.886591  1
  P  P34  1  0.750000  0.394279  0.619110  1
  P  P35  1  0.750000  0.104696  0.118601  1
