# generated using pymatgen
data_Li2Pr3Al7
_symmetry_space_group_name_H-M   'P 1'
_cell_length_a   9.45022557
_cell_length_b   9.45022520
_cell_length_c   9.45022494
_cell_angle_alpha   34.87925153
_cell_angle_beta   34.87925312
_cell_angle_gamma   34.87925299
_symmetry_Int_Tables_number   1
_chemical_formula_structural   Li2Pr3Al7
_chemical_formula_sum   'Li2 Pr3 Al7'
_cell_volume   246.37290804
_cell_formula_units_Z   1
loop_
 _symmetry_equiv_pos_site_id
 _symmetry_equiv_pos_as_xyz
  1  'x, y, z'
loop_
 _atom_site_type_symbol
 _atom_site_label
 _atom_site_symmetry_multiplicity
 _atom_site_fract_x
 _atom_site_fract_y
 _atom_site_fract_z
 _atom_site_occupancy
  Li  Li0  1  0.335067  0.335067  0.335067  1
  Li  Li1  1  0.664933  0.664933  0.664933  1
  Pr  Pr2  1  0.140769  0.140769  0.140769  1
  Pr  Pr3  1  0.859231  0.859231  0.859231  1
  Pr  Pr4  1  0.000000  0.000000  0.000000  1
  Al  Al5  1  0.584662  0.584662  0.074800  1
  Al  Al6  1  0.415338  0.925200  0.415338  1
  Al  Al7  1  0.584662  0.074800  0.584662  1
  Al  Al8  1  0.074800  0.584662  0.584662  1
  Al  Al9  1  0.415338  0.415338  0.925200  1
  Al  Al10  1  0.500000  0.500000  0.500000  1
  Al  Al11  1  0.925200  0.415338  0.415338  1
