# generated using pymatgen
data_Tb2Dy6Sc12Si15Bi
_symmetry_space_group_name_H-M   'P 1'
_cell_length_a   7.17145926
_cell_length_b   7.42150618
_cell_length_c   14.08445603
_cell_angle_alpha   90.15098330
_cell_angle_beta   88.85606190
_cell_angle_gamma   90.23590691
_symmetry_Int_Tables_number   1
_chemical_formula_structural   Tb2Dy6Sc12Si15Bi
_chemical_formula_sum   'Tb2 Dy6 Sc12 Si15 Bi1'
_cell_volume   749.45921710
_cell_formula_units_Z   1
loop_
 _symmetry_equiv_pos_site_id
 _symmetry_equiv_pos_as_xyz
  1  'x, y, z'
loop_
 _atom_site_type_symbol
 _atom_site_label
 _atom_site_symmetry_multiplicity
 _atom_site_fract_x
 _atom_site_fract_y
 _atom_site_fract_z
 _atom_site_occupancy
  Tb  Tb0  1  0.012368  0.176341  0.096571  1
  Tb  Tb1  1  0.988032  0.825307  0.904195  1
  Dy  Dy2  1  0.488758  0.675400  0.903854  1
  Dy  Dy3  1  0.992172  0.831434  0.598640  1
  Dy  Dy4  1  0.511912  0.324634  0.097483  1
  Dy  Dy5  1  0.000571  0.169818  0.398704  1
  Dy  Dy6  1  0.512039  0.317976  0.397586  1
  Dy  Dy7  1  0.510995  0.685892  0.601176  1
  Sc  Sc8  1  0.164092  0.500658  0.756002  1
  Sc  Sc9  1  0.835276  0.499199  0.251501  1
  Sc  Sc10  1  0.335727  0.001489  0.250128  1
  Sc  Sc11  1  0.666059  0.999037  0.751361  1
  Sc  Sc12  1  0.348024  0.156093  0.631934  1
  Sc  Sc13  1  0.659492  0.827122  0.372347  1
  Sc  Sc14  1  0.155375  0.683312  0.369235  1
  Sc  Sc15  1  0.667388  0.822660  0.123956  1
  Sc  Sc16  1  0.825638  0.326433  0.625759  1
  Sc  Sc17  1  0.330420  0.175395  0.875391  1
  Sc  Sc18  1  0.830815  0.323855  0.875793  1
  Sc  Sc19  1  0.168968  0.676364  0.124818  1
  Si  Si20  1  0.035763  0.120180  0.750830  1
  Si  Si21  1  0.961703  0.884109  0.246349  1
  Si  Si22  1  0.461858  0.616921  0.247520  1
  Si  Si23  1  0.535299  0.383996  0.752970  1
  Si  Si24  1  0.289024  0.867717  0.752746  1
  Si  Si25  1  0.710928  0.125909  0.246798  1
  Si  Si26  1  0.210596  0.374317  0.249153  1
  Si  Si27  1  0.792532  0.627443  0.751508  1
  Si  Si28  1  0.813854  0.541390  0.456331  1
  Si  Si29  1  0.332509  0.963569  0.459991  1
  Si  Si30  1  0.843796  0.534372  0.039858  1
  Si  Si31  1  0.668946  0.038514  0.538361  1
  Si  Si32  1  0.155432  0.465477  0.961314  1
  Si  Si33  1  0.653923  0.034821  0.960408  1
  Si  Si34  1  0.344671  0.965837  0.040023  1
  Bi  Bi35  1  0.185045  0.457007  0.539408  1
