# generated using pymatgen
data_LaNdFe6(CoB4)2
_symmetry_space_group_name_H-M   'P 1'
_cell_length_a   7.08700700
_cell_length_b   7.08074841
_cell_length_c   3.80101900
_cell_angle_alpha   90.00000000
_cell_angle_beta   90.00000000
_cell_angle_gamma   90.24590185
_symmetry_Int_Tables_number   1
_chemical_formula_structural   LaNdFe6(CoB4)2
_chemical_formula_sum   'La1 Nd1 Fe6 Co2 B8'
_cell_volume   190.73836955
_cell_formula_units_Z   1
loop_
 _symmetry_equiv_pos_site_id
 _symmetry_equiv_pos_as_xyz
  1  'x, y, z'
loop_
 _atom_site_type_symbol
 _atom_site_label
 _atom_site_symmetry_multiplicity
 _atom_site_fract_x
 _atom_site_fract_y
 _atom_site_fract_z
 _atom_site_occupancy
  La  La0  1  0.500000  0.500000  0.502183  1
  Nd  Nd1  1  0.000000  0.000000  0.002151  1
  Fe  Fe2  1  0.387383  0.130784  0.894582  1
  Fe  Fe3  1  0.612617  0.869216  0.894582  1
  Fe  Fe4  1  0.367056  0.887652  0.395042  1
  Fe  Fe5  1  0.632944  0.112348  0.395042  1
  Fe  Fe6  1  0.112328  0.367340  0.605200  1
  Fe  Fe7  1  0.887672  0.632660  0.605200  1
  Co  Co8  1  0.135161  0.612682  0.105761  1
  Co  Co9  1  0.864839  0.387318  0.105761  1
  B  B10  1  0.797258  0.667646  0.103672  1
  B  B11  1  0.202742  0.332354  0.103672  1
  B  B12  1  0.837949  0.294387  0.603838  1
  B  B13  1  0.162051  0.705613  0.603838  1
  B  B14  1  0.703253  0.835810  0.395458  1
  B  B15  1  0.296747  0.164190  0.395458  1
  B  B16  1  0.665338  0.196244  0.894281  1
  B  B17  1  0.334662  0.803756  0.894281  1
