# generated using pymatgen
data_NbRe3(PO5)4
_symmetry_space_group_name_H-M   'P 1'
_cell_length_a   5.34400322
_cell_length_b   9.07944205
_cell_length_c   8.98480108
_cell_angle_alpha   92.84120902
_cell_angle_beta   90.03054260
_cell_angle_gamma   90.20175309
_symmetry_Int_Tables_number   1
_chemical_formula_structural   NbRe3(PO5)4
_chemical_formula_sum   'Nb1 Re3 P4 O20'
_cell_volume   435.40894812
_cell_formula_units_Z   1
loop_
 _symmetry_equiv_pos_site_id
 _symmetry_equiv_pos_as_xyz
  1  'x, y, z'
loop_
 _atom_site_type_symbol
 _atom_site_label
 _atom_site_symmetry_multiplicity
 _atom_site_fract_x
 _atom_site_fract_y
 _atom_site_fract_z
 _atom_site_occupancy
  Nb  Nb0  1  0.753554  0.250321  0.052647  1
  Re  Re1  1  0.252214  0.046017  0.246245  1
  Re  Re2  1  0.745417  0.945525  0.754243  1
  Re  Re3  1  0.244680  0.752872  0.946928  1
  P  P4  1  0.736669  0.612046  0.152282  1
  P  P5  1  0.762724  0.848089  0.392398  1
  P  P6  1  0.239341  0.150590  0.609924  1
  P  P7  1  0.267399  0.394633  0.843048  1
  O  O8  1  0.960100  0.668974  0.067689  1
  O  O9  1  0.249482  0.916764  0.084151  1
  O  O10  1  0.485763  0.651776  0.083750  1
  O  O11  1  0.477514  0.172656  0.161341  1
  O  O12  1  0.754155  0.448338  0.178551  1
  O  O13  1  0.984114  0.152167  0.180910  1
  O  O14  1  0.548707  0.937281  0.333097  1
  O  O15  1  0.743499  0.683749  0.319584  1
  O  O16  1  0.021334  0.907738  0.355161  1
  O  O17  1  0.256210  0.169949  0.441806  1
  O  O18  1  0.737313  0.822295  0.558543  1
  O  O19  1  0.989120  0.082256  0.652490  1
  O  O20  1  0.245852  0.318380  0.676182  1
  O  O21  1  0.463267  0.068238  0.668562  1
  O  O22  1  0.005066  0.839684  0.828846  1
  O  O23  1  0.237682  0.559734  0.817142  1
  O  O24  1  0.507096  0.829179  0.839326  1
  O  O25  1  0.525796  0.357941  0.901920  1
  O  O26  1  0.748509  0.079589  0.917755  1
  O  O27  1  0.057423  0.333219  0.935480  1
