# generated using pymatgen
data_Ca4ZnSi6Au
_symmetry_space_group_name_H-M   'P 1'
_cell_length_a   8.36011365
_cell_length_b   8.24948034
_cell_length_c   6.00345800
_cell_angle_alpha   69.79884331
_cell_angle_beta   67.82976044
_cell_angle_gamma   42.37140004
_symmetry_Int_Tables_number   1
_chemical_formula_structural   Ca4ZnSi6Au
_chemical_formula_sum   'Ca4 Zn1 Si6 Au1'
_cell_volume   256.93202105
_cell_formula_units_Z   1
loop_
 _symmetry_equiv_pos_site_id
 _symmetry_equiv_pos_as_xyz
  1  'x, y, z'
loop_
 _atom_site_type_symbol
 _atom_site_label
 _atom_site_symmetry_multiplicity
 _atom_site_fract_x
 _atom_site_fract_y
 _atom_site_fract_z
 _atom_site_occupancy
  Ca  Ca0  1  0.750182  0.750182  0.749818  1
  Ca  Ca1  1  0.753496  0.246310  0.753690  1
  Ca  Ca2  1  0.250182  0.250182  0.249818  1
  Ca  Ca3  1  0.246310  0.753496  0.246504  1
  Zn  Zn4  1  0.666209  0.666209  0.333791  1
  Si  Si5  1  0.834617  0.329514  0.165383  1
  Si  Si6  1  0.670504  0.165371  0.329496  1
  Si  Si7  1  0.165371  0.670504  0.834629  1
  Si  Si8  1  0.329514  0.834617  0.670486  1
  Si  Si9  1  0.163652  0.163652  0.836348  1
  Si  Si10  1  0.836491  0.836491  0.163509  1
  Au  Au11  1  0.333473  0.333473  0.666527  1
