# generated using pymatgen
data_NbV5(SiOs)6
_symmetry_space_group_name_H-M   'P 1'
_cell_length_a   7.31635262
_cell_length_b   7.35159801
_cell_length_c   7.31635230
_cell_angle_alpha   127.45222016
_cell_angle_beta   123.67637562
_cell_angle_gamma   80.51805957
_symmetry_Int_Tables_number   1
_chemical_formula_structural   NbV5(SiOs)6
_chemical_formula_sum   'Nb1 V5 Si6 Os6'
_cell_volume   250.96229205
_cell_formula_units_Z   1
loop_
 _symmetry_equiv_pos_site_id
 _symmetry_equiv_pos_as_xyz
  1  'x, y, z'
loop_
 _atom_site_type_symbol
 _atom_site_label
 _atom_site_symmetry_multiplicity
 _atom_site_fract_x
 _atom_site_fract_y
 _atom_site_fract_z
 _atom_site_occupancy
  Nb  Nb0  1  0.752971  0.585413  0.332443  1
  V  V1  1  0.451653  0.388229  0.436575  1
  V  V2  1  0.568625  0.043487  0.974862  1
  V  V3  1  0.029331  0.984054  0.454723  1
  V  V4  1  0.962874  0.438768  0.975894  1
  V  V5  1  0.238009  0.589813  0.851804  1
  Si  Si6  1  0.210376  0.935755  0.225379  1
  Si  Si7  1  0.779655  0.055728  0.776072  1
  Si  Si8  1  0.188665  0.673248  0.522632  1
  Si  Si9  1  0.839236  0.333123  0.510789  1
  Si  Si10  1  0.650614  0.673248  0.984582  1
  Si  Si11  1  0.322335  0.333123  0.993887  1
  Os  Os12  1  0.041865  0.263772  0.300135  1
  Os  Os13  1  0.463638  0.263772  0.721907  1
  Os  Os14  1  0.415600  0.746647  0.420815  1
  Os  Os15  1  0.589958  0.001586  0.332825  1
  Os  Os16  1  0.825832  0.746647  0.831047  1
  Os  Os17  1  0.168761  0.001586  0.911628  1
