# generated using pymatgen
data_ErLuFeB6
_symmetry_space_group_name_H-M   'P 1'
_cell_length_a   3.49859800
_cell_length_b   9.00054200
_cell_length_c   11.36448400
_cell_angle_alpha   90.00000000
_cell_angle_beta   90.00000000
_cell_angle_gamma   90.00000000
_symmetry_Int_Tables_number   1
_chemical_formula_structural   ErLuFeB6
_chemical_formula_sum   'Er4 Lu4 Fe4 B24'
_cell_volume   357.85939873
_cell_formula_units_Z   4
loop_
 _symmetry_equiv_pos_site_id
 _symmetry_equiv_pos_as_xyz
  1  'x, y, z'
loop_
 _atom_site_type_symbol
 _atom_site_label
 _atom_site_symmetry_multiplicity
 _atom_site_fract_x
 _atom_site_fract_y
 _atom_site_fract_z
 _atom_site_occupancy
  Er  Er0  1  0.000000  0.823249  0.085524  1
  Er  Er1  1  0.000000  0.176751  0.914476  1
  Er  Er2  1  0.000000  0.323249  0.414476  1
  Er  Er3  1  0.000000  0.676751  0.585524  1
  Lu  Lu4  1  0.000000  0.443421  0.129205  1
  Lu  Lu5  1  0.000000  0.556579  0.870795  1
  Lu  Lu6  1  0.000000  0.943421  0.370795  1
  Lu  Lu7  1  0.000000  0.056579  0.629205  1
  Fe  Fe8  1  0.000000  0.139054  0.179994  1
  Fe  Fe9  1  0.000000  0.860946  0.820006  1
  Fe  Fe10  1  0.000000  0.639054  0.320006  1
  Fe  Fe11  1  0.000000  0.360946  0.679994  1
  B  B12  1  0.500000  0.054505  0.067948  1
  B  B13  1  0.500000  0.945495  0.932052  1
  B  B14  1  0.500000  0.554505  0.432052  1
  B  B15  1  0.500000  0.445495  0.567948  1
  B  B16  1  0.500000  0.247821  0.081529  1
  B  B17  1  0.500000  0.752179  0.918471  1
  B  B18  1  0.500000  0.747821  0.418471  1
  B  B19  1  0.500000  0.252179  0.581529  1
  B  B20  1  0.500000  0.290448  0.233905  1
  B  B21  1  0.500000  0.709552  0.766095  1
  B  B22  1  0.500000  0.790448  0.266095  1
  B  B23  1  0.500000  0.209552  0.733905  1
  B  B24  1  0.500000  0.131585  0.314627  1
  B  B25  1  0.500000  0.868415  0.685373  1
  B  B26  1  0.500000  0.631585  0.185373  1
  B  B27  1  0.500000  0.368415  0.814627  1
  B  B28  1  0.500000  0.485230  0.287920  1
  B  B29  1  0.500000  0.514770  0.712080  1
  B  B30  1  0.500000  0.985230  0.212080  1
  B  B31  1  0.500000  0.014770  0.787920  1
  B  B32  1  0.500000  0.106569  0.470819  1
  B  B33  1  0.500000  0.893431  0.529181  1
  B  B34  1  0.500000  0.606569  0.029181  1
  B  B35  1  0.500000  0.393431  0.970819  1
