# generated using pymatgen
data_La4PrNd3(ReC2)4
_symmetry_space_group_name_H-M   'P 1'
_cell_length_a   5.43120400
_cell_length_b   6.76696119
_cell_length_c   10.28136929
_cell_angle_alpha   90.02741709
_cell_angle_beta   90.00000000
_cell_angle_gamma   90.00000000
_symmetry_Int_Tables_number   1
_chemical_formula_structural   La4PrNd3(ReC2)4
_chemical_formula_sum   'La4 Pr1 Nd3 Re4 C8'
_cell_volume   377.86851817
_cell_formula_units_Z   1
loop_
 _symmetry_equiv_pos_site_id
 _symmetry_equiv_pos_as_xyz
  1  'x, y, z'
loop_
 _atom_site_type_symbol
 _atom_site_label
 _atom_site_symmetry_multiplicity
 _atom_site_fract_x
 _atom_site_fract_y
 _atom_site_fract_z
 _atom_site_occupancy
  La  La0  1  0.250000  0.473408  0.788153  1
  La  La1  1  0.750000  0.026715  0.288313  1
  La  La2  1  0.250000  0.973373  0.711707  1
  La  La3  1  0.750000  0.526470  0.211948  1
  Pr  Pr4  1  0.250000  0.813547  0.050212  1
  Nd  Nd5  1  0.750000  0.685199  0.550956  1
  Nd  Nd6  1  0.250000  0.314749  0.449073  1
  Nd  Nd7  1  0.750000  0.185401  0.948947  1
  Re  Re8  1  0.250000  0.268254  0.144420  1
  Re  Re9  1  0.750000  0.231943  0.644244  1
  Re  Re10  1  0.250000  0.768147  0.355913  1
  Re  Re11  1  0.750000  0.731945  0.855489  1
  C  C12  1  0.250000  0.685555  0.534696  1
  C  C13  1  0.750000  0.814392  0.034388  1
  C  C14  1  0.250000  0.186410  0.965331  1
  C  C15  1  0.750000  0.314407  0.465405  1
  C  C16  1  0.250000  0.032631  0.259186  1
  C  C17  1  0.750000  0.467788  0.758786  1
  C  C18  1  0.250000  0.531869  0.241658  1
  C  C19  1  0.750000  0.967797  0.741177  1
