# generated using pymatgen
data_Lu5Bi2As
_symmetry_space_group_name_H-M   'P 1'
_cell_length_a   7.90962900
_cell_length_b   8.99614300
_cell_length_c   11.77861200
_cell_angle_alpha   90.00000000
_cell_angle_beta   90.00000000
_cell_angle_gamma   90.00000000
_symmetry_Int_Tables_number   1
_chemical_formula_structural   Lu5Bi2As
_chemical_formula_sum   'Lu20 Bi8 As4'
_cell_volume   838.12072421
_cell_formula_units_Z   4
loop_
 _symmetry_equiv_pos_site_id
 _symmetry_equiv_pos_as_xyz
  1  'x, y, z'
loop_
 _atom_site_type_symbol
 _atom_site_label
 _atom_site_symmetry_multiplicity
 _atom_site_fract_x
 _atom_site_fract_y
 _atom_site_fract_z
 _atom_site_occupancy
  Lu  Lu0  1  0.160071  0.750000  0.214166  1
  Lu  Lu1  1  0.339929  0.750000  0.714166  1
  Lu  Lu2  1  0.839929  0.250000  0.785834  1
  Lu  Lu3  1  0.660071  0.250000  0.285834  1
  Lu  Lu4  1  0.465345  0.750000  0.001712  1
  Lu  Lu5  1  0.034655  0.750000  0.501712  1
  Lu  Lu6  1  0.534655  0.250000  0.998288  1
  Lu  Lu7  1  0.965345  0.250000  0.498288  1
  Lu  Lu8  1  0.635545  0.750000  0.295901  1
  Lu  Lu9  1  0.864455  0.750000  0.795901  1
  Lu  Lu10  1  0.364455  0.250000  0.704099  1
  Lu  Lu11  1  0.135545  0.250000  0.204099  1
  Lu  Lu12  1  0.816974  0.558258  0.064419  1
  Lu  Lu13  1  0.683026  0.941742  0.564419  1
  Lu  Lu14  1  0.183026  0.058258  0.935581  1
  Lu  Lu15  1  0.316974  0.441742  0.435581  1
  Lu  Lu16  1  0.183026  0.441742  0.935581  1
  Lu  Lu17  1  0.316974  0.058258  0.435581  1
  Lu  Lu18  1  0.816974  0.941742  0.064419  1
  Lu  Lu19  1  0.683026  0.558258  0.564419  1
  Bi  Bi20  1  0.927059  0.509930  0.326114  1
  Bi  Bi21  1  0.572941  0.990070  0.826114  1
  Bi  Bi22  1  0.072941  0.009930  0.673886  1
  Bi  Bi23  1  0.427059  0.490070  0.173886  1
  Bi  Bi24  1  0.072941  0.490070  0.673886  1
  Bi  Bi25  1  0.427059  0.009930  0.173886  1
  Bi  Bi26  1  0.927059  0.990070  0.326114  1
  Bi  Bi27  1  0.572941  0.509930  0.826114  1
  As  As28  1  0.410064  0.750000  0.480890  1
  As  As29  1  0.089936  0.750000  0.980890  1
  As  As30  1  0.589936  0.250000  0.519110  1
  As  As31  1  0.910064  0.250000  0.019110  1
