# generated using pymatgen
data_Zn14B6Ir16RhAu
_symmetry_space_group_name_H-M   'P 1'
_cell_length_a   2.90397700
_cell_length_b   11.43795600
_cell_length_c   15.02524100
_cell_angle_alpha   90.00000000
_cell_angle_beta   90.00000000
_cell_angle_gamma   90.00000000
_symmetry_Int_Tables_number   1
_chemical_formula_structural   Zn14B6Ir16RhAu
_chemical_formula_sum   'Zn14 B6 Ir16 Rh1 Au1'
_cell_volume   499.07181124
_cell_formula_units_Z   1
loop_
 _symmetry_equiv_pos_site_id
 _symmetry_equiv_pos_as_xyz
  1  'x, y, z'
loop_
 _atom_site_type_symbol
 _atom_site_label
 _atom_site_symmetry_multiplicity
 _atom_site_fract_x
 _atom_site_fract_y
 _atom_site_fract_z
 _atom_site_occupancy
  Zn  Zn0  1  0.500000  0.500000  0.350332  1
  Zn  Zn1  1  0.500000  0.000000  0.652051  1
  Zn  Zn2  1  0.500000  0.388076  0.998139  1
  Zn  Zn3  1  0.500000  0.115578  0.995453  1
  Zn  Zn4  1  0.500000  0.611924  0.998139  1
  Zn  Zn5  1  0.500000  0.884422  0.995453  1
  Zn  Zn6  1  0.500000  0.373542  0.769258  1
  Zn  Zn7  1  0.500000  0.134411  0.237045  1
  Zn  Zn8  1  0.500000  0.626458  0.769258  1
  Zn  Zn9  1  0.500000  0.865589  0.237045  1
  Zn  Zn10  1  0.500000  0.297571  0.603733  1
  Zn  Zn11  1  0.500000  0.204820  0.398685  1
  Zn  Zn12  1  0.500000  0.702429  0.603733  1
  Zn  Zn13  1  0.500000  0.795180  0.398685  1
  B  B14  1  0.500000  0.500000  0.531119  1
  B  B15  1  0.500000  0.000000  0.470416  1
  B  B16  1  0.500000  0.142358  0.820244  1
  B  B17  1  0.500000  0.359193  0.178054  1
  B  B18  1  0.500000  0.857642  0.820244  1
  B  B19  1  0.500000  0.640807  0.178054  1
  Ir  Ir20  1  0.000000  0.247752  0.892373  1
  Ir  Ir21  1  0.000000  0.253213  0.105020  1
  Ir  Ir22  1  0.000000  0.752248  0.892373  1
  Ir  Ir23  1  0.000000  0.746787  0.105020  1
  Ir  Ir24  1  0.000000  0.500000  0.643125  1
  Ir  Ir25  1  0.000000  0.000000  0.357820  1
  Ir  Ir26  1  0.000000  0.171819  0.715883  1
  Ir  Ir27  1  0.000000  0.330546  0.283127  1
  Ir  Ir28  1  0.000000  0.828181  0.715883  1
  Ir  Ir29  1  0.000000  0.669454  0.283127  1
  Ir  Ir30  1  0.000000  0.500000  0.136175  1
  Ir  Ir31  1  0.000000  0.000000  0.861057  1
  Ir  Ir32  1  0.000000  0.122127  0.530008  1
  Ir  Ir33  1  0.000000  0.377967  0.471249  1
  Ir  Ir34  1  0.000000  0.877873  0.530008  1
  Ir  Ir35  1  0.000000  0.622033  0.471249  1
  Rh  Rh36  1  0.000000  0.500000  0.878015  1
  Au  Au37  1  0.000000  0.000000  0.123340  1
