# generated using pymatgen
data_Y20Cd3Ni2Pd3
_symmetry_space_group_name_H-M   'P 1'
_cell_length_a   9.55585000
_cell_length_b   9.55577770
_cell_length_c   9.54868500
_cell_angle_alpha   90.00000000
_cell_angle_beta   90.00000000
_cell_angle_gamma   120.00093225
_symmetry_Int_Tables_number   1
_chemical_formula_structural   Y20Cd3Ni2Pd3
_chemical_formula_sum   'Y20 Cd3 Ni2 Pd3'
_cell_volume   755.10175688
_cell_formula_units_Z   1
loop_
 _symmetry_equiv_pos_site_id
 _symmetry_equiv_pos_as_xyz
  1  'x, y, z'
loop_
 _atom_site_type_symbol
 _atom_site_label
 _atom_site_symmetry_multiplicity
 _atom_site_fract_x
 _atom_site_fract_y
 _atom_site_fract_z
 _atom_site_occupancy
  Y  Y0  1  0.000006  0.999998  0.451770  1
  Y  Y1  1  0.000006  0.999998  0.048230  1
  Y  Y2  1  0.543349  0.456600  0.250000  1
  Y  Y3  1  0.543396  0.086765  0.250000  1
  Y  Y4  1  0.913225  0.456647  0.250000  1
  Y  Y5  1  0.456681  0.543291  0.750000  1
  Y  Y6  1  0.456717  0.913419  0.750000  1
  Y  Y7  1  0.086578  0.543300  0.750000  1
  Y  Y8  1  0.209517  0.790514  0.437601  1
  Y  Y9  1  0.209477  0.418993  0.437587  1
  Y  Y10  1  0.581010  0.790493  0.437586  1
  Y  Y11  1  0.791543  0.208455  0.560035  1
  Y  Y12  1  0.791529  0.583090  0.560043  1
  Y  Y13  1  0.416913  0.208465  0.560045  1
  Y  Y14  1  0.791543  0.208455  0.939965  1
  Y  Y15  1  0.791529  0.583090  0.939957  1
  Y  Y16  1  0.416913  0.208465  0.939955  1
  Y  Y17  1  0.209517  0.790514  0.062399  1
  Y  Y18  1  0.209477  0.418993  0.062413  1
  Y  Y19  1  0.581010  0.790493  0.062414  1
  Cd  Cd20  1  0.108965  0.891055  0.750000  1
  Cd  Cd21  1  0.108959  0.217905  0.750000  1
  Cd  Cd22  1  0.782092  0.891034  0.750000  1
  Ni  Ni23  1  0.333364  0.666669  0.250000  1
  Ni  Ni24  1  0.666739  0.333274  0.750000  1
  Pd  Pd25  1  0.869935  0.130082  0.250000  1
  Pd  Pd26  1  0.869861  0.739853  0.250000  1
  Pd  Pd27  1  0.260151  0.130094  0.250000  1
