# generated using pymatgen
data_LiNd2Er2Al17Pd6
_symmetry_space_group_name_H-M   'P 1'
_cell_length_a   7.65790423
_cell_length_b   7.65790536
_cell_length_c   9.52520300
_cell_angle_alpha   90.00000000
_cell_angle_beta   90.00000000
_cell_angle_gamma   119.36924562
_symmetry_Int_Tables_number   1
_chemical_formula_structural   LiNd2Er2Al17Pd6
_chemical_formula_sum   'Li1 Nd2 Er2 Al17 Pd6'
_cell_volume   486.79957223
_cell_formula_units_Z   1
loop_
 _symmetry_equiv_pos_site_id
 _symmetry_equiv_pos_as_xyz
  1  'x, y, z'
loop_
 _atom_site_type_symbol
 _atom_site_label
 _atom_site_symmetry_multiplicity
 _atom_site_fract_x
 _atom_site_fract_y
 _atom_site_fract_z
 _atom_site_occupancy
  Li  Li0  1  0.127835  0.127835  0.250000  1
  Nd  Nd1  1  0.007889  0.331583  0.750000  1
  Nd  Nd2  1  0.331583  0.007889  0.750000  1
  Er  Er3  1  0.994834  0.664562  0.250000  1
  Er  Er4  1  0.664562  0.994834  0.250000  1
  Al  Al5  1  0.864634  0.864634  0.750000  1
  Al  Al6  1  0.000593  0.328577  0.083567  1
  Al  Al7  1  0.998378  0.665370  0.930625  1
  Al  Al8  1  0.998378  0.665370  0.569375  1
  Al  Al9  1  0.328577  0.000593  0.416433  1
  Al  Al10  1  0.000593  0.328577  0.416433  1
  Al  Al11  1  0.665370  0.998378  0.569375  1
  Al  Al12  1  0.665370  0.998378  0.930625  1
  Al  Al13  1  0.328577  0.000593  0.083567  1
  Al  Al14  1  0.336080  0.336080  0.539428  1
  Al  Al15  1  0.671988  0.671988  0.435821  1
  Al  Al16  1  0.671988  0.671988  0.064179  1
  Al  Al17  1  0.336080  0.336080  0.960572  1
  Al  Al18  1  0.340733  0.543426  0.250000  1
  Al  Al19  1  0.659497  0.454667  0.750000  1
  Al  Al20  1  0.543426  0.340733  0.250000  1
  Al  Al21  1  0.454667  0.659497  0.750000  1
  Pd  Pd22  1  0.675049  0.330465  0.003039  1
  Pd  Pd23  1  0.330465  0.675049  0.003039  1
  Pd  Pd24  1  0.330465  0.675049  0.496961  1
  Pd  Pd25  1  0.675049  0.330465  0.496961  1
  Pd  Pd26  1  0.998672  0.998672  0.996461  1
  Pd  Pd27  1  0.998672  0.998672  0.503539  1
