# generated using pymatgen
data_Sm5Er11(MgSn4)4
_symmetry_space_group_name_H-M   'P 1'
_cell_length_a   7.70136019
_cell_length_b   8.25390139
_cell_length_c   15.26977706
_cell_angle_alpha   89.96528366
_cell_angle_beta   89.97515502
_cell_angle_gamma   89.99437166
_symmetry_Int_Tables_number   1
_chemical_formula_structural   Sm5Er11(MgSn4)4
_chemical_formula_sum   'Sm5 Er11 Mg4 Sn16'
_cell_volume   970.64246021
_cell_formula_units_Z   1
loop_
 _symmetry_equiv_pos_site_id
 _symmetry_equiv_pos_as_xyz
  1  'x, y, z'
loop_
 _atom_site_type_symbol
 _atom_site_label
 _atom_site_symmetry_multiplicity
 _atom_site_fract_x
 _atom_site_fract_y
 _atom_site_fract_z
 _atom_site_occupancy
  Sm  Sm0  1  0.999485  0.182424  0.093893  1
  Sm  Sm1  1  0.001111  0.817772  0.905326  1
  Sm  Sm2  1  0.500219  0.681794  0.907153  1
  Sm  Sm3  1  0.000798  0.816126  0.591505  1
  Sm  Sm4  1  0.500067  0.317733  0.093869  1
  Er  Er5  1  0.998245  0.184993  0.408057  1
  Er  Er6  1  0.497044  0.315777  0.408201  1
  Er  Er7  1  0.501303  0.683959  0.590875  1
  Er  Er8  1  0.336686  0.169038  0.627177  1
  Er  Er9  1  0.664073  0.830275  0.372411  1
  Er  Er10  1  0.163948  0.668655  0.372472  1
  Er  Er11  1  0.664605  0.830200  0.129927  1
  Er  Er12  1  0.836056  0.330851  0.626974  1
  Er  Er13  1  0.335890  0.169472  0.871157  1
  Er  Er14  1  0.834955  0.330105  0.871066  1
  Er  Er15  1  0.164511  0.669701  0.129716  1
  Mg  Mg16  1  0.161068  0.504320  0.749371  1
  Mg  Mg17  1  0.839929  0.495745  0.251176  1
  Mg  Mg18  1  0.339985  0.004807  0.250770  1
  Mg  Mg19  1  0.661275  0.996145  0.749678  1
  Sn  Sn20  1  0.024727  0.098827  0.748820  1
  Sn  Sn21  1  0.976862  0.904295  0.251859  1
  Sn  Sn22  1  0.476848  0.595635  0.251789  1
  Sn  Sn23  1  0.523073  0.402621  0.748169  1
  Sn  Sn24  1  0.183480  0.461368  0.538479  1
  Sn  Sn25  1  0.816120  0.534848  0.459868  1
  Sn  Sn26  1  0.318332  0.964377  0.459423  1
  Sn  Sn27  1  0.822173  0.540068  0.038346  1
  Sn  Sn28  1  0.678998  0.038709  0.538021  1
  Sn  Sn29  1  0.178077  0.460967  0.961783  1
  Sn  Sn30  1  0.678543  0.038314  0.962107  1
  Sn  Sn31  1  0.321581  0.960914  0.038950  1
  Sn  Sn32  1  0.304916  0.851581  0.747510  1
  Sn  Sn33  1  0.698044  0.149551  0.253256  1
  Sn  Sn34  1  0.197607  0.351088  0.252805  1
  Sn  Sn35  1  0.799365  0.646944  0.748041  1
