# generated using pymatgen
data_Tm6Al13Os7W3
_symmetry_space_group_name_H-M   'P 1'
_cell_length_a   8.94962508
_cell_length_b   8.94962563
_cell_length_c   8.94962495
_cell_angle_alpha   59.57767630
_cell_angle_beta   59.57767457
_cell_angle_gamma   59.57766826
_symmetry_Int_Tables_number   1
_chemical_formula_structural   Tm6Al13Os7W3
_chemical_formula_sum   'Tm6 Al13 Os7 W3'
_cell_volume   502.00731405
_cell_formula_units_Z   1
loop_
 _symmetry_equiv_pos_site_id
 _symmetry_equiv_pos_as_xyz
  1  'x, y, z'
loop_
 _atom_site_type_symbol
 _atom_site_label
 _atom_site_symmetry_multiplicity
 _atom_site_fract_x
 _atom_site_fract_y
 _atom_site_fract_z
 _atom_site_occupancy
  Tm  Tm0  1  0.708188  0.708188  0.285425  1
  Tm  Tm1  1  0.293673  0.708142  0.293673  1
  Tm  Tm2  1  0.708142  0.293673  0.293673  1
  Tm  Tm3  1  0.293673  0.293673  0.708142  1
  Tm  Tm4  1  0.708188  0.285425  0.708188  1
  Tm  Tm5  1  0.285425  0.708188  0.708188  1
  Al  Al6  1  0.880340  0.880340  0.880340  1
  Al  Al7  1  0.121382  0.121382  0.639325  1
  Al  Al8  1  0.121382  0.639325  0.121382  1
  Al  Al9  1  0.639325  0.121382  0.121382  1
  Al  Al10  1  0.122050  0.122050  0.122050  1
  Al  Al11  1  0.668342  0.668342  0.998994  1
  Al  Al12  1  0.668342  0.998994  0.668342  1
  Al  Al13  1  0.998994  0.668342  0.668342  1
  Al  Al14  1  0.661219  0.661219  0.661219  1
  Al  Al15  1  0.331337  0.331337  0.008410  1
  Al  Al16  1  0.331337  0.008410  0.331337  1
  Al  Al17  1  0.008410  0.331337  0.331337  1
  Al  Al18  1  0.332093  0.332093  0.332093  1
  Os  Os19  1  0.004898  0.004898  0.004898  1
  Os  Os20  1  0.997030  0.997030  0.496190  1
  Os  Os21  1  0.505021  0.994848  0.505021  1
  Os  Os22  1  0.994848  0.505021  0.505021  1
  Os  Os23  1  0.505021  0.505021  0.994848  1
  Os  Os24  1  0.997030  0.496190  0.997030  1
  Os  Os25  1  0.496190  0.997030  0.997030  1
  W  W26  1  0.877243  0.877243  0.363638  1
  W  W27  1  0.877243  0.363638  0.877243  1
  W  W28  1  0.363638  0.877243  0.877243  1
