# generated using pymatgen
data_CaY3(BeSi3)2
_symmetry_space_group_name_H-M   'P 1'
_cell_length_a   7.83858800
_cell_length_b   7.83858771
_cell_length_c   8.32310600
_cell_angle_alpha   90.00000000
_cell_angle_beta   90.00000000
_cell_angle_gamma   120.00000123
_symmetry_Int_Tables_number   1
_chemical_formula_structural   CaY3(BeSi3)2
_chemical_formula_sum   'Ca2 Y6 Be4 Si12'
_cell_volume   442.88575557
_cell_formula_units_Z   2
loop_
 _symmetry_equiv_pos_site_id
 _symmetry_equiv_pos_as_xyz
  1  'x, y, z'
loop_
 _atom_site_type_symbol
 _atom_site_label
 _atom_site_symmetry_multiplicity
 _atom_site_fract_x
 _atom_site_fract_y
 _atom_site_fract_z
 _atom_site_occupancy
  Ca  Ca0  1  0.000000  0.000000  0.250000  1
  Ca  Ca1  1  0.000000  0.000000  0.750000  1
  Y  Y2  1  0.999805  0.499902  0.250000  1
  Y  Y3  1  0.500098  0.499902  0.250000  1
  Y  Y4  1  0.499902  0.999805  0.750000  1
  Y  Y5  1  0.500098  0.000195  0.250000  1
  Y  Y6  1  0.499902  0.500098  0.750000  1
  Y  Y7  1  0.000195  0.500098  0.750000  1
  Be  Be8  1  0.333333  0.666667  0.999308  1
  Be  Be9  1  0.333333  0.666667  0.500692  1
  Be  Be10  1  0.666667  0.333333  0.000692  1
  Be  Be11  1  0.666667  0.333333  0.499308  1
  Si  Si12  1  0.173133  0.346266  0.000045  1
  Si  Si13  1  0.653734  0.826867  0.000045  1
  Si  Si14  1  0.173133  0.346266  0.499955  1
  Si  Si15  1  0.346266  0.173133  0.999955  1
  Si  Si16  1  0.173133  0.826867  0.000045  1
  Si  Si17  1  0.653734  0.826867  0.499955  1
  Si  Si18  1  0.826867  0.653734  0.999955  1
  Si  Si19  1  0.346266  0.173133  0.500045  1
  Si  Si20  1  0.173133  0.826867  0.499955  1
  Si  Si21  1  0.826867  0.653734  0.500045  1
  Si  Si22  1  0.826867  0.173133  0.999955  1
  Si  Si23  1  0.826867  0.173133  0.500045  1
