# generated using pymatgen
data_Ce4Y3Tm(AlRh)8
_symmetry_space_group_name_H-M   'P 1'
_cell_length_a   4.20325000
_cell_length_b   7.01355814
_cell_length_c   15.87164732
_cell_angle_alpha   90.02281271
_cell_angle_beta   90.00000000
_cell_angle_gamma   90.00000000
_symmetry_Int_Tables_number   1
_chemical_formula_structural   Ce4Y3Tm(AlRh)8
_chemical_formula_sum   'Ce4 Y3 Tm1 Al8 Rh8'
_cell_volume   467.89197131
_cell_formula_units_Z   1
loop_
 _symmetry_equiv_pos_site_id
 _symmetry_equiv_pos_as_xyz
  1  'x, y, z'
loop_
 _atom_site_type_symbol
 _atom_site_label
 _atom_site_symmetry_multiplicity
 _atom_site_fract_x
 _atom_site_fract_y
 _atom_site_fract_z
 _atom_site_occupancy
  Ce  Ce0  1  0.250000  0.034323  0.778720  1
  Ce  Ce1  1  0.750000  0.965395  0.220798  1
  Ce  Ce2  1  0.250000  0.534368  0.719690  1
  Ce  Ce3  1  0.750000  0.465233  0.280157  1
  Y  Y4  1  0.750000  0.841791  0.441496  1
  Y  Y5  1  0.250000  0.659159  0.940271  1
  Y  Y6  1  0.750000  0.340737  0.059269  1
  Tm  Tm7  1  0.250000  0.158624  0.559623  1
  Al  Al8  1  0.250000  0.136652  0.354765  1
  Al  Al9  1  0.750000  0.865326  0.646078  1
  Al  Al10  1  0.250000  0.635840  0.146487  1
  Al  Al11  1  0.750000  0.364144  0.852905  1
  Al  Al12  1  0.250000  0.006414  0.061016  1
  Al  Al13  1  0.750000  0.994072  0.938549  1
  Al  Al14  1  0.250000  0.505947  0.439790  1
  Al  Al15  1  0.750000  0.494170  0.561262  1
  Rh  Rh16  1  0.750000  0.273471  0.430231  1
  Rh  Rh17  1  0.250000  0.728506  0.572333  1
  Rh  Rh18  1  0.750000  0.775467  0.072094  1
  Rh  Rh19  1  0.250000  0.223840  0.926816  1
  Rh  Rh20  1  0.750000  0.745076  0.812697  1
  Rh  Rh21  1  0.250000  0.253889  0.187962  1
  Rh  Rh22  1  0.750000  0.244062  0.684210  1
  Rh  Rh23  1  0.250000  0.753493  0.312780  1
