# generated using pymatgen
data_Sc3SiTc3P2
_symmetry_space_group_name_H-M   'P 1'
_cell_length_a   7.65351816
_cell_length_b   7.65351960
_cell_length_c   7.65351974
_cell_angle_alpha   126.95309472
_cell_angle_beta   126.69857304
_cell_angle_gamma   78.53517702
_symmetry_Int_Tables_number   1
_chemical_formula_structural   Sc3SiTc3P2
_chemical_formula_sum   'Sc6 Si2 Tc6 P4'
_cell_volume   278.09345578
_cell_formula_units_Z   2
loop_
 _symmetry_equiv_pos_site_id
 _symmetry_equiv_pos_as_xyz
  1  'x, y, z'
loop_
 _atom_site_type_symbol
 _atom_site_label
 _atom_site_symmetry_multiplicity
 _atom_site_fract_x
 _atom_site_fract_y
 _atom_site_fract_z
 _atom_site_occupancy
  Sc  Sc0  1  0.452539  0.657618  0.705079  1
  Sc  Sc1  1  0.547461  0.252540  0.205079  1
  Sc  Sc2  1  0.749884  0.849390  0.599505  1
  Sc  Sc3  1  0.250116  0.849621  0.099505  1
  Sc  Sc4  1  0.047829  0.252459  0.704630  1
  Sc  Sc5  1  0.952171  0.656800  0.204630  1
  Si  Si6  1  0.250338  0.253417  0.503080  1
  Si  Si7  1  0.749662  0.252742  0.003080  1
  Tc  Tc8  1  0.500000  0.511060  0.011060  1
  Tc  Tc9  1  0.000000  0.511060  0.511060  1
  Tc  Tc10  1  0.128089  0.253253  0.124360  1
  Tc  Tc11  1  0.871911  0.996271  0.125164  1
  Tc  Tc12  1  0.371107  0.996271  0.624360  1
  Tc  Tc13  1  0.628893  0.253253  0.625164  1
  P  P14  1  0.333117  0.586757  0.253283  1
  P  P15  1  0.666883  0.920166  0.253639  1
  P  P16  1  0.166527  0.920166  0.753283  1
  P  P17  1  0.833473  0.586757  0.753639  1
