# generated using pymatgen
data_Tb12Co3NiBiOs
_symmetry_space_group_name_H-M   'P 1'
_cell_length_a   8.37681701
_cell_length_b   8.37681774
_cell_length_c   8.37681772
_cell_angle_alpha   111.44780127
_cell_angle_beta   109.55085482
_cell_angle_gamma   107.43977060
_symmetry_Int_Tables_number   1
_chemical_formula_structural   Tb12Co3NiBiOs
_chemical_formula_sum   'Tb12 Co3 Ni1 Bi1 Os1'
_cell_volume   451.94313881
_cell_formula_units_Z   1
loop_
 _symmetry_equiv_pos_site_id
 _symmetry_equiv_pos_as_xyz
  1  'x, y, z'
loop_
 _atom_site_type_symbol
 _atom_site_label
 _atom_site_symmetry_multiplicity
 _atom_site_fract_x
 _atom_site_fract_y
 _atom_site_fract_z
 _atom_site_occupancy
  Tb  Tb0  1  0.823586  0.715720  0.539307  1
  Tb  Tb1  1  0.179800  0.281875  0.461675  1
  Tb  Tb2  1  0.179800  0.718125  0.897926  1
  Tb  Tb3  1  0.823586  0.284280  0.107865  1
  Tb  Tb4  1  0.680596  0.371163  0.685878  1
  Tb  Tb5  1  0.314716  0.628837  0.309433  1
  Tb  Tb6  1  0.680596  0.994716  0.309433  1
  Tb  Tb7  1  0.314716  0.005284  0.685878  1
  Tb  Tb8  1  0.590002  0.783779  0.806224  1
  Tb  Tb9  1  0.408109  0.215424  0.192684  1
  Tb  Tb10  1  0.977260  0.784576  0.192684  1
  Tb  Tb11  1  0.022446  0.216221  0.806224  1
  Co  Co12  1  0.359862  0.000000  0.359862  1
  Co  Co13  1  0.115871  0.612430  0.503440  1
  Co  Co14  1  0.891010  0.387570  0.503440  1
  Ni  Ni15  1  0.637067  0.000000  0.637067  1
  Bi  Bi16  1  0.501524  0.500000  0.001524  1
  Os  Os17  1  0.999454  0.000000  0.999454  1
