# generated using pymatgen
data_Ho2Bi2IrRh3O14
_symmetry_space_group_name_H-M   'P 1'
_cell_length_a   7.24569126
_cell_length_b   7.27589787
_cell_length_c   7.27461387
_cell_angle_alpha   60.37206668
_cell_angle_beta   60.13142604
_cell_angle_gamma   60.13723362
_symmetry_Int_Tables_number   1
_chemical_formula_structural   Ho2Bi2IrRh3O14
_chemical_formula_sum   'Ho2 Bi2 Ir1 Rh3 O14'
_cell_volume   272.49056726
_cell_formula_units_Z   1
loop_
 _symmetry_equiv_pos_site_id
 _symmetry_equiv_pos_as_xyz
  1  'x, y, z'
loop_
 _atom_site_type_symbol
 _atom_site_label
 _atom_site_symmetry_multiplicity
 _atom_site_fract_x
 _atom_site_fract_y
 _atom_site_fract_z
 _atom_site_occupancy
  Ho  Ho0  1  0.125000  0.125000  0.125000  1
  Ho  Ho1  1  0.625000  0.125000  0.125000  1
  Bi  Bi2  1  0.125000  0.625000  0.125000  1
  Bi  Bi3  1  0.125000  0.125000  0.625000  1
  Ir  Ir4  1  0.625000  0.625000  0.125000  1
  Rh  Rh5  1  0.625000  0.625000  0.625000  1
  Rh  Rh6  1  0.125000  0.625000  0.625000  1
  Rh  Rh7  1  0.625000  0.125000  0.625000  1
  O  O8  1  0.256017  0.244651  0.243314  1
  O  O9  1  0.292168  0.715119  0.287614  1
  O  O10  1  0.962473  0.962449  0.530632  1
  O  O11  1  0.544446  0.962449  0.530632  1
  O  O12  1  0.705100  0.715119  0.287614  1
  O  O13  1  0.958334  0.542890  0.540441  1
  O  O14  1  0.705554  0.287551  0.719368  1
  O  O15  1  0.287527  0.287551  0.719368  1
  O  O16  1  0.711305  0.291322  0.286068  1
  O  O17  1  0.291666  0.707110  0.709559  1
  O  O18  1  0.957832  0.534881  0.962386  1
  O  O19  1  0.544900  0.534881  0.962386  1
  O  O20  1  0.993983  0.005349  0.006686  1
  O  O21  1  0.538695  0.958678  0.963932  1
