# generated using pymatgen
data_YTm2Si3Ru2
_symmetry_space_group_name_H-M   'P 1'
_cell_length_a   5.71395700
_cell_length_b   5.71395713
_cell_length_c   13.74051100
_cell_angle_alpha   90.00000000
_cell_angle_beta   90.00000000
_cell_angle_gamma   137.18098025
_symmetry_Int_Tables_number   1
_chemical_formula_structural   YTm2Si3Ru2
_chemical_formula_sum   'Y2 Tm4 Si6 Ru4'
_cell_volume   304.91894519
_cell_formula_units_Z   2
loop_
 _symmetry_equiv_pos_site_id
 _symmetry_equiv_pos_as_xyz
  1  'x, y, z'
loop_
 _atom_site_type_symbol
 _atom_site_label
 _atom_site_symmetry_multiplicity
 _atom_site_fract_x
 _atom_site_fract_y
 _atom_site_fract_z
 _atom_site_occupancy
  Y  Y0  1  0.640226  0.359774  0.250000  1
  Y  Y1  1  0.359774  0.640226  0.750000  1
  Tm  Tm2  1  0.922611  0.077389  0.114046  1
  Tm  Tm3  1  0.077389  0.922611  0.885954  1
  Tm  Tm4  1  0.077389  0.922611  0.614046  1
  Tm  Tm5  1  0.922611  0.077389  0.385954  1
  Si  Si6  1  0.330080  0.669920  0.250000  1
  Si  Si7  1  0.669920  0.330080  0.750000  1
  Si  Si8  1  0.616259  0.383741  0.037881  1
  Si  Si9  1  0.383741  0.616259  0.962119  1
  Si  Si10  1  0.383741  0.616259  0.537881  1
  Si  Si11  1  0.616259  0.383741  0.462119  1
  Ru  Ru12  1  0.787346  0.212654  0.580861  1
  Ru  Ru13  1  0.212654  0.787346  0.419139  1
  Ru  Ru14  1  0.212654  0.787346  0.080861  1
  Ru  Ru15  1  0.787346  0.212654  0.919139  1
