# generated using pymatgen
data_Dy16MgIn3IrPt3
_symmetry_space_group_name_H-M   'P 1'
_cell_length_a   9.69021894
_cell_length_b   9.68130482
_cell_length_c   9.68130401
_cell_angle_alpha   60.36039245
_cell_angle_beta   60.46051197
_cell_angle_gamma   60.46051648
_symmetry_Int_Tables_number   1
_chemical_formula_structural   Dy16MgIn3IrPt3
_chemical_formula_sum   'Dy16 Mg1 In3 Ir1 Pt3'
_cell_volume   648.42495872
_cell_formula_units_Z   1
loop_
 _symmetry_equiv_pos_site_id
 _symmetry_equiv_pos_as_xyz
  1  'x, y, z'
loop_
 _atom_site_type_symbol
 _atom_site_label
 _atom_site_symmetry_multiplicity
 _atom_site_fract_x
 _atom_site_fract_y
 _atom_site_fract_z
 _atom_site_occupancy
  Dy  Dy0  1  0.601283  0.596638  0.596638  1
  Dy  Dy1  1  0.603186  0.598590  0.199712  1
  Dy  Dy2  1  0.603186  0.199712  0.598590  1
  Dy  Dy3  1  0.194396  0.601446  0.601446  1
  Dy  Dy4  1  0.056036  0.441209  0.441209  1
  Dy  Dy5  1  0.442009  0.060057  0.060057  1
  Dy  Dy6  1  0.442692  0.058055  0.441734  1
  Dy  Dy7  1  0.057699  0.440619  0.063994  1
  Dy  Dy8  1  0.442692  0.441734  0.058055  1
  Dy  Dy9  1  0.057699  0.063994  0.440619  1
  Dy  Dy10  1  0.186087  0.814947  0.814947  1
  Dy  Dy11  1  0.813914  0.188426  0.188426  1
  Dy  Dy12  1  0.816807  0.186238  0.813130  1
  Dy  Dy13  1  0.188662  0.811871  0.187295  1
  Dy  Dy14  1  0.816807  0.813130  0.186238  1
  Dy  Dy15  1  0.188662  0.187295  0.811871  1
  Mg  Mg16  1  0.826730  0.827717  0.827717  1
  In  In17  1  0.831897  0.833676  0.502922  1
  In  In18  1  0.831897  0.502922  0.833676  1
  In  In19  1  0.502999  0.832798  0.832798  1
  Ir  Ir20  1  0.824115  0.390709  0.390709  1
  Pt  Pt21  1  0.391194  0.393543  0.393543  1
  Pt  Pt22  1  0.389678  0.391514  0.823162  1
  Pt  Pt23  1  0.389678  0.823162  0.391514  1
