# generated using pymatgen
data_Y4Tm2C2I11
_symmetry_space_group_name_H-M   'P 1'
_cell_length_a   9.53126442
_cell_length_b   10.84279648
_cell_length_c   15.15908282
_cell_angle_alpha   90.61740907
_cell_angle_beta   104.19584614
_cell_angle_gamma   109.77367986
_symmetry_Int_Tables_number   1
_chemical_formula_structural   Y4Tm2C2I11
_chemical_formula_sum   'Y8 Tm4 C4 I22'
_cell_volume   1421.66602982
_cell_formula_units_Z   2
loop_
 _symmetry_equiv_pos_site_id
 _symmetry_equiv_pos_as_xyz
  1  'x, y, z'
loop_
 _atom_site_type_symbol
 _atom_site_label
 _atom_site_symmetry_multiplicity
 _atom_site_fract_x
 _atom_site_fract_y
 _atom_site_fract_z
 _atom_site_occupancy
  Y  Y0  1  0.386121  0.479514  0.119836  1
  Y  Y1  1  0.613879  0.520486  0.880164  1
  Y  Y2  1  0.425611  0.781299  0.267435  1
  Y  Y3  1  0.574389  0.218701  0.732565  1
  Y  Y4  1  0.626935  0.583817  0.359289  1
  Y  Y5  1  0.373065  0.416183  0.640711  1
  Y  Y6  1  0.833729  0.648228  0.201081  1
  Y  Y7  1  0.166271  0.351772  0.798919  1
  Tm  Tm8  1  0.630354  0.839787  0.107688  1
  Tm  Tm9  1  0.369646  0.160213  0.892312  1
  Tm  Tm10  1  0.859231  0.944635  0.347013  1
  Tm  Tm11  1  0.140769  0.055365  0.652987  1
  C  C12  1  0.430154  0.342483  0.797816  1
  C  C13  1  0.569846  0.657517  0.202184  1
  C  C14  1  0.314470  0.230272  0.740744  1
  C  C15  1  0.685530  0.769728  0.259256  1
  I  I16  1  0.386588  0.310846  0.272795  1
  I  I17  1  0.613412  0.689154  0.727205  1
  I  I18  1  0.120940  0.557881  0.150050  1
  I  I19  1  0.879060  0.442119  0.849950  1
  I  I20  1  0.626319  0.374711  0.061419  1
  I  I21  1  0.373681  0.625289  0.938581  1
  I  I22  1  0.118682  0.202755  0.481924  1
  I  I23  1  0.881318  0.797245  0.518076  1
  I  I24  1  0.621123  0.035198  0.391594  1
  I  I25  1  0.378877  0.964802  0.608406  1
  I  I26  1  0.127652  0.871846  0.306951  1
  I  I27  1  0.872348  0.128154  0.693049  1
  I  I28  1  0.129476  0.528332  0.652348  1
  I  I29  1  0.870524  0.471668  0.347652  1
  I  I30  1  0.616499  0.366911  0.564967  1
  I  I31  1  0.383501  0.633089  0.435033  1
  I  I32  1  0.142661  0.220195  0.978119  1
  I  I33  1  0.857339  0.779805  0.021881  1
  I  I34  1  0.621970  0.058546  0.897378  1
  I  I35  1  0.378030  0.941454  0.102622  1
  I  I36  1  0.130373  0.897128  0.814732  1
  I  I37  1  0.869627  0.102872  0.185268  1
