# generated using pymatgen
data_Dy7Y4ErRh4
_symmetry_space_group_name_H-M   'P 1'
_cell_length_a   6.26199433
_cell_length_b   7.17992977
_cell_length_c   9.51517520
_cell_angle_alpha   89.97615415
_cell_angle_beta   89.94630522
_cell_angle_gamma   89.96107786
_symmetry_Int_Tables_number   1
_chemical_formula_structural   Dy7Y4ErRh4
_chemical_formula_sum   'Dy7 Y4 Er1 Rh4'
_cell_volume   427.80841873
_cell_formula_units_Z   1
loop_
 _symmetry_equiv_pos_site_id
 _symmetry_equiv_pos_as_xyz
  1  'x, y, z'
loop_
 _atom_site_type_symbol
 _atom_site_label
 _atom_site_symmetry_multiplicity
 _atom_site_fract_x
 _atom_site_fract_y
 _atom_site_fract_z
 _atom_site_occupancy
  Dy  Dy0  1  0.170171  0.176896  0.437086  1
  Dy  Dy1  1  0.670034  0.323121  0.563028  1
  Dy  Dy2  1  0.829619  0.823022  0.937182  1
  Dy  Dy3  1  0.670341  0.323219  0.937208  1
  Dy  Dy4  1  0.829837  0.823038  0.562976  1
  Dy  Dy5  1  0.329795  0.676897  0.436573  1
  Dy  Dy6  1  0.170436  0.176867  0.062861  1
  Y  Y7  1  0.866800  0.533085  0.249755  1
  Y  Y8  1  0.633029  0.032547  0.249828  1
  Y  Y9  1  0.133476  0.467254  0.750002  1
  Y  Y10  1  0.366486  0.967129  0.750078  1
  Er  Er11  1  0.329962  0.676980  0.063055  1
  Rh  Rh12  1  0.063653  0.882736  0.250153  1
  Rh  Rh13  1  0.436553  0.382897  0.249983  1
  Rh  Rh14  1  0.936283  0.117171  0.749859  1
  Rh  Rh15  1  0.563525  0.617140  0.750371  1
