# generated using pymatgen
data_BaLuZn3GaO7
_symmetry_space_group_name_H-M   'P 1'
_cell_length_a   6.36712700
_cell_length_b   6.36712712
_cell_length_c   10.32730100
_cell_angle_alpha   90.00000000
_cell_angle_beta   90.00000000
_cell_angle_gamma   120.00001498
_symmetry_Int_Tables_number   1
_chemical_formula_structural   BaLuZn3GaO7
_chemical_formula_sum   'Ba2 Lu2 Zn6 Ga2 O14'
_cell_volume   362.58049224
_cell_formula_units_Z   2
loop_
 _symmetry_equiv_pos_site_id
 _symmetry_equiv_pos_as_xyz
  1  'x, y, z'
loop_
 _atom_site_type_symbol
 _atom_site_label
 _atom_site_symmetry_multiplicity
 _atom_site_fract_x
 _atom_site_fract_y
 _atom_site_fract_z
 _atom_site_occupancy
  Ba  Ba0  1  0.666667  0.333333  0.987302  1
  Ba  Ba1  1  0.333333  0.666667  0.487302  1
  Lu  Lu2  1  0.666667  0.333333  0.634786  1
  Lu  Lu3  1  0.333333  0.666667  0.134786  1
  Zn  Zn4  1  0.171836  0.828164  0.817293  1
  Zn  Zn5  1  0.656327  0.828164  0.817293  1
  Zn  Zn6  1  0.171836  0.343673  0.817293  1
  Zn  Zn7  1  0.828164  0.171836  0.317293  1
  Zn  Zn8  1  0.343673  0.171836  0.317293  1
  Zn  Zn9  1  0.828164  0.656327  0.317293  1
  Ga  Ga10  1  0.000000  0.000000  0.067933  1
  Ga  Ga11  1  0.000000  0.000000  0.567933  1
  O  O12  1  0.508489  0.491511  0.761762  1
  O  O13  1  0.983022  0.491511  0.761762  1
  O  O14  1  0.508489  0.016978  0.761762  1
  O  O15  1  0.491511  0.508489  0.261762  1
  O  O16  1  0.016978  0.508489  0.261762  1
  O  O17  1  0.491511  0.983022  0.261762  1
  O  O18  1  0.000000  0.000000  0.250204  1
  O  O19  1  0.000000  0.000000  0.750204  1
  O  O20  1  0.161507  0.838493  0.011954  1
  O  O21  1  0.676986  0.838493  0.011954  1
  O  O22  1  0.161507  0.323014  0.011954  1
  O  O23  1  0.838493  0.161507  0.511954  1
  O  O24  1  0.323014  0.161507  0.511954  1
  O  O25  1  0.838493  0.676986  0.511954  1
