# generated using pymatgen
data_Cr(GaO2)3
_symmetry_space_group_name_H-M   'P 1'
_cell_length_a   6.43050335
_cell_length_b   6.43050423
_cell_length_c   5.87351777
_cell_angle_alpha   76.94583408
_cell_angle_beta   76.94583366
_cell_angle_gamma   27.76871749
_symmetry_Int_Tables_number   1
_chemical_formula_structural   Cr(GaO2)3
_chemical_formula_sum   'Cr1 Ga3 O6'
_cell_volume   110.05222569
_cell_formula_units_Z   1
loop_
 _symmetry_equiv_pos_site_id
 _symmetry_equiv_pos_as_xyz
  1  'x, y, z'
loop_
 _atom_site_type_symbol
 _atom_site_label
 _atom_site_symmetry_multiplicity
 _atom_site_fract_x
 _atom_site_fract_y
 _atom_site_fract_z
 _atom_site_occupancy
  Cr  Cr0  1  0.659404  0.659404  0.678833  1
  Ga  Ga1  1  0.342447  0.342447  0.313178  1
  Ga  Ga2  1  0.089396  0.089396  0.204399  1
  Ga  Ga3  1  0.909884  0.909884  0.796039  1
  O  O4  1  0.494522  0.494522  0.746216  1
  O  O5  1  0.504039  0.504039  0.258014  1
  O  O6  1  0.173725  0.173725  0.435835  1
  O  O7  1  0.826765  0.826765  0.564223  1
  O  O8  1  0.836340  0.836340  0.110315  1
  O  O9  1  0.163480  0.163480  0.892948  1
