# generated using pymatgen
data_K5Lu2Si4O13F
_symmetry_space_group_name_H-M   'P 1'
_cell_length_a   5.76366300
_cell_length_b   7.18207943
_cell_length_c   18.13061625
_cell_angle_alpha   88.02375486
_cell_angle_beta   90.00000000
_cell_angle_gamma   90.00000000
_symmetry_Int_Tables_number   1
_chemical_formula_structural   K5Lu2Si4O13F
_chemical_formula_sum   'K10 Lu4 Si8 O26 F2'
_cell_volume   750.07200839
_cell_formula_units_Z   2
loop_
 _symmetry_equiv_pos_site_id
 _symmetry_equiv_pos_as_xyz
  1  'x, y, z'
loop_
 _atom_site_type_symbol
 _atom_site_label
 _atom_site_symmetry_multiplicity
 _atom_site_fract_x
 _atom_site_fract_y
 _atom_site_fract_z
 _atom_site_occupancy
  K  K0  1  0.250000  0.522766  0.251522  1
  K  K1  1  0.750000  0.477234  0.748478  1
  K  K2  1  0.250000  0.134529  0.692722  1
  K  K3  1  0.750000  0.865471  0.307278  1
  K  K4  1  0.250000  0.793048  0.813795  1
  K  K5  1  0.750000  0.206952  0.186205  1
  K  K6  1  0.250000  0.797784  0.004448  1
  K  K7  1  0.750000  0.202216  0.995552  1
  K  K8  1  0.250000  0.264012  0.489358  1
  K  K9  1  0.750000  0.735988  0.510642  1
  Lu  Lu10  1  0.250000  0.332682  0.890766  1
  Lu  Lu11  1  0.750000  0.667318  0.109234  1
  Lu  Lu12  1  0.250000  0.597512  0.628670  1
  Lu  Lu13  1  0.750000  0.402488  0.371330  1
  Si  Si14  1  0.250000  0.340111  0.082441  1
  Si  Si15  1  0.750000  0.659889  0.917559  1
  Si  Si16  1  0.250000  0.956052  0.172464  1
  Si  Si17  1  0.750000  0.043948  0.827536  1
  Si  Si18  1  0.250000  0.083889  0.333322  1
  Si  Si19  1  0.750000  0.916111  0.666678  1
  Si  Si20  1  0.250000  0.706468  0.424823  1
  Si  Si21  1  0.750000  0.293532  0.575177  1
  O  O22  1  0.012537  0.458064  0.094342  1
  O  O23  1  0.512537  0.541936  0.905658  1
  O  O24  1  0.987463  0.541936  0.905658  1
  O  O25  1  0.487463  0.458064  0.094342  1
  O  O26  1  0.250000  0.231299  0.004185  1
  O  O27  1  0.750000  0.768701  0.995815  1
  O  O28  1  0.250000  0.183364  0.154230  1
  O  O29  1  0.750000  0.816636  0.845770  1
  O  O30  1  0.011693  0.864776  0.143902  1
  O  O31  1  0.511693  0.135224  0.856098  1
  O  O32  1  0.988307  0.135224  0.856098  1
  O  O33  1  0.488307  0.864776  0.143902  1
  O  O34  1  0.250000  0.935450  0.264536  1
  O  O35  1  0.750000  0.064550  0.735464  1
  O  O36  1  0.014148  0.207494  0.331628  1
  O  O37  1  0.514148  0.792506  0.668372  1
  O  O38  1  0.985852  0.792506  0.668372  1
  O  O39  1  0.485852  0.207494  0.331628  1
  O  O40  1  0.250000  0.939857  0.407578  1
  O  O41  1  0.750000  0.060143  0.592422  1
  O  O42  1  0.015027  0.617657  0.389378  1
  O  O43  1  0.515027  0.382343  0.610622  1
  O  O44  1  0.984973  0.382343  0.610622  1
  O  O45  1  0.484973  0.617657  0.389378  1
  O  O46  1  0.250000  0.682541  0.515180  1
  O  O47  1  0.750000  0.317459  0.484820  1
  F  F48  1  0.250000  0.465628  0.753522  1
  F  F49  1  0.750000  0.534372  0.246478  1
