# generated using pymatgen
data_Tm3Fe8Os
_symmetry_space_group_name_H-M   'P 1'
_cell_length_a   5.06976462
_cell_length_b   5.06976469
_cell_length_c   8.69771905
_cell_angle_alpha   73.05569010
_cell_angle_beta   73.05568877
_cell_angle_gamma   60.00000762
_symmetry_Int_Tables_number   1
_chemical_formula_structural   Tm3Fe8Os
_chemical_formula_sum   'Tm3 Fe8 Os1'
_cell_volume   182.31059764
_cell_formula_units_Z   1
loop_
 _symmetry_equiv_pos_site_id
 _symmetry_equiv_pos_as_xyz
  1  'x, y, z'
loop_
 _atom_site_type_symbol
 _atom_site_label
 _atom_site_symmetry_multiplicity
 _atom_site_fract_x
 _atom_site_fract_y
 _atom_site_fract_z
 _atom_site_occupancy
  Tm  Tm0  1  0.141779  0.141779  0.574662  1
  Tm  Tm1  1  0.858221  0.858221  0.425338  1
  Tm  Tm2  1  0.000000  0.000000  0.000000  1
  Fe  Fe3  1  0.076915  0.582846  0.757392  1
  Fe  Fe4  1  0.582846  0.582846  0.757392  1
  Fe  Fe5  1  0.582846  0.076915  0.757392  1
  Fe  Fe6  1  0.923085  0.417154  0.242608  1
  Fe  Fe7  1  0.417154  0.417154  0.242608  1
  Fe  Fe8  1  0.417154  0.923085  0.242608  1
  Fe  Fe9  1  0.333028  0.333028  0.000915  1
  Fe  Fe10  1  0.666972  0.666972  0.999085  1
  Os  Os11  1  0.500000  0.500000  0.500000  1
