# generated using pymatgen
data_Tb3TmCo16(P3Ru)4
_symmetry_space_group_name_H-M   'P 1'
_cell_length_a   3.69084700
_cell_length_b   10.39695549
_cell_length_c   11.77272755
_cell_angle_alpha   89.96483342
_cell_angle_beta   90.00000000
_cell_angle_gamma   90.00000000
_symmetry_Int_Tables_number   1
_chemical_formula_structural   Tb3TmCo16(P3Ru)4
_chemical_formula_sum   'Tb3 Tm1 Co16 P12 Ru4'
_cell_volume   451.76152309
_cell_formula_units_Z   1
loop_
 _symmetry_equiv_pos_site_id
 _symmetry_equiv_pos_as_xyz
  1  'x, y, z'
loop_
 _atom_site_type_symbol
 _atom_site_label
 _atom_site_symmetry_multiplicity
 _atom_site_fract_x
 _atom_site_fract_y
 _atom_site_fract_z
 _atom_site_occupancy
  Tb  Tb0  1  0.250000  0.913696  0.203930  1
  Tb  Tb1  1  0.750000  0.413822  0.296053  1
  Tb  Tb2  1  0.750000  0.086332  0.796026  1
  Tm  Tm3  1  0.250000  0.586020  0.703694  1
  Co  Co4  1  0.250000  0.409314  0.490420  1
  Co  Co5  1  0.250000  0.091415  0.989919  1
  Co  Co6  1  0.750000  0.591714  0.512039  1
  Co  Co7  1  0.750000  0.908496  0.009910  1
  Co  Co8  1  0.250000  0.220971  0.176521  1
  Co  Co9  1  0.250000  0.279558  0.676778  1
  Co  Co10  1  0.750000  0.777901  0.822883  1
  Co  Co11  1  0.750000  0.720450  0.323760  1
  Co  Co12  1  0.250000  0.886405  0.702680  1
  Co  Co13  1  0.250000  0.612709  0.202277  1
  Co  Co14  1  0.750000  0.112866  0.297688  1
  Co  Co15  1  0.750000  0.388724  0.796793  1
  Co  Co16  1  0.250000  0.466136  0.929417  1
  Co  Co17  1  0.250000  0.034417  0.430867  1
  Co  Co18  1  0.750000  0.534699  0.068423  1
  Co  Co19  1  0.750000  0.964513  0.569731  1
  P  P20  1  0.250000  0.419665  0.110993  1
  P  P21  1  0.250000  0.080320  0.611717  1
  P  P22  1  0.750000  0.580581  0.886815  1
  P  P23  1  0.750000  0.919377  0.388589  1
  P  P24  1  0.250000  0.272474  0.867097  1
  P  P25  1  0.250000  0.227650  0.367215  1
  P  P26  1  0.750000  0.727483  0.132896  1
  P  P27  1  0.750000  0.770459  0.633515  1
  P  P28  1  0.250000  0.596196  0.390412  1
  P  P29  1  0.250000  0.903954  0.890426  1
  P  P30  1  0.750000  0.405244  0.610124  1
  P  P31  1  0.750000  0.096239  0.109545  1
  Ru  Ru32  1  0.250000  0.716712  0.992269  1
  Ru  Ru33  1  0.250000  0.782803  0.493071  1
  Ru  Ru34  1  0.750000  0.283503  0.007331  1
  Ru  Ru35  1  0.750000  0.217182  0.508179  1
