# generated using pymatgen
data_Tb10CoTcSb4
_symmetry_space_group_name_H-M   'P 1'
_cell_length_a   7.92401800
_cell_length_b   8.90718600
_cell_length_c   12.24366400
_cell_angle_alpha   90.00000000
_cell_angle_beta   90.00000000
_cell_angle_gamma   90.00000000
_symmetry_Int_Tables_number   1
_chemical_formula_structural   Tb10CoTcSb4
_chemical_formula_sum   'Tb20 Co2 Tc2 Sb8'
_cell_volume   864.16640254
_cell_formula_units_Z   2
loop_
 _symmetry_equiv_pos_site_id
 _symmetry_equiv_pos_as_xyz
  1  'x, y, z'
loop_
 _atom_site_type_symbol
 _atom_site_label
 _atom_site_symmetry_multiplicity
 _atom_site_fract_x
 _atom_site_fract_y
 _atom_site_fract_z
 _atom_site_occupancy
  Tb  Tb0  1  0.157441  0.750000  0.206687  1
  Tb  Tb1  1  0.657441  0.250000  0.293313  1
  Tb  Tb2  1  0.845096  0.250000  0.791868  1
  Tb  Tb3  1  0.345096  0.750000  0.708132  1
  Tb  Tb4  1  0.450168  0.750000  0.996855  1
  Tb  Tb5  1  0.950168  0.250000  0.503145  1
  Tb  Tb6  1  0.546983  0.250000  0.003240  1
  Tb  Tb7  1  0.046983  0.750000  0.496760  1
  Tb  Tb8  1  0.626829  0.750000  0.301928  1
  Tb  Tb9  1  0.126829  0.250000  0.198072  1
  Tb  Tb10  1  0.377466  0.250000  0.694067  1
  Tb  Tb11  1  0.877466  0.750000  0.805933  1
  Tb  Tb12  1  0.820378  0.958351  0.065972  1
  Tb  Tb13  1  0.320378  0.041649  0.434028  1
  Tb  Tb14  1  0.178553  0.464860  0.935519  1
  Tb  Tb15  1  0.678553  0.535140  0.564481  1
  Tb  Tb16  1  0.178553  0.035140  0.935519  1
  Tb  Tb17  1  0.678553  0.964860  0.564481  1
  Tb  Tb18  1  0.820378  0.541649  0.065972  1
  Tb  Tb19  1  0.320378  0.458351  0.434028  1
  Co  Co20  1  0.575038  0.250000  0.511892  1
  Co  Co21  1  0.075038  0.750000  0.988108  1
  Tc  Tc22  1  0.421744  0.750000  0.485506  1
  Tc  Tc23  1  0.921744  0.250000  0.014494  1
  Sb  Sb24  1  0.927804  0.993052  0.327925  1
  Sb  Sb25  1  0.427804  0.006948  0.172075  1
  Sb  Sb26  1  0.072883  0.492986  0.671781  1
  Sb  Sb27  1  0.572883  0.507014  0.828219  1
  Sb  Sb28  1  0.072883  0.007014  0.671781  1
  Sb  Sb29  1  0.572883  0.992986  0.828219  1
  Sb  Sb30  1  0.927804  0.506948  0.327925  1
  Sb  Sb31  1  0.427804  0.493052  0.172075  1
