# generated using pymatgen
data_Ce3Ho(AlRu)4
_symmetry_space_group_name_H-M   'P 1'
_cell_length_a   4.00256800
_cell_length_b   7.27512372
_cell_length_c   15.93398256
_cell_angle_alpha   89.94910091
_cell_angle_beta   90.00000000
_cell_angle_gamma   90.00000000
_symmetry_Int_Tables_number   1
_chemical_formula_structural   Ce3Ho(AlRu)4
_chemical_formula_sum   'Ce6 Ho2 Al8 Ru8'
_cell_volume   463.98428193
_cell_formula_units_Z   2
loop_
 _symmetry_equiv_pos_site_id
 _symmetry_equiv_pos_as_xyz
  1  'x, y, z'
loop_
 _atom_site_type_symbol
 _atom_site_label
 _atom_site_symmetry_multiplicity
 _atom_site_fract_x
 _atom_site_fract_y
 _atom_site_fract_z
 _atom_site_occupancy
  Ce  Ce0  1  0.750000  0.825494  0.438040  1
  Ce  Ce1  1  0.750000  0.456712  0.282344  1
  Ce  Ce2  1  0.750000  0.328172  0.062914  1
  Ce  Ce3  1  0.250000  0.673326  0.938797  1
  Ce  Ce4  1  0.250000  0.046654  0.779255  1
  Ce  Ce5  1  0.250000  0.541439  0.718533  1
  Ho  Ho6  1  0.750000  0.957379  0.218146  1
  Ho  Ho7  1  0.250000  0.160281  0.559518  1
  Al  Al8  1  0.750000  0.489640  0.562728  1
  Al  Al9  1  0.750000  0.369888  0.850764  1
  Al  Al10  1  0.750000  0.005760  0.936953  1
  Al  Al11  1  0.750000  0.871565  0.648606  1
  Al  Al12  1  0.250000  0.488848  0.438092  1
  Al  Al13  1  0.250000  0.995899  0.066405  1
  Al  Al14  1  0.250000  0.637554  0.152740  1
  Al  Al15  1  0.250000  0.125602  0.344269  1
  Ru  Ru16  1  0.750000  0.749826  0.816707  1
  Ru  Ru17  1  0.250000  0.239942  0.938865  1
  Ru  Ru18  1  0.750000  0.265046  0.427326  1
  Ru  Ru19  1  0.250000  0.755574  0.324051  1
  Ru  Ru20  1  0.750000  0.762210  0.062417  1
  Ru  Ru21  1  0.750000  0.248384  0.689703  1
  Ru  Ru22  1  0.250000  0.270620  0.178921  1
  Ru  Ru23  1  0.250000  0.734186  0.563905  1
