# generated using pymatgen
data_CaTlAg2(NO3)8
_symmetry_space_group_name_H-M   'P 1'
_cell_length_a   8.22636634
_cell_length_b   8.03635672
_cell_length_c   7.85204123
_cell_angle_alpha   90.50635012
_cell_angle_beta   88.51153862
_cell_angle_gamma   90.12869086
_symmetry_Int_Tables_number   1
_chemical_formula_structural   CaTlAg2(NO3)8
_chemical_formula_sum   'Ca1 Tl1 Ag2 N8 O24'
_cell_volume   518.90208271
_cell_formula_units_Z   1
loop_
 _symmetry_equiv_pos_site_id
 _symmetry_equiv_pos_as_xyz
  1  'x, y, z'
loop_
 _atom_site_type_symbol
 _atom_site_label
 _atom_site_symmetry_multiplicity
 _atom_site_fract_x
 _atom_site_fract_y
 _atom_site_fract_z
 _atom_site_occupancy
  Ca  Ca0  1  0.000000  0.000000  0.000000  1
  Tl  Tl1  1  0.000000  0.500000  0.500000  1
  Ag  Ag2  1  0.500000  0.500000  0.000000  1
  Ag  Ag3  1  0.500000  0.000000  0.500000  1
  N  N4  1  0.326633  0.342388  0.328724  1
  N  N5  1  0.338367  0.166395  0.831933  1
  N  N6  1  0.162725  0.823998  0.337260  1
  N  N7  1  0.845872  0.324562  0.175369  1
  N  N8  1  0.673367  0.657612  0.671276  1
  N  N9  1  0.154128  0.675438  0.824631  1
  N  N10  1  0.837275  0.176002  0.662740  1
  N  N11  1  0.661633  0.833605  0.168067  1
  O  O12  1  0.753377  0.299990  0.054544  1
  O  O13  1  0.176761  0.945288  0.237704  1
  O  O14  1  0.257408  0.798895  0.454819  1
  O  O15  1  0.232664  0.182230  0.950264  1
  O  O16  1  0.222953  0.318917  0.452843  1
  O  O17  1  0.445455  0.246439  0.313595  1
  O  O18  1  0.304830  0.460426  0.227127  1
  O  O19  1  0.177662  0.546859  0.727477  1
  O  O20  1  0.958498  0.277249  0.688376  1
  O  O21  1  0.675760  0.954191  0.273560  1
  O  O22  1  0.037891  0.773097  0.794996  1
  O  O23  1  0.543969  0.734054  0.183513  1
  O  O24  1  0.823239  0.054712  0.762296  1
  O  O25  1  0.742592  0.201105  0.545181  1
  O  O26  1  0.767336  0.817770  0.049736  1
  O  O27  1  0.246623  0.700010  0.945456  1
  O  O28  1  0.777047  0.681083  0.547157  1
  O  O29  1  0.554545  0.753561  0.686405  1
  O  O30  1  0.695170  0.539574  0.772873  1
  O  O31  1  0.822338  0.453141  0.272523  1
  O  O32  1  0.041502  0.722751  0.311624  1
  O  O33  1  0.324240  0.045809  0.726440  1
  O  O34  1  0.962109  0.226903  0.205004  1
  O  O35  1  0.456031  0.265946  0.816487  1
