# generated using pymatgen
data_Y4Er3Tm3Ru4
_symmetry_space_group_name_H-M   'P 1'
_cell_length_a   6.29316938
_cell_length_b   7.27038496
_cell_length_c   8.43680632
_cell_angle_alpha   96.95962002
_cell_angle_beta   111.91203832
_cell_angle_gamma   89.93234868
_symmetry_Int_Tables_number   1
_chemical_formula_structural   Y4Er3Tm3Ru4
_chemical_formula_sum   'Y4 Er3 Tm3 Ru4'
_cell_volume   355.08360466
_cell_formula_units_Z   1
loop_
 _symmetry_equiv_pos_site_id
 _symmetry_equiv_pos_as_xyz
  1  'x, y, z'
loop_
 _atom_site_type_symbol
 _atom_site_label
 _atom_site_symmetry_multiplicity
 _atom_site_fract_x
 _atom_site_fract_y
 _atom_site_fract_z
 _atom_site_occupancy
  Y  Y0  1  0.788756  0.082558  0.810826  1
  Y  Y1  1  0.977833  0.417242  0.189103  1
  Y  Y2  1  0.211062  0.917286  0.189189  1
  Y  Y3  1  0.022381  0.582917  0.810919  1
  Er  Er4  1  0.203399  0.184743  0.566053  1
  Er  Er5  1  0.637541  0.315524  0.434270  1
  Er  Er6  1  0.796779  0.815194  0.434030  1
  Tm  Tm7  1  0.362526  0.684463  0.565920  1
  Tm  Tm8  1  0.420799  0.249772  0.999845  1
  Tm  Tm9  1  0.579091  0.750183  0.999930  1
  Ru  Ru10  1  0.594777  0.425163  0.777687  1
  Ru  Ru11  1  0.817067  0.075598  0.222009  1
  Ru  Ru12  1  0.404951  0.575135  0.222383  1
  Ru  Ru13  1  0.183038  0.924223  0.777837  1
