# generated using pymatgen
data_Nd16Cd4NiPdRu2
_symmetry_space_group_name_H-M   'P 1'
_cell_length_a   9.93443905
_cell_length_b   9.90850936
_cell_length_c   9.99627900
_cell_angle_alpha   59.70654099
_cell_angle_beta   59.79386725
_cell_angle_gamma   59.79705520
_symmetry_Int_Tables_number   1
_chemical_formula_structural   Nd16Cd4NiPdRu2
_chemical_formula_sum   'Nd16 Cd4 Ni1 Pd1 Ru2'
_cell_volume   692.08423432
_cell_formula_units_Z   1
loop_
 _symmetry_equiv_pos_site_id
 _symmetry_equiv_pos_as_xyz
  1  'x, y, z'
loop_
 _atom_site_type_symbol
 _atom_site_label
 _atom_site_symmetry_multiplicity
 _atom_site_fract_x
 _atom_site_fract_y
 _atom_site_fract_z
 _atom_site_occupancy
  Nd  Nd0  1  0.342603  0.355019  0.350669  1
  Nd  Nd1  1  0.342603  0.355019  0.951709  1
  Nd  Nd2  1  0.344458  0.953407  0.351068  1
  Nd  Nd3  1  0.959320  0.348880  0.345900  1
  Nd  Nd4  1  0.815891  0.187879  0.192581  1
  Nd  Nd5  1  0.188757  0.810204  0.809886  1
  Nd  Nd6  1  0.188757  0.810204  0.191153  1
  Nd  Nd7  1  0.815891  0.187879  0.803649  1
  Nd  Nd8  1  0.190968  0.188637  0.810197  1
  Nd  Nd9  1  0.813577  0.799638  0.193393  1
  Nd  Nd10  1  0.936392  0.558361  0.567092  1
  Nd  Nd11  1  0.557552  0.939051  0.939291  1
  Nd  Nd12  1  0.557552  0.939051  0.564105  1
  Nd  Nd13  1  0.936392  0.558361  0.938154  1
  Nd  Nd14  1  0.564350  0.562484  0.936583  1
  Nd  Nd15  1  0.938173  0.939008  0.561409  1
  Cd  Cd16  1  0.580292  0.579247  0.580620  1
  Cd  Cd17  1  0.580292  0.579247  0.259841  1
  Cd  Cd18  1  0.581414  0.258512  0.580037  1
  Cd  Cd19  1  0.256877  0.581453  0.580835  1
  Ni  Ni20  1  0.145720  0.575279  0.139500  1
  Pd  Pd21  1  0.573797  0.145085  0.140559  1
  Ru  Ru22  1  0.144186  0.144048  0.135911  1
  Ru  Ru23  1  0.144186  0.144048  0.575856  1
