# generated using pymatgen
data_Cs6K2Al3GaSe10
_symmetry_space_group_name_H-M   'P 1'
_cell_length_a   8.43819753
_cell_length_b   8.95919297
_cell_length_c   11.38462508
_cell_angle_alpha   77.44337363
_cell_angle_beta   84.35988326
_cell_angle_gamma   81.20531923
_symmetry_Int_Tables_number   1
_chemical_formula_structural   Cs6K2Al3GaSe10
_chemical_formula_sum   'Cs6 K2 Al3 Ga1 Se10'
_cell_volume   828.31883540
_cell_formula_units_Z   1
loop_
 _symmetry_equiv_pos_site_id
 _symmetry_equiv_pos_as_xyz
  1  'x, y, z'
loop_
 _atom_site_type_symbol
 _atom_site_label
 _atom_site_symmetry_multiplicity
 _atom_site_fract_x
 _atom_site_fract_y
 _atom_site_fract_z
 _atom_site_occupancy
  Cs  Cs0  1  0.181648  0.088486  0.871299  1
  Cs  Cs1  1  0.052775  0.604980  0.766429  1
  Cs  Cs2  1  0.812876  0.912305  0.126460  1
  Cs  Cs3  1  0.945267  0.397290  0.235583  1
  Cs  Cs4  1  0.574394  0.711536  0.510995  1
  Cs  Cs5  1  0.430962  0.288738  0.491082  1
  K  K6  1  0.433098  0.338584  0.085316  1
  K  K7  1  0.562559  0.663336  0.917116  1
  Al  Al8  1  0.901207  0.081580  0.598170  1
  Al  Al9  1  0.101040  0.916712  0.399653  1
  Al  Al10  1  0.292820  0.730695  0.209005  1
  Ga  Ga11  1  0.706409  0.270084  0.792718  1
  Se  Se12  1  0.877188  0.349033  0.603858  1
  Se  Se13  1  0.182830  0.966367  0.584439  1
  Se  Se14  1  0.437561  0.400432  0.776529  1
  Se  Se15  1  0.184290  0.687752  0.035998  1
  Se  Se16  1  0.814634  0.312694  0.967289  1
  Se  Se17  1  0.559050  0.600737  0.224127  1
  Se  Se18  1  0.126009  0.648854  0.394983  1
  Se  Se19  1  0.263261  0.011627  0.219462  1
  Se  Se20  1  0.739432  0.984646  0.777250  1
  Se  Se21  1  0.820689  0.033532  0.412239  1
