# generated using pymatgen
data_CaLaNd10(GaRh)8
_symmetry_space_group_name_H-M   'P 1'
_cell_length_a   5.71046191
_cell_length_b   8.21746583
_cell_length_c   13.67186516
_cell_angle_alpha   90.04293160
_cell_angle_beta   89.88174217
_cell_angle_gamma   89.77760482
_symmetry_Int_Tables_number   1
_chemical_formula_structural   CaLaNd10(GaRh)8
_chemical_formula_sum   'Ca1 La1 Nd10 Ga8 Rh8'
_cell_volume   641.55307569
_cell_formula_units_Z   1
loop_
 _symmetry_equiv_pos_site_id
 _symmetry_equiv_pos_as_xyz
  1  'x, y, z'
loop_
 _atom_site_type_symbol
 _atom_site_label
 _atom_site_symmetry_multiplicity
 _atom_site_fract_x
 _atom_site_fract_y
 _atom_site_fract_z
 _atom_site_occupancy
  Ca  Ca0  1  0.147142  0.104400  0.897362  1
  La  La1  1  0.859397  0.903444  0.091927  1
  Nd  Nd2  1  0.630334  0.257067  0.251780  1
  Nd  Nd3  1  0.367411  0.745679  0.750620  1
  Nd  Nd4  1  0.369016  0.755236  0.251245  1
  Nd  Nd5  1  0.631302  0.242891  0.751187  1
  Nd  Nd6  1  0.142429  0.393593  0.096862  1
  Nd  Nd7  1  0.851786  0.601047  0.900534  1
  Nd  Nd8  1  0.856050  0.605211  0.598997  1
  Nd  Nd9  1  0.853923  0.896623  0.402027  1
  Nd  Nd10  1  0.144630  0.397966  0.402716  1
  Nd  Nd11  1  0.143317  0.101769  0.597331  1
  Ga  Ga12  1  0.136956  0.106574  0.251125  1
  Ga  Ga13  1  0.865465  0.894211  0.751598  1
  Ga  Ga14  1  0.867453  0.607124  0.249452  1
  Ga  Ga15  1  0.134533  0.393583  0.749456  1
  Ga  Ga16  1  0.618570  0.249017  0.998002  1
  Ga  Ga17  1  0.372687  0.748863  0.000217  1
  Ga  Ga18  1  0.372717  0.750104  0.500772  1
  Ga  Ga19  1  0.628716  0.250344  0.500786  1
  Rh  Rh20  1  0.361433  0.029265  0.092280  1
  Rh  Rh21  1  0.643206  0.966283  0.911148  1
  Rh  Rh22  1  0.642735  0.970525  0.592363  1
  Rh  Rh23  1  0.645411  0.530328  0.409687  1
  Rh  Rh24  1  0.357036  0.030476  0.410009  1
  Rh  Rh25  1  0.358420  0.469966  0.591474  1
  Rh  Rh26  1  0.354894  0.471678  0.907594  1
  Rh  Rh27  1  0.643031  0.526737  0.091447  1
