# generated using pymatgen
data_Nd4Zn2(GeRh3)3
_symmetry_space_group_name_H-M   'P 1'
_cell_length_a   12.23270157
_cell_length_b   12.23270115
_cell_length_c   12.23270020
_cell_angle_alpha   26.67363919
_cell_angle_beta   26.67364511
_cell_angle_gamma   26.67364196
_symmetry_Int_Tables_number   1
_chemical_formula_structural   Nd4Zn2(GeRh3)3
_chemical_formula_sum   'Nd4 Zn2 Ge3 Rh9'
_cell_volume   325.22142852
_cell_formula_units_Z   1
loop_
 _symmetry_equiv_pos_site_id
 _symmetry_equiv_pos_as_xyz
  1  'x, y, z'
loop_
 _atom_site_type_symbol
 _atom_site_label
 _atom_site_symmetry_multiplicity
 _atom_site_fract_x
 _atom_site_fract_y
 _atom_site_fract_z
 _atom_site_occupancy
  Nd  Nd0  1  0.949516  0.949516  0.949516  1
  Nd  Nd1  1  0.853163  0.853163  0.853163  1
  Nd  Nd2  1  0.146769  0.146769  0.146769  1
  Nd  Nd3  1  0.050252  0.050252  0.050252  1
  Zn  Zn4  1  0.279250  0.279250  0.279250  1
  Zn  Zn5  1  0.500230  0.500230  0.500230  1
  Ge  Ge6  1  0.388097  0.388097  0.388097  1
  Ge  Ge7  1  0.721743  0.721743  0.721743  1
  Ge  Ge8  1  0.610989  0.610989  0.610989  1
  Rh  Rh9  1  0.608642  0.608642  0.106401  1
  Rh  Rh10  1  0.896786  0.387897  0.387897  1
  Rh  Rh11  1  0.502335  0.999057  0.502335  1
  Rh  Rh12  1  0.387897  0.896786  0.387897  1
  Rh  Rh13  1  0.502335  0.502335  0.999057  1
  Rh  Rh14  1  0.106401  0.608642  0.608642  1
  Rh  Rh15  1  0.999057  0.502335  0.502335  1
  Rh  Rh16  1  0.387897  0.387897  0.896786  1
  Rh  Rh17  1  0.608642  0.106401  0.608642  1
