# generated using pymatgen
data_Nb3Co2Ni2B7
_symmetry_space_group_name_H-M   'P 1'
_cell_length_a   9.29238996
_cell_length_b   9.29239025
_cell_length_c   8.94000300
_cell_angle_alpha   90.00000000
_cell_angle_beta   90.00000000
_cell_angle_gamma   160.02008978
_symmetry_Int_Tables_number   1
_chemical_formula_structural   Nb3Co2Ni2B7
_chemical_formula_sum   'Nb6 Co4 Ni4 B14'
_cell_volume   263.77012677
_cell_formula_units_Z   2
loop_
 _symmetry_equiv_pos_site_id
 _symmetry_equiv_pos_as_xyz
  1  'x, y, z'
loop_
 _atom_site_type_symbol
 _atom_site_label
 _atom_site_symmetry_multiplicity
 _atom_site_fract_x
 _atom_site_fract_y
 _atom_site_fract_z
 _atom_site_occupancy
  Nb  Nb0  1  0.698012  0.301988  0.250000  1
  Nb  Nb1  1  0.301988  0.698012  0.750000  1
  Nb  Nb2  1  0.580713  0.419287  0.553842  1
  Nb  Nb3  1  0.419287  0.580713  0.446158  1
  Nb  Nb4  1  0.419287  0.580713  0.053842  1
  Nb  Nb5  1  0.580713  0.419287  0.946158  1
  Co  Co6  1  0.542449  0.457551  0.250000  1
  Co  Co7  1  0.457551  0.542449  0.750000  1
  Co  Co8  1  0.844784  0.155216  0.250000  1
  Co  Co9  1  0.155216  0.844784  0.750000  1
  Ni  Ni10  1  0.800454  0.199546  0.505860  1
  Ni  Ni11  1  0.199546  0.800454  0.494140  1
  Ni  Ni12  1  0.199546  0.800454  0.005860  1
  Ni  Ni13  1  0.800454  0.199546  0.994140  1
  B  B14  1  0.955498  0.044502  0.250000  1
  B  B15  1  0.044502  0.955498  0.750000  1
  B  B16  1  0.891155  0.108845  0.648815  1
  B  B17  1  0.108845  0.891155  0.351185  1
  B  B18  1  0.108845  0.891155  0.148815  1
  B  B19  1  0.891155  0.108845  0.851185  1
  B  B20  1  0.709461  0.290539  0.649720  1
  B  B21  1  0.290539  0.709461  0.350280  1
  B  B22  1  0.290539  0.709461  0.149720  1
  B  B23  1  0.709461  0.290539  0.850280  1
  B  B24  1  0.984511  0.015489  0.593209  1
  B  B25  1  0.015489  0.984511  0.406791  1
  B  B26  1  0.015489  0.984511  0.093209  1
  B  B27  1  0.984511  0.015489  0.906791  1
