# generated using pymatgen
data_Ca4AlPt4Pb
_symmetry_space_group_name_H-M   'P 1'
_cell_length_a   5.74235072
_cell_length_b   5.74235084
_cell_length_c   8.19446920
_cell_angle_alpha   78.29182802
_cell_angle_beta   78.29182812
_cell_angle_gamma   59.98269952
_symmetry_Int_Tables_number   1
_chemical_formula_structural   Ca4AlPt4Pb
_chemical_formula_sum   'Ca4 Al1 Pt4 Pb1'
_cell_volume   227.45469530
_cell_formula_units_Z   1
loop_
 _symmetry_equiv_pos_site_id
 _symmetry_equiv_pos_as_xyz
  1  'x, y, z'
loop_
 _atom_site_type_symbol
 _atom_site_label
 _atom_site_symmetry_multiplicity
 _atom_site_fract_x
 _atom_site_fract_y
 _atom_site_fract_z
 _atom_site_occupancy
  Ca  Ca0  1  0.792360  0.505584  0.853519  1
  Ca  Ca1  1  0.494416  0.207640  0.646481  1
  Ca  Ca2  1  0.205040  0.495068  0.151848  1
  Ca  Ca3  1  0.504932  0.794960  0.348152  1
  Al  Al4  1  0.880763  0.119237  0.250000  1
  Pt  Pt5  1  0.985874  0.733964  0.484587  1
  Pt  Pt6  1  0.266036  0.014126  0.015413  1
  Pt  Pt7  1  0.979361  0.270698  0.482136  1
  Pt  Pt8  1  0.729302  0.020639  0.017864  1
  Pb  Pb9  1  0.161917  0.838083  0.750000  1
