# generated using pymatgen
data_Tb3Ho2FeRuO12
_symmetry_space_group_name_H-M   'P 1'
_cell_length_a   6.82596496
_cell_length_b   6.82445751
_cell_length_c   7.29913001
_cell_angle_alpha   74.42941711
_cell_angle_beta   74.42656515
_cell_angle_gamma   51.12888801
_symmetry_Int_Tables_number   1
_chemical_formula_structural   Tb3Ho2FeRuO12
_chemical_formula_sum   'Tb3 Ho2 Fe1 Ru1 O12'
_cell_volume   252.73206708
_cell_formula_units_Z   1
loop_
 _symmetry_equiv_pos_site_id
 _symmetry_equiv_pos_as_xyz
  1  'x, y, z'
loop_
 _atom_site_type_symbol
 _atom_site_label
 _atom_site_symmetry_multiplicity
 _atom_site_fract_x
 _atom_site_fract_y
 _atom_site_fract_z
 _atom_site_occupancy
  Tb  Tb0  1  0.997964  0.001343  0.000101  1
  Tb  Tb1  1  0.300207  0.305904  0.859415  1
  Tb  Tb2  1  0.307923  0.307819  0.331104  1
  Ho  Ho3  1  0.691680  0.691641  0.669825  1
  Ho  Ho4  1  0.693536  0.699420  0.140206  1
  Fe  Fe5  1  0.248884  0.751783  0.499898  1
  Ru  Ru6  1  0.759817  0.240893  0.499880  1
  O  O7  1  0.403836  0.901762  0.924692  1
  O  O8  1  0.574423  0.095137  0.582015  1
  O  O9  1  0.900402  0.430314  0.418314  1
  O  O10  1  0.093073  0.598816  0.075510  1
  O  O11  1  0.994668  0.008362  0.315752  1
  O  O12  1  0.510050  0.491033  0.687189  1
  O  O13  1  0.900041  0.407622  0.923640  1
  O  O14  1  0.099812  0.579062  0.580455  1
  O  O15  1  0.424762  0.896233  0.419871  1
  O  O16  1  0.595294  0.094650  0.076431  1
  O  O17  1  0.510152  0.491221  0.312362  1
  O  O18  1  0.993478  0.006982  0.683341  1
