# generated using pymatgen
data_Er2UIn3Ir2Rh
_symmetry_space_group_name_H-M   'P 1'
_cell_length_a   7.54151392
_cell_length_b   7.79238825
_cell_length_c   3.76914000
_cell_angle_alpha   90.00000000
_cell_angle_beta   90.00000000
_cell_angle_gamma   121.10663891
_symmetry_Int_Tables_number   1
_chemical_formula_structural   Er2UIn3Ir2Rh
_chemical_formula_sum   'Er2 U1 In3 Ir2 Rh1'
_cell_volume   189.64887834
_cell_formula_units_Z   1
loop_
 _symmetry_equiv_pos_site_id
 _symmetry_equiv_pos_as_xyz
  1  'x, y, z'
loop_
 _atom_site_type_symbol
 _atom_site_label
 _atom_site_symmetry_multiplicity
 _atom_site_fract_x
 _atom_site_fract_y
 _atom_site_fract_z
 _atom_site_occupancy
  Er  Er0  1  0.404205  0.405481  0.500000  1
  Er  Er1  1  0.595795  0.001276  0.500000  1
  U  U2  1  0.000000  0.582411  0.500000  1
  In  In3  1  0.271961  0.012559  0.000000  1
  In  In4  1  0.728039  0.740598  0.000000  1
  In  In5  1  0.000000  0.243134  0.000000  1
  Ir  Ir6  1  0.703233  0.364842  0.000000  1
  Ir  Ir7  1  0.296767  0.661610  0.000000  1
  Rh  Rh8  1  0.000000  0.988089  0.500000  1
