# generated using pymatgen
data_Ce4In2IrRhAu2
_symmetry_space_group_name_H-M   'P 1'
_cell_length_a   7.95262823
_cell_length_b   7.95076188
_cell_length_c   3.75194900
_cell_angle_alpha   90.00000000
_cell_angle_beta   90.00000000
_cell_angle_gamma   89.21230866
_symmetry_Int_Tables_number   1
_chemical_formula_structural   Ce4In2IrRhAu2
_chemical_formula_sum   'Ce4 In2 Ir1 Rh1 Au2'
_cell_volume   237.21126596
_cell_formula_units_Z   1
loop_
 _symmetry_equiv_pos_site_id
 _symmetry_equiv_pos_as_xyz
  1  'x, y, z'
loop_
 _atom_site_type_symbol
 _atom_site_label
 _atom_site_symmetry_multiplicity
 _atom_site_fract_x
 _atom_site_fract_y
 _atom_site_fract_z
 _atom_site_occupancy
  Ce  Ce0  1  0.661392  0.158278  0.500000  1
  Ce  Ce1  1  0.341706  0.838622  0.500000  1
  Ce  Ce2  1  0.185824  0.314147  0.500000  1
  Ce  Ce3  1  0.814627  0.685347  0.500000  1
  In  In4  1  0.000490  0.000001  0.000000  1
  In  In5  1  0.499987  0.499449  0.000000  1
  Ir  Ir6  1  0.631702  0.868423  0.000000  1
  Rh  Rh7  1  0.363228  0.136886  0.000000  1
  Au  Au8  1  0.129023  0.627917  0.000000  1
  Au  Au9  1  0.872019  0.370930  0.000000  1
