# generated using pymatgen
data_Ba7Y2Mn3Cr2O20
_symmetry_space_group_name_H-M   'P 1'
_cell_length_a   5.91893155
_cell_length_b   5.91893086
_cell_length_c   17.66890601
_cell_angle_alpha   80.35776100
_cell_angle_beta   99.64224144
_cell_angle_gamma   119.99999539
_symmetry_Int_Tables_number   1
_chemical_formula_structural   Ba7Y2Mn3Cr2O20
_chemical_formula_sum   'Ba7 Y2 Mn3 Cr2 O20'
_cell_volume   525.95475767
_cell_formula_units_Z   1
loop_
 _symmetry_equiv_pos_site_id
 _symmetry_equiv_pos_as_xyz
  1  'x, y, z'
loop_
 _atom_site_type_symbol
 _atom_site_label
 _atom_site_symmetry_multiplicity
 _atom_site_fract_x
 _atom_site_fract_y
 _atom_site_fract_z
 _atom_site_occupancy
  Ba  Ba0  1  0.000000  0.000000  0.000000  1
  Ba  Ba1  1  0.385000  0.615002  0.155000  1
  Ba  Ba2  1  0.771577  0.228422  0.314734  1
  Ba  Ba3  1  0.145556  0.854444  0.436670  1
  Ba  Ba4  1  0.854443  0.145556  0.563330  1
  Ba  Ba5  1  0.228422  0.771578  0.685266  1
  Ba  Ba6  1  0.615001  0.385001  0.845000  1
  Y  Y7  1  0.073334  0.926666  0.220002  1
  Y  Y8  1  0.926665  0.073334  0.779998  1
  Mn  Mn9  1  0.450471  0.549531  0.351414  1
  Mn  Mn10  1  0.500000  0.500001  0.500000  1
  Mn  Mn11  1  0.549530  0.450472  0.648586  1
  Cr  Cr12  1  0.697898  0.302100  0.093697  1
  Cr  Cr13  1  0.302101  0.697900  0.906303  1
  O  O14  1  0.335361  0.664641  0.006080  1
  O  O15  1  0.874808  0.124694  0.134567  1
  O  O16  1  0.384453  0.125192  0.134567  1
  O  O17  1  0.875306  0.615547  0.134567  1
  O  O18  1  0.274567  0.257000  0.292523  1
  O  O19  1  0.743001  0.725046  0.292523  1
  O  O20  1  0.274955  0.725434  0.292523  1
  O  O21  1  0.622002  0.377694  0.428933  1
  O  O22  1  0.184623  0.377997  0.428933  1
  O  O23  1  0.622305  0.815374  0.428933  1
  O  O24  1  0.377694  0.184624  0.571066  1
  O  O25  1  0.815376  0.622002  0.571066  1
  O  O26  1  0.377996  0.622306  0.571066  1
  O  O27  1  0.725046  0.274567  0.707477  1
  O  O28  1  0.256998  0.274954  0.707477  1
  O  O29  1  0.725434  0.743001  0.707477  1
  O  O30  1  0.124694  0.384453  0.865434  1
  O  O31  1  0.615548  0.874808  0.865434  1
  O  O32  1  0.125191  0.875306  0.865434  1
  O  O33  1  0.664640  0.335361  0.993920  1
