# generated using pymatgen
data_Nd4BeOs3I2
_symmetry_space_group_name_H-M   'P 1'
_cell_length_a   4.19860200
_cell_length_b   4.19860064
_cell_length_c   17.80485300
_cell_angle_alpha   90.00000000
_cell_angle_beta   90.00000000
_cell_angle_gamma   119.99999495
_symmetry_Int_Tables_number   1
_chemical_formula_structural   Nd4BeOs3I2
_chemical_formula_sum   'Nd4 Be1 Os3 I2'
_cell_volume   271.81806856
_cell_formula_units_Z   1
loop_
 _symmetry_equiv_pos_site_id
 _symmetry_equiv_pos_as_xyz
  1  'x, y, z'
loop_
 _atom_site_type_symbol
 _atom_site_label
 _atom_site_symmetry_multiplicity
 _atom_site_fract_x
 _atom_site_fract_y
 _atom_site_fract_z
 _atom_site_occupancy
  Nd  Nd0  1  0.000000  0.000000  0.113022  1
  Nd  Nd1  1  0.000000  0.000000  0.886428  1
  Nd  Nd2  1  0.000000  0.000000  0.600749  1
  Nd  Nd3  1  0.000000  0.000000  0.399091  1
  Be  Be4  1  0.333333  0.666667  0.500404  1
  Os  Os5  1  0.666667  0.333333  0.499731  1
  Os  Os6  1  0.666667  0.333333  0.011472  1
  Os  Os7  1  0.333333  0.666667  0.988663  1
  I  I8  1  0.333333  0.666667  0.251821  1
  I  I9  1  0.666667  0.333333  0.748619  1
