# generated using pymatgen
data_Dy7Sn23Ru6
_symmetry_space_group_name_H-M   'P 1'
_cell_length_a   9.85672000
_cell_length_b   9.85672094
_cell_length_c   10.09124200
_cell_angle_alpha   90.00000000
_cell_angle_beta   90.00000000
_cell_angle_gamma   119.99999686
_symmetry_Int_Tables_number   1
_chemical_formula_structural   Dy7Sn23Ru6
_chemical_formula_sum   'Dy7 Sn23 Ru6'
_cell_volume   849.06345266
_cell_formula_units_Z   1
loop_
 _symmetry_equiv_pos_site_id
 _symmetry_equiv_pos_as_xyz
  1  'x, y, z'
loop_
 _atom_site_type_symbol
 _atom_site_label
 _atom_site_symmetry_multiplicity
 _atom_site_fract_x
 _atom_site_fract_y
 _atom_site_fract_z
 _atom_site_occupancy
  Dy  Dy0  1  0.000000  0.000000  0.000000  1
  Dy  Dy1  1  0.483967  0.516033  0.303179  1
  Dy  Dy2  1  0.516033  0.483967  0.696821  1
  Dy  Dy3  1  0.483967  0.967934  0.303179  1
  Dy  Dy4  1  0.516033  0.032066  0.696821  1
  Dy  Dy5  1  0.032066  0.516033  0.303179  1
  Dy  Dy6  1  0.967934  0.483967  0.696821  1
  Sn  Sn7  1  0.348993  0.000000  0.000000  1
  Sn  Sn8  1  0.651007  0.000000  0.000000  1
  Sn  Sn9  1  0.000000  0.348993  0.000000  1
  Sn  Sn10  1  0.000000  0.651007  0.000000  1
  Sn  Sn11  1  0.651007  0.651007  0.000000  1
  Sn  Sn12  1  0.348993  0.348993  0.000000  1
  Sn  Sn13  1  0.333333  0.666667  0.820820  1
  Sn  Sn14  1  0.666667  0.333333  0.179180  1
  Sn  Sn15  1  0.000000  0.000000  0.500000  1
  Sn  Sn16  1  0.780410  0.219590  0.462080  1
  Sn  Sn17  1  0.219590  0.780410  0.537920  1
  Sn  Sn18  1  0.780410  0.560821  0.462080  1
  Sn  Sn19  1  0.219590  0.439179  0.537920  1
  Sn  Sn20  1  0.439179  0.219590  0.462080  1
  Sn  Sn21  1  0.560821  0.780410  0.537920  1
  Sn  Sn22  1  0.333333  0.666667  0.126430  1
  Sn  Sn23  1  0.666667  0.333333  0.873570  1
  Sn  Sn24  1  0.118182  0.881818  0.273202  1
  Sn  Sn25  1  0.881818  0.118182  0.726798  1
  Sn  Sn26  1  0.118182  0.236363  0.273202  1
  Sn  Sn27  1  0.881818  0.763637  0.726798  1
  Sn  Sn28  1  0.763637  0.881818  0.273202  1
  Sn  Sn29  1  0.236363  0.118182  0.726798  1
  Ru  Ru30  1  0.830121  0.169879  0.202213  1
  Ru  Ru31  1  0.169879  0.830121  0.797787  1
  Ru  Ru32  1  0.830121  0.660242  0.202213  1
  Ru  Ru33  1  0.169879  0.339758  0.797787  1
  Ru  Ru34  1  0.339758  0.169879  0.202213  1
  Ru  Ru35  1  0.660242  0.830121  0.797787  1
