# generated using pymatgen
data_Hf2Be2Pd
_symmetry_space_group_name_H-M   'P 1'
_cell_length_a   6.40441800
_cell_length_b   6.40441800
_cell_length_c   3.64020000
_cell_angle_alpha   90.00000000
_cell_angle_beta   90.00000000
_cell_angle_gamma   90.00000000
_symmetry_Int_Tables_number   1
_chemical_formula_structural   Hf2Be2Pd
_chemical_formula_sum   'Hf4 Be4 Pd2'
_cell_volume   149.30851782
_cell_formula_units_Z   2
loop_
 _symmetry_equiv_pos_site_id
 _symmetry_equiv_pos_as_xyz
  1  'x, y, z'
loop_
 _atom_site_type_symbol
 _atom_site_label
 _atom_site_symmetry_multiplicity
 _atom_site_fract_x
 _atom_site_fract_y
 _atom_site_fract_z
 _atom_site_occupancy
  Hf  Hf0  1  0.672010  0.172010  0.499999  1
  Hf  Hf1  1  0.172010  0.327990  0.499999  1
  Hf  Hf2  1  0.827990  0.672010  0.499999  1
  Hf  Hf3  1  0.327990  0.827990  0.499999  1
  Be  Be4  1  0.378359  0.121641  0.000000  1
  Be  Be5  1  0.878359  0.378359  0.000000  1
  Be  Be6  1  0.121641  0.621641  0.000000  1
  Be  Be7  1  0.621641  0.878359  0.000000  1
  Pd  Pd8  1  0.000000  0.000000  0.000000  1
  Pd  Pd9  1  0.500000  0.500000  0.000000  1
