# generated using pymatgen
data_ZnCo20(B3Mo)2
_symmetry_space_group_name_H-M   'P 1'
_cell_length_a   7.40984429
_cell_length_b   7.40874577
_cell_length_c   7.40947007
_cell_angle_alpha   60.00657127
_cell_angle_beta   59.99395478
_cell_angle_gamma   60.00162963
_symmetry_Int_Tables_number   1
_chemical_formula_structural   ZnCo20(B3Mo)2
_chemical_formula_sum   'Zn1 Co20 B6 Mo2'
_cell_volume   287.62921017
_cell_formula_units_Z   1
loop_
 _symmetry_equiv_pos_site_id
 _symmetry_equiv_pos_as_xyz
  1  'x, y, z'
loop_
 _atom_site_type_symbol
 _atom_site_label
 _atom_site_symmetry_multiplicity
 _atom_site_fract_x
 _atom_site_fract_y
 _atom_site_fract_z
 _atom_site_occupancy
  Zn  Zn0  1  0.000000  0.000000  0.000000  1
  Co  Co1  1  0.618159  0.617992  0.145811  1
  Co  Co2  1  0.618055  0.145814  0.618009  1
  Co  Co3  1  0.145814  0.618038  0.618158  1
  Co  Co4  1  0.618009  0.618124  0.618057  1
  Co  Co5  1  0.381841  0.382008  0.854189  1
  Co  Co6  1  0.381945  0.854186  0.381991  1
  Co  Co7  1  0.854186  0.381962  0.381842  1
  Co  Co8  1  0.381991  0.381876  0.381943  1
  Co  Co9  1  0.999953  0.000054  0.342323  1
  Co  Co10  1  0.657650  0.000018  0.342349  1
  Co  Co11  1  0.999969  0.657689  0.342303  1
  Co  Co12  1  0.657678  0.342329  0.000047  1
  Co  Co13  1  0.999983  0.342368  0.000016  1
  Co  Co14  1  0.000031  0.342311  0.657697  1
  Co  Co15  1  0.342322  0.657671  0.999953  1
  Co  Co16  1  0.342350  0.999982  0.657651  1
  Co  Co17  1  0.342306  0.000037  0.999968  1
  Co  Co18  1  0.000047  0.999946  0.657677  1
  Co  Co19  1  0.000017  0.657632  0.999984  1
  Co  Co20  1  0.657694  0.999963  0.000032  1
  B  B21  1  0.723965  0.723928  0.276035  1
  B  B22  1  0.276086  0.723914  0.276085  1
  B  B23  1  0.723987  0.276051  0.276012  1
  B  B24  1  0.276035  0.276072  0.723965  1
  B  B25  1  0.723914  0.276086  0.723915  1
  B  B26  1  0.276013  0.723949  0.723988  1
  Mo  Mo27  1  0.750011  0.749987  0.750014  1
  Mo  Mo28  1  0.249989  0.250013  0.249986  1
