# generated using pymatgen
data_Sr4CaCd3(SiO4)4
_symmetry_space_group_name_H-M   'P 1'
_cell_length_a   5.13827744
_cell_length_b   6.98828851
_cell_length_c   11.94212296
_cell_angle_alpha   90.25762320
_cell_angle_beta   90.15289105
_cell_angle_gamma   89.73008021
_symmetry_Int_Tables_number   1
_chemical_formula_structural   Sr4CaCd3(SiO4)4
_chemical_formula_sum   'Sr4 Ca1 Cd3 Si4 O16'
_cell_volume   428.80435165
_cell_formula_units_Z   1
loop_
 _symmetry_equiv_pos_site_id
 _symmetry_equiv_pos_as_xyz
  1  'x, y, z'
loop_
 _atom_site_type_symbol
 _atom_site_label
 _atom_site_symmetry_multiplicity
 _atom_site_fract_x
 _atom_site_fract_y
 _atom_site_fract_z
 _atom_site_occupancy
  Sr  Sr0  1  0.477318  0.749809  0.779013  1
  Sr  Sr1  1  0.977526  0.251378  0.720121  1
  Sr  Sr2  1  0.522682  0.250191  0.220987  1
  Sr  Sr3  1  0.022474  0.748622  0.279879  1
  Ca  Ca4  1  0.000000  0.000000  0.000000  1
  Cd  Cd5  1  0.500000  0.500000  0.500000  1
  Cd  Cd6  1  0.000000  0.500000  0.000000  1
  Cd  Cd7  1  0.500000  0.000000  0.500000  1
  Si  Si8  1  0.916722  0.750248  0.587851  1
  Si  Si9  1  0.417714  0.251708  0.911505  1
  Si  Si10  1  0.083278  0.249752  0.412149  1
  Si  Si11  1  0.582286  0.748292  0.088495  1
  O  O12  1  0.204413  0.439760  0.348004  1
  O  O13  1  0.705331  0.558875  0.153945  1
  O  O14  1  0.795400  0.940525  0.653378  1
  O  O15  1  0.292415  0.060477  0.848717  1
  O  O16  1  0.795587  0.560240  0.651996  1
  O  O17  1  0.294669  0.441125  0.846055  1
  O  O18  1  0.204600  0.059475  0.346622  1
  O  O19  1  0.707585  0.939523  0.151283  1
  O  O20  1  0.779230  0.750444  0.459859  1
  O  O21  1  0.283103  0.253973  0.039437  1
  O  O22  1  0.220770  0.249556  0.540141  1
  O  O23  1  0.716897  0.746027  0.960563  1
  O  O24  1  0.262517  0.753536  0.084846  1
  O  O25  1  0.762788  0.250213  0.416043  1
  O  O26  1  0.737483  0.246464  0.915154  1
  O  O27  1  0.237212  0.749787  0.583957  1
