# generated using pymatgen
data_YHo(ScRh)2
_symmetry_space_group_name_H-M   'P 1'
_cell_length_a   4.20797500
_cell_length_b   7.21015496
_cell_length_c   8.75359165
_cell_angle_alpha   89.66706183
_cell_angle_beta   90.00000000
_cell_angle_gamma   90.00000000
_symmetry_Int_Tables_number   1
_chemical_formula_structural   YHo(ScRh)2
_chemical_formula_sum   'Y2 Ho2 Sc4 Rh4'
_cell_volume   265.58081587
_cell_formula_units_Z   2
loop_
 _symmetry_equiv_pos_site_id
 _symmetry_equiv_pos_as_xyz
  1  'x, y, z'
loop_
 _atom_site_type_symbol
 _atom_site_label
 _atom_site_symmetry_multiplicity
 _atom_site_fract_x
 _atom_site_fract_y
 _atom_site_fract_z
 _atom_site_occupancy
  Y  Y0  1  0.250000  0.516413  0.173960  1
  Y  Y1  1  0.750000  0.483587  0.826040  1
  Ho  Ho2  1  0.750000  0.980923  0.673732  1
  Ho  Ho3  1  0.250000  0.019077  0.326268  1
  Sc  Sc4  1  0.250000  0.639640  0.564167  1
  Sc  Sc5  1  0.750000  0.360360  0.435833  1
  Sc  Sc6  1  0.750000  0.859691  0.066315  1
  Sc  Sc7  1  0.250000  0.140309  0.933685  1
  Rh  Rh8  1  0.250000  0.761873  0.895765  1
  Rh  Rh9  1  0.750000  0.238127  0.104235  1
  Rh  Rh10  1  0.750000  0.744160  0.397962  1
  Rh  Rh11  1  0.250000  0.255840  0.602038  1
