# generated using pymatgen
data_Lu3NpGe6Ru7
_symmetry_space_group_name_H-M   'P 1'
_cell_length_a   7.16308576
_cell_length_b   7.16308442
_cell_length_c   7.16308516
_cell_angle_alpha   109.25209578
_cell_angle_beta   109.25209635
_cell_angle_gamma   109.25208718
_symmetry_Int_Tables_number   1
_chemical_formula_structural   Lu3NpGe6Ru7
_chemical_formula_sum   'Lu3 Np1 Ge6 Ru7'
_cell_volume   285.20194546
_cell_formula_units_Z   1
loop_
 _symmetry_equiv_pos_site_id
 _symmetry_equiv_pos_as_xyz
  1  'x, y, z'
loop_
 _atom_site_type_symbol
 _atom_site_label
 _atom_site_symmetry_multiplicity
 _atom_site_fract_x
 _atom_site_fract_y
 _atom_site_fract_z
 _atom_site_occupancy
  Lu  Lu0  1  0.000000  0.000000  0.500000  1
  Lu  Lu1  1  0.000000  0.500000  0.000000  1
  Lu  Lu2  1  0.500000  0.000000  0.000000  1
  Np  Np3  1  0.500000  0.500000  0.500000  1
  Ge  Ge4  1  0.691095  0.691095  0.005001  1
  Ge  Ge5  1  0.308905  0.994999  0.308905  1
  Ge  Ge6  1  0.994999  0.308905  0.308905  1
  Ge  Ge7  1  0.308905  0.308905  0.994999  1
  Ge  Ge8  1  0.691095  0.005001  0.691095  1
  Ge  Ge9  1  0.005001  0.691095  0.691095  1
  Ru  Ru10  1  0.743715  0.256285  0.500000  1
  Ru  Ru11  1  0.743715  0.500000  0.256285  1
  Ru  Ru12  1  0.500000  0.256285  0.743715  1
  Ru  Ru13  1  0.256285  0.500000  0.743715  1
  Ru  Ru14  1  0.256285  0.743715  0.500000  1
  Ru  Ru15  1  0.500000  0.743715  0.256285  1
  Ru  Ru16  1  0.000000  0.000000  0.000000  1
