# generated using pymatgen
data_DyLu11Tc4
_symmetry_space_group_name_H-M   'P 1'
_cell_length_a   6.13805411
_cell_length_b   7.37548960
_cell_length_c   8.91438500
_cell_angle_alpha   90.00000000
_cell_angle_beta   90.00000000
_cell_angle_gamma   90.11613741
_symmetry_Int_Tables_number   1
_chemical_formula_structural   DyLu11Tc4
_chemical_formula_sum   'Dy1 Lu11 Tc4'
_cell_volume   403.56366879
_cell_formula_units_Z   1
loop_
 _symmetry_equiv_pos_site_id
 _symmetry_equiv_pos_as_xyz
  1  'x, y, z'
loop_
 _atom_site_type_symbol
 _atom_site_label
 _atom_site_symmetry_multiplicity
 _atom_site_fract_x
 _atom_site_fract_y
 _atom_site_fract_z
 _atom_site_occupancy
  Dy  Dy0  1  0.626927  0.041613  0.250000  1
  Lu  Lu1  1  0.128838  0.457183  0.750000  1
  Lu  Lu2  1  0.654061  0.326260  0.937519  1
  Lu  Lu3  1  0.372511  0.959789  0.750000  1
  Lu  Lu4  1  0.873094  0.540809  0.250000  1
  Lu  Lu5  1  0.152658  0.175717  0.438757  1
  Lu  Lu6  1  0.846621  0.822679  0.562668  1
  Lu  Lu7  1  0.152658  0.175717  0.061243  1
  Lu  Lu8  1  0.846621  0.822679  0.937332  1
  Lu  Lu9  1  0.654061  0.326260  0.562481  1
  Lu  Lu10  1  0.344928  0.675599  0.061434  1
  Lu  Lu11  1  0.344928  0.675599  0.438566  1
  Tc  Tc12  1  0.543082  0.616344  0.750000  1
  Tc  Tc13  1  0.956164  0.115200  0.750000  1
  Tc  Tc14  1  0.046548  0.883269  0.250000  1
  Tc  Tc15  1  0.456300  0.385284  0.250000  1
