# generated using pymatgen
data_Nd7As10P2Pd17
_symmetry_space_group_name_H-M   'P 1'
_cell_length_a   12.71136124
_cell_length_b   12.71136236
_cell_length_c   13.91972742
_cell_angle_alpha   68.79435701
_cell_angle_beta   68.79435475
_cell_angle_gamma   18.90932022
_symmetry_Int_Tables_number   1
_chemical_formula_structural   Nd7As10P2Pd17
_chemical_formula_sum   'Nd7 As10 P2 Pd17'
_cell_volume   678.10547192
_cell_formula_units_Z   1
loop_
 _symmetry_equiv_pos_site_id
 _symmetry_equiv_pos_as_xyz
  1  'x, y, z'
loop_
 _atom_site_type_symbol
 _atom_site_label
 _atom_site_symmetry_multiplicity
 _atom_site_fract_x
 _atom_site_fract_y
 _atom_site_fract_z
 _atom_site_occupancy
  Nd  Nd0  1  0.500000  0.500000  0.500000  1
  Nd  Nd1  1  0.364593  0.364593  0.002552  1
  Nd  Nd2  1  0.635407  0.635407  0.997448  1
  Nd  Nd3  1  0.233763  0.233763  0.310588  1
  Nd  Nd4  1  0.766237  0.766237  0.689412  1
  Nd  Nd5  1  0.418106  0.418106  0.259683  1
  Nd  Nd6  1  0.581894  0.581894  0.740317  1
  As  As7  1  0.063111  0.063111  0.924088  1
  As  As8  1  0.936889  0.936889  0.075912  1
  As  As9  1  0.883851  0.883851  0.830985  1
  As  As10  1  0.116149  0.116149  0.169015  1
  As  As11  1  0.189110  0.189110  0.622643  1
  As  As12  1  0.810890  0.810890  0.377357  1
  As  As13  1  0.365420  0.365420  0.580148  1
  As  As14  1  0.634580  0.634580  0.419852  1
  As  As15  1  0.011317  0.011317  0.669106  1
  As  As16  1  0.988683  0.988683  0.330894  1
  P  P17  1  0.234783  0.234783  0.884977  1
  P  P18  1  0.765217  0.765217  0.115023  1
  Pd  Pd19  1  0.834823  0.834823  0.189162  1
  Pd  Pd20  1  0.165177  0.165177  0.810838  1
  Pd  Pd21  1  0.024953  0.024953  0.127435  1
  Pd  Pd22  1  0.975047  0.975047  0.872565  1
  Pd  Pd23  1  0.888078  0.888078  0.458443  1
  Pd  Pd24  1  0.111922  0.111922  0.541557  1
  Pd  Pd25  1  0.500000  0.500000  0.000000  1
  Pd  Pd26  1  0.549486  0.549486  0.252840  1
  Pd  Pd27  1  0.450514  0.450514  0.747160  1
  Pd  Pd28  1  0.295337  0.295337  0.488782  1
  Pd  Pd29  1  0.704663  0.704663  0.511218  1
  Pd  Pd30  1  0.666968  0.666968  0.220698  1
  Pd  Pd31  1  0.333032  0.333032  0.779302  1
  Pd  Pd32  1  0.908254  0.908254  0.639936  1
  Pd  Pd33  1  0.091746  0.091746  0.360064  1
  Pd  Pd34  1  0.222533  0.222533  0.068425  1
  Pd  Pd35  1  0.777467  0.777467  0.931575  1
