# generated using pymatgen
data_DyHo3TmIr2
_symmetry_space_group_name_H-M   'P 1'
_cell_length_a   6.46019065
_cell_length_b   7.18494470
_cell_length_c   8.46983955
_cell_angle_alpha   96.41819915
_cell_angle_beta   112.41822763
_cell_angle_gamma   90.00000570
_symmetry_Int_Tables_number   1
_chemical_formula_structural   DyHo3TmIr2
_chemical_formula_sum   'Dy2 Ho6 Tm2 Ir4'
_cell_volume   360.75872304
_cell_formula_units_Z   2
loop_
 _symmetry_equiv_pos_site_id
 _symmetry_equiv_pos_as_xyz
  1  'x, y, z'
loop_
 _atom_site_type_symbol
 _atom_site_label
 _atom_site_symmetry_multiplicity
 _atom_site_fract_x
 _atom_site_fract_y
 _atom_site_fract_z
 _atom_site_occupancy
  Dy  Dy0  1  0.970441  0.918967  0.181999  1
  Dy  Dy1  1  0.788441  0.581033  0.818001  1
  Ho  Ho2  1  0.029633  0.081225  0.818092  1
  Ho  Ho3  1  0.211541  0.418775  0.181908  1
  Ho  Ho4  1  0.653830  0.817427  0.441303  1
  Ho  Ho5  1  0.212525  0.682573  0.558697  1
  Ho  Ho6  1  0.346136  0.182664  0.558839  1
  Ho  Ho7  1  0.787298  0.317336  0.441161  1
  Tm  Tm8  1  0.428140  0.750000  0.000000  1
  Tm  Tm9  1  0.571568  0.250000  0.000000  1
  Ir  Ir10  1  0.823728  0.572613  0.217774  1
  Ir  Ir11  1  0.605955  0.927387  0.782226  1
  Ir  Ir12  1  0.176577  0.426865  0.782386  1
  Ir  Ir13  1  0.394190  0.073135  0.217614  1
