# generated using pymatgen
data_Ho3Bi3SbRuO14
_symmetry_space_group_name_H-M   'P 1'
_cell_length_a   6.43108485
_cell_length_b   6.65423261
_cell_length_c   7.58220555
_cell_angle_alpha   106.61438879
_cell_angle_beta   89.30094645
_cell_angle_gamma   98.28101316
_symmetry_Int_Tables_number   1
_chemical_formula_structural   Ho3Bi3SbRuO14
_chemical_formula_sum   'Ho3 Bi3 Sb1 Ru1 O14'
_cell_volume   307.54036298
_cell_formula_units_Z   1
loop_
 _symmetry_equiv_pos_site_id
 _symmetry_equiv_pos_as_xyz
  1  'x, y, z'
loop_
 _atom_site_type_symbol
 _atom_site_label
 _atom_site_symmetry_multiplicity
 _atom_site_fract_x
 _atom_site_fract_y
 _atom_site_fract_z
 _atom_site_occupancy
  Ho  Ho0  1  0.547907  0.993946  0.749668  1
  Ho  Ho1  1  0.454408  0.003483  0.253581  1
  Ho  Ho2  1  0.257039  0.532445  0.882705  1
  Bi  Bi3  1  0.741516  0.479705  0.116113  1
  Bi  Bi4  1  0.732696  0.460382  0.612104  1
  Bi  Bi5  1  0.257331  0.533310  0.390061  1
  Sb  Sb6  1  0.004503  0.001337  0.999032  1
  Ru  Ru7  1  0.002398  0.005731  0.501111  1
  O  O8  1  0.441093  0.651521  0.164987  1
  O  O9  1  0.544446  0.344700  0.826568  1
  O  O10  1  0.296537  0.931803  0.953440  1
  O  O11  1  0.706933  0.043116  0.046284  1
  O  O12  1  0.287542  0.925937  0.514666  1
  O  O13  1  0.713282  0.079390  0.487884  1
  O  O14  1  0.530304  0.354186  0.346542  1
  O  O15  1  0.455217  0.643933  0.660577  1
  O  O16  1  0.938189  0.680435  0.952699  1
  O  O17  1  0.085403  0.313072  0.035662  1
  O  O18  1  0.092019  0.310868  0.622116  1
  O  O19  1  0.907146  0.702963  0.383340  1
  O  O20  1  0.902133  0.945004  0.733760  1
  O  O21  1  0.101958  0.062732  0.267100  1
