# generated using pymatgen
data_Tb5YbYCoI12
_symmetry_space_group_name_H-M   'P 1'
_cell_length_a   9.73731602
_cell_length_b   9.79544863
_cell_length_c   9.80050874
_cell_angle_alpha   106.89162264
_cell_angle_beta   107.01781208
_cell_angle_gamma   106.87912855
_symmetry_Int_Tables_number   1
_chemical_formula_structural   Tb5YbYCoI12
_chemical_formula_sum   'Tb5 Yb1 Y1 Co1 I12'
_cell_volume   779.98956541
_cell_formula_units_Z   1
loop_
 _symmetry_equiv_pos_site_id
 _symmetry_equiv_pos_as_xyz
  1  'x, y, z'
loop_
 _atom_site_type_symbol
 _atom_site_label
 _atom_site_symmetry_multiplicity
 _atom_site_fract_x
 _atom_site_fract_y
 _atom_site_fract_z
 _atom_site_occupancy
  Tb  Tb0  1  0.096306  0.296613  0.024493  1
  Tb  Tb1  1  0.283087  0.022880  0.091814  1
  Tb  Tb2  1  0.976268  0.903289  0.702968  1
  Tb  Tb3  1  0.903724  0.703483  0.975680  1
  Tb  Tb4  1  0.717068  0.977170  0.908409  1
  Yb  Yb5  1  0.499930  0.499975  0.500062  1
  Y  Y6  1  0.023800  0.096684  0.297023  1
  Co  Co7  1  0.000104  0.999979  0.999663  1
  I  I8  1  0.150206  0.457469  0.379102  1
  I  I9  1  0.458236  0.378386  0.152155  1
  I  I10  1  0.379361  0.151090  0.456385  1
  I  I11  1  0.849273  0.541795  0.620912  1
  I  I12  1  0.541729  0.621632  0.847970  1
  I  I13  1  0.620030  0.848706  0.543542  1
  I  I14  1  0.679644  0.071816  0.222589  1
  I  I15  1  0.072219  0.224146  0.678273  1
  I  I16  1  0.225620  0.680537  0.073090  1
  I  I17  1  0.321193  0.928375  0.777872  1
  I  I18  1  0.927799  0.776512  0.320957  1
  I  I19  1  0.774404  0.319463  0.927044  1
