# generated using pymatgen
data_Ba8Li13AlSb12
_symmetry_space_group_name_H-M   'P 1'
_cell_length_a   9.47594003
_cell_length_b   9.47593975
_cell_length_c   21.11807546
_cell_angle_alpha   83.27499467
_cell_angle_beta   83.27499421
_cell_angle_gamma   30.52557619
_symmetry_Int_Tables_number   1
_chemical_formula_structural   Ba8Li13AlSb12
_chemical_formula_sum   'Ba8 Li13 Al1 Sb12'
_cell_volume   956.03413599
_cell_formula_units_Z   1
loop_
 _symmetry_equiv_pos_site_id
 _symmetry_equiv_pos_as_xyz
  1  'x, y, z'
loop_
 _atom_site_type_symbol
 _atom_site_label
 _atom_site_symmetry_multiplicity
 _atom_site_fract_x
 _atom_site_fract_y
 _atom_site_fract_z
 _atom_site_occupancy
  Ba  Ba0  1  0.117860  0.117860  0.958798  1
  Ba  Ba1  1  0.614884  0.614884  0.454112  1
  Ba  Ba2  1  0.385538  0.385538  0.541939  1
  Ba  Ba3  1  0.883992  0.883992  0.044026  1
  Ba  Ba4  1  0.566484  0.566484  0.669818  1
  Ba  Ba5  1  0.069486  0.069486  0.172401  1
  Ba  Ba6  1  0.928940  0.928940  0.829407  1
  Ba  Ba7  1  0.430411  0.430411  0.327631  1
  Li  Li8  1  0.887392  0.887392  0.658307  1
  Li  Li9  1  0.384009  0.384009  0.158395  1
  Li  Li10  1  0.617041  0.617041  0.841276  1
  Li  Li11  1  0.116155  0.116155  0.341356  1
  Li  Li12  1  0.188146  0.188146  0.545547  1
  Li  Li13  1  0.690225  0.690225  0.045829  1
  Li  Li14  1  0.310003  0.310003  0.954799  1
  Li  Li15  1  0.811331  0.811331  0.452325  1
  Li  Li16  1  0.750340  0.750340  0.754182  1
  Li  Li17  1  0.249898  0.249898  0.248514  1
  Li  Li18  1  0.740707  0.740707  0.173536  1
  Li  Li19  1  0.259141  0.259141  0.829257  1
  Li  Li20  1  0.759215  0.759215  0.326528  1
  Al  Al21  1  0.240720  0.240720  0.669984  1
  Sb  Sb22  1  0.748058  0.748058  0.601284  1
  Sb  Sb23  1  0.249209  0.249209  0.091242  1
  Sb  Sb24  1  0.750494  0.750494  0.905321  1
  Sb  Sb25  1  0.250837  0.250837  0.412123  1
  Sb  Sb26  1  0.023304  0.023304  0.562512  1
  Sb  Sb27  1  0.523512  0.523512  0.061637  1
  Sb  Sb28  1  0.478481  0.478481  0.935694  1
  Sb  Sb29  1  0.976369  0.976369  0.437554  1
  Sb  Sb30  1  0.371127  0.371127  0.724954  1
  Sb  Sb31  1  0.875817  0.875817  0.226610  1
  Sb  Sb32  1  0.126434  0.126434  0.768856  1
  Sb  Sb33  1  0.624435  0.624435  0.274240  1
