# generated using pymatgen
data_Zr8Co8Si11Ge3
_symmetry_space_group_name_H-M   'P 1'
_cell_length_a   9.53455532
_cell_length_b   9.53455544
_cell_length_c   9.53455471
_cell_angle_alpha   94.05947809
_cell_angle_beta   94.26831063
_cell_angle_gamma   148.73553814
_symmetry_Int_Tables_number   1
_chemical_formula_structural   Zr8Co8Si11Ge3
_chemical_formula_sum   'Zr8 Co8 Si11 Ge3'
_cell_volume   433.20148621
_cell_formula_units_Z   1
loop_
 _symmetry_equiv_pos_site_id
 _symmetry_equiv_pos_as_xyz
  1  'x, y, z'
loop_
 _atom_site_type_symbol
 _atom_site_label
 _atom_site_symmetry_multiplicity
 _atom_site_fract_x
 _atom_site_fract_y
 _atom_site_fract_z
 _atom_site_occupancy
  Zr  Zr0  1  0.860612  0.861083  0.721694  1
  Zr  Zr1  1  0.139199  0.860996  0.000195  1
  Zr  Zr2  1  0.860612  0.138917  0.999530  1
  Zr  Zr3  1  0.139199  0.139004  0.278205  1
  Zr  Zr4  1  0.302507  0.500000  0.802507  1
  Zr  Zr5  1  0.500018  0.301615  0.801633  1
  Zr  Zr6  1  0.500018  0.698385  0.198403  1
  Zr  Zr7  1  0.698164  0.500000  0.198164  1
  Co  Co8  1  0.104385  0.602374  0.201902  1
  Co  Co9  1  0.897191  0.102631  0.499853  1
  Co  Co10  1  0.599528  0.397626  0.502010  1
  Co  Co11  1  0.397222  0.897369  0.794560  1
  Co  Co12  1  0.897191  0.397338  0.794560  1
  Co  Co13  1  0.104385  0.902482  0.502010  1
  Co  Co14  1  0.397222  0.602662  0.499853  1
  Co  Co15  1  0.599528  0.097518  0.201902  1
  Si  Si16  1  0.710003  0.710324  0.420326  1
  Si  Si17  1  0.289355  0.709441  0.998796  1
  Si  Si18  1  0.710003  0.289676  0.999679  1
  Si  Si19  1  0.289355  0.290559  0.579915  1
  Si  Si20  1  0.698193  0.000000  0.698193  1
  Si  Si21  1  0.000215  0.700237  0.700452  1
  Si  Si22  1  0.000215  0.299763  0.299978  1
  Si  Si23  1  0.300671  0.000000  0.300671  1
  Si  Si24  1  0.094558  0.500000  0.594558  1
  Si  Si25  1  0.500085  0.091465  0.591550  1
  Si  Si26  1  0.500085  0.908535  0.408620  1
  Ge  Ge27  1  0.910273  0.500000  0.410273  1
  Ge  Ge28  1  0.250422  0.250419  0.000004  1
  Ge  Ge29  1  0.749585  0.749581  0.000004  1
