# generated using pymatgen
data_Dy2Y2Al4PtRh3
_symmetry_space_group_name_H-M   'P 1'
_cell_length_a   4.29948000
_cell_length_b   6.86312612
_cell_length_c   7.89483273
_cell_angle_alpha   90.03634005
_cell_angle_beta   90.00000000
_cell_angle_gamma   90.00000000
_symmetry_Int_Tables_number   1
_chemical_formula_structural   Dy2Y2Al4PtRh3
_chemical_formula_sum   'Dy2 Y2 Al4 Pt1 Rh3'
_cell_volume   232.95967848
_cell_formula_units_Z   1
loop_
 _symmetry_equiv_pos_site_id
 _symmetry_equiv_pos_as_xyz
  1  'x, y, z'
loop_
 _atom_site_type_symbol
 _atom_site_label
 _atom_site_symmetry_multiplicity
 _atom_site_fract_x
 _atom_site_fract_y
 _atom_site_fract_z
 _atom_site_occupancy
  Dy  Dy0  1  0.750000  0.031588  0.678354  1
  Dy  Dy1  1  0.250000  0.966611  0.319742  1
  Y  Y2  1  0.250000  0.468163  0.183623  1
  Y  Y3  1  0.750000  0.535840  0.818737  1
  Al  Al4  1  0.250000  0.859330  0.937224  1
  Al  Al5  1  0.750000  0.137580  0.064233  1
  Al  Al6  1  0.750000  0.637948  0.437938  1
  Al  Al7  1  0.250000  0.362894  0.562183  1
  Pt  Pt8  1  0.250000  0.231712  0.880081  1
  Rh  Rh9  1  0.250000  0.736326  0.616855  1
  Rh  Rh10  1  0.750000  0.265020  0.383474  1
  Rh  Rh11  1  0.750000  0.766987  0.117556  1
