# generated using pymatgen
data_YEr4(In2Pt)2
_symmetry_space_group_name_H-M   'P 1'
_cell_length_a   3.59593100
_cell_length_b   8.14945900
_cell_length_c   18.20813200
_cell_angle_alpha   90.00000000
_cell_angle_beta   90.00000000
_cell_angle_gamma   90.00000000
_symmetry_Int_Tables_number   1
_chemical_formula_structural   YEr4(In2Pt)2
_chemical_formula_sum   'Y2 Er8 In8 Pt4'
_cell_volume   533.58734636
_cell_formula_units_Z   2
loop_
 _symmetry_equiv_pos_site_id
 _symmetry_equiv_pos_as_xyz
  1  'x, y, z'
loop_
 _atom_site_type_symbol
 _atom_site_label
 _atom_site_symmetry_multiplicity
 _atom_site_fract_x
 _atom_site_fract_y
 _atom_site_fract_z
 _atom_site_occupancy
  Y  Y0  1  0.000000  0.000000  0.000000  1
  Y  Y1  1  0.000000  0.500000  0.500000  1
  Er  Er2  1  0.000000  0.116672  0.414125  1
  Er  Er3  1  0.000000  0.883328  0.585875  1
  Er  Er4  1  0.000000  0.383328  0.914125  1
  Er  Er5  1  0.000000  0.616672  0.085875  1
  Er  Er6  1  0.000000  0.243468  0.220188  1
  Er  Er7  1  0.000000  0.756532  0.779812  1
  Er  Er8  1  0.000000  0.256532  0.720188  1
  Er  Er9  1  0.000000  0.743468  0.279812  1
  In  In10  1  0.500000  0.423541  0.350578  1
  In  In11  1  0.500000  0.576459  0.649422  1
  In  In12  1  0.500000  0.076459  0.850578  1
  In  In13  1  0.500000  0.923541  0.149422  1
  In  In14  1  0.500000  0.292807  0.066651  1
  In  In15  1  0.500000  0.707193  0.933349  1
  In  In16  1  0.500000  0.207193  0.566651  1
  In  In17  1  0.500000  0.792807  0.433349  1
  Pt  Pt18  1  0.500000  0.024582  0.303216  1
  Pt  Pt19  1  0.500000  0.975418  0.696784  1
  Pt  Pt20  1  0.500000  0.475418  0.803216  1
  Pt  Pt21  1  0.500000  0.524582  0.196784  1
