# generated using pymatgen
data_Tc2Hg4PbO10
_symmetry_space_group_name_H-M   'P 1'
_cell_length_a   11.77948000
_cell_length_b   7.40367358
_cell_length_c   8.05396052
_cell_angle_alpha   79.47509604
_cell_angle_beta   90.00000000
_cell_angle_gamma   90.00000000
_symmetry_Int_Tables_number   1
_chemical_formula_structural   Tc2Hg4PbO10
_chemical_formula_sum   'Tc4 Hg8 Pb2 O20'
_cell_volume   690.57996192
_cell_formula_units_Z   2
loop_
 _symmetry_equiv_pos_site_id
 _symmetry_equiv_pos_as_xyz
  1  'x, y, z'
loop_
 _atom_site_type_symbol
 _atom_site_label
 _atom_site_symmetry_multiplicity
 _atom_site_fract_x
 _atom_site_fract_y
 _atom_site_fract_z
 _atom_site_occupancy
  Tc  Tc0  1  0.335899  0.597238  0.499087  1
  Tc  Tc1  1  0.835899  0.402762  0.000913  1
  Tc  Tc2  1  0.664101  0.402762  0.500913  1
  Tc  Tc3  1  0.164101  0.597238  0.999087  1
  Hg  Hg4  1  0.084045  0.988934  0.314007  1
  Hg  Hg5  1  0.719470  0.901469  0.818217  1
  Hg  Hg6  1  0.584045  0.011066  0.185993  1
  Hg  Hg7  1  0.780530  0.901469  0.318217  1
  Hg  Hg8  1  0.280530  0.098531  0.181783  1
  Hg  Hg9  1  0.915955  0.011066  0.685993  1
  Hg  Hg10  1  0.219470  0.098531  0.681783  1
  Hg  Hg11  1  0.415955  0.988934  0.814007  1
  Pb  Pb12  1  0.500000  0.500000  0.000000  1
  Pb  Pb13  1  0.000000  0.500000  0.500000  1
  O  O14  1  0.164290  0.410306  0.897619  1
  O  O15  1  0.557769  0.826419  0.928190  1
  O  O16  1  0.805944  0.342278  0.468086  1
  O  O17  1  0.335710  0.410306  0.397619  1
  O  O18  1  0.593940  0.460324  0.306862  1
  O  O19  1  0.942231  0.826419  0.428190  1
  O  O20  1  0.664290  0.589694  0.602381  1
  O  O21  1  0.597584  0.217174  0.626294  1
  O  O22  1  0.057769  0.173581  0.571810  1
  O  O23  1  0.906060  0.460324  0.806862  1
  O  O24  1  0.694056  0.342278  0.968086  1
  O  O25  1  0.442231  0.173581  0.071810  1
  O  O26  1  0.402416  0.782826  0.373706  1
  O  O27  1  0.093940  0.539676  0.193138  1
  O  O28  1  0.305944  0.657722  0.031914  1
  O  O29  1  0.406060  0.539676  0.693138  1
  O  O30  1  0.835710  0.589694  0.102381  1
  O  O31  1  0.097584  0.782826  0.873706  1
  O  O32  1  0.194056  0.657722  0.531914  1
  O  O33  1  0.902416  0.217174  0.126294  1
