# generated using pymatgen
data_YbTm2Zn11
_symmetry_space_group_name_H-M   'P 1'
_cell_length_a   4.42219000
_cell_length_b   8.11799696
_cell_length_c   8.11799608
_cell_angle_alpha   65.65786503
_cell_angle_beta   74.19468034
_cell_angle_gamma   74.19468246
_symmetry_Int_Tables_number   1
_chemical_formula_structural   YbTm2Zn11
_chemical_formula_sum   'Yb1 Tm2 Zn11'
_cell_volume   251.18704908
_cell_formula_units_Z   1
loop_
 _symmetry_equiv_pos_site_id
 _symmetry_equiv_pos_as_xyz
  1  'x, y, z'
loop_
 _atom_site_type_symbol
 _atom_site_label
 _atom_site_symmetry_multiplicity
 _atom_site_fract_x
 _atom_site_fract_y
 _atom_site_fract_z
 _atom_site_occupancy
  Yb  Yb0  1  0.000000  0.000000  0.000000  1
  Tm  Tm1  1  0.704428  0.295572  0.295572  1
  Tm  Tm2  1  0.295572  0.704428  0.704428  1
  Zn  Zn3  1  0.000000  0.500000  0.500000  1
  Zn  Zn4  1  0.500000  0.679983  0.320017  1
  Zn  Zn5  1  0.500000  0.320017  0.679983  1
  Zn  Zn6  1  0.662993  0.694051  0.979964  1
  Zn  Zn7  1  0.337007  0.305949  0.020036  1
  Zn  Zn8  1  0.662993  0.979964  0.694051  1
  Zn  Zn9  1  0.337007  0.020036  0.305949  1
  Zn  Zn10  1  0.863220  0.418658  0.854900  1
  Zn  Zn11  1  0.136780  0.581342  0.145100  1
  Zn  Zn12  1  0.863220  0.854900  0.418658  1
  Zn  Zn13  1  0.136780  0.145100  0.581342  1
