# generated using pymatgen
data_Er12TlFe2Co2Pt
_symmetry_space_group_name_H-M   'P 1'
_cell_length_a   8.24082871
_cell_length_b   8.24082815
_cell_length_c   8.24082883
_cell_angle_alpha   110.55562401
_cell_angle_beta   110.37862990
_cell_angle_gamma   107.49731229
_symmetry_Int_Tables_number   1
_chemical_formula_structural   Er12TlFe2Co2Pt
_chemical_formula_sum   'Er12 Tl1 Fe2 Co2 Pt1'
_cell_volume   430.43198901
_cell_formula_units_Z   1
loop_
 _symmetry_equiv_pos_site_id
 _symmetry_equiv_pos_as_xyz
  1  'x, y, z'
loop_
 _atom_site_type_symbol
 _atom_site_label
 _atom_site_symmetry_multiplicity
 _atom_site_fract_x
 _atom_site_fract_y
 _atom_site_fract_z
 _atom_site_occupancy
  Er  Er0  1  0.184868  0.289958  0.474826  1
  Er  Er1  1  0.815132  0.710042  0.525174  1
  Er  Er2  1  0.184868  0.710042  0.894910  1
  Er  Er3  1  0.815132  0.289958  0.105090  1
  Er  Er4  1  0.314775  0.618460  0.303684  1
  Er  Er5  1  0.685225  0.381540  0.696316  1
  Er  Er6  1  0.314775  0.011092  0.696316  1
  Er  Er7  1  0.685225  0.988908  0.303684  1
  Er  Er8  1  0.415636  0.216262  0.199374  1
  Er  Er9  1  0.584364  0.783738  0.800626  1
  Er  Er10  1  0.016887  0.216262  0.800626  1
  Er  Er11  1  0.983113  0.783738  0.199374  1
  Tl  Tl12  1  0.500000  0.500000  0.000000  1
  Fe  Fe13  1  0.109305  0.609305  0.500000  1
  Fe  Fe14  1  0.890695  0.390695  0.500000  1
  Co  Co15  1  0.380613  0.000000  0.380613  1
  Co  Co16  1  0.619387  0.000000  0.619387  1
  Pt  Pt17  1  0.000000  0.000000  0.000000  1
