# generated using pymatgen
data_Ho4ScCo2Rh
_symmetry_space_group_name_H-M   'P 1'
_cell_length_a   6.97644179
_cell_length_b   6.97644209
_cell_length_c   8.61724219
_cell_angle_alpha   113.87831691
_cell_angle_beta   113.87831462
_cell_angle_gamma   89.99999517
_symmetry_Int_Tables_number   1
_chemical_formula_structural   Ho4ScCo2Rh
_chemical_formula_sum   'Ho8 Sc2 Co4 Rh2'
_cell_volume   343.88381535
_cell_formula_units_Z   2
loop_
 _symmetry_equiv_pos_site_id
 _symmetry_equiv_pos_as_xyz
  1  'x, y, z'
loop_
 _atom_site_type_symbol
 _atom_site_label
 _atom_site_symmetry_multiplicity
 _atom_site_fract_x
 _atom_site_fract_y
 _atom_site_fract_z
 _atom_site_occupancy
  Ho  Ho0  1  0.460163  0.317815  0.277979  1
  Ho  Ho1  1  0.960164  0.460163  0.277979  1
  Ho  Ho2  1  0.317815  0.817814  0.277979  1
  Ho  Ho3  1  0.817814  0.960164  0.277979  1
  Ho  Ho4  1  0.182185  0.039837  0.722020  1
  Ho  Ho5  1  0.682184  0.182185  0.722020  1
  Ho  Ho6  1  0.039837  0.539836  0.722020  1
  Ho  Ho7  1  0.539836  0.682184  0.722020  1
  Sc  Sc8  1  0.000000  0.000000  0.000000  1
  Sc  Sc9  1  0.500000  0.500000  0.000000  1
  Co  Co10  1  0.615004  0.115004  0.000000  1
  Co  Co11  1  0.115004  0.384997  0.000000  1
  Co  Co12  1  0.884996  0.615004  0.000000  1
  Co  Co13  1  0.384997  0.884996  0.000000  1
  Rh  Rh14  1  0.250000  0.250000  0.500000  1
  Rh  Rh15  1  0.750000  0.750000  0.500000  1
