# generated using pymatgen
data_Y2MoIrRu2
_symmetry_space_group_name_H-M   'P 1'
_cell_length_a   5.27407150
_cell_length_b   5.63872078
_cell_length_c   5.63872118
_cell_angle_alpha   58.96304221
_cell_angle_beta   56.64794288
_cell_angle_gamma   56.64794836
_symmetry_Int_Tables_number   1
_chemical_formula_structural   Y2MoIrRu2
_chemical_formula_sum   'Y2 Mo1 Ir1 Ru2'
_cell_volume   111.40107403
_cell_formula_units_Z   1
loop_
 _symmetry_equiv_pos_site_id
 _symmetry_equiv_pos_as_xyz
  1  'x, y, z'
loop_
 _atom_site_type_symbol
 _atom_site_label
 _atom_site_symmetry_multiplicity
 _atom_site_fract_x
 _atom_site_fract_y
 _atom_site_fract_z
 _atom_site_occupancy
  Y  Y0  1  0.117440  0.126282  0.126282  1
  Y  Y1  1  0.882560  0.873718  0.873718  1
  Mo  Mo2  1  0.000000  0.500000  0.500000  1
  Ir  Ir3  1  0.500000  0.500000  0.500000  1
  Ru  Ru4  1  0.500000  0.000000  0.500000  1
  Ru  Ru5  1  0.500000  0.500000  0.000000  1
