# generated using pymatgen
data_YHoP6Pd20Pb
_symmetry_space_group_name_H-M   'P 1'
_cell_length_a   8.69738982
_cell_length_b   8.69736059
_cell_length_c   8.69758600
_cell_angle_alpha   59.99885366
_cell_angle_beta   59.99863596
_cell_angle_gamma   59.99855794
_symmetry_Int_Tables_number   1
_chemical_formula_structural   YHoP6Pd20Pb
_chemical_formula_sum   'Y1 Ho1 P6 Pd20 Pb1'
_cell_volume   465.20799799
_cell_formula_units_Z   1
loop_
 _symmetry_equiv_pos_site_id
 _symmetry_equiv_pos_as_xyz
  1  'x, y, z'
loop_
 _atom_site_type_symbol
 _atom_site_label
 _atom_site_symmetry_multiplicity
 _atom_site_fract_x
 _atom_site_fract_y
 _atom_site_fract_z
 _atom_site_occupancy
  Y  Y0  1  0.749992  0.749990  0.750001  1
  Ho  Ho1  1  0.999983  0.000002  0.000003  1
  P  P2  1  0.736319  0.263677  0.263690  1
  P  P3  1  0.263679  0.736309  0.736309  1
  P  P4  1  0.263678  0.736319  0.263689  1
  P  P5  1  0.736312  0.263676  0.736308  1
  P  P6  1  0.263681  0.263675  0.736323  1
  P  P7  1  0.736303  0.736305  0.263690  1
  Pd  Pd8  1  0.384427  0.384420  0.384438  1
  Pd  Pd9  1  0.615374  0.615377  0.615384  1
  Pd  Pd10  1  0.384416  0.384411  0.846731  1
  Pd  Pd11  1  0.384403  0.846750  0.384418  1
  Pd  Pd12  1  0.615378  0.615379  0.153848  1
  Pd  Pd13  1  0.615378  0.153839  0.615386  1
  Pd  Pd14  1  0.846746  0.384402  0.384416  1
  Pd  Pd15  1  0.153839  0.615378  0.615387  1
  Pd  Pd16  1  0.347775  0.996628  0.996639  1
  Pd  Pd17  1  0.658938  0.996629  0.996640  1
  Pd  Pd18  1  0.996627  0.347776  0.658953  1
  Pd  Pd19  1  0.996630  0.658939  0.347782  1
  Pd  Pd20  1  0.996630  0.347774  0.996638  1
  Pd  Pd21  1  0.658940  0.996628  0.347781  1
  Pd  Pd22  1  0.996629  0.658939  0.996638  1
  Pd  Pd23  1  0.347775  0.996625  0.658954  1
  Pd  Pd24  1  0.996629  0.996627  0.347787  1
  Pd  Pd25  1  0.996633  0.996629  0.658944  1
  Pd  Pd26  1  0.658940  0.347769  0.996642  1
  Pd  Pd27  1  0.347766  0.658938  0.996644  1
  Pb  Pb28  1  0.250177  0.250193  0.249936  1
