# generated using pymatgen
data_CaSiPdRh
_symmetry_space_group_name_H-M   'P 1'
_cell_length_a   9.15138172
_cell_length_b   9.15138081
_cell_length_c   4.17997900
_cell_angle_alpha   90.00000000
_cell_angle_beta   90.00000000
_cell_angle_gamma   154.68939759
_symmetry_Int_Tables_number   1
_chemical_formula_structural   CaSiPdRh
_chemical_formula_sum   'Ca2 Si2 Pd2 Rh2'
_cell_volume   149.66114738
_cell_formula_units_Z   2
loop_
 _symmetry_equiv_pos_site_id
 _symmetry_equiv_pos_as_xyz
  1  'x, y, z'
loop_
 _atom_site_type_symbol
 _atom_site_label
 _atom_site_symmetry_multiplicity
 _atom_site_fract_x
 _atom_site_fract_y
 _atom_site_fract_z
 _atom_site_occupancy
  Ca  Ca0  1  0.101045  0.898955  0.750000  1
  Ca  Ca1  1  0.898955  0.101045  0.250000  1
  Si  Si2  1  0.319474  0.680526  0.750000  1
  Si  Si3  1  0.680526  0.319474  0.250000  1
  Pd  Pd4  1  0.548396  0.451604  0.250000  1
  Pd  Pd5  1  0.451604  0.548396  0.750000  1
  Rh  Rh6  1  0.251129  0.748871  0.250000  1
  Rh  Rh7  1  0.748871  0.251129  0.750000  1
