# generated using pymatgen
data_Cs6LuTlBr12
_symmetry_space_group_name_H-M   'P 1'
_cell_length_a   9.99106300
_cell_length_b   9.99354587
_cell_length_c   8.28857200
_cell_angle_alpha   90.00000000
_cell_angle_beta   90.00000000
_cell_angle_gamma   90.06212008
_symmetry_Int_Tables_number   1
_chemical_formula_structural   Cs6LuTlBr12
_chemical_formula_sum   'Cs6 Lu1 Tl1 Br12'
_cell_volume   827.58148709
_cell_formula_units_Z   1
loop_
 _symmetry_equiv_pos_site_id
 _symmetry_equiv_pos_as_xyz
  1  'x, y, z'
loop_
 _atom_site_type_symbol
 _atom_site_label
 _atom_site_symmetry_multiplicity
 _atom_site_fract_x
 _atom_site_fract_y
 _atom_site_fract_z
 _atom_site_occupancy
  Cs  Cs0  1  0.000000  0.000000  0.500000  1
  Cs  Cs1  1  0.000000  0.000000  0.000000  1
  Cs  Cs2  1  0.236212  0.580777  0.500000  1
  Cs  Cs3  1  0.763788  0.419223  0.500000  1
  Cs  Cs4  1  0.419368  0.235117  0.000000  1
  Cs  Cs5  1  0.580632  0.764883  0.000000  1
  Lu  Lu6  1  0.500000  0.000000  0.500000  1
  Tl  Tl7  1  0.000000  0.500000  0.000000  1
  Br  Br8  1  0.688765  0.055044  0.736781  1
  Br  Br9  1  0.311235  0.944956  0.736781  1
  Br  Br10  1  0.943880  0.691971  0.240685  1
  Br  Br11  1  0.056120  0.308029  0.240685  1
  Br  Br12  1  0.311235  0.944956  0.263219  1
  Br  Br13  1  0.688765  0.055044  0.263219  1
  Br  Br14  1  0.056120  0.308029  0.759315  1
  Br  Br15  1  0.943880  0.691971  0.759315  1
  Br  Br16  1  0.569517  0.733475  0.500000  1
  Br  Br17  1  0.430483  0.266525  0.500000  1
  Br  Br18  1  0.270962  0.570790  0.000000  1
  Br  Br19  1  0.729038  0.429210  0.000000  1
