# generated using pymatgen
data_Ti7V5GaSn9
_symmetry_space_group_name_H-M   'P 1'
_cell_length_a   9.14320900
_cell_length_b   9.14169300
_cell_length_c   5.51457502
_cell_angle_alpha   89.94355516
_cell_angle_beta   90.00000000
_cell_angle_gamma   120.00548951
_symmetry_Int_Tables_number   1
_chemical_formula_structural   Ti7V5GaSn9
_chemical_formula_sum   'Ti7 V5 Ga1 Sn9'
_cell_volume   399.15691132
_cell_formula_units_Z   1
loop_
 _symmetry_equiv_pos_site_id
 _symmetry_equiv_pos_as_xyz
  1  'x, y, z'
loop_
 _atom_site_type_symbol
 _atom_site_label
 _atom_site_symmetry_multiplicity
 _atom_site_fract_x
 _atom_site_fract_y
 _atom_site_fract_z
 _atom_site_occupancy
  Ti  Ti0  1  0.845780  0.691560  0.741091  1
  Ti  Ti1  1  0.150414  0.842860  0.255547  1
  Ti  Ti2  1  0.692446  0.842860  0.255547  1
  Ti  Ti3  1  0.307554  0.157140  0.744453  1
  Ti  Ti4  1  0.849586  0.157140  0.744453  1
  Ti  Ti5  1  0.154220  0.308440  0.258909  1
  Ti  Ti6  1  0.500000  0.000000  0.000000  1
  V  V7  1  0.500000  0.000000  0.500000  1
  V  V8  1  0.500000  0.500000  0.000000  1
  V  V9  1  0.000000  0.500000  0.000000  1
  V  V10  1  0.000000  0.500000  0.500000  1
  V  V11  1  0.500000  0.500000  0.500000  1
  Ga  Ga12  1  0.000000  0.000000  0.500000  1
  Sn  Sn13  1  0.207503  0.415008  0.753338  1
  Sn  Sn14  1  0.796100  0.206606  0.251437  1
  Sn  Sn15  1  0.410505  0.206606  0.251437  1
  Sn  Sn16  1  0.589495  0.793394  0.748563  1
  Sn  Sn17  1  0.203900  0.793394  0.748563  1
  Sn  Sn18  1  0.792497  0.584992  0.246662  1
  Sn  Sn19  1  0.667399  0.334798  0.744939  1
  Sn  Sn20  1  0.332601  0.665202  0.255061  1
  Sn  Sn21  1  0.000000  0.000000  0.000000  1
