# generated using pymatgen
data_SmAg(WO4)2
_symmetry_space_group_name_H-M   'P 1'
_cell_length_a   7.50451015
_cell_length_b   7.50450951
_cell_length_c   7.39580349
_cell_angle_alpha   65.59633102
_cell_angle_beta   65.59633215
_cell_angle_gamma   94.15903438
_symmetry_Int_Tables_number   1
_chemical_formula_structural   SmAg(WO4)2
_chemical_formula_sum   'Sm2 Ag2 W4 O16'
_cell_volume   330.22333684
_cell_formula_units_Z   2
loop_
 _symmetry_equiv_pos_site_id
 _symmetry_equiv_pos_as_xyz
  1  'x, y, z'
loop_
 _atom_site_type_symbol
 _atom_site_label
 _atom_site_symmetry_multiplicity
 _atom_site_fract_x
 _atom_site_fract_y
 _atom_site_fract_z
 _atom_site_occupancy
  Sm  Sm0  1  0.698349  0.301651  0.000000  1
  Sm  Sm1  1  0.301651  0.698349  0.000000  1
  Ag  Ag2  1  0.684879  0.684879  0.481115  1
  Ag  Ag3  1  0.315121  0.315121  0.518885  1
  W  W4  1  0.210868  0.210868  0.031594  1
  W  W5  1  0.789132  0.789132  0.968406  1
  W  W6  1  0.837617  0.162383  0.500000  1
  W  W7  1  0.162383  0.837617  0.500000  1
  O  O8  1  0.349008  0.100716  0.242759  1
  O  O9  1  0.650992  0.899284  0.757241  1
  O  O10  1  0.899284  0.650992  0.757241  1
  O  O11  1  0.100716  0.349008  0.242759  1
  O  O12  1  0.687189  0.214059  0.355647  1
  O  O13  1  0.312811  0.785941  0.644353  1
  O  O14  1  0.785941  0.312811  0.644353  1
  O  O15  1  0.214059  0.687189  0.355647  1
  O  O16  1  0.699291  0.954857  0.088420  1
  O  O17  1  0.300709  0.045143  0.911580  1
  O  O18  1  0.045143  0.300709  0.911580  1
  O  O19  1  0.954857  0.699291  0.088420  1
  O  O20  1  0.978774  0.978774  0.341292  1
  O  O21  1  0.021226  0.021226  0.658708  1
  O  O22  1  0.557782  0.557782  0.136371  1
  O  O23  1  0.442218  0.442218  0.863629  1
