# generated using pymatgen
data_Dy3Tm13(In3Ru)2
_symmetry_space_group_name_H-M   'P 1'
_cell_length_a   10.28149107
_cell_length_b   10.28299519
_cell_length_c   7.01075100
_cell_angle_alpha   90.00085816
_cell_angle_beta   89.99944903
_cell_angle_gamma   120.00881082
_symmetry_Int_Tables_number   1
_chemical_formula_structural   Dy3Tm13(In3Ru)2
_chemical_formula_sum   'Dy3 Tm13 In6 Ru2'
_cell_volume   641.84822530
_cell_formula_units_Z   1
loop_
 _symmetry_equiv_pos_site_id
 _symmetry_equiv_pos_as_xyz
  1  'x, y, z'
loop_
 _atom_site_type_symbol
 _atom_site_label
 _atom_site_symmetry_multiplicity
 _atom_site_fract_x
 _atom_site_fract_y
 _atom_site_fract_z
 _atom_site_occupancy
  Dy  Dy0  1  0.532310  0.064589  0.515850  1
  Dy  Dy1  1  0.935390  0.467687  0.515843  1
  Dy  Dy2  1  0.532294  0.467720  0.515845  1
  Tm  Tm3  1  0.466453  0.932928  0.016291  1
  Tm  Tm4  1  0.067093  0.533551  0.016285  1
  Tm  Tm5  1  0.466464  0.533523  0.016278  1
  Tm  Tm6  1  0.177278  0.354567  0.720567  1
  Tm  Tm7  1  0.645413  0.822710  0.720581  1
  Tm  Tm8  1  0.177276  0.822720  0.720565  1
  Tm  Tm9  1  0.822921  0.645833  0.218248  1
  Tm  Tm10  1  0.354183  0.177089  0.218260  1
  Tm  Tm11  1  0.822924  0.177080  0.218247  1
  Tm  Tm12  1  0.666658  0.333335  0.895805  1
  Tm  Tm13  1  0.333338  0.666669  0.394794  1
  Tm  Tm14  1  0.999994  0.999998  0.500055  1
  Tm  Tm15  1  0.000006  0.000002  0.000329  1
  In  In16  1  0.837457  0.674918  0.762678  1
  In  In17  1  0.325077  0.162539  0.762676  1
  In  In18  1  0.837459  0.162537  0.762693  1
  In  In19  1  0.162996  0.325988  0.262005  1
  In  In20  1  0.674017  0.837008  0.262000  1
  In  In21  1  0.162996  0.837009  0.262023  1
  Ru  Ru22  1  0.666636  0.333332  0.289054  1
  Ru  Ru23  1  0.333366  0.666669  0.791031  1
