# generated using pymatgen
data_ErTm3Ga12Co
_symmetry_space_group_name_H-M   'P 1'
_cell_length_a   7.36667380
_cell_length_b   7.37155718
_cell_length_c   7.37155820
_cell_angle_alpha   109.48463409
_cell_angle_beta   109.45778973
_cell_angle_gamma   109.45780250
_symmetry_Int_Tables_number   1
_chemical_formula_structural   ErTm3Ga12Co
_chemical_formula_sum   'Er1 Tm3 Ga12 Co1'
_cell_volume   308.20526527
_cell_formula_units_Z   1
loop_
 _symmetry_equiv_pos_site_id
 _symmetry_equiv_pos_as_xyz
  1  'x, y, z'
loop_
 _atom_site_type_symbol
 _atom_site_label
 _atom_site_symmetry_multiplicity
 _atom_site_fract_x
 _atom_site_fract_y
 _atom_site_fract_z
 _atom_site_occupancy
  Er  Er0  1  0.500000  0.000000  0.000000  1
  Tm  Tm1  1  0.500000  0.500000  0.500000  1
  Tm  Tm2  1  0.000000  0.500000  0.000000  1
  Tm  Tm3  1  0.000000  0.000000  0.500000  1
  Ga  Ga4  1  0.750036  0.250036  0.500073  1
  Ga  Ga5  1  0.000078  0.281755  0.281755  1
  Ga  Ga6  1  0.281677  0.281755  0.000000  1
  Ga  Ga7  1  0.718323  0.000000  0.718245  1
  Ga  Ga8  1  0.500000  0.250036  0.749964  1
  Ga  Ga9  1  0.750036  0.500073  0.250036  1
  Ga  Ga10  1  0.249964  0.749964  0.499927  1
  Ga  Ga11  1  0.249964  0.499927  0.749964  1
  Ga  Ga12  1  0.281677  0.000000  0.281755  1
  Ga  Ga13  1  0.500000  0.749964  0.250036  1
  Ga  Ga14  1  0.718323  0.718245  0.000000  1
  Ga  Ga15  1  0.999922  0.718245  0.718245  1
  Co  Co16  1  0.000000  0.000000  0.000000  1
