# generated using pymatgen
data_Tb4FePt3O14
_symmetry_space_group_name_H-M   'P 1'
_cell_length_a   7.24653131
_cell_length_b   7.24653134
_cell_length_c   7.31777858
_cell_angle_alpha   60.32154736
_cell_angle_beta   60.32154817
_cell_angle_gamma   60.00000066
_symmetry_Int_Tables_number   1
_chemical_formula_structural   Tb4FePt3O14
_chemical_formula_sum   'Tb4 Fe1 Pt3 O14'
_cell_volume   273.03502455
_cell_formula_units_Z   1
loop_
 _symmetry_equiv_pos_site_id
 _symmetry_equiv_pos_as_xyz
  1  'x, y, z'
loop_
 _atom_site_type_symbol
 _atom_site_label
 _atom_site_symmetry_multiplicity
 _atom_site_fract_x
 _atom_site_fract_y
 _atom_site_fract_z
 _atom_site_occupancy
  Tb  Tb0  1  0.625000  0.625000  0.125000  1
  Tb  Tb1  1  0.625000  0.625000  0.625000  1
  Tb  Tb2  1  0.625000  0.125000  0.625000  1
  Tb  Tb3  1  0.125000  0.625000  0.625000  1
  Fe  Fe4  1  0.125000  0.125000  0.625000  1
  Pt  Pt5  1  0.125000  0.125000  0.125000  1
  Pt  Pt6  1  0.625000  0.125000  0.125000  1
  Pt  Pt7  1  0.125000  0.625000  0.125000  1
  O  O8  1  0.036525  0.466113  0.460837  1
  O  O9  1  0.787005  0.787005  0.210682  1
  O  O10  1  0.787005  0.215308  0.210682  1
  O  O11  1  0.466113  0.036525  0.460837  1
  O  O12  1  0.034692  0.462995  0.039318  1
  O  O13  1  0.748125  0.748125  0.755624  1
  O  O14  1  0.036525  0.036525  0.460837  1
  O  O15  1  0.215308  0.787005  0.210682  1
  O  O16  1  0.213475  0.213475  0.789163  1
  O  O17  1  0.501875  0.501875  0.494376  1
  O  O18  1  0.783887  0.213475  0.789163  1
  O  O19  1  0.462995  0.034692  0.039318  1
  O  O20  1  0.462995  0.462995  0.039318  1
  O  O21  1  0.213475  0.783887  0.789163  1
