# generated using pymatgen
data_Tm4Lu12Cd3InNi4
_symmetry_space_group_name_H-M   'P 1'
_cell_length_a   9.36279733
_cell_length_b   9.36279846
_cell_length_c   9.36279731
_cell_angle_alpha   60.10817477
_cell_angle_beta   60.10816873
_cell_angle_gamma   60.10817434
_symmetry_Int_Tables_number   1
_chemical_formula_structural   Tm4Lu12Cd3InNi4
_chemical_formula_sum   'Tm4 Lu12 Cd3 In1 Ni4'
_cell_volume   581.78834493
_cell_formula_units_Z   1
loop_
 _symmetry_equiv_pos_site_id
 _symmetry_equiv_pos_as_xyz
  1  'x, y, z'
loop_
 _atom_site_type_symbol
 _atom_site_label
 _atom_site_symmetry_multiplicity
 _atom_site_fract_x
 _atom_site_fract_y
 _atom_site_fract_z
 _atom_site_occupancy
  Tm  Tm0  1  0.348107  0.348107  0.348107  1
  Tm  Tm1  1  0.348449  0.348449  0.955268  1
  Tm  Tm2  1  0.348449  0.955268  0.348449  1
  Tm  Tm3  1  0.955268  0.348449  0.348449  1
  Lu  Lu4  1  0.812096  0.187716  0.187716  1
  Lu  Lu5  1  0.187877  0.811666  0.811666  1
  Lu  Lu6  1  0.187716  0.812096  0.187716  1
  Lu  Lu7  1  0.811666  0.187877  0.811666  1
  Lu  Lu8  1  0.187716  0.187716  0.812096  1
  Lu  Lu9  1  0.811666  0.811666  0.187877  1
  Lu  Lu10  1  0.938352  0.563508  0.563508  1
  Lu  Lu11  1  0.564016  0.936686  0.936686  1
  Lu  Lu12  1  0.563508  0.938352  0.563508  1
  Lu  Lu13  1  0.936686  0.564016  0.936686  1
  Lu  Lu14  1  0.563508  0.563508  0.938352  1
  Lu  Lu15  1  0.936686  0.936686  0.564016  1
  Cd  Cd16  1  0.581715  0.581715  0.252641  1
  Cd  Cd17  1  0.581715  0.252641  0.581715  1
  Cd  Cd18  1  0.252641  0.581715  0.581715  1
  In  In19  1  0.582114  0.582114  0.582114  1
  Ni  Ni20  1  0.142274  0.142274  0.142274  1
  Ni  Ni21  1  0.142027  0.142027  0.573717  1
  Ni  Ni22  1  0.142027  0.573717  0.142027  1
  Ni  Ni23  1  0.573717  0.142027  0.142027  1
