# generated using pymatgen
data_CoCuBiO5
_symmetry_space_group_name_H-M   'P 1'
_cell_length_a   5.68641400
_cell_length_b   7.62208900
_cell_length_c   8.48850400
_cell_angle_alpha   90.00000000
_cell_angle_beta   90.00000000
_cell_angle_gamma   90.00000000
_symmetry_Int_Tables_number   1
_chemical_formula_structural   CoCuBiO5
_chemical_formula_sum   'Co4 Cu4 Bi4 O20'
_cell_volume   367.91174189
_cell_formula_units_Z   4
loop_
 _symmetry_equiv_pos_site_id
 _symmetry_equiv_pos_as_xyz
  1  'x, y, z'
loop_
 _atom_site_type_symbol
 _atom_site_label
 _atom_site_symmetry_multiplicity
 _atom_site_fract_x
 _atom_site_fract_y
 _atom_site_fract_z
 _atom_site_occupancy
  Co  Co0  1  0.260287  0.500000  0.000000  1
  Co  Co1  1  0.739713  0.000000  0.500000  1
  Co  Co2  1  0.739713  0.500000  0.000000  1
  Co  Co3  1  0.260287  0.000000  0.500000  1
  Cu  Cu4  1  0.500000  0.920540  0.155005  1
  Cu  Cu5  1  0.500000  0.079460  0.844995  1
  Cu  Cu6  1  0.500000  0.420540  0.344995  1
  Cu  Cu7  1  0.500000  0.579460  0.655005  1
  Bi  Bi8  1  0.000000  0.655573  0.330649  1
  Bi  Bi9  1  0.000000  0.344427  0.669351  1
  Bi  Bi10  1  0.000000  0.155573  0.169351  1
  Bi  Bi11  1  0.000000  0.844427  0.830649  1
  O  O12  1  0.000000  0.653167  0.056592  1
  O  O13  1  0.000000  0.346833  0.943408  1
  O  O14  1  0.000000  0.153167  0.443408  1
  O  O15  1  0.000000  0.846833  0.556592  1
  O  O16  1  0.283316  0.500000  0.500000  1
  O  O17  1  0.716684  0.000000  0.000000  1
  O  O18  1  0.716684  0.500000  0.500000  1
  O  O19  1  0.283316  0.000000  0.000000  1
  O  O20  1  0.500000  0.636905  0.070086  1
  O  O21  1  0.500000  0.363095  0.929914  1
  O  O22  1  0.500000  0.136905  0.429914  1
  O  O23  1  0.500000  0.863095  0.570086  1
  O  O24  1  0.247913  0.894781  0.296845  1
  O  O25  1  0.247913  0.105219  0.703155  1
  O  O26  1  0.752087  0.394781  0.203155  1
  O  O27  1  0.752087  0.605219  0.796845  1
  O  O28  1  0.752087  0.105219  0.703155  1
  O  O29  1  0.752087  0.894781  0.296845  1
  O  O30  1  0.247913  0.605219  0.796845  1
  O  O31  1  0.247913  0.394781  0.203155  1
