# generated using pymatgen
data_LaNd3(GaRh)4
_symmetry_space_group_name_H-M   'P 1'
_cell_length_a   4.40662800
_cell_length_b   7.07210711
_cell_length_c   7.93482060
_cell_angle_alpha   89.74516368
_cell_angle_beta   90.00000000
_cell_angle_gamma   90.00000000
_symmetry_Int_Tables_number   1
_chemical_formula_structural   LaNd3(GaRh)4
_chemical_formula_sum   'La1 Nd3 Ga4 Rh4'
_cell_volume   247.27945566
_cell_formula_units_Z   1
loop_
 _symmetry_equiv_pos_site_id
 _symmetry_equiv_pos_as_xyz
  1  'x, y, z'
loop_
 _atom_site_type_symbol
 _atom_site_label
 _atom_site_symmetry_multiplicity
 _atom_site_fract_x
 _atom_site_fract_y
 _atom_site_fract_z
 _atom_site_occupancy
  La  La0  1  0.250000  0.026192  0.688720  1
  Nd  Nd1  1  0.250000  0.525624  0.808824  1
  Nd  Nd2  1  0.750000  0.973832  0.305465  1
  Nd  Nd3  1  0.750000  0.474278  0.191795  1
  Ga  Ga4  1  0.250000  0.158880  0.075137  1
  Ga  Ga5  1  0.250000  0.655332  0.426226  1
  Ga  Ga6  1  0.750000  0.838857  0.928518  1
  Ga  Ga7  1  0.750000  0.346904  0.572001  1
  Rh  Rh8  1  0.250000  0.277568  0.397250  1
  Rh  Rh9  1  0.250000  0.777688  0.104508  1
  Rh  Rh10  1  0.750000  0.723158  0.604403  1
  Rh  Rh11  1  0.750000  0.221688  0.897152  1
