# generated using pymatgen
data_V3(BiSe3)2
_symmetry_space_group_name_H-M   'P 1'
_cell_length_a   5.78882100
_cell_length_b   5.78882171
_cell_length_c   18.09433700
_cell_angle_alpha   90.00000000
_cell_angle_beta   90.00000000
_cell_angle_gamma   120.00001307
_symmetry_Int_Tables_number   1
_chemical_formula_structural   V3(BiSe3)2
_chemical_formula_sum   'V6 Bi4 Se12'
_cell_volume   525.11393559
_cell_formula_units_Z   2
loop_
 _symmetry_equiv_pos_site_id
 _symmetry_equiv_pos_as_xyz
  1  'x, y, z'
loop_
 _atom_site_type_symbol
 _atom_site_label
 _atom_site_symmetry_multiplicity
 _atom_site_fract_x
 _atom_site_fract_y
 _atom_site_fract_z
 _atom_site_occupancy
  V  V0  1  0.677046  0.677046  0.750000  1
  V  V1  1  0.322954  0.000000  0.750000  1
  V  V2  1  0.000000  0.322954  0.750000  1
  V  V3  1  0.322954  0.322954  0.250000  1
  V  V4  1  0.677046  0.000000  0.250000  1
  V  V5  1  0.000000  0.677046  0.250000  1
  Bi  Bi6  1  0.666667  0.333333  0.000000  1
  Bi  Bi7  1  0.333333  0.666667  0.000000  1
  Bi  Bi8  1  0.333333  0.666667  0.500000  1
  Bi  Bi9  1  0.666667  0.333333  0.500000  1
  Se  Se10  1  0.000000  0.000000  0.839734  1
  Se  Se11  1  0.000000  0.000000  0.160266  1
  Se  Se12  1  0.000000  0.000000  0.339734  1
  Se  Se13  1  0.000000  0.000000  0.660266  1
  Se  Se14  1  0.666667  0.333333  0.834677  1
  Se  Se15  1  0.333333  0.666667  0.834677  1
  Se  Se16  1  0.333333  0.666667  0.165323  1
  Se  Se17  1  0.666667  0.333333  0.165323  1
  Se  Se18  1  0.333333  0.666667  0.334677  1
  Se  Se19  1  0.666667  0.333333  0.334677  1
  Se  Se20  1  0.666667  0.333333  0.665323  1
  Se  Se21  1  0.333333  0.666667  0.665323  1
