# generated using pymatgen
data_NdHo2Mg3Ga2Hg
_symmetry_space_group_name_H-M   'P 1'
_cell_length_a   7.39851800
_cell_length_b   7.48734453
_cell_length_c   4.42678700
_cell_angle_alpha   90.00000000
_cell_angle_beta   90.00000000
_cell_angle_gamma   119.60833542
_symmetry_Int_Tables_number   1
_chemical_formula_structural   NdHo2Mg3Ga2Hg
_chemical_formula_sum   'Nd1 Ho2 Mg3 Ga2 Hg1'
_cell_volume   213.20252004
_cell_formula_units_Z   1
loop_
 _symmetry_equiv_pos_site_id
 _symmetry_equiv_pos_as_xyz
  1  'x, y, z'
loop_
 _atom_site_type_symbol
 _atom_site_label
 _atom_site_symmetry_multiplicity
 _atom_site_fract_x
 _atom_site_fract_y
 _atom_site_fract_z
 _atom_site_occupancy
  Nd  Nd0  1  0.427701  0.000000  0.000000  1
  Ho  Ho1  1  0.001134  0.426673  0.000000  1
  Ho  Ho2  1  0.574461  0.573327  0.000000  1
  Mg  Mg3  1  0.998538  0.749372  0.500000  1
  Mg  Mg4  1  0.249166  0.250628  0.500000  1
  Mg  Mg5  1  0.751897  0.000000  0.500000  1
  Ga  Ga6  1  0.671576  0.339531  0.500000  1
  Ga  Ga7  1  0.332044  0.660469  0.500000  1
  Hg  Hg8  1  0.993483  0.000000  0.000000  1
