# generated using pymatgen
data_CeHo(Co3P2)2
_symmetry_space_group_name_H-M   'P 1'
_cell_length_a   3.72063800
_cell_length_b   10.53566522
_cell_length_c   12.21289189
_cell_angle_alpha   90.15973284
_cell_angle_beta   90.00000000
_cell_angle_gamma   90.00000000
_symmetry_Int_Tables_number   1
_chemical_formula_structural   CeHo(Co3P2)2
_chemical_formula_sum   'Ce3 Ho3 Co18 P12'
_cell_volume   478.73612937
_cell_formula_units_Z   3
loop_
 _symmetry_equiv_pos_site_id
 _symmetry_equiv_pos_as_xyz
  1  'x, y, z'
loop_
 _atom_site_type_symbol
 _atom_site_label
 _atom_site_symmetry_multiplicity
 _atom_site_fract_x
 _atom_site_fract_y
 _atom_site_fract_z
 _atom_site_occupancy
  Ce  Ce0  1  0.000000  0.499721  0.526581  1
  Ce  Ce1  1  0.500000  0.001027  0.475062  1
  Ce  Ce2  1  0.500000  0.818680  0.206938  1
  Ho  Ho3  1  0.500000  0.185855  0.204429  1
  Ho  Ho4  1  0.000000  0.683975  0.795674  1
  Ho  Ho5  1  0.000000  0.315517  0.794660  1
  Co  Co6  1  0.000000  0.498939  0.983816  1
  Co  Co7  1  0.500000  0.001172  0.013353  1
  Co  Co8  1  0.500000  0.298447  0.429933  1
  Co  Co9  1  0.500000  0.700262  0.431683  1
  Co  Co10  1  0.000000  0.200604  0.569680  1
  Co  Co11  1  0.000000  0.798993  0.571706  1
  Co  Co12  1  0.500000  0.879927  0.712056  1
  Co  Co13  1  0.500000  0.119963  0.711101  1
  Co  Co14  1  0.000000  0.620347  0.289156  1
  Co  Co15  1  0.000000  0.379656  0.288440  1
  Co  Co16  1  0.500000  0.333819  0.994040  1
  Co  Co17  1  0.500000  0.665691  0.994200  1
  Co  Co18  1  0.000000  0.167858  0.004607  1
  Co  Co19  1  0.000000  0.834125  0.004469  1
  Co  Co20  1  0.500000  0.499685  0.158685  1
  Co  Co21  1  0.000000  0.999942  0.841605  1
  Co  Co22  1  0.500000  0.499495  0.701074  1
  Co  Co23  1  0.000000  0.997418  0.297630  1
  P  P24  1  0.500000  0.306921  0.616788  1
  P  P25  1  0.500000  0.692242  0.618474  1
  P  P26  1  0.000000  0.192328  0.382552  1
  P  P27  1  0.000000  0.805918  0.387949  1
  P  P28  1  0.500000  0.499458  0.880337  1
  P  P29  1  0.000000  0.003117  0.115879  1
  P  P30  1  0.500000  0.846959  0.894049  1
  P  P31  1  0.500000  0.153686  0.893191  1
  P  P32  1  0.000000  0.651176  0.103853  1
  P  P33  1  0.000000  0.347905  0.105538  1
  P  P34  1  0.500000  0.499271  0.342626  1
  P  P35  1  0.000000  0.999901  0.658187  1
