# generated using pymatgen
data_Th5(FeTe)2
_symmetry_space_group_name_H-M   'P 1'
_cell_length_a   7.71449572
_cell_length_b   7.71449620
_cell_length_c   15.53807600
_cell_angle_alpha   90.00000000
_cell_angle_beta   90.00000000
_cell_angle_gamma   148.65412100
_symmetry_Int_Tables_number   1
_chemical_formula_structural   Th5(FeTe)2
_chemical_formula_sum   'Th10 Fe4 Te4'
_cell_volume   481.04458053
_cell_formula_units_Z   2
loop_
 _symmetry_equiv_pos_site_id
 _symmetry_equiv_pos_as_xyz
  1  'x, y, z'
loop_
 _atom_site_type_symbol
 _atom_site_label
 _atom_site_symmetry_multiplicity
 _atom_site_fract_x
 _atom_site_fract_y
 _atom_site_fract_z
 _atom_site_occupancy
  Th  Th0  1  0.958247  0.041753  0.367933  1
  Th  Th1  1  0.041753  0.958247  0.632067  1
  Th  Th2  1  0.041753  0.958247  0.867933  1
  Th  Th3  1  0.958247  0.041753  0.132067  1
  Th  Th4  1  0.740251  0.259749  0.632057  1
  Th  Th5  1  0.259749  0.740251  0.367943  1
  Th  Th6  1  0.259749  0.740251  0.132057  1
  Th  Th7  1  0.740251  0.259749  0.867943  1
  Th  Th8  1  0.390352  0.609648  0.750000  1
  Th  Th9  1  0.609648  0.390352  0.250000  1
  Fe  Fe10  1  0.786201  0.213799  0.250000  1
  Fe  Fe11  1  0.213799  0.786201  0.750000  1
  Fe  Fe12  1  0.431565  0.568435  0.250000  1
  Fe  Fe13  1  0.568435  0.431565  0.750000  1
  Te  Te14  1  0.614103  0.385897  0.038836  1
  Te  Te15  1  0.385897  0.614103  0.961164  1
  Te  Te16  1  0.385897  0.614103  0.538836  1
  Te  Te17  1  0.614103  0.385897  0.461164  1
