# generated using pymatgen
data_Rb4Ba2ZrP4
_symmetry_space_group_name_H-M   'P 1'
_cell_length_a   10.71205483
_cell_length_b   10.71205497
_cell_length_c   8.06205756
_cell_angle_alpha   88.29617090
_cell_angle_beta   88.29617294
_cell_angle_gamma   119.57075429
_symmetry_Int_Tables_number   1
_chemical_formula_structural   Rb4Ba2ZrP4
_chemical_formula_sum   'Rb8 Ba4 Zr2 P8'
_cell_volume   803.20247231
_cell_formula_units_Z   2
loop_
 _symmetry_equiv_pos_site_id
 _symmetry_equiv_pos_as_xyz
  1  'x, y, z'
loop_
 _atom_site_type_symbol
 _atom_site_label
 _atom_site_symmetry_multiplicity
 _atom_site_fract_x
 _atom_site_fract_y
 _atom_site_fract_z
 _atom_site_occupancy
  Rb  Rb0  1  0.059234  0.526782  0.612743  1
  Rb  Rb1  1  0.526782  0.059234  0.112743  1
  Rb  Rb2  1  0.276948  0.132320  0.824902  1
  Rb  Rb3  1  0.872373  0.732950  0.764617  1
  Rb  Rb4  1  0.859929  0.142440  0.798210  1
  Rb  Rb5  1  0.732950  0.872373  0.264617  1
  Rb  Rb6  1  0.132320  0.276948  0.324902  1
  Rb  Rb7  1  0.142440  0.859929  0.298210  1
  Ba  Ba8  1  0.465059  0.930142  0.602828  1
  Ba  Ba9  1  0.465007  0.525264  0.619534  1
  Ba  Ba10  1  0.930142  0.465059  0.102828  1
  Ba  Ba11  1  0.525264  0.465007  0.119534  1
  Zr  Zr12  1  0.666404  0.335899  0.512010  1
  Zr  Zr13  1  0.335899  0.666404  0.012010  1
  P  P14  1  0.672934  0.358476  0.830330  1
  P  P15  1  0.358476  0.672934  0.330330  1
  P  P16  1  0.589412  0.786844  0.873336  1
  P  P17  1  0.207826  0.404238  0.924974  1
  P  P18  1  0.200370  0.789149  0.905263  1
  P  P19  1  0.404238  0.207826  0.424974  1
  P  P20  1  0.786844  0.589412  0.373336  1
  P  P21  1  0.789149  0.200370  0.405263  1
