# generated using pymatgen
data_CrCu3(SeS)2
_symmetry_space_group_name_H-M   'P 1'
_cell_length_a   5.50561868
_cell_length_b   5.50561786
_cell_length_c   5.50018100
_cell_angle_alpha   90.00000000
_cell_angle_beta   90.00000000
_cell_angle_gamma   91.70661144
_symmetry_Int_Tables_number   1
_chemical_formula_structural   CrCu3(SeS)2
_chemical_formula_sum   'Cr1 Cu3 Se2 S2'
_cell_volume   166.64661330
_cell_formula_units_Z   1
loop_
 _symmetry_equiv_pos_site_id
 _symmetry_equiv_pos_as_xyz
  1  'x, y, z'
loop_
 _atom_site_type_symbol
 _atom_site_label
 _atom_site_symmetry_multiplicity
 _atom_site_fract_x
 _atom_site_fract_y
 _atom_site_fract_z
 _atom_site_occupancy
  Cr  Cr0  1  0.000000  0.000000  0.000177  1
  Cu  Cu1  1  0.500000  0.000000  0.013491  1
  Cu  Cu2  1  0.000000  0.500000  0.013491  1
  Cu  Cu3  1  0.000000  0.000000  0.492404  1
  Se  Se4  1  0.749640  0.749640  0.756991  1
  Se  Se5  1  0.250360  0.250360  0.756991  1
  S  S6  1  0.226660  0.773340  0.233227  1
  S  S7  1  0.773340  0.226660  0.233227  1
