# generated using pymatgen
data_TbTh3ScRu3
_symmetry_space_group_name_H-M   'P 1'
_cell_length_a   6.39618100
_cell_length_b   8.22654889
_cell_length_c   8.22654900
_cell_angle_alpha   120.00000448
_cell_angle_beta   90.00000000
_cell_angle_gamma   90.00000000
_symmetry_Int_Tables_number   1
_chemical_formula_structural   TbTh3ScRu3
_chemical_formula_sum   'Tb2 Th6 Sc2 Ru6'
_cell_volume   374.87521582
_cell_formula_units_Z   2
loop_
 _symmetry_equiv_pos_site_id
 _symmetry_equiv_pos_as_xyz
  1  'x, y, z'
loop_
 _atom_site_type_symbol
 _atom_site_label
 _atom_site_symmetry_multiplicity
 _atom_site_fract_x
 _atom_site_fract_y
 _atom_site_fract_z
 _atom_site_occupancy
  Tb  Tb0  1  0.000000  0.666667  0.333333  1
  Tb  Tb1  1  0.000000  0.333333  0.666667  1
  Th  Th2  1  0.744767  0.744279  0.744279  1
  Th  Th3  1  0.255233  0.255721  0.255721  1
  Th  Th4  1  0.744767  0.000000  0.255721  1
  Th  Th5  1  0.255233  0.000000  0.744279  1
  Th  Th6  1  0.744767  0.255721  0.000000  1
  Th  Th7  1  0.255233  0.744279  0.000000  1
  Sc  Sc8  1  0.500000  0.333333  0.666667  1
  Sc  Sc9  1  0.500000  0.666667  0.333333  1
  Ru  Ru10  1  0.730633  0.379340  0.379340  1
  Ru  Ru11  1  0.269367  0.620660  0.620660  1
  Ru  Ru12  1  0.730633  0.000000  0.620660  1
  Ru  Ru13  1  0.269367  0.000000  0.379340  1
  Ru  Ru14  1  0.730633  0.620660  0.000000  1
  Ru  Ru15  1  0.269367  0.379340  0.000000  1
