# generated using pymatgen
data_Pr4MnFeN6
_symmetry_space_group_name_H-M   'P 1'
_cell_length_a   6.15436499
_cell_length_b   6.15436510
_cell_length_c   11.93078821
_cell_angle_alpha   90.04604341
_cell_angle_beta   89.95395656
_cell_angle_gamma   127.92702564
_symmetry_Int_Tables_number   1
_chemical_formula_structural   Pr4MnFeN6
_chemical_formula_sum   'Pr8 Mn2 Fe2 N12'
_cell_volume   356.45047948
_cell_formula_units_Z   2
loop_
 _symmetry_equiv_pos_site_id
 _symmetry_equiv_pos_as_xyz
  1  'x, y, z'
loop_
 _atom_site_type_symbol
 _atom_site_label
 _atom_site_symmetry_multiplicity
 _atom_site_fract_x
 _atom_site_fract_y
 _atom_site_fract_z
 _atom_site_occupancy
  Pr  Pr0  1  0.441156  0.558844  0.353827  1
  Pr  Pr1  1  0.558844  0.441156  0.646173  1
  Pr  Pr2  1  0.056375  0.943625  0.857868  1
  Pr  Pr3  1  0.943625  0.056375  0.142132  1
  Pr  Pr4  1  0.142163  0.857837  0.428584  1
  Pr  Pr5  1  0.857837  0.142163  0.571416  1
  Pr  Pr6  1  0.355894  0.644106  0.930740  1
  Pr  Pr7  1  0.644106  0.355894  0.069260  1
  Mn  Mn8  1  0.238935  0.761065  0.661804  1
  Mn  Mn9  1  0.761065  0.238935  0.338196  1
  Fe  Fe10  1  0.259095  0.740905  0.160963  1
  Fe  Fe11  1  0.740905  0.259095  0.839037  1
  N  N12  1  0.148657  0.851343  0.039366  1
  N  N13  1  0.851343  0.148657  0.960634  1
  N  N14  1  0.347964  0.652036  0.540263  1
  N  N15  1  0.652036  0.347964  0.459737  1
  N  N16  1  0.437282  0.562718  0.133397  1
  N  N17  1  0.562718  0.437282  0.866603  1
  N  N18  1  0.065374  0.934626  0.631208  1
  N  N19  1  0.934626  0.065374  0.368792  1
  N  N20  1  0.995966  0.504272  0.251804  1
  N  N21  1  0.504272  0.995966  0.748196  1
  N  N22  1  0.004034  0.495728  0.748196  1
  N  N23  1  0.495728  0.004034  0.251804  1
