# generated using pymatgen
data_Tb2LuMg3Si2Ag
_symmetry_space_group_name_H-M   'P 1'
_cell_length_a   7.26276000
_cell_length_b   7.22121576
_cell_length_c   4.31415300
_cell_angle_alpha   90.00000000
_cell_angle_beta   90.00000000
_cell_angle_gamma   120.19048440
_symmetry_Int_Tables_number   1
_chemical_formula_structural   Tb2LuMg3Si2Ag
_chemical_formula_sum   'Tb2 Lu1 Mg3 Si2 Ag1'
_cell_volume   195.56961444
_cell_formula_units_Z   1
loop_
 _symmetry_equiv_pos_site_id
 _symmetry_equiv_pos_as_xyz
  1  'x, y, z'
loop_
 _atom_site_type_symbol
 _atom_site_label
 _atom_site_symmetry_multiplicity
 _atom_site_fract_x
 _atom_site_fract_y
 _atom_site_fract_z
 _atom_site_occupancy
  Tb  Tb0  1  0.002044  0.578025  0.000000  1
  Tb  Tb1  1  0.424019  0.421975  0.000000  1
  Lu  Lu2  1  0.577516  0.000000  0.000000  1
  Mg  Mg3  1  0.249067  0.000000  0.500000  1
  Mg  Mg4  1  0.999148  0.247299  0.500000  1
  Mg  Mg5  1  0.751848  0.752701  0.500000  1
  Si  Si6  1  0.336296  0.670760  0.500000  1
  Si  Si7  1  0.665537  0.329240  0.500000  1
  Ag  Ag8  1  0.994526  0.000000  0.000000  1
