# generated using pymatgen
data_Tb8Ho8MgIn3Ru4
_symmetry_space_group_name_H-M   'P 1'
_cell_length_a   9.65348509
_cell_length_b   9.63740738
_cell_length_c   9.68074300
_cell_angle_alpha   59.85113824
_cell_angle_beta   59.90654747
_cell_angle_gamma   59.84368744
_symmetry_Int_Tables_number   1
_chemical_formula_structural   Tb8Ho8MgIn3Ru4
_chemical_formula_sum   'Tb8 Ho8 Mg1 In3 Ru4'
_cell_volume   634.93065286
_cell_formula_units_Z   1
loop_
 _symmetry_equiv_pos_site_id
 _symmetry_equiv_pos_as_xyz
  1  'x, y, z'
loop_
 _atom_site_type_symbol
 _atom_site_label
 _atom_site_symmetry_multiplicity
 _atom_site_fract_x
 _atom_site_fract_y
 _atom_site_fract_z
 _atom_site_occupancy
  Tb  Tb0  1  0.438976  0.437955  0.061534  1
  Tb  Tb1  1  0.058806  0.058664  0.441265  1
  Tb  Tb2  1  0.189953  0.809333  0.809113  1
  Tb  Tb3  1  0.809525  0.190345  0.191087  1
  Tb  Tb4  1  0.809525  0.190345  0.809043  1
  Tb  Tb5  1  0.189953  0.809333  0.191601  1
  Tb  Tb6  1  0.809299  0.809535  0.190583  1
  Tb  Tb7  1  0.191666  0.191235  0.808550  1
  Ho  Ho8  1  0.597344  0.596633  0.595431  1
  Ho  Ho9  1  0.597344  0.596633  0.210592  1
  Ho  Ho10  1  0.597825  0.211145  0.595515  1
  Ho  Ho11  1  0.206692  0.597657  0.597827  1
  Ho  Ho12  1  0.057979  0.441211  0.442676  1
  Ho  Ho13  1  0.438832  0.060678  0.061225  1
  Ho  Ho14  1  0.438832  0.060678  0.439265  1
  Ho  Ho15  1  0.057979  0.441211  0.058134  1
  Mg  Mg16  1  0.520536  0.826349  0.826557  1
  In  In17  1  0.830473  0.832057  0.832744  1
  In  In18  1  0.830473  0.832057  0.504725  1
  In  In19  1  0.830355  0.504343  0.832650  1
  Ru  Ru20  1  0.388160  0.390219  0.389589  1
  Ru  Ru21  1  0.388160  0.390219  0.832030  1
  Ru  Ru22  1  0.390286  0.830785  0.389464  1
  Ru  Ru23  1  0.831020  0.391379  0.388801  1
