# generated using pymatgen
data_DyY5B14RuW
_symmetry_space_group_name_H-M   'P 1'
_cell_length_a   8.12831402
_cell_length_b   8.12831362
_cell_length_c   9.40795302
_cell_angle_alpha   90.00671203
_cell_angle_beta   89.99328902
_cell_angle_gamma   155.11625297
_symmetry_Int_Tables_number   1
_chemical_formula_structural   DyY5B14RuW
_chemical_formula_sum   'Dy1 Y5 B14 Ru1 W1'
_cell_volume   261.54691403
_cell_formula_units_Z   1
loop_
 _symmetry_equiv_pos_site_id
 _symmetry_equiv_pos_as_xyz
  1  'x, y, z'
loop_
 _atom_site_type_symbol
 _atom_site_label
 _atom_site_symmetry_multiplicity
 _atom_site_fract_x
 _atom_site_fract_y
 _atom_site_fract_z
 _atom_site_occupancy
  Dy  Dy0  1  0.107080  0.892920  0.941547  1
  Y  Y1  1  0.894058  0.105942  0.437252  1
  Y  Y2  1  0.107111  0.892889  0.558617  1
  Y  Y3  1  0.894068  0.105932  0.062746  1
  Y  Y4  1  0.243244  0.756756  0.250006  1
  Y  Y5  1  0.754772  0.245228  0.750031  1
  B  B6  1  0.726532  0.273468  0.465241  1
  B  B7  1  0.272026  0.727974  0.531748  1
  B  B8  1  0.726504  0.273496  0.034723  1
  B  B9  1  0.272001  0.727999  0.968239  1
  B  B10  1  0.631534  0.368466  0.151554  1
  B  B11  1  0.365216  0.634784  0.852861  1
  B  B12  1  0.631541  0.368459  0.348380  1
  B  B13  1  0.365213  0.634787  0.647141  1
  B  B14  1  0.521352  0.478648  0.096674  1
  B  B15  1  0.480402  0.519598  0.908975  1
  B  B16  1  0.521311  0.478689  0.403266  1
  B  B17  1  0.480367  0.519633  0.590999  1
  B  B18  1  0.458867  0.541133  0.250002  1
  B  B19  1  0.545132  0.454868  0.750059  1
  Ru  Ru20  1  0.054355  0.945645  0.249921  1
  W  W21  1  0.947313  0.052687  0.750017  1
