# generated using pymatgen
data_SmNbP7Ru12
_symmetry_space_group_name_H-M   'P 1'
_cell_length_a   9.40458000
_cell_length_b   9.40457933
_cell_length_c   3.90734300
_cell_angle_alpha   90.00000000
_cell_angle_beta   90.00000000
_cell_angle_gamma   120.00000140
_symmetry_Int_Tables_number   1
_chemical_formula_structural   SmNbP7Ru12
_chemical_formula_sum   'Sm1 Nb1 P7 Ru12'
_cell_volume   299.28912862
_cell_formula_units_Z   1
loop_
 _symmetry_equiv_pos_site_id
 _symmetry_equiv_pos_as_xyz
  1  'x, y, z'
loop_
 _atom_site_type_symbol
 _atom_site_label
 _atom_site_symmetry_multiplicity
 _atom_site_fract_x
 _atom_site_fract_y
 _atom_site_fract_z
 _atom_site_occupancy
  Sm  Sm0  1  0.333333  0.666667  0.000000  1
  Nb  Nb1  1  0.666667  0.333333  0.500000  1
  P  P2  1  0.600626  0.718967  0.500000  1
  P  P3  1  0.000000  0.000000  0.000000  1
  P  P4  1  0.281033  0.881658  0.500000  1
  P  P5  1  0.118342  0.399374  0.500000  1
  P  P6  1  0.886638  0.573170  0.000000  1
  P  P7  1  0.426830  0.313468  0.000000  1
  P  P8  1  0.686532  0.113362  0.000000  1
  Ru  Ru9  1  0.560141  0.959511  0.500000  1
  Ru  Ru10  1  0.399369  0.439859  0.500000  1
  Ru  Ru11  1  0.912972  0.122470  0.500000  1
  Ru  Ru12  1  0.209499  0.087028  0.500000  1
  Ru  Ru13  1  0.877530  0.790501  0.500000  1
  Ru  Ru14  1  0.726091  0.888208  0.000000  1
  Ru  Ru15  1  0.111792  0.837881  0.000000  1
  Ru  Ru16  1  0.162119  0.273909  0.000000  1
  Ru  Ru17  1  0.430318  0.078936  0.000000  1
  Ru  Ru18  1  0.921064  0.351383  0.000000  1
  Ru  Ru19  1  0.648617  0.569682  0.000000  1
  Ru  Ru20  1  0.040489  0.600631  0.500000  1
