# generated using pymatgen
data_Dy3Sc2BiPb2
_symmetry_space_group_name_H-M   'P 1'
_cell_length_a   8.92809400
_cell_length_b   8.92536511
_cell_length_c   6.30953100
_cell_angle_alpha   90.00000000
_cell_angle_beta   90.00000000
_cell_angle_gamma   120.01011449
_symmetry_Int_Tables_number   1
_chemical_formula_structural   Dy3Sc2BiPb2
_chemical_formula_sum   'Dy6 Sc4 Bi2 Pb4'
_cell_volume   435.37970689
_cell_formula_units_Z   2
loop_
 _symmetry_equiv_pos_site_id
 _symmetry_equiv_pos_as_xyz
  1  'x, y, z'
loop_
 _atom_site_type_symbol
 _atom_site_label
 _atom_site_symmetry_multiplicity
 _atom_site_fract_x
 _atom_site_fract_y
 _atom_site_fract_z
 _atom_site_occupancy
  Dy  Dy0  1  0.240945  0.239040  0.750000  1
  Dy  Dy1  1  0.239102  0.998468  0.250000  1
  Dy  Dy2  1  0.000376  0.761770  0.750000  1
  Dy  Dy3  1  0.761394  0.761770  0.250000  1
  Dy  Dy4  1  0.998095  0.239040  0.250000  1
  Dy  Dy5  1  0.759366  0.998468  0.750000  1
  Sc  Sc6  1  0.333885  0.667771  0.000000  1
  Sc  Sc7  1  0.666261  0.332522  0.000000  1
  Sc  Sc8  1  0.333885  0.667771  0.500000  1
  Sc  Sc9  1  0.666261  0.332522  0.500000  1
  Bi  Bi10  1  0.000181  0.398829  0.750000  1
  Bi  Bi11  1  0.398648  0.398829  0.250000  1
  Pb  Pb12  1  0.600982  0.000160  0.250000  1
  Pb  Pb13  1  0.601577  0.601441  0.750000  1
  Pb  Pb14  1  0.399178  0.000160  0.750000  1
  Pb  Pb15  1  0.999865  0.601441  0.250000  1
