# generated using pymatgen
data_Ce2Al9OsPtRh
_symmetry_space_group_name_H-M   'P 1'
_cell_length_a   7.63122545
_cell_length_b   7.63122676
_cell_length_c   9.44442755
_cell_angle_alpha   90.01985013
_cell_angle_beta   90.01984782
_cell_angle_gamma   119.03390149
_symmetry_Int_Tables_number   1
_chemical_formula_structural   Ce2Al9OsPtRh
_chemical_formula_sum   'Ce4 Al18 Os2 Pt2 Rh2'
_cell_volume   480.88463427
_cell_formula_units_Z   2
loop_
 _symmetry_equiv_pos_site_id
 _symmetry_equiv_pos_as_xyz
  1  'x, y, z'
loop_
 _atom_site_type_symbol
 _atom_site_label
 _atom_site_symmetry_multiplicity
 _atom_site_fract_x
 _atom_site_fract_y
 _atom_site_fract_z
 _atom_site_occupancy
  Ce  Ce0  1  0.995351  0.681110  0.251300  1
  Ce  Ce1  1  0.004649  0.318890  0.748700  1
  Ce  Ce2  1  0.681110  0.995351  0.251300  1
  Ce  Ce3  1  0.318890  0.004649  0.748700  1
  Al  Al4  1  0.002877  0.335185  0.078377  1
  Al  Al5  1  0.997123  0.664815  0.921623  1
  Al  Al6  1  0.997588  0.661432  0.576671  1
  Al  Al7  1  0.338568  0.002412  0.423329  1
  Al  Al8  1  0.002412  0.338568  0.423329  1
  Al  Al9  1  0.661432  0.997588  0.576671  1
  Al  Al10  1  0.664815  0.997123  0.921623  1
  Al  Al11  1  0.335185  0.002877  0.078377  1
  Al  Al12  1  0.332756  0.332756  0.544351  1
  Al  Al13  1  0.667244  0.667244  0.455649  1
  Al  Al14  1  0.669118  0.669118  0.048412  1
  Al  Al15  1  0.330882  0.330882  0.951588  1
  Al  Al16  1  0.135738  0.135738  0.250780  1
  Al  Al17  1  0.864262  0.864262  0.749220  1
  Al  Al18  1  0.346308  0.553500  0.253426  1
  Al  Al19  1  0.653692  0.446500  0.746574  1
  Al  Al20  1  0.553500  0.346308  0.253426  1
  Al  Al21  1  0.446500  0.653692  0.746574  1
  Os  Os22  1  0.000000  0.000000  0.000000  1
  Os  Os23  1  0.000000  0.000000  0.500000  1
  Pt  Pt24  1  0.672302  0.327698  0.000000  1
  Pt  Pt25  1  0.327698  0.672302  0.000000  1
  Rh  Rh26  1  0.328436  0.671564  0.500000  1
  Rh  Rh27  1  0.671564  0.328436  0.500000  1
