# generated using pymatgen
data_DyLu2Ni2Rh7
_symmetry_space_group_name_H-M   'P 1'
_cell_length_a   5.25071493
_cell_length_b   5.25071506
_cell_length_c   8.90889106
_cell_angle_alpha   72.86107849
_cell_angle_beta   72.86108010
_cell_angle_gamma   60.00001698
_symmetry_Int_Tables_number   1
_chemical_formula_structural   DyLu2Ni2Rh7
_chemical_formula_sum   'Dy1 Lu2 Ni2 Rh7'
_cell_volume   200.01802917
_cell_formula_units_Z   1
loop_
 _symmetry_equiv_pos_site_id
 _symmetry_equiv_pos_as_xyz
  1  'x, y, z'
loop_
 _atom_site_type_symbol
 _atom_site_label
 _atom_site_symmetry_multiplicity
 _atom_site_fract_x
 _atom_site_fract_y
 _atom_site_fract_z
 _atom_site_occupancy
  Dy  Dy0  1  0.000000  0.000000  0.000000  1
  Lu  Lu1  1  0.139664  0.139664  0.581007  1
  Lu  Lu2  1  0.860336  0.860336  0.418993  1
  Ni  Ni3  1  0.333505  0.333505  0.999486  1
  Ni  Ni4  1  0.666495  0.666495  0.000514  1
  Rh  Rh5  1  0.077785  0.582113  0.757990  1
  Rh  Rh6  1  0.582113  0.582113  0.757990  1
  Rh  Rh7  1  0.582113  0.077785  0.757990  1
  Rh  Rh8  1  0.922215  0.417887  0.242010  1
  Rh  Rh9  1  0.417887  0.417887  0.242010  1
  Rh  Rh10  1  0.417887  0.922215  0.242010  1
  Rh  Rh11  1  0.500000  0.500000  0.500000  1
