# generated using pymatgen
data_La2Ni8GePt
_symmetry_space_group_name_H-M   'P 1'
_cell_length_a   5.08377135
_cell_length_b   4.96737116
_cell_length_c   8.08356800
_cell_angle_alpha   90.00000000
_cell_angle_beta   90.00000000
_cell_angle_gamma   118.05417005
_symmetry_Int_Tables_number   1
_chemical_formula_structural   La2Ni8GePt
_chemical_formula_sum   'La2 Ni8 Ge1 Pt1'
_cell_volume   180.14909058
_cell_formula_units_Z   1
loop_
 _symmetry_equiv_pos_site_id
 _symmetry_equiv_pos_as_xyz
  1  'x, y, z'
loop_
 _atom_site_type_symbol
 _atom_site_label
 _atom_site_symmetry_multiplicity
 _atom_site_fract_x
 _atom_site_fract_y
 _atom_site_fract_z
 _atom_site_occupancy
  La  La0  1  0.000000  0.000000  0.758238  1
  La  La1  1  0.000000  0.000000  0.241762  1
  Ni  Ni2  1  0.648799  0.323092  0.746118  1
  Ni  Ni3  1  0.648799  0.323092  0.253882  1
  Ni  Ni4  1  0.500000  0.500000  0.000000  1
  Ni  Ni5  1  0.351201  0.676908  0.746118  1
  Ni  Ni6  1  0.500000  0.000000  0.500000  1
  Ni  Ni7  1  0.500000  0.000000  0.000000  1
  Ni  Ni8  1  0.351201  0.676908  0.253882  1
  Ni  Ni9  1  0.000000  0.500000  0.500000  1
  Ge  Ge10  1  0.500000  0.500000  0.500000  1
  Pt  Pt11  1  0.000000  0.500000  0.000000  1
