# generated using pymatgen
data_Pr15Sm(ErSn4)4
_symmetry_space_group_name_H-M   'P 1'
_cell_length_a   8.25364183
_cell_length_b   8.42673774
_cell_length_c   16.01049162
_cell_angle_alpha   90.05123386
_cell_angle_beta   89.65455664
_cell_angle_gamma   90.03736621
_symmetry_Int_Tables_number   1
_chemical_formula_structural   Pr15Sm(ErSn4)4
_chemical_formula_sum   'Pr15 Sm1 Er4 Sn16'
_cell_volume   1113.52918960
_cell_formula_units_Z   1
loop_
 _symmetry_equiv_pos_site_id
 _symmetry_equiv_pos_as_xyz
  1  'x, y, z'
loop_
 _atom_site_type_symbol
 _atom_site_label
 _atom_site_symmetry_multiplicity
 _atom_site_fract_x
 _atom_site_fract_y
 _atom_site_fract_z
 _atom_site_occupancy
  Pr  Pr0  1  0.863283  0.661234  0.622545  1
  Pr  Pr1  1  0.636045  0.160690  0.379035  1
  Pr  Pr2  1  0.140382  0.337042  0.118605  1
  Pr  Pr3  1  0.637879  0.163141  0.121879  1
  Pr  Pr4  1  0.135981  0.338183  0.379200  1
  Pr  Pr5  1  0.363720  0.838941  0.621612  1
  Pr  Pr6  1  0.863558  0.662082  0.879565  1
  Pr  Pr7  1  0.515871  0.319318  0.902082  1
  Pr  Pr8  1  0.018509  0.180544  0.599644  1
  Pr  Pr9  1  0.482716  0.681098  0.402048  1
  Pr  Pr10  1  0.984694  0.818209  0.097321  1
  Pr  Pr11  1  0.485424  0.681557  0.095679  1
  Pr  Pr12  1  0.982713  0.818412  0.401050  1
  Pr  Pr13  1  0.517866  0.319012  0.600328  1
  Pr  Pr14  1  0.014045  0.180038  0.902429  1
  Sm  Sm15  1  0.359376  0.839039  0.875108  1
  Er  Er16  1  0.195558  0.502309  0.750988  1
  Er  Er17  1  0.693791  0.997923  0.750557  1
  Er  Er18  1  0.805760  0.498072  0.250019  1
  Er  Er19  1  0.304466  0.001540  0.249174  1
  Sn  Sn20  1  0.299450  0.032299  0.040198  1
  Sn  Sn21  1  0.794308  0.465608  0.455934  1
  Sn  Sn22  1  0.707051  0.965589  0.545368  1
  Sn  Sn23  1  0.208370  0.541182  0.954615  1
  Sn  Sn24  1  0.692348  0.962190  0.955191  1
  Sn  Sn25  1  0.205820  0.533763  0.545946  1
  Sn  Sn26  1  0.293104  0.033537  0.454918  1
  Sn  Sn27  1  0.797719  0.464634  0.044684  1
  Sn  Sn28  1  0.557258  0.619566  0.751847  1
  Sn  Sn29  1  0.059276  0.884512  0.751906  1
  Sn  Sn30  1  0.440542  0.384627  0.250133  1
  Sn  Sn31  1  0.941551  0.117054  0.248813  1
  Sn  Sn32  1  0.322198  0.147315  0.752016  1
  Sn  Sn33  1  0.821901  0.351479  0.751516  1
  Sn  Sn34  1  0.678486  0.851337  0.249238  1
  Sn  Sn35  1  0.178977  0.646925  0.248809  1
