# generated using pymatgen
data_La2Al8Cu3Si2Au
_symmetry_space_group_name_H-M   'P 1'
_cell_length_a   6.03487200
_cell_length_b   6.03487200
_cell_length_c   8.01140100
_cell_angle_alpha   90.00000000
_cell_angle_beta   90.00000000
_cell_angle_gamma   90.00000000
_symmetry_Int_Tables_number   1
_chemical_formula_structural   La2Al8Cu3Si2Au
_chemical_formula_sum   'La2 Al8 Cu3 Si2 Au1'
_cell_volume   291.77266122
_cell_formula_units_Z   1
loop_
 _symmetry_equiv_pos_site_id
 _symmetry_equiv_pos_as_xyz
  1  'x, y, z'
loop_
 _atom_site_type_symbol
 _atom_site_label
 _atom_site_symmetry_multiplicity
 _atom_site_fract_x
 _atom_site_fract_y
 _atom_site_fract_z
 _atom_site_occupancy
  La  La0  1  0.750000  0.250000  0.500000  1
  La  La1  1  0.250000  0.750000  0.500000  1
  Al  Al2  1  0.501283  0.486803  0.177144  1
  Al  Al3  1  0.998717  0.486803  0.177144  1
  Al  Al4  1  0.501283  0.013197  0.177144  1
  Al  Al5  1  0.998717  0.013197  0.177144  1
  Al  Al6  1  0.986803  0.001283  0.822857  1
  Al  Al7  1  0.513196  0.001283  0.822857  1
  Al  Al8  1  0.986803  0.498716  0.822857  1
  Al  Al9  1  0.513196  0.498716  0.822857  1
  Cu  Cu10  1  0.750000  0.250000  0.000000  1
  Cu  Cu11  1  0.250000  0.250000  0.351318  1
  Cu  Cu12  1  0.750000  0.750000  0.648681  1
  Si  Si13  1  0.750000  0.750000  0.356476  1
  Si  Si14  1  0.250000  0.250000  0.643523  1
  Au  Au15  1  0.250000  0.750000  0.000000  1
