# generated using pymatgen
data_Y9Lu11Pb16
_symmetry_space_group_name_H-M   'P 1'
_cell_length_a   8.12810027
_cell_length_b   8.21191771
_cell_length_c   15.47206741
_cell_angle_alpha   90.00792116
_cell_angle_beta   90.07372125
_cell_angle_gamma   90.07996438
_symmetry_Int_Tables_number   1
_chemical_formula_structural   Y9Lu11Pb16
_chemical_formula_sum   'Y9 Lu11 Pb16'
_cell_volume   1032.71670794
_cell_formula_units_Z   1
loop_
 _symmetry_equiv_pos_site_id
 _symmetry_equiv_pos_as_xyz
  1  'x, y, z'
loop_
 _atom_site_type_symbol
 _atom_site_label
 _atom_site_symmetry_multiplicity
 _atom_site_fract_x
 _atom_site_fract_y
 _atom_site_fract_z
 _atom_site_occupancy
  Y  Y0  1  0.129564  0.342057  0.621612  1
  Y  Y1  1  0.470174  0.677749  0.597577  1
  Y  Y2  1  0.971766  0.822297  0.903286  1
  Y  Y3  1  0.529069  0.322851  0.097162  1
  Y  Y4  1  0.030114  0.176454  0.401534  1
  Y  Y5  1  0.528733  0.323070  0.402363  1
  Y  Y6  1  0.028459  0.177428  0.097195  1
  Y  Y7  1  0.471554  0.677510  0.903037  1
  Y  Y8  1  0.970628  0.822736  0.597545  1
  Lu  Lu9  1  0.630239  0.157989  0.622962  1
  Lu  Lu10  1  0.130796  0.342774  0.877629  1
  Lu  Lu11  1  0.369132  0.842756  0.122734  1
  Lu  Lu12  1  0.869548  0.657124  0.377435  1
  Lu  Lu13  1  0.370586  0.842675  0.376376  1
  Lu  Lu14  1  0.869372  0.657361  0.122737  1
  Lu  Lu15  1  0.630445  0.157119  0.877915  1
  Lu  Lu16  1  0.798134  0.494546  0.750371  1
  Lu  Lu17  1  0.299041  0.005274  0.750321  1
  Lu  Lu18  1  0.201349  0.505921  0.249611  1
  Lu  Lu19  1  0.701504  0.994675  0.250102  1
  Pb  Pb20  1  0.711505  0.961853  0.457260  1
  Pb  Pb21  1  0.210545  0.539101  0.042646  1
  Pb  Pb22  1  0.289477  0.039142  0.957537  1
  Pb  Pb23  1  0.785507  0.462468  0.542352  1
  Pb  Pb24  1  0.290332  0.035261  0.542224  1
  Pb  Pb25  1  0.789913  0.460859  0.957519  1
  Pb  Pb26  1  0.710667  0.960627  0.042972  1
  Pb  Pb27  1  0.211386  0.540213  0.455682  1
  Pb  Pb28  1  0.437325  0.373844  0.751115  1
  Pb  Pb29  1  0.935270  0.125088  0.751325  1
  Pb  Pb30  1  0.563639  0.626577  0.249630  1
  Pb  Pb31  1  0.063173  0.872912  0.249869  1
  Pb  Pb32  1  0.658412  0.845107  0.750202  1
  Pb  Pb33  1  0.158438  0.656309  0.750671  1
  Pb  Pb34  1  0.342299  0.155490  0.249667  1
  Pb  Pb35  1  0.841907  0.344785  0.249823  1
