# generated using pymatgen
data_Tb3(YC2)5
_symmetry_space_group_name_H-M   'P 1'
_cell_length_a   3.69938300
_cell_length_b   6.61646922
_cell_length_c   11.98552015
_cell_angle_alpha   90.66811437
_cell_angle_beta   90.00000000
_cell_angle_gamma   90.00000000
_symmetry_Int_Tables_number   1
_chemical_formula_structural   Tb3(YC2)5
_chemical_formula_sum   'Tb3 Y5 C10'
_cell_volume   293.34787878
_cell_formula_units_Z   1
loop_
 _symmetry_equiv_pos_site_id
 _symmetry_equiv_pos_as_xyz
  1  'x, y, z'
loop_
 _atom_site_type_symbol
 _atom_site_label
 _atom_site_symmetry_multiplicity
 _atom_site_fract_x
 _atom_site_fract_y
 _atom_site_fract_z
 _atom_site_occupancy
  Tb  Tb0  1  0.500000  0.892374  0.196285  1
  Tb  Tb1  1  0.500000  0.604050  0.697210  1
  Tb  Tb2  1  0.500000  0.395238  0.303003  1
  Y  Y3  1  0.000000  0.256435  0.542168  1
  Y  Y4  1  0.000000  0.745114  0.457689  1
  Y  Y5  1  0.000000  0.755113  0.956939  1
  Y  Y6  1  0.000000  0.243046  0.042425  1
  Y  Y7  1  0.500000  0.108446  0.804074  1
  C  C8  1  0.500000  0.501826  0.500325  1
  C  C9  1  0.500000  0.997942  0.999968  1
  C  C10  1  0.000000  0.361914  0.735219  1
  C  C11  1  0.000000  0.638828  0.264843  1
  C  C12  1  0.000000  0.857390  0.762470  1
  C  C13  1  0.000000  0.141509  0.236296  1
  C  C14  1  0.000000  0.391225  0.845612  1
  C  C15  1  0.000000  0.601953  0.155180  1
  C  C16  1  0.000000  0.090927  0.343318  1
  C  C17  1  0.000000  0.916672  0.656975  1
