# generated using pymatgen
data_Tm10BiPb7
_symmetry_space_group_name_H-M   'P 1'
_cell_length_a   8.17638805
_cell_length_b   8.20754839
_cell_length_c   15.40274900
_cell_angle_alpha   90.19674906
_cell_angle_beta   89.99370029
_cell_angle_gamma   90.00023106
_symmetry_Int_Tables_number   1
_chemical_formula_structural   Tm10BiPb7
_chemical_formula_sum   'Tm20 Bi2 Pb14'
_cell_volume   1033.64312853
_cell_formula_units_Z   2
loop_
 _symmetry_equiv_pos_site_id
 _symmetry_equiv_pos_as_xyz
  1  'x, y, z'
loop_
 _atom_site_type_symbol
 _atom_site_label
 _atom_site_symmetry_multiplicity
 _atom_site_fract_x
 _atom_site_fract_y
 _atom_site_fract_z
 _atom_site_occupancy
  Tm  Tm0  1  0.381354  0.840375  0.877659  1
  Tm  Tm1  1  0.881408  0.659523  0.622280  1
  Tm  Tm2  1  0.620010  0.154491  0.377772  1
  Tm  Tm3  1  0.120036  0.345478  0.122131  1
  Tm  Tm4  1  0.623788  0.158006  0.121699  1
  Tm  Tm5  1  0.123759  0.341962  0.378393  1
  Tm  Tm6  1  0.379020  0.842691  0.621980  1
  Tm  Tm7  1  0.879086  0.657218  0.878052  1
  Tm  Tm8  1  0.549287  0.332301  0.895994  1
  Tm  Tm9  1  0.049439  0.167944  0.604005  1
  Tm  Tm10  1  0.449959  0.675122  0.396603  1
  Tm  Tm11  1  0.950012  0.824816  0.103499  1
  Tm  Tm12  1  0.456035  0.667665  0.102129  1
  Tm  Tm13  1  0.955967  0.832300  0.397753  1
  Tm  Tm14  1  0.540668  0.323647  0.603143  1
  Tm  Tm15  1  0.040826  0.176556  0.896885  1
  Tm  Tm16  1  0.710552  0.997547  0.750352  1
  Tm  Tm17  1  0.789245  0.497552  0.248122  1
  Tm  Tm18  1  0.289241  0.002352  0.251874  1
  Tm  Tm19  1  0.210546  0.502775  0.749634  1
  Bi  Bi20  1  0.274845  0.027075  0.044778  1
  Bi  Bi21  1  0.774717  0.472874  0.455225  1
  Pb  Pb22  1  0.723079  0.970571  0.543571  1
  Pb  Pb23  1  0.223065  0.529359  0.956382  1
  Pb  Pb24  1  0.722701  0.969833  0.956672  1
  Pb  Pb25  1  0.222653  0.529990  0.543405  1
  Pb  Pb26  1  0.279760  0.031174  0.457088  1
  Pb  Pb27  1  0.779762  0.468716  0.042923  1
  Pb  Pb28  1  0.573076  0.628124  0.748376  1
  Pb  Pb29  1  0.073199  0.871847  0.751599  1
  Pb  Pb30  1  0.428128  0.371022  0.249966  1
  Pb  Pb31  1  0.928154  0.128909  0.250030  1
  Pb  Pb32  1  0.355034  0.155299  0.751646  1
  Pb  Pb33  1  0.855383  0.345018  0.748374  1
  Pb  Pb34  1  0.643048  0.844118  0.249478  1
  Pb  Pb35  1  0.143160  0.655749  0.250530  1
