# generated using pymatgen
data_Ho3ErCdPd4Pb
_symmetry_space_group_name_H-M   'P 1'
_cell_length_a   7.84233259
_cell_length_b   7.83973359
_cell_length_c   3.61570200
_cell_angle_alpha   90.00000000
_cell_angle_beta   90.00000000
_cell_angle_gamma   90.07299135
_symmetry_Int_Tables_number   1
_chemical_formula_structural   Ho3ErCdPd4Pb
_chemical_formula_sum   'Ho3 Er1 Cd1 Pd4 Pb1'
_cell_volume   222.29968047
_cell_formula_units_Z   1
loop_
 _symmetry_equiv_pos_site_id
 _symmetry_equiv_pos_as_xyz
  1  'x, y, z'
loop_
 _atom_site_type_symbol
 _atom_site_label
 _atom_site_symmetry_multiplicity
 _atom_site_fract_x
 _atom_site_fract_y
 _atom_site_fract_z
 _atom_site_occupancy
  Ho  Ho0  1  0.172844  0.331575  0.500000  1
  Ho  Ho1  1  0.826986  0.668155  0.500000  1
  Ho  Ho2  1  0.331852  0.827277  0.500000  1
  Er  Er3  1  0.668261  0.172627  0.500000  1
  Cd  Cd4  1  0.999921  0.000075  0.000000  1
  Pd  Pd5  1  0.366683  0.120140  0.000000  1
  Pd  Pd6  1  0.119791  0.633777  0.000000  1
  Pd  Pd7  1  0.634079  0.880787  0.000000  1
  Pd  Pd8  1  0.879522  0.365663  0.000000  1
  Pb  Pb9  1  0.500062  0.499925  0.000000  1
