# generated using pymatgen
data_Tb3Ga2B4Ir9
_symmetry_space_group_name_H-M   'P 1'
_cell_length_a   5.55560604
_cell_length_b   5.55541899
_cell_length_c   10.08516200
_cell_angle_alpha   89.99992742
_cell_angle_beta   90.00007578
_cell_angle_gamma   119.98178608
_symmetry_Int_Tables_number   1
_chemical_formula_structural   Tb3Ga2B4Ir9
_chemical_formula_sum   'Tb3 Ga2 B4 Ir9'
_cell_volume   269.61338583
_cell_formula_units_Z   1
loop_
 _symmetry_equiv_pos_site_id
 _symmetry_equiv_pos_as_xyz
  1  'x, y, z'
loop_
 _atom_site_type_symbol
 _atom_site_label
 _atom_site_symmetry_multiplicity
 _atom_site_fract_x
 _atom_site_fract_y
 _atom_site_fract_z
 _atom_site_occupancy
  Tb  Tb0  1  0.999986  0.000000  0.999998  1
  Tb  Tb1  1  0.999995  0.999999  0.339898  1
  Tb  Tb2  1  0.000000  0.000001  0.660106  1
  Ga  Ga3  1  0.333413  0.666679  0.000007  1
  Ga  Ga4  1  0.666567  0.333322  0.000007  1
  B  B5  1  0.333312  0.666628  0.346466  1
  B  B6  1  0.666673  0.333372  0.346466  1
  B  B7  1  0.666673  0.333354  0.653531  1
  B  B8  1  0.333319  0.666647  0.653531  1
  Ir  Ir9  1  0.499997  0.000000  0.499992  1
  Ir  Ir10  1  0.499997  0.500001  0.500000  1
  Ir  Ir11  1  0.999996  0.500000  0.500002  1
  Ir  Ir12  1  0.499993  0.000000  0.204661  1
  Ir  Ir13  1  0.499991  0.499999  0.204625  1
  Ir  Ir14  1  0.999992  0.500000  0.204646  1
  Ir  Ir15  1  0.500000  0.000000  0.795338  1
  Ir  Ir16  1  0.499998  0.500001  0.795371  1
  Ir  Ir17  1  0.999997  0.499999  0.795357  1
