# generated using pymatgen
data_Yb12Si8Pd5Pt3
_symmetry_space_group_name_H-M   'P 1'
_cell_length_a   5.59981758
_cell_length_b   8.03463740
_cell_length_c   13.18885420
_cell_angle_alpha   90.03985839
_cell_angle_beta   89.90641620
_cell_angle_gamma   90.20384562
_symmetry_Int_Tables_number   1
_chemical_formula_structural   Yb12Si8Pd5Pt3
_chemical_formula_sum   'Yb12 Si8 Pd5 Pt3'
_cell_volume   593.39488372
_cell_formula_units_Z   1
loop_
 _symmetry_equiv_pos_site_id
 _symmetry_equiv_pos_as_xyz
  1  'x, y, z'
loop_
 _atom_site_type_symbol
 _atom_site_label
 _atom_site_symmetry_multiplicity
 _atom_site_fract_x
 _atom_site_fract_y
 _atom_site_fract_z
 _atom_site_occupancy
  Yb  Yb0  1  0.650948  0.245109  0.249545  1
  Yb  Yb1  1  0.349098  0.754325  0.749981  1
  Yb  Yb2  1  0.351152  0.747133  0.249557  1
  Yb  Yb3  1  0.647965  0.253686  0.750150  1
  Yb  Yb4  1  0.140426  0.389117  0.102702  1
  Yb  Yb5  1  0.859496  0.611456  0.897068  1
  Yb  Yb6  1  0.860251  0.610809  0.602822  1
  Yb  Yb7  1  0.862222  0.888985  0.397189  1
  Yb  Yb8  1  0.140446  0.390100  0.397104  1
  Yb  Yb9  1  0.138980  0.109566  0.602943  1
  Yb  Yb10  1  0.137753  0.109968  0.897372  1
  Yb  Yb11  1  0.862252  0.890238  0.102945  1
  Si  Si12  1  0.159825  0.099449  0.249443  1
  Si  Si13  1  0.837418  0.902309  0.749536  1
  Si  Si14  1  0.840793  0.598237  0.249686  1
  Si  Si15  1  0.156768  0.401192  0.750150  1
  Si  Si16  1  0.617530  0.246778  0.999570  1
  Si  Si17  1  0.382762  0.753213  0.999813  1
  Si  Si18  1  0.381970  0.751542  0.501419  1
  Si  Si19  1  0.621474  0.247790  0.501789  1
  Pd  Pd20  1  0.628969  0.529213  0.410346  1
  Pd  Pd21  1  0.373790  0.029380  0.408991  1
  Pd  Pd22  1  0.371129  0.470130  0.589912  1
  Pd  Pd23  1  0.370095  0.470545  0.910482  1
  Pd  Pd24  1  0.629752  0.529629  0.089117  1
  Pt  Pt25  1  0.372864  0.029239  0.091454  1
  Pt  Pt26  1  0.627355  0.970241  0.908103  1
  Pt  Pt27  1  0.626515  0.970619  0.590810  1
