# generated using pymatgen
data_K2Fe(Si2O5)2
_symmetry_space_group_name_H-M   'P 1'
_cell_length_a   7.20176809
_cell_length_b   8.28938239
_cell_length_c   10.15533803
_cell_angle_alpha   104.99278278
_cell_angle_beta   101.21364278
_cell_angle_gamma   112.50538938
_symmetry_Int_Tables_number   1
_chemical_formula_structural   K2Fe(Si2O5)2
_chemical_formula_sum   'K4 Fe2 Si8 O20'
_cell_volume   510.92330575
_cell_formula_units_Z   2
loop_
 _symmetry_equiv_pos_site_id
 _symmetry_equiv_pos_as_xyz
  1  'x, y, z'
loop_
 _atom_site_type_symbol
 _atom_site_label
 _atom_site_symmetry_multiplicity
 _atom_site_fract_x
 _atom_site_fract_y
 _atom_site_fract_z
 _atom_site_occupancy
  K  K0  1  0.671439  0.810617  0.000954  1
  K  K1  1  0.730738  0.225365  0.415642  1
  K  K2  1  0.269262  0.774635  0.584358  1
  K  K3  1  0.328561  0.189383  0.999046  1
  Fe  Fe4  1  0.743104  0.694875  0.589009  1
  Fe  Fe5  1  0.256896  0.305125  0.410991  1
  Si  Si6  1  0.066971  0.690094  0.867450  1
  Si  Si7  1  0.933029  0.309906  0.132550  1
  Si  Si8  1  0.219652  0.896731  0.209062  1
  Si  Si9  1  0.780348  0.103269  0.790938  1
  Si  Si10  1  0.389502  0.620771  0.262385  1
  Si  Si11  1  0.188438  0.377177  0.737748  1
  Si  Si12  1  0.811562  0.622823  0.262252  1
  Si  Si13  1  0.610498  0.379229  0.737615  1
  O  O14  1  0.984280  0.786056  0.222818  1
  O  O15  1  0.015720  0.213944  0.777182  1
  O  O16  1  0.833888  0.541301  0.867618  1
  O  O17  1  0.166112  0.458699  0.132382  1
  O  O18  1  0.581276  0.622508  0.193699  1
  O  O19  1  0.418724  0.377492  0.806301  1
  O  O20  1  0.216710  0.582671  0.838682  1
  O  O21  1  0.783290  0.417329  0.161318  1
  O  O22  1  0.871407  0.654901  0.429510  1
  O  O23  1  0.128593  0.345099  0.570490  1
  O  O24  1  0.419607  0.581195  0.409528  1
  O  O25  1  0.580393  0.418805  0.590472  1
  O  O26  1  0.044094  0.795555  0.759332  1
  O  O27  1  0.955906  0.204445  0.240668  1
  O  O28  1  0.805654  0.157530  0.964199  1
  O  O29  1  0.194346  0.842470  0.035801  1
  O  O30  1  0.614661  0.175316  0.716535  1
  O  O31  1  0.385339  0.824684  0.283465  1
  O  O32  1  0.323014  0.119888  0.281786  1
  O  O33  1  0.676986  0.880112  0.718214  1
