# generated using pymatgen
data_Ce2PaOsRu2
_symmetry_space_group_name_H-M   'P 1'
_cell_length_a   5.26961461
_cell_length_b   5.88677509
_cell_length_c   5.26961520
_cell_angle_alpha   122.45203313
_cell_angle_beta   112.80473763
_cell_angle_gamma   90.66526045
_symmetry_Int_Tables_number   1
_chemical_formula_structural   Ce2PaOsRu2
_chemical_formula_sum   'Ce2 Pa1 Os1 Ru2'
_cell_volume   121.98722853
_cell_formula_units_Z   1
loop_
 _symmetry_equiv_pos_site_id
 _symmetry_equiv_pos_as_xyz
  1  'x, y, z'
loop_
 _atom_site_type_symbol
 _atom_site_label
 _atom_site_symmetry_multiplicity
 _atom_site_fract_x
 _atom_site_fract_y
 _atom_site_fract_z
 _atom_site_occupancy
  Ce  Ce0  1  0.120520  0.881034  0.260515  1
  Ce  Ce1  1  0.879480  0.118966  0.739485  1
  Pa  Pa2  1  0.500000  0.500000  0.500000  1
  Os  Os3  1  0.500000  0.000000  0.000000  1
  Ru  Ru4  1  0.500000  0.500000  0.000000  1
  Ru  Ru5  1  0.000000  0.500000  0.500000  1
