# generated using pymatgen
data_Pr3(TcC3)2
_symmetry_space_group_name_H-M   'P 1'
_cell_length_a   8.46747000
_cell_length_b   8.46746876
_cell_length_c   5.40466500
_cell_angle_alpha   90.00000000
_cell_angle_beta   90.00000000
_cell_angle_gamma   119.99998714
_symmetry_Int_Tables_number   1
_chemical_formula_structural   Pr3(TcC3)2
_chemical_formula_sum   'Pr6 Tc4 C12'
_cell_volume   335.58824314
_cell_formula_units_Z   2
loop_
 _symmetry_equiv_pos_site_id
 _symmetry_equiv_pos_as_xyz
  1  'x, y, z'
loop_
 _atom_site_type_symbol
 _atom_site_label
 _atom_site_symmetry_multiplicity
 _atom_site_fract_x
 _atom_site_fract_y
 _atom_site_fract_z
 _atom_site_occupancy
  Pr  Pr0  1  0.618727  0.691355  0.750000  1
  Pr  Pr1  1  0.927371  0.618727  0.250000  1
  Pr  Pr2  1  0.691355  0.072629  0.250000  1
  Pr  Pr3  1  0.308645  0.927371  0.750000  1
  Pr  Pr4  1  0.072629  0.381273  0.750000  1
  Pr  Pr5  1  0.381273  0.308645  0.250000  1
  Tc  Tc6  1  0.000000  0.000000  0.500000  1
  Tc  Tc7  1  0.000000  0.000000  0.000000  1
  Tc  Tc8  1  0.666667  0.333333  0.750000  1
  Tc  Tc9  1  0.333333  0.666667  0.250000  1
  C  C10  1  0.956223  0.773591  0.750000  1
  C  C11  1  0.182632  0.956223  0.250000  1
  C  C12  1  0.773591  0.817368  0.250000  1
  C  C13  1  0.226409  0.182632  0.750000  1
  C  C14  1  0.817368  0.043777  0.750000  1
  C  C15  1  0.043777  0.226409  0.250000  1
  C  C16  1  0.864518  0.587518  0.750000  1
  C  C17  1  0.277000  0.864518  0.250000  1
  C  C18  1  0.587518  0.723000  0.250000  1
  C  C19  1  0.412482  0.277000  0.750000  1
  C  C20  1  0.135482  0.412482  0.250000  1
  C  C21  1  0.723000  0.135482  0.750000  1
