# generated using pymatgen
data_Sc6Al24Os5Pt3
_symmetry_space_group_name_H-M   'P 1'
_cell_length_a   8.69928534
_cell_length_b   8.72555243
_cell_length_c   9.42824083
_cell_angle_alpha   89.99401618
_cell_angle_beta   89.72231766
_cell_angle_gamma   119.68652924
_symmetry_Int_Tables_number   1
_chemical_formula_structural   Sc6Al24Os5Pt3
_chemical_formula_sum   'Sc6 Al24 Os5 Pt3'
_cell_volume   621.71891001
_cell_formula_units_Z   1
loop_
 _symmetry_equiv_pos_site_id
 _symmetry_equiv_pos_as_xyz
  1  'x, y, z'
loop_
 _atom_site_type_symbol
 _atom_site_label
 _atom_site_symmetry_multiplicity
 _atom_site_fract_x
 _atom_site_fract_y
 _atom_site_fract_z
 _atom_site_occupancy
  Sc  Sc0  1  0.187022  0.383375  0.251998  1
  Sc  Sc1  1  0.812978  0.616625  0.748002  1
  Sc  Sc2  1  0.613547  0.815133  0.252213  1
  Sc  Sc3  1  0.386453  0.184867  0.747787  1
  Sc  Sc4  1  0.198033  0.809501  0.252271  1
  Sc  Sc5  1  0.801967  0.190499  0.747729  1
  Al  Al6  1  0.335629  0.670726  0.042589  1
  Al  Al7  1  0.664371  0.329274  0.957411  1
  Al  Al8  1  0.669008  0.331289  0.539920  1
  Al  Al9  1  0.330992  0.668711  0.460080  1
  Al  Al10  1  0.158455  0.325318  0.577126  1
  Al  Al11  1  0.841545  0.674682  0.422874  1
  Al  Al12  1  0.673347  0.839939  0.576328  1
  Al  Al13  1  0.836891  0.675955  0.079564  1
  Al  Al14  1  0.326653  0.160061  0.423672  1
  Al  Al15  1  0.163109  0.324045  0.920436  1
  Al  Al16  1  0.164124  0.834478  0.575893  1
  Al  Al17  1  0.326222  0.159542  0.077520  1
  Al  Al18  1  0.835876  0.165522  0.424107  1
  Al  Al19  1  0.673778  0.840458  0.922480  1
  Al  Al20  1  0.831827  0.159593  0.077816  1
  Al  Al21  1  0.168173  0.840407  0.922184  1
  Al  Al22  1  0.560270  0.121819  0.249787  1
  Al  Al23  1  0.439730  0.878181  0.750213  1
  Al  Al24  1  0.877591  0.439037  0.252370  1
  Al  Al25  1  0.122409  0.560963  0.747630  1
  Al  Al26  1  0.560459  0.438915  0.249807  1
  Al  Al27  1  0.439541  0.561085  0.750193  1
  Al  Al28  1  0.999337  0.001653  0.250225  1
  Al  Al29  1  0.000663  0.998347  0.749775  1
  Os  Os30  1  0.500000  0.000000  0.000000  1
  Os  Os31  1  0.500000  0.000000  0.500000  1
  Os  Os32  1  0.000000  0.500000  0.500000  1
  Os  Os33  1  0.000000  0.000000  0.000000  1
  Os  Os34  1  0.000000  0.000000  0.500000  1
  Pt  Pt35  1  0.000000  0.500000  0.000000  1
  Pt  Pt36  1  0.500000  0.500000  0.000000  1
  Pt  Pt37  1  0.500000  0.500000  0.500000  1
