# generated using pymatgen
data_Er16Mg4SnPb15
_symmetry_space_group_name_H-M   'P 1'
_cell_length_a   7.78463505
_cell_length_b   8.30032558
_cell_length_c   15.38526689
_cell_angle_alpha   90.07011746
_cell_angle_beta   89.91748675
_cell_angle_gamma   89.98912467
_symmetry_Int_Tables_number   1
_chemical_formula_structural   Er16Mg4SnPb15
_chemical_formula_sum   'Er16 Mg4 Sn1 Pb15'
_cell_volume   994.11731074
_cell_formula_units_Z   1
loop_
 _symmetry_equiv_pos_site_id
 _symmetry_equiv_pos_as_xyz
  1  'x, y, z'
loop_
 _atom_site_type_symbol
 _atom_site_label
 _atom_site_symmetry_multiplicity
 _atom_site_fract_x
 _atom_site_fract_y
 _atom_site_fract_z
 _atom_site_occupancy
  Er  Er0  1  0.997805  0.182211  0.088892  1
  Er  Er1  1  0.009439  0.815356  0.912521  1
  Er  Er2  1  0.505546  0.689557  0.911359  1
  Er  Er3  1  0.006945  0.811895  0.589993  1
  Er  Er4  1  0.491526  0.309690  0.089338  1
  Er  Er5  1  0.992509  0.188355  0.410445  1
  Er  Er6  1  0.492937  0.313016  0.410095  1
  Er  Er7  1  0.507700  0.686994  0.590051  1
  Er  Er8  1  0.336300  0.161304  0.628293  1
  Er  Er9  1  0.662432  0.838725  0.371590  1
  Er  Er10  1  0.163462  0.661118  0.371599  1
  Er  Er11  1  0.662181  0.838434  0.127905  1
  Er  Er12  1  0.836182  0.339481  0.628529  1
  Er  Er13  1  0.335776  0.160277  0.872469  1
  Er  Er14  1  0.836097  0.338549  0.872147  1
  Er  Er15  1  0.164533  0.665389  0.127413  1
  Mg  Mg16  1  0.156796  0.496197  0.750425  1
  Mg  Mg17  1  0.843260  0.504071  0.249054  1
  Mg  Mg18  1  0.341760  0.996175  0.247018  1
  Mg  Mg19  1  0.657369  0.003296  0.750090  1
  Sn  Sn20  1  0.312415  0.960552  0.039813  1
  Pb  Pb21  1  0.019553  0.096871  0.750218  1
  Pb  Pb22  1  0.978650  0.903347  0.250788  1
  Pb  Pb23  1  0.479591  0.595957  0.249468  1
  Pb  Pb24  1  0.519678  0.403291  0.750714  1
  Pb  Pb25  1  0.191001  0.461626  0.541593  1
  Pb  Pb26  1  0.808699  0.538702  0.458497  1
  Pb  Pb27  1  0.309578  0.962162  0.457769  1
  Pb  Pb28  1  0.809382  0.537079  0.042202  1
  Pb  Pb29  1  0.690420  0.038428  0.541845  1
  Pb  Pb30  1  0.189812  0.461710  0.958389  1
  Pb  Pb31  1  0.690289  0.039194  0.958886  1
  Pb  Pb32  1  0.309673  0.835107  0.749945  1
  Pb  Pb33  1  0.690611  0.165061  0.249743  1
  Pb  Pb34  1  0.189496  0.335567  0.249585  1
  Pb  Pb35  1  0.810600  0.665254  0.751320  1
