# generated using pymatgen
data_Sr6UIrO12
_symmetry_space_group_name_H-M   'P 1'
_cell_length_a   7.01029144
_cell_length_b   7.01029193
_cell_length_c   7.01029177
_cell_angle_alpha   92.74324755
_cell_angle_beta   92.74325172
_cell_angle_gamma   92.74325096
_symmetry_Int_Tables_number   1
_chemical_formula_structural   Sr6UIrO12
_chemical_formula_sum   'Sr6 U1 Ir1 O12'
_cell_volume   343.29143327
_cell_formula_units_Z   1
loop_
 _symmetry_equiv_pos_site_id
 _symmetry_equiv_pos_as_xyz
  1  'x, y, z'
loop_
 _atom_site_type_symbol
 _atom_site_label
 _atom_site_symmetry_multiplicity
 _atom_site_fract_x
 _atom_site_fract_y
 _atom_site_fract_z
 _atom_site_occupancy
  Sr  Sr0  1  0.069852  0.261447  0.563501  1
  Sr  Sr1  1  0.436499  0.930148  0.738553  1
  Sr  Sr2  1  0.738553  0.436499  0.930148  1
  Sr  Sr3  1  0.261447  0.563501  0.069852  1
  Sr  Sr4  1  0.563501  0.069852  0.261447  1
  Sr  Sr5  1  0.930148  0.738553  0.436499  1
  U  U6  1  0.000000  0.000000  0.000000  1
  Ir  Ir7  1  0.500000  0.500000  0.500000  1
  O  O8  1  0.062300  0.285787  0.933545  1
  O  O9  1  0.066455  0.937700  0.714213  1
  O  O10  1  0.453637  0.575105  0.768996  1
  O  O11  1  0.714213  0.066455  0.937700  1
  O  O12  1  0.231004  0.546363  0.424895  1
  O  O13  1  0.424895  0.231004  0.546363  1
  O  O14  1  0.575105  0.768996  0.453637  1
  O  O15  1  0.768996  0.453637  0.575105  1
  O  O16  1  0.285787  0.933545  0.062300  1
  O  O17  1  0.546363  0.424895  0.231004  1
  O  O18  1  0.933545  0.062300  0.285787  1
  O  O19  1  0.937700  0.714213  0.066455  1
