# generated using pymatgen
data_Zr8In4Ni2(PdPt)3
_symmetry_space_group_name_H-M   'P 1'
_cell_length_a   7.51016039
_cell_length_b   7.50488667
_cell_length_c   6.83360790
_cell_angle_alpha   90.24644294
_cell_angle_beta   89.79252837
_cell_angle_gamma   89.25380525
_symmetry_Int_Tables_number   1
_chemical_formula_structural   Zr8In4Ni2(PdPt)3
_chemical_formula_sum   'Zr8 In4 Ni2 Pd3 Pt3'
_cell_volume   385.12314609
_cell_formula_units_Z   1
loop_
 _symmetry_equiv_pos_site_id
 _symmetry_equiv_pos_as_xyz
  1  'x, y, z'
loop_
 _atom_site_type_symbol
 _atom_site_label
 _atom_site_symmetry_multiplicity
 _atom_site_fract_x
 _atom_site_fract_y
 _atom_site_fract_z
 _atom_site_occupancy
  Zr  Zr0  1  0.652606  0.652225  0.502340  1
  Zr  Zr1  1  0.807663  0.190173  0.505730  1
  Zr  Zr2  1  0.679790  0.680068  0.999283  1
  Zr  Zr3  1  0.838133  0.157636  0.996012  1
  Zr  Zr4  1  0.190137  0.807565  0.496292  1
  Zr  Zr5  1  0.322109  0.322117  0.999989  1
  Zr  Zr6  1  0.157381  0.838055  0.001642  1
  Zr  Zr7  1  0.350660  0.350761  0.499053  1
  In  In8  1  0.006084  0.500708  0.250781  1
  In  In9  1  0.498806  0.006960  0.748569  1
  In  In10  1  0.497109  0.993256  0.250656  1
  In  In11  1  0.994359  0.495691  0.748737  1
  Ni  Ni12  1  0.630439  0.369958  0.786744  1
  Ni  Ni13  1  0.369554  0.630216  0.212268  1
  Pd  Pd14  1  0.128811  0.130187  0.278897  1
  Pd  Pd15  1  0.869903  0.871497  0.281374  1
  Pd  Pd16  1  0.132234  0.130969  0.719055  1
  Pt  Pt17  1  0.624055  0.376960  0.220673  1
  Pt  Pt18  1  0.377118  0.623577  0.779122  1
  Pt  Pt19  1  0.873050  0.871424  0.722781  1
