# generated using pymatgen
data_Cr20Re2PC6
_symmetry_space_group_name_H-M   'P 1'
_cell_length_a   7.49897934
_cell_length_b   7.49897905
_cell_length_c   7.49898000
_cell_angle_alpha   60.00000463
_cell_angle_beta   60.00000592
_cell_angle_gamma   60.00000266
_symmetry_Int_Tables_number   1
_chemical_formula_structural   Cr20Re2PC6
_chemical_formula_sum   'Cr20 Re2 P1 C6'
_cell_volume   298.18894490
_cell_formula_units_Z   1
loop_
 _symmetry_equiv_pos_site_id
 _symmetry_equiv_pos_as_xyz
  1  'x, y, z'
loop_
 _atom_site_type_symbol
 _atom_site_label
 _atom_site_symmetry_multiplicity
 _atom_site_fract_x
 _atom_site_fract_y
 _atom_site_fract_z
 _atom_site_occupancy
  Cr  Cr0  1  0.616809  0.616809  0.149572  1
  Cr  Cr1  1  0.616809  0.149572  0.616809  1
  Cr  Cr2  1  0.149572  0.616809  0.616809  1
  Cr  Cr3  1  0.616809  0.616809  0.616809  1
  Cr  Cr4  1  0.383191  0.383191  0.850428  1
  Cr  Cr5  1  0.383191  0.850428  0.383191  1
  Cr  Cr6  1  0.850428  0.383191  0.383191  1
  Cr  Cr7  1  0.383191  0.383191  0.383191  1
  Cr  Cr8  1  0.000000  0.000000  0.336907  1
  Cr  Cr9  1  0.663093  0.000000  0.336907  1
  Cr  Cr10  1  0.000000  0.663093  0.336907  1
  Cr  Cr11  1  0.663093  0.336907  0.000000  1
  Cr  Cr12  1  0.000000  0.336907  0.000000  1
  Cr  Cr13  1  0.000000  0.336907  0.663093  1
  Cr  Cr14  1  0.336907  0.663093  0.000000  1
  Cr  Cr15  1  0.336907  0.000000  0.663093  1
  Cr  Cr16  1  0.336907  0.000000  0.000000  1
  Cr  Cr17  1  0.000000  0.000000  0.663093  1
  Cr  Cr18  1  0.000000  0.663093  0.000000  1
  Cr  Cr19  1  0.663093  0.000000  0.000000  1
  Re  Re20  1  0.750000  0.750000  0.750000  1
  Re  Re21  1  0.250000  0.250000  0.250000  1
  P  P22  1  0.000000  0.000000  0.000000  1
  C  C23  1  0.720255  0.720255  0.279745  1
  C  C24  1  0.279745  0.720255  0.279745  1
  C  C25  1  0.720255  0.279745  0.279745  1
  C  C26  1  0.279745  0.279745  0.720255  1
  C  C27  1  0.720255  0.279745  0.720255  1
  C  C28  1  0.279745  0.720255  0.720255  1
