# generated using pymatgen
data_Eu2(Ga3Pt)3
_symmetry_space_group_name_H-M   'P 1'
_cell_length_a   7.75359773
_cell_length_b   7.75359703
_cell_length_c   9.62044400
_cell_angle_alpha   90.00000000
_cell_angle_beta   90.00000000
_cell_angle_gamma   119.68189001
_symmetry_Int_Tables_number   1
_chemical_formula_structural   Eu2(Ga3Pt)3
_chemical_formula_sum   'Eu4 Ga18 Pt6'
_cell_volume   502.47615666
_cell_formula_units_Z   2
loop_
 _symmetry_equiv_pos_site_id
 _symmetry_equiv_pos_as_xyz
  1  'x, y, z'
loop_
 _atom_site_type_symbol
 _atom_site_label
 _atom_site_symmetry_multiplicity
 _atom_site_fract_x
 _atom_site_fract_y
 _atom_site_fract_z
 _atom_site_occupancy
  Eu  Eu0  1  0.669718  0.997810  0.250000  1
  Eu  Eu1  1  0.002190  0.330282  0.750000  1
  Eu  Eu2  1  0.997810  0.669718  0.250000  1
  Eu  Eu3  1  0.330282  0.002190  0.750000  1
  Ga  Ga4  1  0.665200  0.000587  0.920496  1
  Ga  Ga5  1  0.131203  0.131203  0.250000  1
  Ga  Ga6  1  0.999413  0.334800  0.420496  1
  Ga  Ga7  1  0.331494  0.331494  0.565416  1
  Ga  Ga8  1  0.340016  0.543848  0.250000  1
  Ga  Ga9  1  0.456152  0.659984  0.750000  1
  Ga  Ga10  1  0.868797  0.868797  0.750000  1
  Ga  Ga11  1  0.668506  0.668506  0.065416  1
  Ga  Ga12  1  0.668506  0.668506  0.434584  1
  Ga  Ga13  1  0.000587  0.665200  0.579504  1
  Ga  Ga14  1  0.000587  0.665200  0.920496  1
  Ga  Ga15  1  0.334800  0.999413  0.420496  1
  Ga  Ga16  1  0.659984  0.456152  0.750000  1
  Ga  Ga17  1  0.543848  0.340016  0.250000  1
  Ga  Ga18  1  0.331494  0.331494  0.934584  1
  Ga  Ga19  1  0.334800  0.999413  0.079504  1
  Ga  Ga20  1  0.665200  0.000587  0.579504  1
  Ga  Ga21  1  0.999413  0.334800  0.079504  1
  Pt  Pt22  1  0.330639  0.669361  0.500000  1
  Pt  Pt23  1  0.330639  0.669361  0.000000  1
  Pt  Pt24  1  0.669361  0.330639  0.500000  1
  Pt  Pt25  1  0.000000  0.000000  0.000000  1
  Pt  Pt26  1  0.000000  0.000000  0.500000  1
  Pt  Pt27  1  0.669361  0.330639  0.000000  1
