# generated using pymatgen
data_SrLa3(PPd3)8
_symmetry_space_group_name_H-M   'P 1'
_cell_length_a   8.56502851
_cell_length_b   8.56502851
_cell_length_c   8.56502851
_cell_angle_alpha   90.04806068
_cell_angle_beta   90.04806068
_cell_angle_gamma   90.04806068
_symmetry_Int_Tables_number   1
_chemical_formula_structural   SrLa3(PPd3)8
_chemical_formula_sum   'Sr1 La3 P8 Pd24'
_cell_volume   628.32737243
_cell_formula_units_Z   1
loop_
 _symmetry_equiv_pos_site_id
 _symmetry_equiv_pos_as_xyz
  1  'x, y, z'
loop_
 _atom_site_type_symbol
 _atom_site_label
 _atom_site_symmetry_multiplicity
 _atom_site_fract_x
 _atom_site_fract_y
 _atom_site_fract_z
 _atom_site_occupancy
  Sr  Sr0  1  0.000000  0.000000  0.000000  1
  La  La1  1  0.500000  0.500000  0.000000  1
  La  La2  1  0.500000  0.000000  0.500000  1
  La  La3  1  0.000000  0.500000  0.500000  1
  P  P4  1  0.807450  0.307568  0.192057  1
  P  P5  1  0.192057  0.807450  0.307568  1
  P  P6  1  0.692666  0.692666  0.692666  1
  P  P7  1  0.307568  0.192057  0.807450  1
  P  P8  1  0.192550  0.692432  0.807943  1
  P  P9  1  0.807943  0.192550  0.692432  1
  P  P10  1  0.307334  0.307334  0.307334  1
  P  P11  1  0.692432  0.807943  0.192550  1
  Pd  Pd12  1  0.421159  0.847094  0.162395  1
  Pd  Pd13  1  0.579096  0.346891  0.337660  1
  Pd  Pd14  1  0.079208  0.153985  0.660960  1
  Pd  Pd15  1  0.921479  0.651804  0.836852  1
  Pd  Pd16  1  0.162395  0.421159  0.847094  1
  Pd  Pd17  1  0.337660  0.579096  0.346891  1
  Pd  Pd18  1  0.660960  0.079208  0.153985  1
  Pd  Pd19  1  0.836852  0.921479  0.651804  1
  Pd  Pd20  1  0.847094  0.162395  0.421159  1
  Pd  Pd21  1  0.346891  0.337660  0.579096  1
  Pd  Pd22  1  0.153985  0.660960  0.079208  1
  Pd  Pd23  1  0.651804  0.836852  0.921479  1
  Pd  Pd24  1  0.578841  0.152906  0.837605  1
  Pd  Pd25  1  0.420904  0.653109  0.662340  1
  Pd  Pd26  1  0.920792  0.846015  0.339040  1
  Pd  Pd27  1  0.078521  0.348196  0.163148  1
  Pd  Pd28  1  0.837605  0.578841  0.152906  1
  Pd  Pd29  1  0.662340  0.420904  0.653109  1
  Pd  Pd30  1  0.339040  0.920792  0.846015  1
  Pd  Pd31  1  0.163148  0.078521  0.348196  1
  Pd  Pd32  1  0.152906  0.837605  0.578841  1
  Pd  Pd33  1  0.653109  0.662340  0.420904  1
  Pd  Pd34  1  0.846015  0.339040  0.920792  1
  Pd  Pd35  1  0.348196  0.163148  0.078521  1
