# generated using pymatgen
data_Cs4V2CuNiSe8
_symmetry_space_group_name_H-M   'P 1'
_cell_length_a   14.85243882
_cell_length_b   13.24170251
_cell_length_c   7.84203140
_cell_angle_alpha   85.51368864
_cell_angle_beta   62.72521220
_cell_angle_gamma   31.76108359
_symmetry_Int_Tables_number   1
_chemical_formula_structural   Cs4V2CuNiSe8
_chemical_formula_sum   'Cs4 V2 Cu1 Ni1 Se8'
_cell_volume   538.50514736
_cell_formula_units_Z   1
loop_
 _symmetry_equiv_pos_site_id
 _symmetry_equiv_pos_as_xyz
  1  'x, y, z'
loop_
 _atom_site_type_symbol
 _atom_site_label
 _atom_site_symmetry_multiplicity
 _atom_site_fract_x
 _atom_site_fract_y
 _atom_site_fract_z
 _atom_site_occupancy
  Cs  Cs0  1  0.572329  0.572329  0.927671  1
  Cs  Cs1  1  0.927671  0.927671  0.572329  1
  Cs  Cs2  1  0.322311  0.322311  0.677689  1
  Cs  Cs3  1  0.677689  0.677689  0.322311  1
  V  V4  1  0.750000  0.750000  0.750000  1
  V  V5  1  0.500000  0.500000  0.500000  1
  Cu  Cu6  1  0.250000  0.250000  0.250000  1
  Ni  Ni7  1  0.000000  0.000000  0.000000  1
  Se  Se8  1  0.218824  0.883826  0.602569  1
  Se  Se9  1  0.294781  0.602569  0.883826  1
  Se  Se10  1  0.602569  0.294781  0.218824  1
  Se  Se11  1  0.883826  0.218824  0.294781  1
  Se  Se12  1  0.373348  0.022726  0.943382  1
  Se  Se13  1  0.943382  0.660543  0.373348  1
  Se  Se14  1  0.660543  0.943382  0.022726  1
  Se  Se15  1  0.022726  0.373348  0.660543  1
