# generated using pymatgen
data_Tb4HoCo19(SiP3)3
_symmetry_space_group_name_H-M   'P 1'
_cell_length_a   12.04148200
_cell_length_b   12.03923273
_cell_length_c   3.69614300
_cell_angle_alpha   90.00000000
_cell_angle_beta   90.00000000
_cell_angle_gamma   120.00618042
_symmetry_Int_Tables_number   1
_chemical_formula_structural   Tb4HoCo19(SiP3)3
_chemical_formula_sum   'Tb4 Ho1 Co19 Si3 P9'
_cell_volume   464.01401423
_cell_formula_units_Z   1
loop_
 _symmetry_equiv_pos_site_id
 _symmetry_equiv_pos_as_xyz
  1  'x, y, z'
loop_
 _atom_site_type_symbol
 _atom_site_label
 _atom_site_symmetry_multiplicity
 _atom_site_fract_x
 _atom_site_fract_y
 _atom_site_fract_z
 _atom_site_occupancy
  Tb  Tb0  1  0.333307  0.666697  0.000000  1
  Tb  Tb1  1  0.666610  0.333303  0.000000  1
  Tb  Tb2  1  0.000131  0.184716  0.500000  1
  Tb  Tb3  1  0.815415  0.815284  0.500000  1
  Ho  Ho4  1  0.185007  0.000000  0.500000  1
  Co  Co5  1  0.202686  0.377814  0.000000  1
  Co  Co6  1  0.621981  0.824701  0.000000  1
  Co  Co7  1  0.175454  0.797895  0.000000  1
  Co  Co8  1  0.824872  0.622186  0.000000  1
  Co  Co9  1  0.797280  0.175299  0.000000  1
  Co  Co10  1  0.377558  0.202105  0.000000  1
  Co  Co11  1  0.556899  0.000000  0.000000  1
  Co  Co12  1  0.000040  0.557282  0.000000  1
  Co  Co13  1  0.442758  0.442718  0.000000  1
  Co  Co14  1  0.126696  0.485208  0.500000  1
  Co  Co15  1  0.514708  0.641405  0.500000  1
  Co  Co16  1  0.358358  0.873486  0.500000  1
  Co  Co17  1  0.641487  0.514792  0.500000  1
  Co  Co18  1  0.873303  0.358595  0.500000  1
  Co  Co19  1  0.484873  0.126514  0.500000  1
  Co  Co20  1  0.715727  0.000000  0.500000  1
  Co  Co21  1  0.000270  0.716159  0.500000  1
  Co  Co22  1  0.284110  0.283841  0.500000  1
  Co  Co23  1  0.000472  0.000000  0.000000  1
  Si  Si24  1  0.369132  0.000000  0.000000  1
  Si  Si25  1  0.999987  0.369717  0.000000  1
  Si  Si26  1  0.630270  0.630283  0.000000  1
  P  P27  1  0.313471  0.479061  0.500000  1
  P  P28  1  0.520693  0.834347  0.500000  1
  P  P29  1  0.165690  0.686498  0.500000  1
  P  P30  1  0.834411  0.520939  0.500000  1
  P  P31  1  0.686347  0.165653  0.500000  1
  P  P32  1  0.479193  0.313502  0.500000  1
  P  P33  1  0.817795  0.000000  0.000000  1
  P  P34  1  0.000679  0.818351  0.000000  1
  P  P35  1  0.182329  0.181649  0.000000  1
