# generated using pymatgen
data_Y8Tm(IO8)3
_symmetry_space_group_name_H-M   'P 1'
_cell_length_a   5.49067906
_cell_length_b   7.75155367
_cell_length_c   11.71749500
_cell_angle_alpha   75.86461111
_cell_angle_beta   89.81682196
_cell_angle_gamma   90.49232934
_symmetry_Int_Tables_number   1
_chemical_formula_structural   Y8Tm(IO8)3
_chemical_formula_sum   'Y8 Tm1 I3 O24'
_cell_volume   483.58636510
_cell_formula_units_Z   1
loop_
 _symmetry_equiv_pos_site_id
 _symmetry_equiv_pos_as_xyz
  1  'x, y, z'
loop_
 _atom_site_type_symbol
 _atom_site_label
 _atom_site_symmetry_multiplicity
 _atom_site_fract_x
 _atom_site_fract_y
 _atom_site_fract_z
 _atom_site_occupancy
  Y  Y0  1  0.188800  0.806770  0.066707  1
  Y  Y1  1  0.255709  0.967813  0.760833  1
  Y  Y2  1  0.743382  0.003129  0.257005  1
  Y  Y3  1  0.318282  0.512087  0.747281  1
  Y  Y4  1  0.198157  0.220912  0.425075  1
  Y  Y5  1  0.702522  0.509546  0.243753  1
  Y  Y6  1  0.782076  0.193468  0.920322  1
  Y  Y7  1  0.805577  0.778667  0.591775  1
  Tm  Tm8  1  0.741842  0.705028  0.894961  1
  I  I9  1  0.255935  0.736082  0.381697  1
  I  I10  1  0.752122  0.267511  0.612784  1
  I  I11  1  0.250555  0.276643  0.118971  1
  O  O12  1  0.862980  0.362820  0.454661  1
  O  O13  1  0.457392  0.873215  0.929519  1
  O  O14  1  0.854688  0.645763  0.079575  1
  O  O15  1  0.023237  0.301360  0.710636  1
  O  O16  1  0.987920  0.296478  0.232545  1
  O  O17  1  0.109819  0.360238  0.970701  1
  O  O18  1  0.602306  0.450300  0.877198  1
  O  O19  1  0.522501  0.155573  0.075696  1
  O  O20  1  0.142415  0.640771  0.533184  1
  O  O21  1  0.030476  0.711697  0.755711  1
  O  O22  1  0.447101  0.213290  0.269998  1
  O  O23  1  0.074387  0.952485  0.391868  1
  O  O24  1  0.483646  0.161268  0.554112  1
  O  O25  1  0.975658  0.716126  0.287590  1
  O  O26  1  0.944485  0.061556  0.599770  1
  O  O27  1  0.581285  0.173182  0.756054  1
  O  O28  1  0.519218  0.774191  0.716968  1
  O  O29  1  0.057308  0.061530  0.122592  1
  O  O30  1  0.622715  0.491351  0.608964  1
  O  O31  1  0.378161  0.504112  0.110646  1
  O  O32  1  0.433460  0.813691  0.231123  1
  O  O33  1  0.370796  0.510393  0.374766  1
  O  O34  1  0.541674  0.839421  0.431687  1
  O  O35  1  0.981414  0.951530  0.903273  1
