# generated using pymatgen
data_LaP12Os3Rh
_symmetry_space_group_name_H-M   'P 1'
_cell_length_a   7.04420256
_cell_length_b   7.04420237
_cell_length_c   7.04420301
_cell_angle_alpha   109.44045278
_cell_angle_beta   109.44045522
_cell_angle_gamma   109.44045339
_symmetry_Int_Tables_number   1
_chemical_formula_structural   LaP12Os3Rh
_chemical_formula_sum   'La1 P12 Os3 Rh1'
_cell_volume   269.38124670
_cell_formula_units_Z   1
loop_
 _symmetry_equiv_pos_site_id
 _symmetry_equiv_pos_as_xyz
  1  'x, y, z'
loop_
 _atom_site_type_symbol
 _atom_site_label
 _atom_site_symmetry_multiplicity
 _atom_site_fract_x
 _atom_site_fract_y
 _atom_site_fract_z
 _atom_site_occupancy
  La  La0  1  0.000000  0.000000  0.000000  1
  P  P1  1  0.859019  0.645473  0.500754  1
  P  P2  1  0.140981  0.354527  0.499246  1
  P  P3  1  0.143972  0.644475  0.788078  1
  P  P4  1  0.856028  0.355525  0.211922  1
  P  P5  1  0.645473  0.500754  0.859019  1
  P  P6  1  0.354527  0.499246  0.140981  1
  P  P7  1  0.644475  0.788078  0.143972  1
  P  P8  1  0.355525  0.211922  0.856028  1
  P  P9  1  0.500754  0.859019  0.645473  1
  P  P10  1  0.499246  0.140981  0.354527  1
  P  P11  1  0.788078  0.143972  0.644475  1
  P  P12  1  0.211922  0.856028  0.355525  1
  Os  Os13  1  0.500000  0.000000  0.000000  1
  Os  Os14  1  0.000000  0.500000  0.000000  1
  Os  Os15  1  0.000000  0.000000  0.500000  1
  Rh  Rh16  1  0.500000  0.500000  0.500000  1
