# generated using pymatgen
data_CrNi3SnSb11
_symmetry_space_group_name_H-M   'P 1'
_cell_length_a   8.06882852
_cell_length_b   7.99503868
_cell_length_c   8.05484362
_cell_angle_alpha   109.27273321
_cell_angle_beta   109.47376931
_cell_angle_gamma   109.44597583
_symmetry_Int_Tables_number   1
_chemical_formula_structural   CrNi3SnSb11
_chemical_formula_sum   'Cr1 Ni3 Sn1 Sb11'
_cell_volume   401.09288281
_cell_formula_units_Z   1
loop_
 _symmetry_equiv_pos_site_id
 _symmetry_equiv_pos_as_xyz
  1  'x, y, z'
loop_
 _atom_site_type_symbol
 _atom_site_label
 _atom_site_symmetry_multiplicity
 _atom_site_fract_x
 _atom_site_fract_y
 _atom_site_fract_z
 _atom_site_occupancy
  Cr  Cr0  1  0.998338  0.496408  0.998607  1
  Ni  Ni1  1  0.998450  0.002816  0.497342  1
  Ni  Ni2  1  0.504342  0.001923  0.004730  1
  Ni  Ni3  1  0.499029  0.496943  0.499434  1
  Sn  Sn4  1  0.159686  0.826804  0.668301  1
  Sb  Sb5  1  0.844150  0.181980  0.336062  1
  Sb  Sb6  1  0.838070  0.502574  0.655186  1
  Sb  Sb7  1  0.164291  0.501395  0.347313  1
  Sb  Sb8  1  0.818075  0.664971  0.162780  1
  Sb  Sb9  1  0.182113  0.333469  0.837026  1
  Sb  Sb10  1  0.506036  0.663990  0.841212  1
  Sb  Sb11  1  0.493210  0.335316  0.158312  1
  Sb  Sb12  1  0.651801  0.149750  0.815766  1
  Sb  Sb13  1  0.343403  0.845084  0.180175  1
  Sb  Sb14  1  0.664779  0.841720  0.504722  1
  Sb  Sb15  1  0.334227  0.154858  0.493031  1
