# generated using pymatgen
data_Tb10Tl3In5Pd4
_symmetry_space_group_name_H-M   'P 1'
_cell_length_a   3.64100700
_cell_length_b   8.23522604
_cell_length_c   18.43033423
_cell_angle_alpha   89.95067751
_cell_angle_beta   90.00000000
_cell_angle_gamma   90.00000000
_symmetry_Int_Tables_number   1
_chemical_formula_structural   Tb10Tl3In5Pd4
_chemical_formula_sum   'Tb10 Tl3 In5 Pd4'
_cell_volume   552.62444062
_cell_formula_units_Z   1
loop_
 _symmetry_equiv_pos_site_id
 _symmetry_equiv_pos_as_xyz
  1  'x, y, z'
loop_
 _atom_site_type_symbol
 _atom_site_label
 _atom_site_symmetry_multiplicity
 _atom_site_fract_x
 _atom_site_fract_y
 _atom_site_fract_z
 _atom_site_occupancy
  Tb  Tb0  1  0.000000  0.498586  0.500183  1
  Tb  Tb1  1  0.000000  0.999998  0.999962  1
  Tb  Tb2  1  0.000000  0.739965  0.281393  1
  Tb  Tb3  1  0.000000  0.260075  0.718527  1
  Tb  Tb4  1  0.000000  0.760139  0.780690  1
  Tb  Tb5  1  0.000000  0.239258  0.218994  1
  Tb  Tb6  1  0.000000  0.617478  0.084678  1
  Tb  Tb7  1  0.000000  0.382774  0.915317  1
  Tb  Tb8  1  0.000000  0.883111  0.584376  1
  Tb  Tb9  1  0.000000  0.118068  0.416474  1
  Tl  Tl10  1  0.500000  0.708700  0.932772  1
  Tl  Tl11  1  0.500000  0.291635  0.067112  1
  Tl  Tl12  1  0.500000  0.791906  0.433061  1
  In  In13  1  0.500000  0.207900  0.567803  1
  In  In14  1  0.500000  0.580310  0.650265  1
  In  In15  1  0.500000  0.416523  0.349245  1
  In  In16  1  0.500000  0.916947  0.150864  1
  In  In17  1  0.500000  0.082750  0.849107  1
  Pd  Pd18  1  0.500000  0.526868  0.197654  1
  Pd  Pd19  1  0.500000  0.473847  0.802400  1
  Pd  Pd20  1  0.500000  0.976352  0.696426  1
  Pd  Pd21  1  0.500000  0.026809  0.302698  1
