# generated using pymatgen
data_Nb12Al9Co(NiC2)2
_symmetry_space_group_name_H-M   'P 1'
_cell_length_a   8.30354426
_cell_length_b   8.31465083
_cell_length_c   8.30354401
_cell_angle_alpha   59.93660820
_cell_angle_beta   59.90613038
_cell_angle_gamma   59.93661181
_symmetry_Int_Tables_number   1
_chemical_formula_structural   Nb12Al9Co(NiC2)2
_chemical_formula_sum   'Nb12 Al9 Co1 Ni2 C4'
_cell_volume   404.69774199
_cell_formula_units_Z   1
loop_
 _symmetry_equiv_pos_site_id
 _symmetry_equiv_pos_as_xyz
  1  'x, y, z'
loop_
 _atom_site_type_symbol
 _atom_site_label
 _atom_site_symmetry_multiplicity
 _atom_site_fract_x
 _atom_site_fract_y
 _atom_site_fract_z
 _atom_site_occupancy
  Nb  Nb0  1  0.684377  0.314593  0.684377  1
  Nb  Nb1  1  0.936754  0.565614  0.563203  1
  Nb  Nb2  1  0.557404  0.938493  0.938675  1
  Nb  Nb3  1  0.939385  0.557780  0.939385  1
  Nb  Nb4  1  0.563203  0.565614  0.936754  1
  Nb  Nb5  1  0.938675  0.938493  0.557404  1
  Nb  Nb6  1  0.686797  0.684386  0.313246  1
  Nb  Nb7  1  0.313246  0.684386  0.686797  1
  Nb  Nb8  1  0.692596  0.311507  0.311325  1
  Nb  Nb9  1  0.311325  0.311507  0.692596  1
  Nb  Nb10  1  0.565623  0.935407  0.565623  1
  Nb  Nb11  1  0.310615  0.692220  0.310615  1
  Al  Al12  1  0.125000  0.125000  0.125000  1
  Al  Al13  1  0.333286  0.336029  0.333286  1
  Al  Al14  1  0.248875  0.908312  0.910656  1
  Al  Al15  1  0.909218  0.250769  0.909218  1
  Al  Al16  1  0.910656  0.908312  0.248875  1
  Al  Al17  1  0.340782  0.999231  0.340782  1
  Al  Al18  1  0.339344  0.341688  0.001125  1
  Al  Al19  1  0.001125  0.341688  0.339344  1
  Al  Al20  1  0.916714  0.913971  0.916714  1
  Co  Co21  1  0.125000  0.625000  0.125000  1
  Ni  Ni22  1  0.625000  0.125000  0.125000  1
  Ni  Ni23  1  0.125000  0.125000  0.625000  1
  C  C24  1  0.625000  0.625000  0.625000  1
  C  C25  1  0.125000  0.625000  0.625000  1
  C  C26  1  0.625000  0.125000  0.625000  1
  C  C27  1  0.625000  0.625000  0.125000  1
