# generated using pymatgen
data_Dy5Zr3P12(Ir3Rh5)2
_symmetry_space_group_name_H-M   'P 1'
_cell_length_a   12.88969803
_cell_length_b   12.88096672
_cell_length_c   3.96234800
_cell_angle_alpha   90.00000000
_cell_angle_beta   90.00000000
_cell_angle_gamma   120.03060198
_symmetry_Int_Tables_number   1
_chemical_formula_structural   Dy5Zr3P12(Ir3Rh5)2
_chemical_formula_sum   'Dy5 Zr3 P12 Ir6 Rh10'
_cell_volume   569.56126293
_cell_formula_units_Z   1
loop_
 _symmetry_equiv_pos_site_id
 _symmetry_equiv_pos_as_xyz
  1  'x, y, z'
loop_
 _atom_site_type_symbol
 _atom_site_label
 _atom_site_symmetry_multiplicity
 _atom_site_fract_x
 _atom_site_fract_y
 _atom_site_fract_z
 _atom_site_occupancy
  Dy  Dy0  1  0.333356  0.666684  0.500000  1
  Dy  Dy1  1  0.666613  0.333131  0.500000  1
  Dy  Dy2  1  0.000155  0.815820  0.000000  1
  Dy  Dy3  1  0.184879  0.184797  0.000000  1
  Dy  Dy4  1  0.815606  0.000002  0.000000  1
  Zr  Zr5  1  0.000693  0.448138  0.500000  1
  Zr  Zr6  1  0.551825  0.552474  0.500000  1
  Zr  Zr7  1  0.447254  0.999819  0.500000  1
  P  P8  1  0.999843  0.649299  0.500000  1
  P  P9  1  0.350696  0.350890  0.500000  1
  P  P10  1  0.649180  0.000171  0.500000  1
  P  P11  1  0.516727  0.685990  0.000000  1
  P  P12  1  0.314011  0.830934  0.000000  1
  P  P13  1  0.169186  0.483220  0.000000  1
  P  P14  1  0.482808  0.169303  0.000000  1
  P  P15  1  0.686809  0.516996  0.000000  1
  P  P16  1  0.830318  0.312930  0.000000  1
  P  P17  1  0.999715  0.175703  0.500000  1
  P  P18  1  0.824473  0.824109  0.500000  1
  P  P19  1  0.176077  0.000123  0.500000  1
  Ir  Ir20  1  0.000351  0.280283  0.000000  1
  Ir  Ir21  1  0.719741  0.720131  0.000000  1
  Ir  Ir22  1  0.280250  0.000032  0.000000  1
  Ir  Ir23  1  0.805989  0.627462  0.500000  1
  Ir  Ir24  1  0.821620  0.193803  0.500000  1
  Ir  Ir25  1  0.000093  0.000016  0.500000  1
  Rh  Rh26  1  0.512373  0.867035  0.000000  1
  Rh  Rh27  1  0.133207  0.645593  0.000000  1
  Rh  Rh28  1  0.354327  0.487144  0.000000  1
  Rh  Rh29  1  0.488354  0.355545  0.000000  1
  Rh  Rh30  1  0.866223  0.510181  0.000000  1
  Rh  Rh31  1  0.644561  0.133262  0.000000  1
  Rh  Rh32  1  0.627875  0.806245  0.500000  1
  Rh  Rh33  1  0.193890  0.821748  0.500000  1
  Rh  Rh34  1  0.178231  0.372492  0.500000  1
  Rh  Rh35  1  0.372691  0.178496  0.500000  1
