# generated using pymatgen
data_Tb3Sc(Pa2Ga5)4
_symmetry_space_group_name_H-M   'P 1'
_cell_length_a   6.07550207
_cell_length_b   9.52275400
_cell_length_c   11.69055000
_cell_angle_alpha   90.00000000
_cell_angle_beta   89.99104091
_cell_angle_gamma   90.00000000
_symmetry_Int_Tables_number   1
_chemical_formula_structural   Tb3Sc(Pa2Ga5)4
_chemical_formula_sum   'Tb3 Sc1 Pa8 Ga20'
_cell_volume   676.36274380
_cell_formula_units_Z   1
loop_
 _symmetry_equiv_pos_site_id
 _symmetry_equiv_pos_as_xyz
  1  'x, y, z'
loop_
 _atom_site_type_symbol
 _atom_site_label
 _atom_site_symmetry_multiplicity
 _atom_site_fract_x
 _atom_site_fract_y
 _atom_site_fract_z
 _atom_site_occupancy
  Tb  Tb0  1  0.859476  0.750000  0.072020  1
  Tb  Tb1  1  0.640312  0.750000  0.571283  1
  Tb  Tb2  1  0.140529  0.250000  0.927989  1
  Sc  Sc3  1  0.356866  0.250000  0.426821  1
  Pa  Pa4  1  0.879976  0.502647  0.352458  1
  Pa  Pa5  1  0.620513  0.998290  0.851742  1
  Pa  Pa6  1  0.120404  0.003003  0.646521  1
  Pa  Pa7  1  0.379030  0.497901  0.148027  1
  Pa  Pa8  1  0.120404  0.496997  0.646521  1
  Pa  Pa9  1  0.379030  0.002099  0.148027  1
  Pa  Pa10  1  0.879976  0.997353  0.352458  1
  Pa  Pa11  1  0.620513  0.501710  0.851742  1
  Ga  Ga12  1  0.869361  0.053594  0.092288  1
  Ga  Ga13  1  0.628433  0.444901  0.588810  1
  Ga  Ga14  1  0.130408  0.552877  0.908130  1
  Ga  Ga15  1  0.370445  0.954909  0.409521  1
  Ga  Ga16  1  0.130408  0.947123  0.908130  1
  Ga  Ga17  1  0.370445  0.545091  0.409521  1
  Ga  Ga18  1  0.869361  0.446406  0.092288  1
  Ga  Ga19  1  0.628433  0.055099  0.588810  1
  Ga  Ga20  1  0.155084  0.750000  0.265437  1
  Ga  Ga21  1  0.345272  0.750000  0.764573  1
  Ga  Ga22  1  0.845394  0.250000  0.734169  1
  Ga  Ga23  1  0.648090  0.250000  0.240100  1
  Ga  Ga24  1  0.392023  0.750000  0.994018  1
  Ga  Ga25  1  0.111576  0.750000  0.493515  1
  Ga  Ga26  1  0.607847  0.250000  0.007018  1
  Ga  Ga27  1  0.901906  0.250000  0.504715  1
  Ga  Ga28  1  0.593758  0.750000  0.293159  1
  Ga  Ga29  1  0.903619  0.750000  0.791647  1
  Ga  Ga30  1  0.404007  0.250000  0.705976  1
  Ga  Ga31  1  0.097094  0.250000  0.212571  1
