# generated using pymatgen
data_Pr6YCoBr12
_symmetry_space_group_name_H-M   'P 1'
_cell_length_a   9.55328386
_cell_length_b   9.55328336
_cell_length_c   9.55328440
_cell_angle_alpha   106.98664911
_cell_angle_beta   106.98663885
_cell_angle_gamma   106.98663006
_symmetry_Int_Tables_number   1
_chemical_formula_structural   Pr6YCoBr12
_chemical_formula_sum   'Pr6 Y1 Co1 Br12'
_cell_volume   726.37671606
_cell_formula_units_Z   1
loop_
 _symmetry_equiv_pos_site_id
 _symmetry_equiv_pos_as_xyz
  1  'x, y, z'
loop_
 _atom_site_type_symbol
 _atom_site_label
 _atom_site_symmetry_multiplicity
 _atom_site_fract_x
 _atom_site_fract_y
 _atom_site_fract_z
 _atom_site_occupancy
  Pr  Pr0  1  0.975662  0.898630  0.690263  1
  Pr  Pr1  1  0.024338  0.101370  0.309737  1
  Pr  Pr2  1  0.101370  0.309737  0.024338  1
  Pr  Pr3  1  0.309737  0.024338  0.101370  1
  Pr  Pr4  1  0.898630  0.690263  0.975662  1
  Pr  Pr5  1  0.690263  0.975662  0.898630  1
  Y  Y6  1  0.500000  0.500000  0.500000  1
  Co  Co7  1  0.000000  0.000000  0.000000  1
  Br  Br8  1  0.533459  0.609083  0.821537  1
  Br  Br9  1  0.466541  0.390917  0.178463  1
  Br  Br10  1  0.316617  0.928023  0.775193  1
  Br  Br11  1  0.390917  0.178463  0.466541  1
  Br  Br12  1  0.928023  0.775193  0.316617  1
  Br  Br13  1  0.683383  0.071977  0.224807  1
  Br  Br14  1  0.071977  0.224807  0.683383  1
  Br  Br15  1  0.775193  0.316617  0.928023  1
  Br  Br16  1  0.224807  0.683383  0.071977  1
  Br  Br17  1  0.821537  0.533459  0.609083  1
  Br  Br18  1  0.178463  0.466541  0.390917  1
  Br  Br19  1  0.609083  0.821537  0.533459  1
