# generated using pymatgen
data_MnZn7(PtRh)4
_symmetry_space_group_name_H-M   'P 1'
_cell_length_a   6.13143833
_cell_length_b   4.31029700
_cell_length_c   8.61124147
_cell_angle_alpha   90.00000000
_cell_angle_beta   89.96240524
_cell_angle_gamma   90.00000000
_symmetry_Int_Tables_number   1
_chemical_formula_structural   MnZn7(PtRh)4
_chemical_formula_sum   'Mn1 Zn7 Pt4 Rh4'
_cell_volume   227.58059806
_cell_formula_units_Z   1
loop_
 _symmetry_equiv_pos_site_id
 _symmetry_equiv_pos_as_xyz
  1  'x, y, z'
loop_
 _atom_site_type_symbol
 _atom_site_label
 _atom_site_symmetry_multiplicity
 _atom_site_fract_x
 _atom_site_fract_y
 _atom_site_fract_z
 _atom_site_occupancy
  Mn  Mn0  1  0.499984  0.749999  0.125278  1
  Zn  Zn1  1  0.000031  0.749999  0.125274  1
  Zn  Zn2  1  0.500016  0.250000  0.372837  1
  Zn  Zn3  1  0.000031  0.250000  0.375845  1
  Zn  Zn4  1  0.999806  0.749999  0.625253  1
  Zn  Zn5  1  0.499914  0.749999  0.625280  1
  Zn  Zn6  1  0.000027  0.250000  0.873630  1
  Zn  Zn7  1  0.499983  0.250000  0.876607  1
  Pt  Pt8  1  0.751747  0.250000  0.124752  1
  Pt  Pt9  1  0.249273  0.749999  0.375301  1
  Pt  Pt10  1  0.749034  0.250000  0.624768  1
  Pt  Pt11  1  0.249243  0.749999  0.875194  1
  Rh  Rh12  1  0.249521  0.250000  0.124794  1
  Rh  Rh13  1  0.750475  0.749999  0.375049  1
  Rh  Rh14  1  0.250441  0.250000  0.624807  1
  Rh  Rh15  1  0.750474  0.749999  0.875330  1
