# generated using pymatgen
data_TbY3(Ga5Ni3)2
_symmetry_space_group_name_H-M   'P 1'
_cell_length_a   8.33307402
_cell_length_b   8.33200888
_cell_length_c   8.33200932
_cell_angle_alpha   141.13154630
_cell_angle_beta   107.71787508
_cell_angle_gamma   85.24200210
_symmetry_Int_Tables_number   1
_chemical_formula_structural   TbY3(Ga5Ni3)2
_chemical_formula_sum   'Tb1 Y3 Ga10 Ni6'
_cell_volume   334.13713447
_cell_formula_units_Z   1
loop_
 _symmetry_equiv_pos_site_id
 _symmetry_equiv_pos_as_xyz
  1  'x, y, z'
loop_
 _atom_site_type_symbol
 _atom_site_label
 _atom_site_symmetry_multiplicity
 _atom_site_fract_x
 _atom_site_fract_y
 _atom_site_fract_z
 _atom_site_occupancy
  Tb  Tb0  1  0.366162  0.641980  0.724182  1
  Y  Y1  1  0.633744  0.358091  0.275654  1
  Y  Y2  1  0.082395  0.858019  0.224376  1
  Y  Y3  1  0.917632  0.141982  0.775650  1
  Ga  Ga4  1  0.999929  0.749956  0.749986  1
  Ga  Ga5  1  0.999929  0.249943  0.249973  1
  Ga  Ga6  1  0.710784  0.460742  0.750012  1
  Ga  Ga7  1  0.289240  0.039246  0.749919  1
  Ga  Ga8  1  0.289240  0.539321  0.249994  1
  Ga  Ga9  1  0.710784  0.960772  0.250043  1
  Ga  Ga10  1  0.239472  0.410609  0.828865  1
  Ga  Ga11  1  0.760543  0.589421  0.171120  1
  Ga  Ga12  1  0.581701  0.910535  0.671166  1
  Ga  Ga13  1  0.418342  0.089356  0.328986  1
  Ni  Ni14  1  0.050351  0.644356  0.405994  1
  Ni  Ni15  1  0.238409  0.144341  0.094068  1
  Ni  Ni16  1  0.500019  0.750031  0.250032  1
  Ni  Ni17  1  0.500019  0.249987  0.749988  1
  Ni  Ni18  1  0.949766  0.355691  0.594074  1
  Ni  Ni19  1  0.761538  0.855621  0.905917  1
