# generated using pymatgen
data_Pa6Co3Ni3Sb8
_symmetry_space_group_name_H-M   'P 1'
_cell_length_a   8.12723111
_cell_length_b   8.12728105
_cell_length_c   8.12728216
_cell_angle_alpha   109.42662588
_cell_angle_beta   109.70570340
_cell_angle_gamma   109.28186645
_symmetry_Int_Tables_number   1
_chemical_formula_structural   Pa6Co3Ni3Sb8
_chemical_formula_sum   'Pa6 Co3 Ni3 Sb8'
_cell_volume   413.24144002
_cell_formula_units_Z   1
loop_
 _symmetry_equiv_pos_site_id
 _symmetry_equiv_pos_as_xyz
  1  'x, y, z'
loop_
 _atom_site_type_symbol
 _atom_site_label
 _atom_site_symmetry_multiplicity
 _atom_site_fract_x
 _atom_site_fract_y
 _atom_site_fract_z
 _atom_site_occupancy
  Pa  Pa0  1  0.871050  0.245724  0.122083  1
  Pa  Pa1  1  0.628950  0.751033  0.374674  1
  Pa  Pa2  1  0.250000  0.127640  0.877640  1
  Pa  Pa3  1  0.750000  0.371813  0.621813  1
  Pa  Pa4  1  0.120275  0.875236  0.248702  1
  Pa  Pa5  1  0.379725  0.628427  0.754961  1
  Co  Co6  1  0.750000  0.873698  0.123698  1
  Co  Co7  1  0.624675  0.373844  0.250109  1
  Co  Co8  1  0.875325  0.125434  0.749169  1
  Ni  Ni9  1  0.374751  0.250904  0.624816  1
  Ni  Ni10  1  0.125249  0.750065  0.876153  1
  Ni  Ni11  1  0.250000  0.626235  0.376235  1
  Sb  Sb12  1  0.666684  0.499934  0.001571  1
  Sb  Sb13  1  0.501039  0.000247  0.665392  1
  Sb  Sb14  1  0.998961  0.664353  0.499208  1
  Sb  Sb15  1  0.833316  0.834887  0.833250  1
  Sb  Sb16  1  0.501216  0.000967  0.166894  1
  Sb  Sb17  1  0.164556  0.498349  0.000089  1
  Sb  Sb18  1  0.998784  0.165677  0.499750  1
  Sb  Sb19  1  0.335444  0.335533  0.333793  1
