# generated using pymatgen
data_La3Al12Os3Rh
_symmetry_space_group_name_H-M   'P 1'
_cell_length_a   8.96320995
_cell_length_b   8.96321074
_cell_length_c   9.72770200
_cell_angle_alpha   90.00000000
_cell_angle_beta   90.00000000
_cell_angle_gamma   119.60271776
_symmetry_Int_Tables_number   1
_chemical_formula_structural   La3Al12Os3Rh
_chemical_formula_sum   'La6 Al24 Os6 Rh2'
_cell_volume   679.50520120
_cell_formula_units_Z   2
loop_
 _symmetry_equiv_pos_site_id
 _symmetry_equiv_pos_as_xyz
  1  'x, y, z'
loop_
 _atom_site_type_symbol
 _atom_site_label
 _atom_site_symmetry_multiplicity
 _atom_site_fract_x
 _atom_site_fract_y
 _atom_site_fract_z
 _atom_site_occupancy
  La  La0  1  0.185979  0.382517  0.250000  1
  La  La1  1  0.814021  0.617483  0.750000  1
  La  La2  1  0.617483  0.814021  0.250000  1
  La  La3  1  0.382517  0.185979  0.750000  1
  La  La4  1  0.192940  0.807060  0.250000  1
  La  La5  1  0.807060  0.192940  0.750000  1
  Al  Al6  1  0.332561  0.667439  0.003826  1
  Al  Al7  1  0.667439  0.332561  0.996174  1
  Al  Al8  1  0.667439  0.332561  0.503826  1
  Al  Al9  1  0.332561  0.667439  0.496174  1
  Al  Al10  1  0.160596  0.324073  0.576242  1
  Al  Al11  1  0.839404  0.675927  0.423758  1
  Al  Al12  1  0.675927  0.839404  0.576242  1
  Al  Al13  1  0.839404  0.675927  0.076242  1
  Al  Al14  1  0.324073  0.160596  0.423758  1
  Al  Al15  1  0.160596  0.324073  0.923758  1
  Al  Al16  1  0.163218  0.836782  0.574235  1
  Al  Al17  1  0.324073  0.160596  0.076242  1
  Al  Al18  1  0.836782  0.163218  0.425765  1
  Al  Al19  1  0.675927  0.839404  0.923758  1
  Al  Al20  1  0.836782  0.163218  0.074235  1
  Al  Al21  1  0.163218  0.836782  0.925765  1
  Al  Al22  1  0.562749  0.128263  0.250000  1
  Al  Al23  1  0.437251  0.871737  0.750000  1
  Al  Al24  1  0.871737  0.437251  0.250000  1
  Al  Al25  1  0.128263  0.562749  0.750000  1
  Al  Al26  1  0.562406  0.437594  0.250000  1
  Al  Al27  1  0.437594  0.562406  0.750000  1
  Al  Al28  1  0.999820  0.000180  0.250000  1
  Al  Al29  1  0.000180  0.999820  0.750000  1
  Os  Os30  1  0.500000  0.000000  0.000000  1
  Os  Os31  1  0.000000  0.500000  0.000000  1
  Os  Os32  1  0.500000  0.000000  0.500000  1
  Os  Os33  1  0.000000  0.500000  0.500000  1
  Os  Os34  1  0.000000  0.000000  0.000000  1
  Os  Os35  1  0.000000  0.000000  0.500000  1
  Rh  Rh36  1  0.500000  0.500000  0.000000  1
  Rh  Rh37  1  0.500000  0.500000  0.500000  1
