# generated using pymatgen
data_Tm10In8OsAu3
_symmetry_space_group_name_H-M   'P 1'
_cell_length_a   3.58567900
_cell_length_b   8.23978768
_cell_length_c   18.34396600
_cell_angle_alpha   89.91218358
_cell_angle_beta   90.00000000
_cell_angle_gamma   90.00000000
_symmetry_Int_Tables_number   1
_chemical_formula_structural   Tm10In8OsAu3
_chemical_formula_sum   'Tm10 In8 Os1 Au3'
_cell_volume   541.97612481
_cell_formula_units_Z   1
loop_
 _symmetry_equiv_pos_site_id
 _symmetry_equiv_pos_as_xyz
  1  'x, y, z'
loop_
 _atom_site_type_symbol
 _atom_site_label
 _atom_site_symmetry_multiplicity
 _atom_site_fract_x
 _atom_site_fract_y
 _atom_site_fract_z
 _atom_site_occupancy
  Tm  Tm0  1  0.000000  0.502764  0.498103  1
  Tm  Tm1  1  0.000000  0.001235  0.001063  1
  Tm  Tm2  1  0.000000  0.759162  0.281967  1
  Tm  Tm3  1  0.000000  0.263218  0.717066  1
  Tm  Tm4  1  0.000000  0.762955  0.782627  1
  Tm  Tm5  1  0.000000  0.220864  0.223315  1
  Tm  Tm6  1  0.000000  0.619579  0.081541  1
  Tm  Tm7  1  0.000000  0.380487  0.920407  1
  Tm  Tm8  1  0.000000  0.879407  0.579818  1
  Tm  Tm9  1  0.000000  0.114488  0.413728  1
  In  In10  1  0.500000  0.711389  0.934641  1
  In  In11  1  0.500000  0.289883  0.067253  1
  In  In12  1  0.500000  0.794237  0.430271  1
  In  In13  1  0.500000  0.209862  0.564879  1
  In  In14  1  0.500000  0.580334  0.646322  1
  In  In15  1  0.500000  0.415367  0.351946  1
  In  In16  1  0.500000  0.924129  0.149766  1
  In  In17  1  0.500000  0.080982  0.853288  1
  Os  Os18  1  0.500000  0.020702  0.304368  1
  Au  Au19  1  0.500000  0.521692  0.197847  1
  Au  Au20  1  0.500000  0.473368  0.803094  1
  Au  Au21  1  0.500000  0.973897  0.696689  1
