# generated using pymatgen
data_Tb3ErAl24Pt8Rh
_symmetry_space_group_name_H-M   'P 1'
_cell_length_a   7.51882037
_cell_length_b   7.51862949
_cell_length_c   13.16481418
_cell_angle_alpha   84.56230566
_cell_angle_beta   100.89999587
_cell_angle_gamma   119.80378294
_symmetry_Int_Tables_number   1
_chemical_formula_structural   Tb3ErAl24Pt8Rh
_chemical_formula_sum   'Tb3 Er1 Al24 Pt8 Rh1'
_cell_volume   634.13556815
_cell_formula_units_Z   1
loop_
 _symmetry_equiv_pos_site_id
 _symmetry_equiv_pos_as_xyz
  1  'x, y, z'
loop_
 _atom_site_type_symbol
 _atom_site_label
 _atom_site_symmetry_multiplicity
 _atom_site_fract_x
 _atom_site_fract_y
 _atom_site_fract_z
 _atom_site_occupancy
  Tb  Tb0  1  0.731729  0.998556  0.191172  1
  Tb  Tb1  1  0.268283  0.001579  0.808821  1
  Tb  Tb2  1  0.061995  0.667788  0.191219  1
  Er  Er3  1  0.937784  0.331925  0.808315  1
  Al  Al4  1  0.810435  0.871784  0.817950  1
  Al  Al5  1  0.189560  0.128870  0.182053  1
  Al  Al6  1  0.982096  0.669199  0.945390  1
  Al  Al7  1  0.017688  0.330267  0.053896  1
  Al  Al8  1  0.398397  0.663096  0.817007  1
  Al  Al9  1  0.600935  0.336207  0.183036  1
  Al  Al10  1  0.882150  0.664919  0.671741  1
  Al  Al11  1  0.117970  0.334716  0.328630  1
  Al  Al12  1  0.603429  0.458956  0.816638  1
  Al  Al13  1  0.397135  0.540968  0.183378  1
  Al  Al14  1  0.229988  0.339816  0.669591  1
  Al  Al15  1  0.769805  0.660194  0.330798  1
  Al  Al16  1  0.853010  0.333219  0.559007  1
  Al  Al17  1  0.185743  0.999237  0.558880  1
  Al  Al18  1  0.814301  0.000809  0.441202  1
  Al  Al19  1  0.348323  0.999455  0.054243  1
  Al  Al20  1  0.652091  0.001158  0.945377  1
  Al  Al21  1  0.556832  0.992943  0.671739  1
  Al  Al22  1  0.443603  0.007375  0.328618  1
  Al  Al23  1  0.521227  0.667867  0.561701  1
  Al  Al24  1  0.478833  0.332128  0.438375  1
  Al  Al25  1  0.686845  0.671857  0.044882  1
  Al  Al26  1  0.312584  0.328219  0.954669  1
  Al  Al27  1  0.146981  0.666762  0.441164  1
  Pt  Pt28  1  0.328494  0.671491  0.999947  1
  Pt  Pt29  1  0.546267  0.324870  0.637348  1
  Pt  Pt30  1  0.454081  0.675085  0.362947  1
  Pt  Pt31  1  0.887465  0.007952  0.638693  1
  Pt  Pt32  1  0.112718  0.992419  0.361621  1
  Pt  Pt33  1  0.671479  0.328471  0.999840  1
  Pt  Pt34  1  0.203914  0.666376  0.638564  1
  Pt  Pt35  1  0.795806  0.333310  0.361727  1
  Rh  Rh36  1  0.000024  0.000156  0.999820  1
