# generated using pymatgen
data_Ba4TbYU2O12
_symmetry_space_group_name_H-M   'P 1'
_cell_length_a   6.20528208
_cell_length_b   6.22644758
_cell_length_c   8.75529058
_cell_angle_alpha   90.11207399
_cell_angle_beta   89.95508919
_cell_angle_gamma   89.98944881
_symmetry_Int_Tables_number   1
_chemical_formula_structural   Ba4TbYU2O12
_chemical_formula_sum   'Ba4 Tb1 Y1 U2 O12'
_cell_volume   338.27621103
_cell_formula_units_Z   1
loop_
 _symmetry_equiv_pos_site_id
 _symmetry_equiv_pos_as_xyz
  1  'x, y, z'
loop_
 _atom_site_type_symbol
 _atom_site_label
 _atom_site_symmetry_multiplicity
 _atom_site_fract_x
 _atom_site_fract_y
 _atom_site_fract_z
 _atom_site_occupancy
  Ba  Ba0  1  0.013774  0.993896  0.750535  1
  Ba  Ba1  1  0.485767  0.493145  0.249398  1
  Ba  Ba2  1  0.514233  0.506855  0.750602  1
  Ba  Ba3  1  0.986227  0.006104  0.249465  1
  Tb  Tb4  1  0.500000  0.000000  0.500000  1
  Y  Y5  1  0.000000  0.500000  0.000000  1
  U  U6  1  0.000000  0.500000  0.500000  1
  U  U7  1  0.500000  0.000000  0.000000  1
  O  O8  1  0.239972  0.226974  0.037962  1
  O  O9  1  0.509552  0.930309  0.242489  1
  O  O10  1  0.739074  0.274781  0.460837  1
  O  O11  1  0.727654  0.258557  0.036495  1
  O  O12  1  0.774171  0.759760  0.538005  1
  O  O13  1  0.009818  0.570230  0.257251  1
  O  O14  1  0.225829  0.240240  0.461995  1
  O  O15  1  0.272346  0.741443  0.963505  1
  O  O16  1  0.260926  0.725219  0.539163  1
  O  O17  1  0.490448  0.069691  0.757511  1
  O  O18  1  0.760028  0.773026  0.962038  1
  O  O19  1  0.990182  0.429770  0.742749  1
