# generated using pymatgen
data_Ce4PaTc7
_symmetry_space_group_name_H-M   'P 1'
_cell_length_a   5.22517934
_cell_length_b   5.22517997
_cell_length_c   9.28408400
_cell_angle_alpha   90.00000000
_cell_angle_beta   90.00000000
_cell_angle_gamma   112.49836586
_symmetry_Int_Tables_number   1
_chemical_formula_structural   Ce4PaTc7
_chemical_formula_sum   'Ce4 Pa1 Tc7'
_cell_volume   234.18657345
_cell_formula_units_Z   1
loop_
 _symmetry_equiv_pos_site_id
 _symmetry_equiv_pos_as_xyz
  1  'x, y, z'
loop_
 _atom_site_type_symbol
 _atom_site_label
 _atom_site_symmetry_multiplicity
 _atom_site_fract_x
 _atom_site_fract_y
 _atom_site_fract_z
 _atom_site_occupancy
  Ce  Ce0  1  0.334691  0.665309  0.444085  1
  Ce  Ce1  1  0.660251  0.339749  0.575507  1
  Ce  Ce2  1  0.660251  0.339749  0.924493  1
  Ce  Ce3  1  0.334691  0.665309  0.055915  1
  Pa  Pa4  1  0.840555  0.159445  0.250000  1
  Tc  Tc5  1  0.007330  0.992670  0.505440  1
  Tc  Tc6  1  0.007330  0.992670  0.994560  1
  Tc  Tc7  1  0.835480  0.646717  0.250000  1
  Tc  Tc8  1  0.353283  0.164520  0.250000  1
  Tc  Tc9  1  0.157755  0.842245  0.750000  1
  Tc  Tc10  1  0.160563  0.352182  0.750000  1
  Tc  Tc11  1  0.647818  0.839437  0.750000  1
