# generated using pymatgen
data_Ba2CeThF12
_symmetry_space_group_name_H-M   'P 1'
_cell_length_a   7.24987380
_cell_length_b   7.24987385
_cell_length_c   5.80756400
_cell_angle_alpha   90.00000000
_cell_angle_beta   90.00000000
_cell_angle_gamma   110.47030055
_symmetry_Int_Tables_number   1
_chemical_formula_structural   Ba2CeThF12
_chemical_formula_sum   'Ba2 Ce1 Th1 F12'
_cell_volume   285.97405153
_cell_formula_units_Z   1
loop_
 _symmetry_equiv_pos_site_id
 _symmetry_equiv_pos_as_xyz
  1  'x, y, z'
loop_
 _atom_site_type_symbol
 _atom_site_label
 _atom_site_symmetry_multiplicity
 _atom_site_fract_x
 _atom_site_fract_y
 _atom_site_fract_z
 _atom_site_occupancy
  Ba  Ba0  1  0.250000  0.750000  0.545581  1
  Ba  Ba1  1  0.750000  0.250000  0.454419  1
  Ce  Ce2  1  0.750000  0.750000  0.000000  1
  Th  Th3  1  0.250000  0.250000  0.000000  1
  F  F4  1  0.168582  0.437294  0.267772  1
  F  F5  1  0.331418  0.062706  0.267772  1
  F  F6  1  0.437294  0.168582  0.732228  1
  F  F7  1  0.062706  0.331418  0.732228  1
  F  F8  1  0.577704  0.425367  0.154364  1
  F  F9  1  0.922296  0.074633  0.154364  1
  F  F10  1  0.425367  0.577704  0.845636  1
  F  F11  1  0.074633  0.922296  0.845636  1
  F  F12  1  0.934077  0.680495  0.260851  1
  F  F13  1  0.565923  0.819505  0.260851  1
  F  F14  1  0.680495  0.934077  0.739149  1
  F  F15  1  0.819505  0.565923  0.739149  1
