# generated using pymatgen
data_Tb5Si12Ir17Ru2
_symmetry_space_group_name_H-M   'P 1'
_cell_length_a   4.00379300
_cell_length_b   12.82058419
_cell_length_c   12.87182928
_cell_angle_alpha   120.01323275
_cell_angle_beta   90.00000000
_cell_angle_gamma   90.00000000
_symmetry_Int_Tables_number   1
_chemical_formula_structural   Tb5Si12Ir17Ru2
_chemical_formula_sum   'Tb5 Si12 Ir17 Ru2'
_cell_volume   572.12695367
_cell_formula_units_Z   1
loop_
 _symmetry_equiv_pos_site_id
 _symmetry_equiv_pos_as_xyz
  1  'x, y, z'
loop_
 _atom_site_type_symbol
 _atom_site_label
 _atom_site_symmetry_multiplicity
 _atom_site_fract_x
 _atom_site_fract_y
 _atom_site_fract_z
 _atom_site_occupancy
  Tb  Tb0  1  0.500000  0.999151  0.186022  1
  Tb  Tb1  1  0.500000  0.186399  0.001767  1
  Tb  Tb2  1  0.500000  0.814969  0.814367  1
  Tb  Tb3  1  0.000000  0.332974  0.667165  1
  Tb  Tb4  1  0.000000  0.668049  0.332745  1
  Si  Si5  1  0.000000  0.999751  0.818243  1
  Si  Si6  1  0.000000  0.817452  0.998499  1
  Si  Si7  1  0.000000  0.181810  0.183686  1
  Si  Si8  1  0.500000  0.311135  0.480705  1
  Si  Si9  1  0.500000  0.168493  0.689134  1
  Si  Si10  1  0.500000  0.519341  0.830610  1
  Si  Si11  1  0.500000  0.833840  0.518583  1
  Si  Si12  1  0.500000  0.480198  0.309989  1
  Si  Si13  1  0.500000  0.687515  0.167191  1
  Si  Si14  1  0.000000  0.995983  0.369110  1
  Si  Si15  1  0.000000  0.372678  0.004092  1
  Si  Si16  1  0.000000  0.631193  0.630039  1
  Ir  Ir17  1  0.000000  0.001176  0.555591  1
  Ir  Ir18  1  0.000000  0.553219  0.996854  1
  Ir  Ir19  1  0.000000  0.446148  0.447093  1
  Ir  Ir20  1  0.500000  0.000123  0.718589  1
  Ir  Ir21  1  0.500000  0.717318  0.997712  1
  Ir  Ir22  1  0.500000  0.282142  0.284245  1
  Ir  Ir23  1  0.000000  0.192289  0.377840  1
  Ir  Ir24  1  0.000000  0.184281  0.808302  1
  Ir  Ir25  1  0.000000  0.622708  0.815311  1
  Ir  Ir26  1  0.000000  0.817173  0.622675  1
  Ir  Ir27  1  0.000000  0.376944  0.195858  1
  Ir  Ir28  1  0.000000  0.804542  0.180386  1
  Ir  Ir29  1  0.500000  0.126343  0.489555  1
  Ir  Ir30  1  0.500000  0.362160  0.873838  1
  Ir  Ir31  1  0.500000  0.511552  0.637706  1
  Ir  Ir32  1  0.500000  0.638789  0.511405  1
  Ir  Ir33  1  0.000000  0.000815  0.000610  1
  Ru  Ru34  1  0.500000  0.486260  0.124182  1
  Ru  Ru35  1  0.500000  0.874990  0.360304  1
