# generated using pymatgen
data_Tb4Ga4PdRu3
_symmetry_space_group_name_H-M   'P 1'
_cell_length_a   4.37760100
_cell_length_b   6.94350496
_cell_length_c   7.71800959
_cell_angle_alpha   89.76226073
_cell_angle_beta   90.00000000
_cell_angle_gamma   90.00000000
_symmetry_Int_Tables_number   1
_chemical_formula_structural   Tb4Ga4PdRu3
_chemical_formula_sum   'Tb4 Ga4 Pd1 Ru3'
_cell_volume   234.59378390
_cell_formula_units_Z   1
loop_
 _symmetry_equiv_pos_site_id
 _symmetry_equiv_pos_as_xyz
  1  'x, y, z'
loop_
 _atom_site_type_symbol
 _atom_site_label
 _atom_site_symmetry_multiplicity
 _atom_site_fract_x
 _atom_site_fract_y
 _atom_site_fract_z
 _atom_site_occupancy
  Tb  Tb0  1  0.250000  0.484930  0.192431  1
  Tb  Tb1  1  0.750000  0.512392  0.812608  1
  Tb  Tb2  1  0.250000  0.989787  0.301782  1
  Tb  Tb3  1  0.750000  0.020881  0.692412  1
  Ga  Ga4  1  0.250000  0.830763  0.926566  1
  Ga  Ga5  1  0.750000  0.172495  0.077231  1
  Ga  Ga6  1  0.250000  0.322466  0.578253  1
  Ga  Ga7  1  0.750000  0.666010  0.416822  1
  Pd  Pd8  1  0.250000  0.711396  0.598060  1
  Ru  Ru9  1  0.750000  0.790637  0.099761  1
  Ru  Ru10  1  0.250000  0.216071  0.901293  1
  Ru  Ru11  1  0.750000  0.282172  0.402779  1
