# generated using pymatgen
data_Gd3Ho(SeO3)6
_symmetry_space_group_name_H-M   'P 1'
_cell_length_a   7.17009672
_cell_length_b   8.20756409
_cell_length_c   9.14598198
_cell_angle_alpha   71.31005241
_cell_angle_beta   70.12848707
_cell_angle_gamma   66.13881163
_symmetry_Int_Tables_number   1
_chemical_formula_structural   Gd3Ho(SeO3)6
_chemical_formula_sum   'Gd3 Ho1 Se6 O18'
_cell_volume   452.32627830
_cell_formula_units_Z   1
loop_
 _symmetry_equiv_pos_site_id
 _symmetry_equiv_pos_as_xyz
  1  'x, y, z'
loop_
 _atom_site_type_symbol
 _atom_site_label
 _atom_site_symmetry_multiplicity
 _atom_site_fract_x
 _atom_site_fract_y
 _atom_site_fract_z
 _atom_site_occupancy
  Gd  Gd0  1  0.258805  0.265363  0.200269  1
  Gd  Gd1  1  0.334049  0.728965  0.589436  1
  Gd  Gd2  1  0.666576  0.270114  0.410973  1
  Ho  Ho3  1  0.741743  0.735060  0.799284  1
  Se  Se4  1  0.112612  0.242153  0.585931  1
  Se  Se5  1  0.428970  0.774775  0.196492  1
  Se  Se6  1  0.148102  0.753050  0.963325  1
  Se  Se7  1  0.851724  0.251689  0.033092  1
  Se  Se8  1  0.572928  0.221852  0.802330  1
  Se  Se9  1  0.886314  0.757156  0.417227  1
  O  O10  1  0.156321  0.016334  0.655207  1
  O  O11  1  0.166180  0.570921  0.118813  1
  O  O12  1  0.030307  0.705448  0.556981  1
  O  O13  1  0.342147  0.252501  0.438786  1
  O  O14  1  0.064490  0.696679  0.833607  1
  O  O15  1  0.594958  0.287578  0.148294  1
  O  O16  1  0.350970  0.207270  0.945822  1
  O  O17  1  0.362238  0.941033  0.303102  1
  O  O18  1  0.517971  0.594273  0.348628  1
  O  O19  1  0.484410  0.403100  0.650612  1
  O  O20  1  0.640960  0.053442  0.697849  1
  O  O21  1  0.648555  0.791184  0.050060  1
  O  O22  1  0.406633  0.713088  0.850075  1
  O  O23  1  0.932823  0.305220  0.165632  1
  O  O24  1  0.657567  0.747694  0.565995  1
  O  O25  1  0.966726  0.295127  0.447179  1
  O  O26  1  0.831022  0.436345  0.879967  1
  O  O27  1  0.843901  0.982587  0.345034  1
