# generated using pymatgen
data_La6In7Sn3
_symmetry_space_group_name_H-M   'P 1'
_cell_length_a   6.77466721
_cell_length_b   6.78034888
_cell_length_c   10.59489600
_cell_angle_alpha   90.00000000
_cell_angle_beta   90.00000000
_cell_angle_gamma   102.76328261
_symmetry_Int_Tables_number   1
_chemical_formula_structural   La6In7Sn3
_chemical_formula_sum   'La6 In7 Sn3'
_cell_volume   474.64726209
_cell_formula_units_Z   1
loop_
 _symmetry_equiv_pos_site_id
 _symmetry_equiv_pos_as_xyz
  1  'x, y, z'
loop_
 _atom_site_type_symbol
 _atom_site_label
 _atom_site_symmetry_multiplicity
 _atom_site_fract_x
 _atom_site_fract_y
 _atom_site_fract_z
 _atom_site_occupancy
  La  La0  1  0.637614  0.635609  0.250000  1
  La  La1  1  0.361641  0.363260  0.750000  1
  La  La2  1  0.203974  0.794432  0.501846  1
  La  La3  1  0.203974  0.794432  0.998154  1
  La  La4  1  0.797762  0.205360  0.501025  1
  La  La5  1  0.797762  0.205360  0.998975  1
  In  In6  1  0.020955  0.024902  0.250000  1
  In  In7  1  0.974428  0.975024  0.750000  1
  In  In8  1  0.311516  0.308638  0.053268  1
  In  In9  1  0.690159  0.693160  0.950390  1
  In  In10  1  0.311516  0.308638  0.446732  1
  In  In11  1  0.690159  0.693160  0.549610  1
  In  In12  1  0.496086  0.073716  0.250000  1
  Sn  Sn13  1  0.921819  0.504591  0.750000  1
  Sn  Sn14  1  0.503924  0.924046  0.750000  1
  Sn  Sn15  1  0.076712  0.495674  0.250000  1
