# generated using pymatgen
data_Ti13Al9Co5Os3
_symmetry_space_group_name_H-M   'P 1'
_cell_length_a   8.58460122
_cell_length_b   8.58613778
_cell_length_c   8.58349613
_cell_angle_alpha   60.06916540
_cell_angle_beta   60.08519800
_cell_angle_gamma   60.08117677
_symmetry_Int_Tables_number   1
_chemical_formula_structural   Ti13Al9Co5Os3
_chemical_formula_sum   'Ti13 Al9 Co5 Os3'
_cell_volume   448.16629707
_cell_formula_units_Z   1
loop_
 _symmetry_equiv_pos_site_id
 _symmetry_equiv_pos_as_xyz
  1  'x, y, z'
loop_
 _atom_site_type_symbol
 _atom_site_label
 _atom_site_symmetry_multiplicity
 _atom_site_fract_x
 _atom_site_fract_y
 _atom_site_fract_z
 _atom_site_occupancy
  Ti  Ti0  1  0.207509  0.207459  0.810027  1
  Ti  Ti1  1  0.808843  0.205159  0.205193  1
  Ti  Ti2  1  0.204798  0.809008  0.204779  1
  Ti  Ti3  1  0.802685  0.802525  0.169603  1
  Ti  Ti4  1  0.169212  0.801895  0.802201  1
  Ti  Ti5  1  0.801752  0.169326  0.801932  1
  Ti  Ti6  1  0.381510  0.381625  0.381269  1
  Ti  Ti7  1  0.385842  0.858477  0.386336  1
  Ti  Ti8  1  0.858425  0.386018  0.386412  1
  Ti  Ti9  1  0.387353  0.387450  0.858003  1
  Ti  Ti10  1  0.836009  0.469145  0.837206  1
  Ti  Ti11  1  0.469484  0.835828  0.837248  1
  Ti  Ti12  1  0.836996  0.836797  0.471098  1
  Al  Al13  1  0.166369  0.166155  0.167956  1
  Al  Al14  1  0.163713  0.526842  0.164446  1
  Al  Al15  1  0.527339  0.163514  0.164334  1
  Al  Al16  1  0.164150  0.164109  0.529120  1
  Al  Al17  1  0.617915  0.618008  0.615747  1
  Al  Al18  1  0.615172  0.146174  0.614910  1
  Al  Al19  1  0.146278  0.615217  0.614820  1
  Al  Al20  1  0.615012  0.615176  0.146613  1
  Al  Al21  1  0.820531  0.820507  0.821944  1
  Co  Co22  1  0.500291  0.500386  0.001372  1
  Co  Co23  1  0.001437  0.500658  0.500245  1
  Co  Co24  1  0.500590  0.001415  0.500312  1
  Co  Co25  1  0.499913  0.499819  0.500866  1
  Co  Co26  1  0.004560  0.005145  0.000049  1
  Os  Os27  1  0.002293  0.002341  0.502993  1
  Os  Os28  1  0.500896  0.003094  0.001408  1
  Os  Os29  1  0.003118  0.500726  0.001552  1
