# generated using pymatgen
data_V2Co20B6W
_symmetry_space_group_name_H-M   'P 1'
_cell_length_a   7.36707199
_cell_length_b   7.36760954
_cell_length_c   7.36692301
_cell_angle_alpha   60.00367275
_cell_angle_beta   59.99527932
_cell_angle_gamma   60.00637614
_symmetry_Int_Tables_number   1
_chemical_formula_structural   V2Co20B6W
_chemical_formula_sum   'V2 Co20 B6 W1'
_cell_volume   282.75489208
_cell_formula_units_Z   1
loop_
 _symmetry_equiv_pos_site_id
 _symmetry_equiv_pos_as_xyz
  1  'x, y, z'
loop_
 _atom_site_type_symbol
 _atom_site_label
 _atom_site_symmetry_multiplicity
 _atom_site_fract_x
 _atom_site_fract_y
 _atom_site_fract_z
 _atom_site_occupancy
  V  V0  1  0.999974  0.000210  0.999871  1
  V  V1  1  0.249890  0.249872  0.250069  1
  Co  Co2  1  0.616911  0.616883  0.149382  1
  Co  Co3  1  0.616880  0.149316  0.616870  1
  Co  Co4  1  0.149358  0.616870  0.616901  1
  Co  Co5  1  0.616906  0.616970  0.616854  1
  Co  Co6  1  0.378849  0.378755  0.863516  1
  Co  Co7  1  0.378902  0.863430  0.378849  1
  Co  Co8  1  0.863385  0.378829  0.378874  1
  Co  Co9  1  0.378871  0.378707  0.378868  1
  Co  Co10  1  0.999835  0.999865  0.338928  1
  Co  Co11  1  0.661326  0.999947  0.338783  1
  Co  Co12  1  0.999833  0.661377  0.338910  1
  Co  Co13  1  0.661464  0.338724  0.999926  1
  Co  Co14  1  0.999803  0.339018  0.999809  1
  Co  Co15  1  0.999883  0.338877  0.661411  1
  Co  Co16  1  0.338881  0.661544  0.999797  1
  Co  Co17  1  0.338915  0.999840  0.661440  1
  Co  Co18  1  0.338958  0.999791  0.999773  1
  Co  Co19  1  0.999890  0.999906  0.661336  1
  Co  Co20  1  0.999826  0.661308  0.999883  1
  Co  Co21  1  0.661340  0.999926  0.999982  1
  B  B22  1  0.726264  0.726388  0.273612  1
  B  B23  1  0.273724  0.726419  0.273696  1
  B  B24  1  0.726433  0.273619  0.273650  1
  B  B25  1  0.273593  0.273551  0.726436  1
  B  B26  1  0.726430  0.273546  0.726308  1
  B  B27  1  0.273583  0.726493  0.726234  1
  W  W28  1  0.750088  0.750012  0.750028  1
