# generated using pymatgen
data_LaSm(Tl2Br5)2
_symmetry_space_group_name_H-M   'P 1'
_cell_length_a   8.76967282
_cell_length_b   9.34174300
_cell_length_c   14.02791300
_cell_angle_alpha   90.00000000
_cell_angle_beta   90.76016378
_cell_angle_gamma   90.00000000
_symmetry_Int_Tables_number   1
_chemical_formula_structural   LaSm(Tl2Br5)2
_chemical_formula_sum   'La2 Sm2 Tl8 Br20'
_cell_volume   1149.12201767
_cell_formula_units_Z   2
loop_
 _symmetry_equiv_pos_site_id
 _symmetry_equiv_pos_as_xyz
  1  'x, y, z'
loop_
 _atom_site_type_symbol
 _atom_site_label
 _atom_site_symmetry_multiplicity
 _atom_site_fract_x
 _atom_site_fract_y
 _atom_site_fract_z
 _atom_site_occupancy
  La  La0  1  0.425816  0.250000  0.994780  1
  La  La1  1  0.574184  0.750000  0.005220  1
  Sm  Sm2  1  0.928449  0.750000  0.503948  1
  Sm  Sm3  1  0.071551  0.250000  0.496052  1
  Tl  Tl4  1  0.946673  0.003787  0.825067  1
  Tl  Tl5  1  0.053327  0.996213  0.174933  1
  Tl  Tl6  1  0.445533  0.996153  0.670241  1
  Tl  Tl7  1  0.053327  0.503787  0.174933  1
  Tl  Tl8  1  0.554467  0.003847  0.329759  1
  Tl  Tl9  1  0.946673  0.496213  0.825067  1
  Tl  Tl10  1  0.554467  0.496153  0.329759  1
  Tl  Tl11  1  0.445533  0.503847  0.670241  1
  Br  Br12  1  0.119318  0.750000  0.675282  1
  Br  Br13  1  0.880682  0.250000  0.324718  1
  Br  Br14  1  0.623955  0.250000  0.821576  1
  Br  Br15  1  0.376045  0.750000  0.178424  1
  Br  Br16  1  0.839206  0.043007  0.571441  1
  Br  Br17  1  0.160794  0.956993  0.428559  1
  Br  Br18  1  0.334335  0.955932  0.921639  1
  Br  Br19  1  0.160794  0.543007  0.428559  1
  Br  Br20  1  0.665665  0.044068  0.078361  1
  Br  Br21  1  0.839206  0.456993  0.571441  1
  Br  Br22  1  0.665665  0.455932  0.078361  1
  Br  Br23  1  0.334335  0.544068  0.921639  1
  Br  Br24  1  0.591557  0.750000  0.511018  1
  Br  Br25  1  0.408443  0.250000  0.488982  1
  Br  Br26  1  0.079318  0.250000  0.990346  1
  Br  Br27  1  0.920682  0.750000  0.009654  1
  Br  Br28  1  0.658992  0.750000  0.797932  1
  Br  Br29  1  0.341008  0.250000  0.202068  1
  Br  Br30  1  0.157658  0.250000  0.698814  1
  Br  Br31  1  0.842342  0.750000  0.301186  1
