# generated using pymatgen
data_Tb3IO8
_symmetry_space_group_name_H-M   'P 1'
_cell_length_a   5.38049935
_cell_length_b   5.38078316
_cell_length_c   5.38048000
_cell_angle_alpha   85.38901840
_cell_angle_beta   85.44481739
_cell_angle_gamma   85.43603401
_symmetry_Int_Tables_number   1
_chemical_formula_structural   Tb3IO8
_chemical_formula_sum   'Tb3 I1 O8'
_cell_volume   154.35685038
_cell_formula_units_Z   1
loop_
 _symmetry_equiv_pos_site_id
 _symmetry_equiv_pos_as_xyz
  1  'x, y, z'
loop_
 _atom_site_type_symbol
 _atom_site_label
 _atom_site_symmetry_multiplicity
 _atom_site_fract_x
 _atom_site_fract_y
 _atom_site_fract_z
 _atom_site_occupancy
  Tb  Tb0  1  0.508627  0.260812  0.260208  1
  Tb  Tb1  1  0.509181  0.759647  0.760781  1
  Tb  Tb2  1  0.010784  0.759929  0.259376  1
  I  I3  1  0.008491  0.258579  0.758597  1
  O  O4  1  0.159204  0.028951  0.528646  1
  O  O5  1  0.837373  0.485437  0.985706  1
  O  O6  1  0.235660  0.486278  0.587806  1
  O  O7  1  0.779113  0.027845  0.907578  1
  O  O8  1  0.235882  0.087816  0.986115  1
  O  O9  1  0.778752  0.407643  0.528199  1
  O  O10  1  0.314201  0.564609  0.064569  1
  O  O11  1  0.622732  0.872454  0.372420  1
