# generated using pymatgen
data_Ce4In2CuRh3
_symmetry_space_group_name_H-M   'P 1'
_cell_length_a   7.69818781
_cell_length_b   7.69818781
_cell_length_c   3.75618600
_cell_angle_alpha   90.00000000
_cell_angle_beta   90.00000000
_cell_angle_gamma   89.88600664
_symmetry_Int_Tables_number   1
_chemical_formula_structural   Ce4In2CuRh3
_chemical_formula_sum   'Ce4 In2 Cu1 Rh3'
_cell_volume   222.59901305
_cell_formula_units_Z   1
loop_
 _symmetry_equiv_pos_site_id
 _symmetry_equiv_pos_as_xyz
  1  'x, y, z'
loop_
 _atom_site_type_symbol
 _atom_site_label
 _atom_site_symmetry_multiplicity
 _atom_site_fract_x
 _atom_site_fract_y
 _atom_site_fract_z
 _atom_site_occupancy
  Ce  Ce0  1  0.674003  0.174003  0.500000  1
  Ce  Ce1  1  0.337911  0.837911  0.500000  1
  Ce  Ce2  1  0.168650  0.319758  0.500000  1
  Ce  Ce3  1  0.819758  0.668650  0.500000  1
  In  In4  1  0.000734  0.995793  0.000000  1
  In  In5  1  0.495793  0.500734  0.000000  1
  Cu  Cu6  1  0.127007  0.627007  0.000000  1
  Rh  Rh7  1  0.875038  0.375038  0.000000  1
  Rh  Rh8  1  0.637340  0.863766  0.000000  1
  Rh  Rh9  1  0.363766  0.137340  0.000000  1
