# generated using pymatgen
data_NdEr3Sc2(AlPt2)2
_symmetry_space_group_name_H-M   'P 1'
_cell_length_a   4.43975000
_cell_length_b   7.18996334
_cell_length_c   8.03958268
_cell_angle_alpha   90.58011089
_cell_angle_beta   90.00000000
_cell_angle_gamma   90.00000000
_symmetry_Int_Tables_number   1
_chemical_formula_structural   NdEr3Sc2(AlPt2)2
_chemical_formula_sum   'Nd1 Er3 Sc2 Al2 Pt4'
_cell_volume   256.62350778
_cell_formula_units_Z   1
loop_
 _symmetry_equiv_pos_site_id
 _symmetry_equiv_pos_as_xyz
  1  'x, y, z'
loop_
 _atom_site_type_symbol
 _atom_site_label
 _atom_site_symmetry_multiplicity
 _atom_site_fract_x
 _atom_site_fract_y
 _atom_site_fract_z
 _atom_site_occupancy
  Nd  Nd0  1  0.250000  0.520638  0.828946  1
  Er  Er1  1  0.750000  0.443626  0.180366  1
  Er  Er2  1  0.250000  0.050680  0.674967  1
  Er  Er3  1  0.750000  0.978939  0.328437  1
  Sc  Sc4  1  0.750000  0.873937  0.936331  1
  Sc  Sc5  1  0.250000  0.627562  0.433540  1
  Al  Al6  1  0.750000  0.357090  0.561805  1
  Al  Al7  1  0.250000  0.140308  0.065112  1
  Pt  Pt8  1  0.750000  0.734864  0.611588  1
  Pt  Pt9  1  0.750000  0.234923  0.878603  1
  Pt  Pt10  1  0.250000  0.258963  0.377731  1
  Pt  Pt11  1  0.250000  0.778469  0.122571  1
