# generated using pymatgen
data_Tb8Tm10Sc2Si15Ge
_symmetry_space_group_name_H-M   'P 1'
_cell_length_a   7.29657042
_cell_length_b   7.62110141
_cell_length_c   14.44017177
_cell_angle_alpha   90.01379761
_cell_angle_beta   89.87449293
_cell_angle_gamma   90.08314552
_symmetry_Int_Tables_number   1
_chemical_formula_structural   Tb8Tm10Sc2Si15Ge
_chemical_formula_sum   'Tb8 Tm10 Sc2 Si15 Ge1'
_cell_volume   802.98487812
_cell_formula_units_Z   1
loop_
 _symmetry_equiv_pos_site_id
 _symmetry_equiv_pos_as_xyz
  1  'x, y, z'
loop_
 _atom_site_type_symbol
 _atom_site_label
 _atom_site_symmetry_multiplicity
 _atom_site_fract_x
 _atom_site_fract_y
 _atom_site_fract_z
 _atom_site_occupancy
  Tb  Tb0  1  0.018331  0.178819  0.097840  1
  Tb  Tb1  1  0.981732  0.821410  0.902221  1
  Tb  Tb2  1  0.484250  0.681125  0.902323  1
  Tb  Tb3  1  0.981045  0.822305  0.597988  1
  Tb  Tb4  1  0.515903  0.318978  0.097742  1
  Tb  Tb5  1  0.017402  0.177894  0.401649  1
  Tb  Tb6  1  0.516306  0.318278  0.401778  1
  Tb  Tb7  1  0.486266  0.682129  0.598025  1
  Tm  Tm8  1  0.158293  0.510610  0.751121  1
  Tm  Tm9  1  0.841648  0.489507  0.249978  1
  Tm  Tm10  1  0.328997  0.175293  0.625058  1
  Tm  Tm11  1  0.671918  0.823251  0.375344  1
  Tm  Tm12  1  0.173182  0.680070  0.375403  1
  Tm  Tm13  1  0.672299  0.822686  0.124289  1
  Tm  Tm14  1  0.825060  0.320658  0.624225  1
  Tm  Tm15  1  0.327565  0.177089  0.875729  1
  Tm  Tm16  1  0.825586  0.320463  0.875749  1
  Tm  Tm17  1  0.174312  0.679482  0.124277  1
  Sc  Sc18  1  0.340451  0.010860  0.249870  1
  Sc  Sc19  1  0.659701  0.989184  0.750186  1
  Si  Si20  1  0.027007  0.104330  0.750015  1
  Si  Si21  1  0.972894  0.896157  0.249749  1
  Si  Si22  1  0.468965  0.606210  0.249930  1
  Si  Si23  1  0.530531  0.393951  0.750057  1
  Si  Si24  1  0.283481  0.872437  0.750119  1
  Si  Si25  1  0.716415  0.127176  0.249817  1
  Si  Si26  1  0.222581  0.366985  0.249996  1
  Si  Si27  1  0.777725  0.633005  0.749947  1
  Si  Si28  1  0.840585  0.532405  0.460393  1
  Si  Si29  1  0.345485  0.969269  0.459909  1
  Si  Si30  1  0.845730  0.531584  0.038784  1
  Si  Si31  1  0.654424  0.030951  0.539924  1
  Si  Si32  1  0.154211  0.468411  0.961317  1
  Si  Si33  1  0.653924  0.030769  0.960016  1
  Si  Si34  1  0.346073  0.969284  0.040114  1
  Ge  Ge35  1  0.159724  0.466986  0.539116  1
