# generated using pymatgen
data_Er9Th(SiSn3)2
_symmetry_space_group_name_H-M   'P 1'
_cell_length_a   9.21350942
_cell_length_b   9.21351010
_cell_length_c   6.41871300
_cell_angle_alpha   90.00000000
_cell_angle_beta   90.00000000
_cell_angle_gamma   120.06354334
_symmetry_Int_Tables_number   1
_chemical_formula_structural   Er9Th(SiSn3)2
_chemical_formula_sum   'Er9 Th1 Si2 Sn6'
_cell_volume   471.57454280
_cell_formula_units_Z   1
loop_
 _symmetry_equiv_pos_site_id
 _symmetry_equiv_pos_as_xyz
  1  'x, y, z'
loop_
 _atom_site_type_symbol
 _atom_site_label
 _atom_site_symmetry_multiplicity
 _atom_site_fract_x
 _atom_site_fract_y
 _atom_site_fract_z
 _atom_site_occupancy
  Er  Er0  1  0.666146  0.332961  0.000176  1
  Er  Er1  1  0.332961  0.666146  0.000176  1
  Er  Er2  1  0.332961  0.666146  0.499824  1
  Er  Er3  1  0.666146  0.332961  0.499824  1
  Er  Er4  1  0.246025  0.997854  0.750000  1
  Er  Er5  1  0.997854  0.246025  0.750000  1
  Er  Er6  1  0.260618  0.260618  0.250000  1
  Er  Er7  1  0.743608  0.001795  0.250000  1
  Er  Er8  1  0.001795  0.743608  0.250000  1
  Th  Th9  1  0.750863  0.750863  0.750000  1
  Si  Si10  1  0.003587  0.003587  0.020733  1
  Si  Si11  1  0.003587  0.003587  0.479267  1
  Sn  Sn12  1  0.388362  0.388362  0.750000  1
  Sn  Sn13  1  0.601443  0.002449  0.750000  1
  Sn  Sn14  1  0.002449  0.601443  0.750000  1
  Sn  Sn15  1  0.610044  0.610044  0.250000  1
  Sn  Sn16  1  0.391928  0.999622  0.250000  1
  Sn  Sn17  1  0.999622  0.391928  0.250000  1
