# generated using pymatgen
data_Sc10CuBi6Se
_symmetry_space_group_name_H-M   'P 1'
_cell_length_a   8.83275500
_cell_length_b   8.83275370
_cell_length_c   6.09184100
_cell_angle_alpha   90.00000000
_cell_angle_beta   90.00000000
_cell_angle_gamma   120.00000113
_symmetry_Int_Tables_number   1
_chemical_formula_structural   Sc10CuBi6Se
_chemical_formula_sum   'Sc10 Cu1 Bi6 Se1'
_cell_volume   411.59632722
_cell_formula_units_Z   1
loop_
 _symmetry_equiv_pos_site_id
 _symmetry_equiv_pos_as_xyz
  1  'x, y, z'
loop_
 _atom_site_type_symbol
 _atom_site_label
 _atom_site_symmetry_multiplicity
 _atom_site_fract_x
 _atom_site_fract_y
 _atom_site_fract_z
 _atom_site_occupancy
  Sc  Sc0  1  0.666667  0.333333  0.000000  1
  Sc  Sc1  1  0.333333  0.666667  0.000000  1
  Sc  Sc2  1  0.333333  0.666667  0.500000  1
  Sc  Sc3  1  0.666667  0.333333  0.500000  1
  Sc  Sc4  1  0.744014  0.744014  0.745465  1
  Sc  Sc5  1  0.255986  0.000000  0.745465  1
  Sc  Sc6  1  0.000000  0.255986  0.745465  1
  Sc  Sc7  1  0.255986  0.255986  0.254535  1
  Sc  Sc8  1  0.744014  0.000000  0.254535  1
  Sc  Sc9  1  0.000000  0.744014  0.254535  1
  Cu  Cu10  1  0.000000  0.000000  0.500000  1
  Bi  Bi11  1  0.389868  0.389868  0.748859  1
  Bi  Bi12  1  0.610132  0.000000  0.748859  1
  Bi  Bi13  1  0.000000  0.610132  0.748859  1
  Bi  Bi14  1  0.610132  0.610132  0.251141  1
  Bi  Bi15  1  0.389868  0.000000  0.251141  1
  Bi  Bi16  1  0.000000  0.389868  0.251141  1
  Se  Se17  1  0.000000  0.000000  0.000000  1
