# generated using pymatgen
data_Y13Th3MgHg3Rh4
_symmetry_space_group_name_H-M   'P 1'
_cell_length_a   9.72493271
_cell_length_b   9.74852076
_cell_length_c   9.74852000
_cell_angle_alpha   59.99999579
_cell_angle_beta   59.91972762
_cell_angle_gamma   59.91972894
_symmetry_Int_Tables_number   1
_chemical_formula_structural   Y13Th3MgHg3Rh4
_chemical_formula_sum   'Y13 Th3 Mg1 Hg3 Rh4'
_cell_volume   652.71110522
_cell_formula_units_Z   1
loop_
 _symmetry_equiv_pos_site_id
 _symmetry_equiv_pos_as_xyz
  1  'x, y, z'
loop_
 _atom_site_type_symbol
 _atom_site_label
 _atom_site_symmetry_multiplicity
 _atom_site_fract_x
 _atom_site_fract_y
 _atom_site_fract_z
 _atom_site_occupancy
  Y  Y0  1  0.186363  0.604546  0.604546  1
  Y  Y1  1  0.059982  0.440399  0.440399  1
  Y  Y2  1  0.435567  0.063454  0.063454  1
  Y  Y3  1  0.435567  0.063454  0.437524  1
  Y  Y4  1  0.059982  0.440399  0.059220  1
  Y  Y5  1  0.435567  0.437524  0.063454  1
  Y  Y6  1  0.059982  0.059220  0.440399  1
  Y  Y7  1  0.184364  0.815028  0.815028  1
  Y  Y8  1  0.813164  0.185497  0.185497  1
  Y  Y9  1  0.813164  0.185497  0.815842  1
  Y  Y10  1  0.184364  0.815028  0.185580  1
  Y  Y11  1  0.813164  0.815842  0.185497  1
  Y  Y12  1  0.184364  0.185580  0.815028  1
  Th  Th13  1  0.598172  0.599557  0.599557  1
  Th  Th14  1  0.598172  0.599557  0.202716  1
  Th  Th15  1  0.598172  0.202716  0.599557  1
  Mg  Mg16  1  0.527352  0.824216  0.824216  1
  Hg  Hg17  1  0.835667  0.837626  0.837626  1
  Hg  Hg18  1  0.835667  0.837626  0.489080  1
  Hg  Hg19  1  0.835667  0.489080  0.837626  1
  Rh  Rh20  1  0.396419  0.392901  0.392901  1
  Rh  Rh21  1  0.396419  0.392901  0.817779  1
  Rh  Rh22  1  0.396419  0.817779  0.392901  1
  Rh  Rh23  1  0.816279  0.394574  0.394574  1
