# generated using pymatgen
data_Pr7Se8
_symmetry_space_group_name_H-M   'P 1'
_cell_length_a   8.51116600
_cell_length_b   8.51116486
_cell_length_c   8.51116600
_cell_angle_alpha   119.99999665
_cell_angle_beta   90.00000000
_cell_angle_gamma   119.99999665
_symmetry_Int_Tables_number   1
_chemical_formula_structural   Pr7Se8
_chemical_formula_sum   'Pr7 Se8'
_cell_volume   435.96554842
_cell_formula_units_Z   1
loop_
 _symmetry_equiv_pos_site_id
 _symmetry_equiv_pos_as_xyz
  1  'x, y, z'
loop_
 _atom_site_type_symbol
 _atom_site_label
 _atom_site_symmetry_multiplicity
 _atom_site_fract_x
 _atom_site_fract_y
 _atom_site_fract_z
 _atom_site_occupancy
  Pr  Pr0  1  0.249915  0.000000  0.249915  1
  Pr  Pr1  1  0.249915  0.499830  0.249915  1
  Pr  Pr2  1  0.750085  0.000000  0.249916  1
  Pr  Pr3  1  0.250001  0.500001  0.750002  1
  Pr  Pr4  1  0.249916  0.000000  0.750085  1
  Pr  Pr5  1  0.750085  0.000000  0.750085  1
  Pr  Pr6  1  0.750085  0.500169  0.750085  1
  Se  Se7  1  0.000000  0.000000  0.000000  1
  Se  Se8  1  0.500000  0.000000  0.500000  1
  Se  Se9  1  0.998509  0.997020  0.498511  1
  Se  Se10  1  0.998509  0.500001  0.498511  1
  Se  Se11  1  0.501492  0.500001  0.498511  1
  Se  Se12  1  0.998511  0.500001  0.001491  1
  Se  Se13  1  0.501490  0.500001  0.001491  1
  Se  Se14  1  0.501490  0.002979  0.001491  1
