# generated using pymatgen
data_NaMo2P3O11
_symmetry_space_group_name_H-M   'P 1'
_cell_length_a   7.51163696
_cell_length_b   7.51163702
_cell_length_c   9.20680052
_cell_angle_alpha   69.96390799
_cell_angle_beta   69.96390822
_cell_angle_gamma   73.75624354
_symmetry_Int_Tables_number   1
_chemical_formula_structural   NaMo2P3O11
_chemical_formula_sum   'Na2 Mo4 P6 O22'
_cell_volume   450.68880911
_cell_formula_units_Z   2
loop_
 _symmetry_equiv_pos_site_id
 _symmetry_equiv_pos_as_xyz
  1  'x, y, z'
loop_
 _atom_site_type_symbol
 _atom_site_label
 _atom_site_symmetry_multiplicity
 _atom_site_fract_x
 _atom_site_fract_y
 _atom_site_fract_z
 _atom_site_occupancy
  Na  Na0  1  0.989579  0.514895  0.258101  1
  Na  Na1  1  0.485105  0.010421  0.741899  1
  Mo  Mo2  1  0.361358  0.881771  0.205388  1
  Mo  Mo3  1  0.880742  0.361663  0.705889  1
  Mo  Mo4  1  0.118229  0.638642  0.794612  1
  Mo  Mo5  1  0.638337  0.119258  0.294111  1
  P  P6  1  0.322123  0.452385  0.468092  1
  P  P7  1  0.957645  0.042355  0.500000  1
  P  P8  1  0.451816  0.323261  0.967616  1
  P  P9  1  0.547615  0.677877  0.531908  1
  P  P10  1  0.676739  0.548184  0.032384  1
  P  P11  1  0.041871  0.958129  0.000000  1
  O  O12  1  0.113842  0.015480  0.346936  1
  O  O13  1  0.016601  0.114849  0.846617  1
  O  O14  1  0.384942  0.245937  0.457811  1
  O  O15  1  0.153422  0.471055  0.621605  1
  O  O16  1  0.885151  0.983399  0.153383  1
  O  O17  1  0.984520  0.886158  0.653064  1
  O  O18  1  0.615305  0.753389  0.044921  1
  O  O19  1  0.845684  0.529240  0.878917  1
  O  O20  1  0.722710  0.399161  0.183175  1
  O  O21  1  0.246447  0.955292  0.010679  1
  O  O22  1  0.754063  0.615058  0.542189  1
  O  O23  1  0.499096  0.500904  0.000000  1
  O  O24  1  0.528945  0.846578  0.378395  1
  O  O25  1  0.399412  0.724407  0.682677  1
  O  O26  1  0.954764  0.247110  0.510749  1
  O  O27  1  0.044708  0.753553  0.989321  1
  O  O28  1  0.600839  0.277290  0.816825  1
  O  O29  1  0.470760  0.154316  0.121083  1
  O  O30  1  0.499567  0.500433  0.500000  1
  O  O31  1  0.246611  0.384695  0.955079  1
  O  O32  1  0.752890  0.045236  0.489251  1
  O  O33  1  0.275593  0.600588  0.317323  1
