# generated using pymatgen
data_Eu4Ag3Au
_symmetry_space_group_name_H-M   'P 1'
_cell_length_a   4.87178200
_cell_length_b   6.10282855
_cell_length_c   7.81417577
_cell_angle_alpha   90.08906399
_cell_angle_beta   90.00000000
_cell_angle_gamma   90.00000000
_symmetry_Int_Tables_number   1
_chemical_formula_structural   Eu4Ag3Au
_chemical_formula_sum   'Eu4 Ag3 Au1'
_cell_volume   232.32806047
_cell_formula_units_Z   1
loop_
 _symmetry_equiv_pos_site_id
 _symmetry_equiv_pos_as_xyz
  1  'x, y, z'
loop_
 _atom_site_type_symbol
 _atom_site_label
 _atom_site_symmetry_multiplicity
 _atom_site_fract_x
 _atom_site_fract_y
 _atom_site_fract_z
 _atom_site_occupancy
  Eu  Eu0  1  0.250000  0.360966  0.686766  1
  Eu  Eu1  1  0.250000  0.142568  0.176134  1
  Eu  Eu2  1  0.750000  0.632646  0.317132  1
  Eu  Eu3  1  0.750000  0.863705  0.822240  1
  Ag  Ag4  1  0.250000  0.866791  0.535329  1
  Ag  Ag5  1  0.250000  0.639699  0.038902  1
  Ag  Ag6  1  0.750000  0.129684  0.462546  1
  Au  Au7  1  0.750000  0.363941  0.960951  1
