# generated using pymatgen
data_YbY(FeB4)2
_symmetry_space_group_name_H-M   'P 1'
_cell_length_a   3.35460000
_cell_length_b   5.88657993
_cell_length_c   11.38800881
_cell_angle_alpha   89.93547286
_cell_angle_beta   90.00000000
_cell_angle_gamma   90.00000000
_symmetry_Int_Tables_number   1
_chemical_formula_structural   YbY(FeB4)2
_chemical_formula_sum   'Yb2 Y2 Fe4 B16'
_cell_volume   224.88024572
_cell_formula_units_Z   2
loop_
 _symmetry_equiv_pos_site_id
 _symmetry_equiv_pos_as_xyz
  1  'x, y, z'
loop_
 _atom_site_type_symbol
 _atom_site_label
 _atom_site_symmetry_multiplicity
 _atom_site_fract_x
 _atom_site_fract_y
 _atom_site_fract_z
 _atom_site_occupancy
  Yb  Yb0  1  0.000000  0.625581  0.849758  1
  Yb  Yb1  1  0.000000  0.374419  0.150242  1
  Y  Y2  1  0.000000  0.126215  0.651152  1
  Y  Y3  1  0.000000  0.873785  0.348848  1
  Fe  Fe4  1  0.000000  0.127576  0.915470  1
  Fe  Fe5  1  0.000000  0.872424  0.084530  1
  Fe  Fe6  1  0.000000  0.632519  0.587021  1
  Fe  Fe7  1  0.000000  0.367481  0.412979  1
  B  B8  1  0.500000  0.361254  0.967792  1
  B  B9  1  0.500000  0.638746  0.032208  1
  B  B10  1  0.500000  0.860360  0.531858  1
  B  B11  1  0.500000  0.139640  0.468142  1
  B  B12  1  0.500000  0.475115  0.690622  1
  B  B13  1  0.500000  0.524885  0.309378  1
  B  B14  1  0.500000  0.975197  0.810453  1
  B  B15  1  0.500000  0.024803  0.189547  1
  B  B16  1  0.500000  0.280768  0.818060  1
  B  B17  1  0.500000  0.719232  0.181940  1
  B  B18  1  0.500000  0.779256  0.683823  1
  B  B19  1  0.500000  0.220744  0.316177  1
  B  B20  1  0.500000  0.389143  0.546338  1
  B  B21  1  0.500000  0.610857  0.453662  1
  B  B22  1  0.500000  0.886828  0.954036  1
  B  B23  1  0.500000  0.113172  0.045964  1
