# generated using pymatgen
data_NdMnSbO6
_symmetry_space_group_name_H-M   'P 1'
_cell_length_a   5.18098703
_cell_length_b   5.18044648
_cell_length_c   5.14315470
_cell_angle_alpha   89.99782669
_cell_angle_beta   89.99251264
_cell_angle_gamma   119.98114192
_symmetry_Int_Tables_number   1
_chemical_formula_structural   NdMnSbO6
_chemical_formula_sum   'Nd1 Mn1 Sb1 O6'
_cell_volume   119.57004832
_cell_formula_units_Z   1
loop_
 _symmetry_equiv_pos_site_id
 _symmetry_equiv_pos_as_xyz
  1  'x, y, z'
loop_
 _atom_site_type_symbol
 _atom_site_label
 _atom_site_symmetry_multiplicity
 _atom_site_fract_x
 _atom_site_fract_y
 _atom_site_fract_z
 _atom_site_occupancy
  Nd  Nd0  1  0.517305  0.482668  0.499992  1
  Mn  Mn1  1  0.850976  0.149243  0.000451  1
  Sb  Sb2  1  0.184170  0.815882  0.999719  1
  O  O3  1  0.143344  0.118295  0.213024  1
  O  O4  1  0.527275  0.857089  0.213285  1
  O  O5  1  0.882104  0.473007  0.213240  1
  O  O6  1  0.527130  0.117901  0.786715  1
  O  O7  1  0.142760  0.472501  0.786658  1
  O  O8  1  0.881650  0.856722  0.786946  1
