# generated using pymatgen
data_CsRb2Ge17
_symmetry_space_group_name_H-M   'P 1'
_cell_length_a   11.41988790
_cell_length_b   11.41988849
_cell_length_c   11.41988800
_cell_angle_alpha   60.00000141
_cell_angle_beta   59.99999971
_cell_angle_gamma   59.99999984
_symmetry_Int_Tables_number   1
_chemical_formula_structural   CsRb2Ge17
_chemical_formula_sum   'Cs2 Rb4 Ge34'
_cell_volume   1053.10228203
_cell_formula_units_Z   2
loop_
 _symmetry_equiv_pos_site_id
 _symmetry_equiv_pos_as_xyz
  1  'x, y, z'
loop_
 _atom_site_type_symbol
 _atom_site_label
 _atom_site_symmetry_multiplicity
 _atom_site_fract_x
 _atom_site_fract_y
 _atom_site_fract_z
 _atom_site_occupancy
  Cs  Cs0  1  0.250000  0.250000  0.250000  1
  Cs  Cs1  1  0.000000  0.000000  0.000000  1
  Rb  Rb2  1  0.125000  0.625000  0.625000  1
  Rb  Rb3  1  0.625000  0.625000  0.125000  1
  Rb  Rb4  1  0.625000  0.125000  0.625000  1
  Rb  Rb5  1  0.625000  0.625000  0.625000  1
  Ge  Ge6  1  0.388616  0.996244  0.618897  1
  Ge  Ge7  1  0.388616  0.996244  0.996244  1
  Ge  Ge8  1  0.618897  0.996244  0.996244  1
  Ge  Ge9  1  0.861384  0.631103  0.253756  1
  Ge  Ge10  1  0.253756  0.631103  0.253756  1
  Ge  Ge11  1  0.631103  0.253756  0.861384  1
  Ge  Ge12  1  0.253756  0.253756  0.861384  1
  Ge  Ge13  1  0.631103  0.861384  0.253756  1
  Ge  Ge14  1  0.861384  0.253756  0.631103  1
  Ge  Ge15  1  0.253756  0.253756  0.631103  1
  Ge  Ge16  1  0.253756  0.861384  0.253756  1
  Ge  Ge17  1  0.618897  0.996244  0.388616  1
  Ge  Ge18  1  0.996244  0.996244  0.388616  1
  Ge  Ge19  1  0.996244  0.388616  0.618897  1
  Ge  Ge20  1  0.996244  0.618897  0.388616  1
  Ge  Ge21  1  0.388616  0.618897  0.996244  1
  Ge  Ge22  1  0.996244  0.618897  0.996244  1
  Ge  Ge23  1  0.861384  0.253756  0.253756  1
  Ge  Ge24  1  0.631103  0.253756  0.253756  1
  Ge  Ge25  1  0.253756  0.861384  0.631103  1
  Ge  Ge26  1  0.406349  0.780953  0.406349  1
  Ge  Ge27  1  0.843651  0.843651  0.469047  1
  Ge  Ge28  1  0.469047  0.843651  0.843651  1
  Ge  Ge29  1  0.843651  0.843651  0.843651  1
  Ge  Ge30  1  0.780953  0.406349  0.406349  1
  Ge  Ge31  1  0.406349  0.406349  0.406349  1
  Ge  Ge32  1  0.406349  0.406349  0.780953  1
  Ge  Ge33  1  0.843651  0.469047  0.843651  1
  Ge  Ge34  1  0.500000  0.500000  0.500000  1
  Ge  Ge35  1  0.750000  0.750000  0.750000  1
  Ge  Ge36  1  0.618897  0.388616  0.996244  1
  Ge  Ge37  1  0.996244  0.996244  0.618897  1
  Ge  Ge38  1  0.253756  0.631103  0.861384  1
  Ge  Ge39  1  0.996244  0.388616  0.996244  1
