# generated using pymatgen
data_Tb7Pr3(SiHg)4
_symmetry_space_group_name_H-M   'P 1'
_cell_length_a   9.19574894
_cell_length_b   8.69664550
_cell_length_c   7.64853275
_cell_angle_alpha   89.96649158
_cell_angle_beta   90.04685594
_cell_angle_gamma   129.20810269
_symmetry_Int_Tables_number   1
_chemical_formula_structural   Tb7Pr3(SiHg)4
_chemical_formula_sum   'Tb7 Pr3 Si4 Hg4'
_cell_volume   473.95526540
_cell_formula_units_Z   1
loop_
 _symmetry_equiv_pos_site_id
 _symmetry_equiv_pos_as_xyz
  1  'x, y, z'
loop_
 _atom_site_type_symbol
 _atom_site_label
 _atom_site_symmetry_multiplicity
 _atom_site_fract_x
 _atom_site_fract_y
 _atom_site_fract_z
 _atom_site_occupancy
  Tb  Tb0  1  0.784654  0.542911  0.177813  1
  Tb  Tb1  1  0.569139  0.832728  0.175670  1
  Tb  Tb2  1  0.215835  0.460951  0.821378  1
  Tb  Tb3  1  0.714773  0.958284  0.678859  1
  Tb  Tb4  1  0.282521  0.042844  0.322408  1
  Tb  Tb5  1  0.000519  0.002055  0.999307  1
  Tb  Tb6  1  0.499273  0.500838  0.499464  1
  Pr  Pr7  1  0.069255  0.340660  0.320897  1
  Pr  Pr8  1  0.932522  0.659742  0.679111  1
  Pr  Pr9  1  0.430077  0.159632  0.822442  1
  Si  Si10  1  0.383686  0.389312  0.118581  1
  Si  Si11  1  0.617762  0.616346  0.882515  1
  Si  Si12  1  0.116605  0.115753  0.618682  1
  Si  Si13  1  0.879478  0.885435  0.379708  1
  Hg  Hg14  1  0.814421  0.250668  0.978209  1
  Hg  Hg15  1  0.185478  0.740647  0.036590  1
  Hg  Hg16  1  0.678942  0.239522  0.468950  1
  Hg  Hg17  1  0.325060  0.761671  0.519417  1
