# generated using pymatgen
data_Nd3Dy5Pt4
_symmetry_space_group_name_H-M   'P 1'
_cell_length_a   4.81140700
_cell_length_b   7.25047934
_cell_length_c   8.93907907
_cell_angle_alpha   89.90149168
_cell_angle_beta   90.00000000
_cell_angle_gamma   90.00000000
_symmetry_Int_Tables_number   1
_chemical_formula_structural   Nd3Dy5Pt4
_chemical_formula_sum   'Nd3 Dy5 Pt4'
_cell_volume   311.83937568
_cell_formula_units_Z   1
loop_
 _symmetry_equiv_pos_site_id
 _symmetry_equiv_pos_as_xyz
  1  'x, y, z'
loop_
 _atom_site_type_symbol
 _atom_site_label
 _atom_site_symmetry_multiplicity
 _atom_site_fract_x
 _atom_site_fract_y
 _atom_site_fract_z
 _atom_site_occupancy
  Nd  Nd0  1  0.250000  0.491713  0.173042  1
  Nd  Nd1  1  0.750000  0.008342  0.670267  1
  Nd  Nd2  1  0.750000  0.508214  0.828338  1
  Dy  Dy3  1  0.250000  0.857756  0.921836  1
  Dy  Dy4  1  0.250000  0.356395  0.578360  1
  Dy  Dy5  1  0.750000  0.142032  0.083121  1
  Dy  Dy6  1  0.750000  0.645154  0.419255  1
  Dy  Dy7  1  0.250000  0.991406  0.332401  1
  Pt  Pt8  1  0.250000  0.252089  0.907693  1
  Pt  Pt9  1  0.250000  0.753529  0.587707  1
  Pt  Pt10  1  0.750000  0.749427  0.092572  1
  Pt  Pt11  1  0.750000  0.243943  0.405409  1
