# generated using pymatgen
data_Sc8Ti9Nb3Si15Sn
_symmetry_space_group_name_H-M   'P 1'
_cell_length_a   6.75535323
_cell_length_b   6.87450139
_cell_length_c   13.13880122
_cell_angle_alpha   89.94525522
_cell_angle_beta   90.33530291
_cell_angle_gamma   90.15205189
_symmetry_Int_Tables_number   1
_chemical_formula_structural   Sc8Ti9Nb3Si15Sn
_chemical_formula_sum   'Sc8 Ti9 Nb3 Si15 Sn1'
_cell_volume   610.14892533
_cell_formula_units_Z   1
loop_
 _symmetry_equiv_pos_site_id
 _symmetry_equiv_pos_as_xyz
  1  'x, y, z'
loop_
 _atom_site_type_symbol
 _atom_site_label
 _atom_site_symmetry_multiplicity
 _atom_site_fract_x
 _atom_site_fract_y
 _atom_site_fract_z
 _atom_site_occupancy
  Sc  Sc0  1  0.494646  0.670448  0.601258  1
  Sc  Sc1  1  0.002814  0.826838  0.904171  1
  Sc  Sc2  1  0.495395  0.324992  0.094839  1
  Sc  Sc3  1  0.012413  0.183990  0.398179  1
  Sc  Sc4  1  0.496269  0.331877  0.401417  1
  Sc  Sc5  1  0.997391  0.175067  0.095516  1
  Sc  Sc6  1  0.502159  0.677765  0.904478  1
  Sc  Sc7  1  0.010014  0.821673  0.601038  1
  Ti  Ti8  1  0.653778  0.184612  0.633955  1
  Ti  Ti9  1  0.162338  0.322845  0.875041  1
  Ti  Ti10  1  0.337185  0.824155  0.124544  1
  Ti  Ti11  1  0.849819  0.660294  0.368132  1
  Ti  Ti12  1  0.327795  0.822637  0.372436  1
  Ti  Ti13  1  0.834842  0.675747  0.123907  1
  Ti  Ti14  1  0.661494  0.173094  0.873082  1
  Ti  Ti15  1  0.162794  0.325898  0.629353  1
  Ti  Ti16  1  0.834618  0.494242  0.749865  1
  Nb  Nb17  1  0.334603  0.007505  0.751359  1
  Nb  Nb18  1  0.165114  0.505760  0.249434  1
  Nb  Nb19  1  0.664881  0.992035  0.242646  1
  Si  Si20  1  0.161828  0.533677  0.039570  1
  Si  Si21  1  0.334653  0.034333  0.960123  1
  Si  Si22  1  0.832988  0.465437  0.540041  1
  Si  Si23  1  0.324753  0.038049  0.540599  1
  Si  Si24  1  0.834903  0.465680  0.958934  1
  Si  Si25  1  0.664837  0.966450  0.037639  1
  Si  Si26  1  0.167401  0.535333  0.463984  1
  Si  Si27  1  0.458148  0.387672  0.754682  1
  Si  Si28  1  0.957208  0.118098  0.751195  1
  Si  Si29  1  0.542035  0.617157  0.248826  1
  Si  Si30  1  0.040550  0.884729  0.247225  1
  Si  Si31  1  0.704863  0.862986  0.750863  1
  Si  Si32  1  0.200655  0.631617  0.753475  1
  Si  Si33  1  0.299282  0.132482  0.248328  1
  Si  Si34  1  0.793777  0.362940  0.246905  1
  Sn  Sn35  1  0.681756  0.961887  0.462962  1
