# generated using pymatgen
data_Cs3RbSi4(BiSe4)4
_symmetry_space_group_name_H-M   'P 1'
_cell_length_a   7.25981628
_cell_length_b   6.90579107
_cell_length_c   19.59848404
_cell_angle_alpha   71.53862120
_cell_angle_beta   90.12306304
_cell_angle_gamma   89.98161800
_symmetry_Int_Tables_number   1
_chemical_formula_structural   Cs3RbSi4(BiSe4)4
_chemical_formula_sum   'Cs3 Rb1 Si4 Bi4 Se16'
_cell_volume   931.99745459
_cell_formula_units_Z   1
loop_
 _symmetry_equiv_pos_site_id
 _symmetry_equiv_pos_as_xyz
  1  'x, y, z'
loop_
 _atom_site_type_symbol
 _atom_site_label
 _atom_site_symmetry_multiplicity
 _atom_site_fract_x
 _atom_site_fract_y
 _atom_site_fract_z
 _atom_site_occupancy
  Cs  Cs0  1  0.248143  0.274259  0.967573  1
  Cs  Cs1  1  0.749359  0.726402  0.533001  1
  Cs  Cs2  1  0.250837  0.273393  0.467451  1
  Rb  Rb3  1  0.743089  0.730802  0.033975  1
  Si  Si4  1  0.721422  0.199056  0.838678  1
  Si  Si5  1  0.778045  0.202377  0.334514  1
  Si  Si6  1  0.219840  0.799031  0.664712  1
  Si  Si7  1  0.281829  0.798984  0.162068  1
  Bi  Bi8  1  0.195811  0.245873  0.221965  1
  Bi  Bi9  1  0.700638  0.759630  0.274818  1
  Bi  Bi10  1  0.801203  0.757090  0.779075  1
  Bi  Bi11  1  0.302991  0.241199  0.724421  1
  Se  Se12  1  0.525417  0.016780  0.136798  1
  Se  Se13  1  0.754727  0.404527  0.406589  1
  Se  Se14  1  0.981821  0.001245  0.852810  1
  Se  Se15  1  0.829788  0.409502  0.217349  1
  Se  Se16  1  0.981367  0.024225  0.641228  1
  Se  Se17  1  0.250916  0.596195  0.090219  1
  Se  Se18  1  0.745002  0.405587  0.909563  1
  Se  Se19  1  0.332709  0.593976  0.279252  1
  Se  Se20  1  0.245975  0.594605  0.593180  1
  Se  Se21  1  0.482996  0.974116  0.862068  1
  Se  Se22  1  0.670042  0.405224  0.721524  1
  Se  Se23  1  0.168559  0.591711  0.781303  1
  Se  Se24  1  0.017343  0.977746  0.358279  1
  Se  Se25  1  0.021118  0.996029  0.149139  1
  Se  Se26  1  0.516986  0.007059  0.346348  1
  Se  Se27  1  0.482030  0.993378  0.652101  1
