# generated using pymatgen
data_HoEr5(SnIr)6
_symmetry_space_group_name_H-M   'P 1'
_cell_length_a   7.45041476
_cell_length_b   7.49569172
_cell_length_c   7.87495600
_cell_angle_alpha   90.00000000
_cell_angle_beta   90.00000000
_cell_angle_gamma   120.24471583
_symmetry_Int_Tables_number   1
_chemical_formula_structural   HoEr5(SnIr)6
_chemical_formula_sum   'Ho1 Er5 Sn6 Ir6'
_cell_volume   379.92223269
_cell_formula_units_Z   1
loop_
 _symmetry_equiv_pos_site_id
 _symmetry_equiv_pos_as_xyz
  1  'x, y, z'
loop_
 _atom_site_type_symbol
 _atom_site_label
 _atom_site_symmetry_multiplicity
 _atom_site_fract_x
 _atom_site_fract_y
 _atom_site_fract_z
 _atom_site_occupancy
  Ho  Ho0  1  0.998724  0.401744  0.250000  1
  Er  Er1  1  0.405649  0.004379  0.250000  1
  Er  Er2  1  0.597194  0.595208  0.750000  1
  Er  Er3  1  0.595453  0.596718  0.250000  1
  Er  Er4  1  0.001307  0.405399  0.750000  1
  Er  Er5  1  0.402469  0.997100  0.750000  1
  Sn  Sn6  1  0.262349  0.261133  0.501245  1
  Sn  Sn7  1  0.262349  0.261133  0.998755  1
  Sn  Sn8  1  0.737192  0.997979  0.999049  1
  Sn  Sn9  1  0.000409  0.742066  0.496733  1
  Sn  Sn10  1  0.737192  0.997979  0.500951  1
  Sn  Sn11  1  0.000409  0.742066  0.003267  1
  Ir  Ir12  1  0.670383  0.333955  0.500922  1
  Ir  Ir13  1  0.670383  0.333955  0.999078  1
  Ir  Ir14  1  0.329441  0.663882  0.002888  1
  Ir  Ir15  1  0.329441  0.663882  0.497112  1
  Ir  Ir16  1  0.999784  0.998901  0.750000  1
  Ir  Ir17  1  0.999871  0.002521  0.250000  1
