# generated using pymatgen
data_Pr13Th3Cd2(HgIr2)2
_symmetry_space_group_name_H-M   'P 1'
_cell_length_a   10.00873003
_cell_length_b   10.04942290
_cell_length_c   10.05012700
_cell_angle_alpha   59.99768556
_cell_angle_beta   59.86308809
_cell_angle_gamma   59.92533411
_symmetry_Int_Tables_number   1
_chemical_formula_structural   Pr13Th3Cd2(HgIr2)2
_chemical_formula_sum   'Pr13 Th3 Cd2 Hg2 Ir4'
_cell_volume   713.62906547
_cell_formula_units_Z   1
loop_
 _symmetry_equiv_pos_site_id
 _symmetry_equiv_pos_as_xyz
  1  'x, y, z'
loop_
 _atom_site_type_symbol
 _atom_site_label
 _atom_site_symmetry_multiplicity
 _atom_site_fract_x
 _atom_site_fract_y
 _atom_site_fract_z
 _atom_site_occupancy
  Pr  Pr0  1  0.948441  0.351057  0.350250  1
  Pr  Pr1  1  0.809616  0.190231  0.191913  1
  Pr  Pr2  1  0.190183  0.809252  0.809032  1
  Pr  Pr3  1  0.190183  0.809252  0.191534  1
  Pr  Pr4  1  0.809616  0.190231  0.808239  1
  Pr  Pr5  1  0.190403  0.190429  0.809584  1
  Pr  Pr6  1  0.808146  0.807036  0.192409  1
  Pr  Pr7  1  0.940776  0.560484  0.562439  1
  Pr  Pr8  1  0.559393  0.939860  0.938717  1
  Pr  Pr9  1  0.559393  0.939860  0.562029  1
  Pr  Pr10  1  0.940776  0.560484  0.936300  1
  Pr  Pr11  1  0.559644  0.560840  0.939758  1
  Pr  Pr12  1  0.939992  0.936495  0.561756  1
  Th  Th13  1  0.345106  0.346451  0.345955  1
  Th  Th14  1  0.345106  0.346451  0.962485  1
  Th  Th15  1  0.346451  0.959700  0.346924  1
  Cd  Cd16  1  0.577167  0.260545  0.581144  1
  Cd  Cd17  1  0.259648  0.579704  0.580323  1
  Hg  Hg18  1  0.581187  0.584093  0.585713  1
  Hg  Hg19  1  0.581187  0.584093  0.249007  1
  Ir  Ir20  1  0.151775  0.141168  0.142124  1
  Ir  Ir21  1  0.151775  0.141168  0.564932  1
  Ir  Ir22  1  0.151682  0.565506  0.141405  1
  Ir  Ir23  1  0.562350  0.145602  0.146023  1
