# generated using pymatgen
data_CaCe6(BrN)6
_symmetry_space_group_name_H-M   'P 1'
_cell_length_a   6.88266201
_cell_length_b   6.88266226
_cell_length_c   11.17873996
_cell_angle_alpha   84.06333852
_cell_angle_beta   84.06333713
_cell_angle_gamma   119.93397139
_symmetry_Int_Tables_number   1
_chemical_formula_structural   CaCe6(BrN)6
_chemical_formula_sum   'Ca1 Ce6 Br6 N6'
_cell_volume   449.00157360
_cell_formula_units_Z   1
loop_
 _symmetry_equiv_pos_site_id
 _symmetry_equiv_pos_as_xyz
  1  'x, y, z'
loop_
 _atom_site_type_symbol
 _atom_site_label
 _atom_site_symmetry_multiplicity
 _atom_site_fract_x
 _atom_site_fract_y
 _atom_site_fract_z
 _atom_site_occupancy
  Ca  Ca0  1  0.000000  0.000000  0.000000  1
  Ce  Ce1  1  0.207324  0.207324  0.371846  1
  Ce  Ce2  1  0.542356  0.873638  0.374422  1
  Ce  Ce3  1  0.873638  0.542356  0.374422  1
  Ce  Ce4  1  0.126362  0.457644  0.625578  1
  Ce  Ce5  1  0.457644  0.126362  0.625578  1
  Ce  Ce6  1  0.792676  0.792676  0.628154  1
  Br  Br7  1  0.056565  0.727909  0.831012  1
  Br  Br8  1  0.385367  0.385367  0.831150  1
  Br  Br9  1  0.727909  0.056565  0.831012  1
  Br  Br10  1  0.272091  0.943435  0.168988  1
  Br  Br11  1  0.614633  0.614633  0.168850  1
  Br  Br12  1  0.943435  0.272091  0.168988  1
  N  N13  1  0.137346  0.137346  0.579873  1
  N  N14  1  0.473682  0.806256  0.581333  1
  N  N15  1  0.806256  0.473682  0.581333  1
  N  N16  1  0.193744  0.526318  0.418667  1
  N  N17  1  0.526318  0.193744  0.418667  1
  N  N18  1  0.862654  0.862654  0.420127  1
