# generated using pymatgen
data_Dy12Y4Cd4Co3Ru
_symmetry_space_group_name_H-M   'P 1'
_cell_length_a   9.59152931
_cell_length_b   9.55420114
_cell_length_c   9.55351630
_cell_angle_alpha   59.95818402
_cell_angle_beta   59.92191557
_cell_angle_gamma   59.92701297
_symmetry_Int_Tables_number   1
_chemical_formula_structural   Dy12Y4Cd4Co3Ru
_chemical_formula_sum   'Dy12 Y4 Cd4 Co3 Ru1'
_cell_volume   618.15384900
_cell_formula_units_Z   1
loop_
 _symmetry_equiv_pos_site_id
 _symmetry_equiv_pos_as_xyz
  1  'x, y, z'
loop_
 _atom_site_type_symbol
 _atom_site_label
 _atom_site_symmetry_multiplicity
 _atom_site_fract_x
 _atom_site_fract_y
 _atom_site_fract_z
 _atom_site_occupancy
  Dy  Dy0  1  0.814882  0.807908  0.186373  1
  Dy  Dy1  1  0.342293  0.348537  0.348586  1
  Dy  Dy2  1  0.561545  0.940454  0.940452  1
  Dy  Dy3  1  0.562513  0.939520  0.558861  1
  Dy  Dy4  1  0.188397  0.810888  0.810846  1
  Dy  Dy5  1  0.189353  0.187116  0.810513  1
  Dy  Dy6  1  0.341417  0.351458  0.959316  1
  Dy  Dy7  1  0.341416  0.959346  0.351474  1
  Dy  Dy8  1  0.814907  0.186387  0.807867  1
  Dy  Dy9  1  0.562507  0.558831  0.939536  1
  Dy  Dy10  1  0.189368  0.810533  0.187104  1
  Dy  Dy11  1  0.964043  0.346769  0.346856  1
  Y  Y12  1  0.937251  0.937314  0.562403  1
  Y  Y13  1  0.814800  0.188270  0.188239  1
  Y  Y14  1  0.938802  0.562544  0.562568  1
  Y  Y15  1  0.937239  0.562382  0.937366  1
  Cd  Cd16  1  0.580718  0.580057  0.257631  1
  Cd  Cd17  1  0.258517  0.580091  0.580081  1
  Cd  Cd18  1  0.580215  0.579694  0.579682  1
  Cd  Cd19  1  0.580737  0.257618  0.580045  1
  Co  Co20  1  0.141087  0.141222  0.141233  1
  Co  Co21  1  0.140753  0.579318  0.142815  1
  Co  Co22  1  0.140792  0.142817  0.579304  1
  Ru  Ru23  1  0.576453  0.140930  0.140852  1
