# generated using pymatgen
data_Er8InHg3Au8
_symmetry_space_group_name_H-M   'P 1'
_cell_length_a   7.94237400
_cell_length_b   7.94237400
_cell_length_c   7.33481900
_cell_angle_alpha   90.00000000
_cell_angle_beta   90.00000000
_cell_angle_gamma   90.00000000
_symmetry_Int_Tables_number   1
_chemical_formula_structural   Er8InHg3Au8
_chemical_formula_sum   'Er8 In1 Hg3 Au8'
_cell_volume   462.68995267
_cell_formula_units_Z   1
loop_
 _symmetry_equiv_pos_site_id
 _symmetry_equiv_pos_as_xyz
  1  'x, y, z'
loop_
 _atom_site_type_symbol
 _atom_site_label
 _atom_site_symmetry_multiplicity
 _atom_site_fract_x
 _atom_site_fract_y
 _atom_site_fract_z
 _atom_site_occupancy
  Er  Er0  1  0.839532  0.157594  0.500322  1
  Er  Er1  1  0.160468  0.842406  0.500322  1
  Er  Er2  1  0.342406  0.339532  0.999678  1
  Er  Er3  1  0.657594  0.660468  0.999678  1
  Er  Er4  1  0.680804  0.685553  0.500615  1
  Er  Er5  1  0.319196  0.314447  0.500615  1
  Er  Er6  1  0.185553  0.819196  0.999385  1
  Er  Er7  1  0.814447  0.180804  0.999385  1
  In  In8  1  0.000000  0.500000  0.250000  1
  Hg  Hg9  1  0.500000  0.000000  0.250000  1
  Hg  Hg10  1  0.000000  0.500000  0.750000  1
  Hg  Hg11  1  0.500000  0.000000  0.750000  1
  Au  Au12  1  0.630588  0.373592  0.274419  1
  Au  Au13  1  0.369412  0.626408  0.274419  1
  Au  Au14  1  0.127685  0.128307  0.774328  1
  Au  Au15  1  0.872315  0.871693  0.774328  1
  Au  Au16  1  0.371693  0.627685  0.725672  1
  Au  Au17  1  0.628307  0.372315  0.725672  1
  Au  Au18  1  0.873592  0.869412  0.225581  1
  Au  Au19  1  0.126408  0.130588  0.225581  1
