# generated using pymatgen
data_Tb6ErCoBr12
_symmetry_space_group_name_H-M   'P 1'
_cell_length_a   9.24076430
_cell_length_b   9.24076352
_cell_length_c   9.24076301
_cell_angle_alpha   106.78983407
_cell_angle_beta   106.78982792
_cell_angle_gamma   106.78983496
_symmetry_Int_Tables_number   1
_chemical_formula_structural   Tb6ErCoBr12
_chemical_formula_sum   'Tb6 Er1 Co1 Br12'
_cell_volume   660.88860675
_cell_formula_units_Z   1
loop_
 _symmetry_equiv_pos_site_id
 _symmetry_equiv_pos_as_xyz
  1  'x, y, z'
loop_
 _atom_site_type_symbol
 _atom_site_label
 _atom_site_symmetry_multiplicity
 _atom_site_fract_x
 _atom_site_fract_y
 _atom_site_fract_z
 _atom_site_occupancy
  Tb  Tb0  1  0.097137  0.020877  0.301363  1
  Tb  Tb1  1  0.301363  0.097137  0.020877  1
  Tb  Tb2  1  0.020877  0.301363  0.097137  1
  Tb  Tb3  1  0.902863  0.979123  0.698637  1
  Tb  Tb4  1  0.698637  0.902863  0.979123  1
  Tb  Tb5  1  0.979123  0.698637  0.902863  1
  Er  Er6  1  0.500000  0.500000  0.500000  1
  Co  Co7  1  0.000000  0.000000  0.000000  1
  Br  Br8  1  0.068736  0.678027  0.222881  1
  Br  Br9  1  0.222881  0.068736  0.678027  1
  Br  Br10  1  0.678027  0.222881  0.068736  1
  Br  Br11  1  0.931264  0.321973  0.777119  1
  Br  Br12  1  0.777119  0.931264  0.321973  1
  Br  Br13  1  0.321973  0.777119  0.931264  1
  Br  Br14  1  0.462852  0.171412  0.387492  1
  Br  Br15  1  0.387492  0.462852  0.171412  1
  Br  Br16  1  0.171412  0.387492  0.462852  1
  Br  Br17  1  0.537148  0.828588  0.612508  1
  Br  Br18  1  0.612508  0.537148  0.828588  1
  Br  Br19  1  0.828588  0.612508  0.537148  1
