# generated using pymatgen
data_Pr3Sm3Co2(P3Ru4)4
_symmetry_space_group_name_H-M   'P 1'
_cell_length_a   3.96089700
_cell_length_b   11.19785355
_cell_length_c   12.72692462
_cell_angle_alpha   90.03593556
_cell_angle_beta   90.00000000
_cell_angle_gamma   90.00000000
_symmetry_Int_Tables_number   1
_chemical_formula_structural   Pr3Sm3Co2(P3Ru4)4
_chemical_formula_sum   'Pr3 Sm3 Co2 P12 Ru16'
_cell_volume   564.48410716
_cell_formula_units_Z   1
loop_
 _symmetry_equiv_pos_site_id
 _symmetry_equiv_pos_as_xyz
  1  'x, y, z'
loop_
 _atom_site_type_symbol
 _atom_site_label
 _atom_site_symmetry_multiplicity
 _atom_site_fract_x
 _atom_site_fract_y
 _atom_site_fract_z
 _atom_site_occupancy
  Pr  Pr0  1  0.000000  0.499542  0.526691  1
  Pr  Pr1  1  0.500000  0.000266  0.473904  1
  Pr  Pr2  1  0.500000  0.820041  0.204394  1
  Sm  Sm3  1  0.500000  0.180814  0.204139  1
  Sm  Sm4  1  0.000000  0.680133  0.795625  1
  Sm  Sm5  1  0.000000  0.319622  0.795564  1
  Co  Co6  1  0.000000  0.499319  0.987753  1
  Co  Co7  1  0.500000  0.000792  0.010899  1
  P  P8  1  0.500000  0.499384  0.885378  1
  P  P9  1  0.000000  0.001229  0.112929  1
  P  P10  1  0.500000  0.499958  0.334473  1
  P  P11  1  0.000000  0.999912  0.665638  1
  P  P12  1  0.500000  0.299657  0.617539  1
  P  P13  1  0.500000  0.700152  0.618282  1
  P  P14  1  0.000000  0.200555  0.382867  1
  P  P15  1  0.000000  0.798878  0.384637  1
  P  P16  1  0.500000  0.849402  0.899490  1
  P  P17  1  0.500000  0.150973  0.899119  1
  P  P18  1  0.000000  0.649295  0.099574  1
  P  P19  1  0.000000  0.349540  0.100247  1
  Ru  Ru20  1  0.500000  0.499785  0.152853  1
  Ru  Ru21  1  0.000000  0.000546  0.846902  1
  Ru  Ru22  1  0.500000  0.499978  0.698463  1
  Ru  Ru23  1  0.000000  0.001826  0.302383  1
  Ru  Ru24  1  0.500000  0.334404  0.991324  1
  Ru  Ru25  1  0.500000  0.665046  0.990796  1
  Ru  Ru26  1  0.000000  0.166488  0.007765  1
  Ru  Ru27  1  0.000000  0.834302  0.007010  1
  Ru  Ru28  1  0.500000  0.300994  0.429183  1
  Ru  Ru29  1  0.500000  0.698684  0.430568  1
  Ru  Ru30  1  0.000000  0.199553  0.570956  1
  Ru  Ru31  1  0.000000  0.800610  0.571866  1
  Ru  Ru32  1  0.500000  0.879290  0.717724  1
  Ru  Ru33  1  0.500000  0.120766  0.717151  1
  Ru  Ru34  1  0.000000  0.619609  0.283498  1
  Ru  Ru35  1  0.000000  0.378658  0.282413  1
