# generated using pymatgen
data_Tb7Pr2Er(In2Pt)4
_symmetry_space_group_name_H-M   'P 1'
_cell_length_a   3.66620400
_cell_length_b   8.21394837
_cell_length_c   18.46292148
_cell_angle_alpha   90.15329794
_cell_angle_beta   90.00000000
_cell_angle_gamma   90.00000000
_symmetry_Int_Tables_number   1
_chemical_formula_structural   Tb7Pr2Er(In2Pt)4
_chemical_formula_sum   'Tb7 Pr2 Er1 In8 Pt4'
_cell_volume   555.99061873
_cell_formula_units_Z   1
loop_
 _symmetry_equiv_pos_site_id
 _symmetry_equiv_pos_as_xyz
  1  'x, y, z'
loop_
 _atom_site_type_symbol
 _atom_site_label
 _atom_site_symmetry_multiplicity
 _atom_site_fract_x
 _atom_site_fract_y
 _atom_site_fract_z
 _atom_site_occupancy
  Tb  Tb0  1  0.000000  0.118980  0.413916  1
  Tb  Tb1  1  0.000000  0.880548  0.585767  1
  Tb  Tb2  1  0.000000  0.380579  0.914249  1
  Tb  Tb3  1  0.000000  0.619475  0.086165  1
  Tb  Tb4  1  0.000000  0.242059  0.219520  1
  Tb  Tb5  1  0.000000  0.757921  0.780501  1
  Tb  Tb6  1  0.000000  0.258124  0.719494  1
  Pr  Pr7  1  0.000000  0.000045  0.000108  1
  Pr  Pr8  1  0.000000  0.499945  0.499955  1
  Er  Er9  1  0.000000  0.742693  0.279890  1
  In  In10  1  0.500000  0.423469  0.348010  1
  In  In11  1  0.500000  0.577869  0.651747  1
  In  In12  1  0.500000  0.077822  0.848221  1
  In  In13  1  0.500000  0.921472  0.152301  1
  In  In14  1  0.500000  0.299310  0.068249  1
  In  In15  1  0.500000  0.700913  0.931802  1
  In  In16  1  0.500000  0.201022  0.568173  1
  In  In17  1  0.500000  0.798587  0.431217  1
  Pt  Pt18  1  0.500000  0.020826  0.303171  1
  Pt  Pt19  1  0.500000  0.975717  0.696513  1
  Pt  Pt20  1  0.500000  0.475820  0.803489  1
  Pt  Pt21  1  0.500000  0.526806  0.197545  1
