# generated using pymatgen
data_Cs6TmInBr12
_symmetry_space_group_name_H-M   'P 1'
_cell_length_a   9.93298200
_cell_length_b   9.91034972
_cell_length_c   8.23900200
_cell_angle_alpha   90.00000000
_cell_angle_beta   90.00000000
_cell_angle_gamma   90.18865348
_symmetry_Int_Tables_number   1
_chemical_formula_structural   Cs6TmInBr12
_chemical_formula_sum   'Cs6 Tm1 In1 Br12'
_cell_volume   811.03740238
_cell_formula_units_Z   1
loop_
 _symmetry_equiv_pos_site_id
 _symmetry_equiv_pos_as_xyz
  1  'x, y, z'
loop_
 _atom_site_type_symbol
 _atom_site_label
 _atom_site_symmetry_multiplicity
 _atom_site_fract_x
 _atom_site_fract_y
 _atom_site_fract_z
 _atom_site_occupancy
  Cs  Cs0  1  0.000000  0.000000  0.500000  1
  Cs  Cs1  1  0.000000  0.000000  0.000000  1
  Cs  Cs2  1  0.235234  0.584370  0.500000  1
  Cs  Cs3  1  0.764766  0.415630  0.500000  1
  Cs  Cs4  1  0.416817  0.234449  0.000000  1
  Cs  Cs5  1  0.583183  0.765551  0.000000  1
  Tm  Tm6  1  0.000000  0.500000  0.000000  1
  In  In7  1  0.500000  0.000000  0.500000  1
  Br  Br8  1  0.687742  0.057916  0.735933  1
  Br  Br9  1  0.312258  0.942084  0.735933  1
  Br  Br10  1  0.942567  0.691236  0.239648  1
  Br  Br11  1  0.057433  0.308764  0.239648  1
  Br  Br12  1  0.312258  0.942084  0.264067  1
  Br  Br13  1  0.687742  0.057916  0.264067  1
  Br  Br14  1  0.057433  0.308764  0.760352  1
  Br  Br15  1  0.942567  0.691236  0.760352  1
  Br  Br16  1  0.570645  0.736191  0.500000  1
  Br  Br17  1  0.429355  0.263809  0.500000  1
  Br  Br18  1  0.269360  0.572020  0.000000  1
  Br  Br19  1  0.730640  0.427980  0.000000  1
