# generated using pymatgen
data_HoTm3ScBi3
_symmetry_space_group_name_H-M   'P 1'
_cell_length_a   8.06047600
_cell_length_b   9.36694400
_cell_length_c   11.85179700
_cell_angle_alpha   90.00000000
_cell_angle_beta   90.00000000
_cell_angle_gamma   90.00000000
_symmetry_Int_Tables_number   1
_chemical_formula_structural   HoTm3ScBi3
_chemical_formula_sum   'Ho4 Tm12 Sc4 Bi12'
_cell_volume   894.83470071
_cell_formula_units_Z   4
loop_
 _symmetry_equiv_pos_site_id
 _symmetry_equiv_pos_as_xyz
  1  'x, y, z'
loop_
 _atom_site_type_symbol
 _atom_site_label
 _atom_site_symmetry_multiplicity
 _atom_site_fract_x
 _atom_site_fract_y
 _atom_site_fract_z
 _atom_site_occupancy
  Ho  Ho0  1  0.316391  0.250000  0.218476  1
  Ho  Ho1  1  0.816391  0.250000  0.281524  1
  Ho  Ho2  1  0.683609  0.750000  0.781524  1
  Ho  Ho3  1  0.183609  0.750000  0.718476  1
  Tm  Tm4  1  0.352975  0.750000  0.217852  1
  Tm  Tm5  1  0.852975  0.750000  0.282148  1
  Tm  Tm6  1  0.647025  0.250000  0.782148  1
  Tm  Tm7  1  0.147025  0.250000  0.717852  1
  Tm  Tm8  1  0.694019  0.565782  0.059482  1
  Tm  Tm9  1  0.194019  0.934218  0.440518  1
  Tm  Tm10  1  0.305981  0.065782  0.940518  1
  Tm  Tm11  1  0.805981  0.434218  0.559482  1
  Tm  Tm12  1  0.305981  0.434218  0.940518  1
  Tm  Tm13  1  0.805981  0.065782  0.559482  1
  Tm  Tm14  1  0.694019  0.934218  0.059482  1
  Tm  Tm15  1  0.194019  0.565782  0.440518  1
  Sc  Sc16  1  0.478369  0.250000  0.487750  1
  Sc  Sc17  1  0.978369  0.250000  0.012250  1
  Sc  Sc18  1  0.521631  0.750000  0.512250  1
  Sc  Sc19  1  0.021631  0.750000  0.987750  1
  Bi  Bi20  1  0.399260  0.750000  0.959048  1
  Bi  Bi21  1  0.899260  0.750000  0.540952  1
  Bi  Bi22  1  0.600740  0.250000  0.040952  1
  Bi  Bi23  1  0.100740  0.250000  0.459048  1
  Bi  Bi24  1  0.565892  0.995842  0.330781  1
  Bi  Bi25  1  0.065892  0.504158  0.169219  1
  Bi  Bi26  1  0.434108  0.495842  0.669219  1
  Bi  Bi27  1  0.934108  0.004158  0.830781  1
  Bi  Bi28  1  0.434108  0.004158  0.669219  1
  Bi  Bi29  1  0.934108  0.495842  0.830781  1
  Bi  Bi30  1  0.565892  0.504158  0.330781  1
  Bi  Bi31  1  0.065892  0.995842  0.169219  1
