# generated using pymatgen
data_ZrTaBe9Mo
_symmetry_space_group_name_H-M   'P 1'
_cell_length_a   7.56498920
_cell_length_b   7.56498880
_cell_length_c   7.56498900
_cell_angle_alpha   34.86711437
_cell_angle_beta   34.86711875
_cell_angle_gamma   34.86710726
_symmetry_Int_Tables_number   1
_chemical_formula_structural   ZrTaBe9Mo
_chemical_formula_sum   'Zr1 Ta1 Be9 Mo1'
_cell_volume   126.30435863
_cell_formula_units_Z   1
loop_
 _symmetry_equiv_pos_site_id
 _symmetry_equiv_pos_as_xyz
  1  'x, y, z'
loop_
 _atom_site_type_symbol
 _atom_site_label
 _atom_site_symmetry_multiplicity
 _atom_site_fract_x
 _atom_site_fract_y
 _atom_site_fract_z
 _atom_site_occupancy
  Zr  Zr0  1  0.998543  0.998543  0.998543  1
  Ta  Ta1  1  0.143596  0.143596  0.143596  1
  Be  Be2  1  0.414137  0.920594  0.414137  1
  Be  Be3  1  0.414137  0.414137  0.920594  1
  Be  Be4  1  0.920594  0.414137  0.414137  1
  Be  Be5  1  0.587103  0.076650  0.587103  1
  Be  Be6  1  0.587103  0.587103  0.076650  1
  Be  Be7  1  0.076650  0.587103  0.587103  1
  Be  Be8  1  0.665723  0.665723  0.665723  1
  Be  Be9  1  0.335557  0.335557  0.335557  1
  Be  Be10  1  0.500152  0.500152  0.500152  1
  Mo  Mo11  1  0.856708  0.856708  0.856708  1
