# generated using pymatgen
data_Ba2DyGaS5
_symmetry_space_group_name_H-M   'P 1'
_cell_length_a   7.16462315
_cell_length_b   8.46892221
_cell_length_c   9.19547643
_cell_angle_alpha   103.60534096
_cell_angle_beta   103.08938647
_cell_angle_gamma   107.42770355
_symmetry_Int_Tables_number   1
_chemical_formula_structural   Ba2DyGaS5
_chemical_formula_sum   'Ba4 Dy2 Ga2 S10'
_cell_volume   490.16013737
_cell_formula_units_Z   2
loop_
 _symmetry_equiv_pos_site_id
 _symmetry_equiv_pos_as_xyz
  1  'x, y, z'
loop_
 _atom_site_type_symbol
 _atom_site_label
 _atom_site_symmetry_multiplicity
 _atom_site_fract_x
 _atom_site_fract_y
 _atom_site_fract_z
 _atom_site_occupancy
  Ba  Ba0  1  0.631156  0.976308  0.287950  1
  Ba  Ba1  1  0.368844  0.023692  0.712050  1
  Ba  Ba2  1  0.335980  0.509448  0.704443  1
  Ba  Ba3  1  0.664020  0.490552  0.295557  1
  Dy  Dy4  1  0.996691  0.728774  0.997773  1
  Dy  Dy5  1  0.003309  0.271226  0.002227  1
  Ga  Ga6  1  0.808084  0.872965  0.690537  1
  Ga  Ga7  1  0.191916  0.127035  0.309463  1
  S  S8  1  0.991278  0.691782  0.690725  1
  S  S9  1  0.008722  0.308218  0.309275  1
  S  S10  1  0.988003  0.149518  0.694474  1
  S  S11  1  0.011997  0.850482  0.305526  1
  S  S12  1  0.717727  0.908389  0.923393  1
  S  S13  1  0.282273  0.091611  0.076607  1
  S  S14  1  0.714798  0.413365  0.948831  1
  S  S15  1  0.285202  0.586635  0.051169  1
  S  S16  1  0.501576  0.745651  0.496789  1
  S  S17  1  0.498424  0.254349  0.503211  1
