# generated using pymatgen
data_La2TbHo(Ga3Ir)6
_symmetry_space_group_name_H-M   'P 1'
_cell_length_a   7.64813440
_cell_length_b   7.64718617
_cell_length_c   9.60590800
_cell_angle_alpha   90.00000000
_cell_angle_beta   90.00000000
_cell_angle_gamma   119.66845509
_symmetry_Int_Tables_number   1
_chemical_formula_structural   La2TbHo(Ga3Ir)6
_chemical_formula_sum   'La2 Tb1 Ho1 Ga18 Ir6'
_cell_volume   488.16594051
_cell_formula_units_Z   1
loop_
 _symmetry_equiv_pos_site_id
 _symmetry_equiv_pos_as_xyz
  1  'x, y, z'
loop_
 _atom_site_type_symbol
 _atom_site_label
 _atom_site_symmetry_multiplicity
 _atom_site_fract_x
 _atom_site_fract_y
 _atom_site_fract_z
 _atom_site_occupancy
  La  La0  1  0.996635  0.669379  0.250000  1
  La  La1  1  0.669576  0.996704  0.250000  1
  Tb  Tb2  1  0.001177  0.329612  0.750000  1
  Ho  Ho3  1  0.329211  0.001171  0.750000  1
  Ga  Ga4  1  0.132778  0.132377  0.250000  1
  Ga  Ga5  1  0.872671  0.872512  0.750000  1
  Ga  Ga6  1  0.004003  0.334985  0.073405  1
  Ga  Ga7  1  0.001030  0.665549  0.915745  1
  Ga  Ga8  1  0.001030  0.665549  0.584255  1
  Ga  Ga9  1  0.335020  0.003729  0.427214  1
  Ga  Ga10  1  0.004003  0.334985  0.426595  1
  Ga  Ga11  1  0.664375  0.000996  0.584186  1
  Ga  Ga12  1  0.664375  0.000996  0.915814  1
  Ga  Ga13  1  0.335020  0.003729  0.072786  1
  Ga  Ga14  1  0.331151  0.330789  0.567035  1
  Ga  Ga15  1  0.665141  0.665156  0.447802  1
  Ga  Ga16  1  0.665141  0.665156  0.052198  1
  Ga  Ga17  1  0.331151  0.330789  0.932965  1
  Ga  Ga18  1  0.339705  0.542958  0.250000  1
  Ga  Ga19  1  0.659555  0.451215  0.750000  1
  Ga  Ga20  1  0.542596  0.339086  0.250000  1
  Ga  Ga21  1  0.451808  0.660059  0.750000  1
  Ir  Ir22  1  0.671352  0.328698  0.997458  1
  Ir  Ir23  1  0.328708  0.671239  0.997511  1
  Ir  Ir24  1  0.328708  0.671239  0.502489  1
  Ir  Ir25  1  0.671352  0.328698  0.502542  1
  Ir  Ir26  1  0.001365  0.001326  0.996778  1
  Ir  Ir27  1  0.001365  0.001326  0.503222  1
