# generated using pymatgen
data_KBa4(CoP)10
_symmetry_space_group_name_H-M   'P 1'
_cell_length_a   8.69740090
_cell_length_b   8.69740106
_cell_length_c   8.69740123
_cell_angle_alpha   121.31900195
_cell_angle_beta   121.31899588
_cell_angle_gamma   87.73021372
_symmetry_Int_Tables_number   1
_chemical_formula_structural   KBa4(CoP)10
_chemical_formula_sum   'K1 Ba4 Co10 P10'
_cell_volume   455.55164068
_cell_formula_units_Z   1
loop_
 _symmetry_equiv_pos_site_id
 _symmetry_equiv_pos_as_xyz
  1  'x, y, z'
loop_
 _atom_site_type_symbol
 _atom_site_label
 _atom_site_symmetry_multiplicity
 _atom_site_fract_x
 _atom_site_fract_y
 _atom_site_fract_z
 _atom_site_occupancy
  K  K0  1  0.000000  0.000000  0.000000  1
  Ba  Ba1  1  0.391680  0.802959  0.194640  1
  Ba  Ba2  1  0.802959  0.608320  0.411278  1
  Ba  Ba3  1  0.197041  0.391680  0.588722  1
  Ba  Ba4  1  0.608320  0.197041  0.805360  1
  Co  Co5  1  0.949396  0.650104  0.099713  1
  Co  Co6  1  0.349896  0.449609  0.299292  1
  Co  Co7  1  0.750000  0.250000  0.500000  1
  Co  Co8  1  0.150317  0.050603  0.700708  1
  Co  Co9  1  0.550391  0.849683  0.900287  1
  Co  Co10  1  0.650104  0.550391  0.700708  1
  Co  Co11  1  0.050603  0.349896  0.900287  1
  Co  Co12  1  0.449609  0.150317  0.099713  1
  Co  Co13  1  0.849683  0.949397  0.299292  1
  Co  Co14  1  0.250000  0.750000  0.500000  1
  P  P15  1  0.939922  0.539031  0.799791  1
  P  P16  1  0.341285  0.341285  0.000000  1
  P  P17  1  0.739240  0.140130  0.200209  1
  P  P18  1  0.140130  0.939922  0.400891  1
  P  P19  1  0.539031  0.739240  0.599109  1
  P  P20  1  0.658715  0.658715  0.000000  1
  P  P21  1  0.060078  0.460969  0.200209  1
  P  P22  1  0.460969  0.260760  0.400891  1
  P  P23  1  0.859870  0.060078  0.599109  1
  P  P24  1  0.260760  0.859870  0.799791  1
