# generated using pymatgen
data_ErMgCo4Sn5
_symmetry_space_group_name_H-M   'P 1'
_cell_length_a   6.79626412
_cell_length_b   6.64887684
_cell_length_c   6.66686914
_cell_angle_alpha   120.48518383
_cell_angle_beta   121.20464856
_cell_angle_gamma   89.02146625
_symmetry_Int_Tables_number   1
_chemical_formula_structural   ErMgCo4Sn5
_chemical_formula_sum   'Er1 Mg1 Co4 Sn5'
_cell_volume   209.34656504
_cell_formula_units_Z   1
loop_
 _symmetry_equiv_pos_site_id
 _symmetry_equiv_pos_as_xyz
  1  'x, y, z'
loop_
 _atom_site_type_symbol
 _atom_site_label
 _atom_site_symmetry_multiplicity
 _atom_site_fract_x
 _atom_site_fract_y
 _atom_site_fract_z
 _atom_site_occupancy
  Er  Er0  1  0.003612  0.997619  0.999966  1
  Mg  Mg1  1  0.891410  0.526353  0.000065  1
  Co  Co2  1  0.588314  0.257421  0.000040  1
  Co  Co3  1  0.269202  0.603577  0.000009  1
  Co  Co4  1  0.743281  0.748979  0.352181  1
  Co  Co5  1  0.391146  0.396897  0.647945  1
  Sn  Sn6  1  0.546014  0.879900  0.000050  1
  Sn  Sn7  1  0.461826  0.467106  0.349634  1
  Sn  Sn8  1  0.498447  0.004175  0.503700  1
  Sn  Sn9  1  0.994829  0.500418  0.496126  1
  Sn  Sn10  1  0.111921  0.117558  0.650283  1
