# generated using pymatgen
data_Pr7Nd(YPb3)2
_symmetry_space_group_name_H-M   'P 1'
_cell_length_a   9.39663792
_cell_length_b   9.40382173
_cell_length_c   6.91532700
_cell_angle_alpha   89.99584747
_cell_angle_beta   90.00207303
_cell_angle_gamma   120.02529239
_symmetry_Int_Tables_number   1
_chemical_formula_structural   Pr7Nd(YPb3)2
_chemical_formula_sum   'Pr7 Nd1 Y2 Pb6'
_cell_volume   529.06555770
_cell_formula_units_Z   1
loop_
 _symmetry_equiv_pos_site_id
 _symmetry_equiv_pos_as_xyz
  1  'x, y, z'
loop_
 _atom_site_type_symbol
 _atom_site_label
 _atom_site_symmetry_multiplicity
 _atom_site_fract_x
 _atom_site_fract_y
 _atom_site_fract_z
 _atom_site_occupancy
  Pr  Pr0  1  0.666771  0.333443  0.000060  1
  Pr  Pr1  1  0.333229  0.666672  0.000060  1
  Pr  Pr2  1  0.760531  0.760429  0.748313  1
  Pr  Pr3  1  0.239469  0.999898  0.748313  1
  Pr  Pr4  1  0.000000  0.239736  0.748341  1
  Pr  Pr5  1  0.239513  0.239483  0.251700  1
  Pr  Pr6  1  0.760487  0.999970  0.251700  1
  Nd  Nd7  1  0.000000  0.760151  0.251801  1
  Y  Y8  1  0.333275  0.666694  0.499928  1
  Y  Y9  1  0.666725  0.333419  0.499928  1
  Pb  Pb10  1  0.396951  0.396916  0.742345  1
  Pb  Pb11  1  0.603049  0.999965  0.742345  1
  Pb  Pb12  1  0.000000  0.603036  0.742298  1
  Pb  Pb13  1  0.603762  0.603323  0.257613  1
  Pb  Pb14  1  0.396238  0.999561  0.257613  1
  Pb  Pb15  1  0.000000  0.397306  0.257643  1
