# generated using pymatgen
data_Th7Sc3Si8O3
_symmetry_space_group_name_H-M   'P 1'
_cell_length_a   10.46684500
_cell_length_b   10.46684467
_cell_length_c   4.36300300
_cell_angle_alpha   90.00000000
_cell_angle_beta   90.00000000
_cell_angle_gamma   120.00000420
_symmetry_Int_Tables_number   1
_chemical_formula_structural   Th7Sc3Si8O3
_chemical_formula_sum   'Th7 Sc3 Si8 O3'
_cell_volume   413.94981907
_cell_formula_units_Z   1
loop_
 _symmetry_equiv_pos_site_id
 _symmetry_equiv_pos_as_xyz
  1  'x, y, z'
loop_
 _atom_site_type_symbol
 _atom_site_label
 _atom_site_symmetry_multiplicity
 _atom_site_fract_x
 _atom_site_fract_y
 _atom_site_fract_z
 _atom_site_occupancy
  Th  Th0  1  0.214799  0.785201  0.000000  1
  Th  Th1  1  0.570404  0.785201  0.000000  1
  Th  Th2  1  0.785201  0.570404  0.000000  1
  Th  Th3  1  0.000000  0.000000  0.000000  1
  Th  Th4  1  0.214799  0.429596  0.000000  1
  Th  Th5  1  0.429596  0.214799  0.000000  1
  Th  Th6  1  0.785201  0.214799  0.000000  1
  Sc  Sc7  1  0.000000  0.500000  0.500000  1
  Sc  Sc8  1  0.500000  0.500000  0.500000  1
  Sc  Sc9  1  0.500000  0.000000  0.500000  1
  Si  Si10  1  0.000000  0.767946  0.500000  1
  Si  Si11  1  0.000000  0.232054  0.500000  1
  Si  Si12  1  0.232054  0.232054  0.500000  1
  Si  Si13  1  0.767946  0.000000  0.500000  1
  Si  Si14  1  0.333333  0.666667  0.500000  1
  Si  Si15  1  0.232054  0.000000  0.500000  1
  Si  Si16  1  0.666667  0.333333  0.500000  1
  Si  Si17  1  0.767946  0.767946  0.500000  1
  O  O18  1  0.000000  0.500000  0.000000  1
  O  O19  1  0.500000  0.500000  0.000000  1
  O  O20  1  0.500000  0.000000  0.000000  1
