# generated using pymatgen
data_Hf8Co13(P4Os)3
_symmetry_space_group_name_H-M   'P 1'
_cell_length_a   3.67282100
_cell_length_b   12.21964562
_cell_length_c   12.21964500
_cell_angle_alpha   120.00000030
_cell_angle_beta   90.00000000
_cell_angle_gamma   90.00000000
_symmetry_Int_Tables_number   1
_chemical_formula_structural   Hf8Co13(P4Os)3
_chemical_formula_sum   'Hf8 Co13 P12 Os3'
_cell_volume   474.94967369
_cell_formula_units_Z   1
loop_
 _symmetry_equiv_pos_site_id
 _symmetry_equiv_pos_as_xyz
  1  'x, y, z'
loop_
 _atom_site_type_symbol
 _atom_site_label
 _atom_site_symmetry_multiplicity
 _atom_site_fract_x
 _atom_site_fract_y
 _atom_site_fract_z
 _atom_site_occupancy
  Hf  Hf0  1  0.000000  0.447644  0.440243  1
  Hf  Hf1  1  0.000000  0.559757  0.007401  1
  Hf  Hf2  1  0.000000  0.992599  0.552356  1
  Hf  Hf3  1  0.000000  0.666667  0.333333  1
  Hf  Hf4  1  0.000000  0.333333  0.666667  1
  Hf  Hf5  1  0.500000  0.824427  0.827586  1
  Hf  Hf6  1  0.500000  0.172414  0.996841  1
  Hf  Hf7  1  0.500000  0.003159  0.175573  1
  Co  Co8  1  0.000000  0.196746  0.363276  1
  Co  Co9  1  0.000000  0.166531  0.803254  1
  Co  Co10  1  0.000000  0.818751  0.630182  1
  Co  Co11  1  0.000000  0.811431  0.181249  1
  Co  Co12  1  0.000000  0.369818  0.188569  1
  Co  Co13  1  0.500000  0.642594  0.507410  1
  Co  Co14  1  0.500000  0.864816  0.357406  1
  Co  Co15  1  0.500000  0.492590  0.135184  1
  Co  Co16  1  0.000000  0.000000  0.000000  1
  Co  Co17  1  0.500000  0.726473  0.006723  1
  Co  Co18  1  0.500000  0.993277  0.719750  1
  Co  Co19  1  0.000000  0.636724  0.833469  1
  Co  Co20  1  0.500000  0.280250  0.273527  1
  P  P21  1  0.000000  0.657258  0.659055  1
  P  P22  1  0.000000  0.340945  0.998203  1
  P  P23  1  0.000000  0.001797  0.342742  1
  P  P24  1  0.500000  0.482149  0.306093  1
  P  P25  1  0.500000  0.693907  0.176056  1
  P  P26  1  0.500000  0.823944  0.517851  1
  P  P27  1  0.500000  0.522570  0.836479  1
  P  P28  1  0.500000  0.163521  0.686092  1
  P  P29  1  0.000000  0.828936  0.003897  1
  P  P30  1  0.000000  0.996103  0.825039  1
  P  P31  1  0.500000  0.313908  0.477430  1
  P  P32  1  0.000000  0.174961  0.171064  1
  Os  Os33  1  0.500000  0.123205  0.474608  1
  Os  Os34  1  0.500000  0.351402  0.876795  1
  Os  Os35  1  0.500000  0.525392  0.648598  1
