# generated using pymatgen
data_Tb2Y2(Zn3Hg)3
_symmetry_space_group_name_H-M   'P 1'
_cell_length_a   4.45587100
_cell_length_b   7.00136533
_cell_length_c   10.17962846
_cell_angle_alpha   90.03022439
_cell_angle_beta   90.00000000
_cell_angle_gamma   90.00000000
_symmetry_Int_Tables_number   1
_chemical_formula_structural   Tb2Y2(Zn3Hg)3
_chemical_formula_sum   'Tb2 Y2 Zn9 Hg3'
_cell_volume   317.57566455
_cell_formula_units_Z   1
loop_
 _symmetry_equiv_pos_site_id
 _symmetry_equiv_pos_as_xyz
  1  'x, y, z'
loop_
 _atom_site_type_symbol
 _atom_site_label
 _atom_site_symmetry_multiplicity
 _atom_site_fract_x
 _atom_site_fract_y
 _atom_site_fract_z
 _atom_site_occupancy
  Tb  Tb0  1  0.250000  0.291471  0.668833  1
  Tb  Tb1  1  0.250000  0.795387  0.829617  1
  Y  Y2  1  0.750000  0.710514  0.331237  1
  Y  Y3  1  0.750000  0.205496  0.170400  1
  Zn  Zn4  1  0.750000  0.965224  0.602175  1
  Zn  Zn5  1  0.750000  0.299882  0.464249  1
  Zn  Zn6  1  0.250000  0.698332  0.542095  1
  Zn  Zn7  1  0.750000  0.816357  0.038672  1
  Zn  Zn8  1  0.250000  0.183494  0.958987  1
  Zn  Zn9  1  0.750000  0.590377  0.638087  1
  Zn  Zn10  1  0.250000  0.419415  0.362908  1
  Zn  Zn11  1  0.750000  0.082883  0.844700  1
  Zn  Zn12  1  0.250000  0.913432  0.146272  1
  Hg  Hg13  1  0.250000  0.524779  0.105404  1
  Hg  Hg14  1  0.750000  0.471867  0.893832  1
  Hg  Hg15  1  0.250000  0.031091  0.402534  1
