# generated using pymatgen
data_Ba9Ca3Nd4(Fe4O15)2
_symmetry_space_group_name_H-M   'P 1'
_cell_length_a   7.02990067
_cell_length_b   11.76641857
_cell_length_c   11.77271204
_cell_angle_alpha   119.99818562
_cell_angle_beta   90.04531608
_cell_angle_gamma   89.90741251
_symmetry_Int_Tables_number   1
_chemical_formula_structural   Ba9Ca3Nd4(Fe4O15)2
_chemical_formula_sum   'Ba9 Ca3 Nd4 Fe8 O30'
_cell_volume   843.35030771
_cell_formula_units_Z   1
loop_
 _symmetry_equiv_pos_site_id
 _symmetry_equiv_pos_as_xyz
  1  'x, y, z'
loop_
 _atom_site_type_symbol
 _atom_site_label
 _atom_site_symmetry_multiplicity
 _atom_site_fract_x
 _atom_site_fract_y
 _atom_site_fract_z
 _atom_site_occupancy
  Ba  Ba0  1  0.686453  0.349866  0.179485  1
  Ba  Ba1  1  0.681842  0.829057  0.176436  1
  Ba  Ba2  1  0.684147  0.823758  0.650934  1
  Ba  Ba3  1  0.166746  0.663203  0.828665  1
  Ba  Ba4  1  0.170709  0.165583  0.826416  1
  Ba  Ba5  1  0.168915  0.168524  0.338981  1
  Ba  Ba6  1  0.996660  0.668776  0.337909  1
  Ba  Ba7  1  0.492662  0.329928  0.661772  1
  Ba  Ba8  1  0.501547  0.999990  0.999844  1
  Ca  Ca9  1  0.997447  0.000697  0.000282  1
  Ca  Ca10  1  0.352571  0.960580  0.480315  1
  Ca  Ca11  1  0.854598  0.479687  0.520839  1
  Nd  Nd12  1  0.345689  0.521508  0.478595  1
  Nd  Nd13  1  0.345118  0.522225  0.044273  1
  Nd  Nd14  1  0.845850  0.044290  0.522229  1
  Nd  Nd15  1  0.845296  0.477505  0.954560  1
  Fe  Fe16  1  0.535135  0.670101  0.335590  1
  Fe  Fe17  1  0.037858  0.334595  0.664383  1
  Fe  Fe18  1  0.168660  0.353088  0.176853  1
  Fe  Fe19  1  0.168489  0.823545  0.179190  1
  Fe  Fe20  1  0.170275  0.823208  0.644283  1
  Fe  Fe21  1  0.674277  0.646849  0.821959  1
  Fe  Fe22  1  0.674680  0.175027  0.824675  1
  Fe  Fe23  1  0.675900  0.177874  0.353098  1
  O  O24  1  0.351574  0.494506  0.245448  1
  O  O25  1  0.350727  0.749099  0.245690  1
  O  O26  1  0.350377  0.750168  0.501314  1
  O  O27  1  0.848189  0.501520  0.752620  1
  O  O28  1  0.848765  0.249907  0.753494  1
  O  O29  1  0.847797  0.250295  0.500245  1
  O  O30  1  0.539972  0.608204  0.939525  1
  O  O31  1  0.540272  0.061133  0.670563  1
  O  O32  1  0.525082  0.324734  0.385730  1
  O  O33  1  0.538510  0.330758  0.940115  1
  O  O34  1  0.524883  0.614506  0.675457  1
  O  O35  1  0.542420  0.061810  0.392169  1
  O  O36  1  0.037123  0.398933  0.064356  1
  O  O37  1  0.024191  0.934091  0.329258  1
  O  O38  1  0.040144  0.666024  0.599832  1
  O  O39  1  0.037488  0.665378  0.064713  1
  O  O40  1  0.038638  0.399506  0.333643  1
  O  O41  1  0.024929  0.934064  0.604617  1
  O  O42  1  0.791363  0.812490  0.905908  1
  O  O43  1  0.790514  0.093483  0.908711  1
  O  O44  1  0.790881  0.094672  0.186591  1
  O  O45  1  0.235457  0.176785  0.087295  1
  O  O46  1  0.238782  0.910105  0.089838  1
  O  O47  1  0.237115  0.911557  0.821103  1
  O  O48  1  0.684461  0.832559  0.415698  1
  O  O49  1  0.673173  0.582103  0.417196  1
  O  O50  1  0.676861  0.582160  0.164166  1
  O  O51  1  0.173351  0.164660  0.582711  1
  O  O52  1  0.186206  0.417095  0.584067  1
  O  O53  1  0.177237  0.418231  0.836358  1
