# generated using pymatgen
data_Er12Tc2RuRh
_symmetry_space_group_name_H-M   'P 1'
_cell_length_a   6.24138801
_cell_length_b   7.32573001
_cell_length_c   9.06006800
_cell_angle_alpha   90.00000000
_cell_angle_beta   90.00000000
_cell_angle_gamma   90.00527957
_symmetry_Int_Tables_number   1
_chemical_formula_structural   Er12Tc2RuRh
_chemical_formula_sum   'Er12 Tc2 Ru1 Rh1'
_cell_volume   414.25098148
_cell_formula_units_Z   1
loop_
 _symmetry_equiv_pos_site_id
 _symmetry_equiv_pos_as_xyz
  1  'x, y, z'
loop_
 _atom_site_type_symbol
 _atom_site_label
 _atom_site_symmetry_multiplicity
 _atom_site_fract_x
 _atom_site_fract_y
 _atom_site_fract_z
 _atom_site_occupancy
  Er  Er0  1  0.333936  0.676391  0.063706  1
  Er  Er1  1  0.167530  0.176684  0.434996  1
  Er  Er2  1  0.663404  0.324941  0.561329  1
  Er  Er3  1  0.835066  0.822348  0.938614  1
  Er  Er4  1  0.663404  0.324941  0.938671  1
  Er  Er5  1  0.835066  0.822348  0.561386  1
  Er  Er6  1  0.333936  0.676391  0.436294  1
  Er  Er7  1  0.167530  0.176684  0.065004  1
  Er  Er8  1  0.874191  0.539252  0.250000  1
  Er  Er9  1  0.625662  0.039725  0.250000  1
  Er  Er10  1  0.133509  0.459418  0.750000  1
  Er  Er11  1  0.367923  0.956971  0.750000  1
  Tc  Tc12  1  0.037950  0.886085  0.250000  1
  Tc  Tc13  1  0.461494  0.385109  0.250000  1
  Ru  Ru14  1  0.539659  0.616463  0.750000  1
  Rh  Rh15  1  0.959741  0.116251  0.750000  1
