# generated using pymatgen
data_Tm8GePt24
_symmetry_space_group_name_H-M   'P 1'
_cell_length_a   8.31531600
_cell_length_b   8.31531600
_cell_length_c   8.31531600
_cell_angle_alpha   90.00000000
_cell_angle_beta   90.00000000
_cell_angle_gamma   90.00000000
_symmetry_Int_Tables_number   1
_chemical_formula_structural   Tm8GePt24
_chemical_formula_sum   'Tm8 Ge1 Pt24'
_cell_volume   574.95820235
_cell_formula_units_Z   1
loop_
 _symmetry_equiv_pos_site_id
 _symmetry_equiv_pos_as_xyz
  1  'x, y, z'
loop_
 _atom_site_type_symbol
 _atom_site_label
 _atom_site_symmetry_multiplicity
 _atom_site_fract_x
 _atom_site_fract_y
 _atom_site_fract_z
 _atom_site_occupancy
  Tm  Tm0  1  0.253248  0.253248  0.253248  1
  Tm  Tm1  1  0.746752  0.746752  0.746752  1
  Tm  Tm2  1  0.746752  0.746752  0.253248  1
  Tm  Tm3  1  0.746752  0.253248  0.746752  1
  Tm  Tm4  1  0.253248  0.253248  0.746752  1
  Tm  Tm5  1  0.253248  0.746752  0.253248  1
  Tm  Tm6  1  0.253248  0.746752  0.746752  1
  Tm  Tm7  1  0.746752  0.253248  0.253248  1
  Ge  Ge8  1  0.000000  0.000000  0.000000  1
  Pt  Pt9  1  0.260231  0.500000  0.000000  1
  Pt  Pt10  1  0.739769  0.500000  0.000000  1
  Pt  Pt11  1  0.000000  0.260231  0.500000  1
  Pt  Pt12  1  0.500000  0.260231  0.000000  1
  Pt  Pt13  1  0.000000  0.739769  0.500000  1
  Pt  Pt14  1  0.500000  0.739769  0.000000  1
  Pt  Pt15  1  0.500000  0.000000  0.260231  1
  Pt  Pt16  1  0.260231  0.000000  0.500000  1
  Pt  Pt17  1  0.500000  0.000000  0.739769  1
  Pt  Pt18  1  0.739769  0.000000  0.500000  1
  Pt  Pt19  1  0.000000  0.500000  0.260231  1
  Pt  Pt20  1  0.000000  0.500000  0.739769  1
  Pt  Pt21  1  0.253132  0.500000  0.500000  1
  Pt  Pt22  1  0.746868  0.500000  0.500000  1
  Pt  Pt23  1  0.500000  0.253132  0.500000  1
  Pt  Pt24  1  0.500000  0.746868  0.500000  1
  Pt  Pt25  1  0.500000  0.500000  0.253132  1
  Pt  Pt26  1  0.500000  0.500000  0.746868  1
  Pt  Pt27  1  0.290374  0.000000  0.000000  1
  Pt  Pt28  1  0.709626  0.000000  0.000000  1
  Pt  Pt29  1  0.000000  0.290374  0.000000  1
  Pt  Pt30  1  0.000000  0.709626  0.000000  1
  Pt  Pt31  1  0.000000  0.000000  0.290374  1
  Pt  Pt32  1  0.000000  0.000000  0.709626  1
