# generated using pymatgen
data_La5TlRu2
_symmetry_space_group_name_H-M   'P 1'
_cell_length_a   9.19703792
_cell_length_b   9.19703630
_cell_length_c   9.19703637
_cell_angle_alpha   127.90865595
_cell_angle_beta   127.90865819
_cell_angle_gamma   76.77304937
_symmetry_Int_Tables_number   1
_chemical_formula_structural   La5TlRu2
_chemical_formula_sum   'La10 Tl2 Ru4'
_cell_volume   470.25452457
_cell_formula_units_Z   2
loop_
 _symmetry_equiv_pos_site_id
 _symmetry_equiv_pos_as_xyz
  1  'x, y, z'
loop_
 _atom_site_type_symbol
 _atom_site_label
 _atom_site_symmetry_multiplicity
 _atom_site_fract_x
 _atom_site_fract_y
 _atom_site_fract_z
 _atom_site_occupancy
  La  La0  1  0.000000  0.000000  0.000000  1
  La  La1  1  0.500000  0.500000  0.000000  1
  La  La2  1  0.788502  0.288502  0.820067  1
  La  La3  1  0.211498  0.711498  0.179933  1
  La  La4  1  0.468436  0.968436  0.179933  1
  La  La5  1  0.288502  0.468436  0.500000  1
  La  La6  1  0.031564  0.211498  0.500000  1
  La  La7  1  0.531564  0.031564  0.820067  1
  La  La8  1  0.711498  0.531564  0.500000  1
  La  La9  1  0.968436  0.788502  0.500000  1
  Tl  Tl10  1  0.250000  0.250000  0.000000  1
  Tl  Tl11  1  0.750000  0.750000  0.000000  1
  Ru  Ru12  1  0.145720  0.645720  0.791439  1
  Ru  Ru13  1  0.854280  0.354280  0.208561  1
  Ru  Ru14  1  0.645720  0.854280  0.500000  1
  Ru  Ru15  1  0.354280  0.145720  0.500000  1
