# generated using pymatgen
data_Al3Cr5Si8(Pb2O9)4
_symmetry_space_group_name_H-M   'P 1'
_cell_length_a   6.99236344
_cell_length_b   10.08777862
_cell_length_c   10.98673603
_cell_angle_alpha   89.81957665
_cell_angle_beta   90.05852909
_cell_angle_gamma   90.07490275
_symmetry_Int_Tables_number   1
_chemical_formula_structural   Al3Cr5Si8(Pb2O9)4
_chemical_formula_sum   'Al3 Cr5 Si8 Pb8 O36'
_cell_volume   774.97104627
_cell_formula_units_Z   1
loop_
 _symmetry_equiv_pos_site_id
 _symmetry_equiv_pos_as_xyz
  1  'x, y, z'
loop_
 _atom_site_type_symbol
 _atom_site_label
 _atom_site_symmetry_multiplicity
 _atom_site_fract_x
 _atom_site_fract_y
 _atom_site_fract_z
 _atom_site_occupancy
  Al  Al0  1  0.000000  0.500000  0.500000  1
  Al  Al1  1  0.500000  0.000000  0.000000  1
  Al  Al2  1  0.000000  0.000000  0.500000  1
  Cr  Cr3  1  0.500000  0.500000  0.000000  1
  Cr  Cr4  1  0.500397  0.247602  0.852293  1
  Cr  Cr5  1  0.000204  0.249761  0.354390  1
  Cr  Cr6  1  0.499603  0.752398  0.147707  1
  Cr  Cr7  1  0.999796  0.750239  0.645610  1
  Si  Si8  1  0.717384  0.250096  0.586783  1
  Si  Si9  1  0.215198  0.246863  0.087340  1
  Si  Si10  1  0.282616  0.749904  0.413217  1
  Si  Si11  1  0.217178  0.751669  0.912064  1
  Si  Si12  1  0.716758  0.750818  0.413309  1
  Si  Si13  1  0.283242  0.249182  0.586691  1
  Si  Si14  1  0.784802  0.753137  0.912660  1
  Si  Si15  1  0.782822  0.248331  0.087936  1
  Pb  Pb16  1  0.046961  0.548990  0.198708  1
  Pb  Pb17  1  0.049982  0.048801  0.801068  1
  Pb  Pb18  1  0.449717  0.048552  0.302069  1
  Pb  Pb19  1  0.550283  0.951448  0.697931  1
  Pb  Pb20  1  0.950018  0.951199  0.198932  1
  Pb  Pb21  1  0.549412  0.451762  0.304201  1
  Pb  Pb22  1  0.953039  0.451010  0.801292  1
  Pb  Pb23  1  0.450588  0.548238  0.695799  1
  O  O24  1  0.695217  0.902540  0.895159  1
  O  O25  1  0.384748  0.573107  0.149306  1
  O  O26  1  0.303572  0.601386  0.893054  1
  O  O27  1  0.615252  0.426893  0.850694  1
  O  O28  1  0.499804  0.749760  0.477281  1
  O  O29  1  0.890489  0.431865  0.359321  1
  O  O30  1  0.347592  0.839287  0.006095  1
  O  O31  1  0.304783  0.097460  0.104841  1
  O  O32  1  0.688581  0.179208  0.721266  1
  O  O33  1  0.188072  0.820307  0.776797  1
  O  O34  1  0.342791  0.332648  0.989979  1
  O  O35  1  0.153412  0.838927  0.506688  1
  O  O36  1  0.109702  0.068227  0.359544  1
  O  O37  1  0.846074  0.661056  0.506836  1
  O  O38  1  0.688972  0.682048  0.278293  1
  O  O39  1  0.311028  0.317952  0.721707  1
  O  O40  1  0.194002  0.099392  0.603517  1
  O  O41  1  0.311419  0.820792  0.278734  1
  O  O42  1  0.188749  0.318099  0.221534  1
  O  O43  1  0.389805  0.066667  0.859034  1
  O  O44  1  0.001466  0.752395  0.976776  1
  O  O45  1  0.890298  0.931773  0.640456  1
  O  O46  1  0.846588  0.161073  0.493312  1
  O  O47  1  0.109511  0.568135  0.640679  1
  O  O48  1  0.807242  0.399678  0.603325  1
  O  O49  1  0.153926  0.338944  0.493164  1
  O  O50  1  0.610195  0.933333  0.140966  1
  O  O51  1  0.192758  0.600322  0.396675  1
  O  O52  1  0.696428  0.398614  0.106946  1
  O  O53  1  0.811251  0.681901  0.778466  1
  O  O54  1  0.805998  0.900608  0.396483  1
  O  O55  1  0.652408  0.160713  0.993905  1
  O  O56  1  0.657209  0.667352  0.010021  1
  O  O57  1  0.998534  0.247605  0.023224  1
  O  O58  1  0.811928  0.179693  0.223203  1
  O  O59  1  0.500196  0.250240  0.522719  1
