# generated using pymatgen
data_La10Tc2IrPd
_symmetry_space_group_name_H-M   'P 1'
_cell_length_a   9.20149845
_cell_length_b   9.21849030
_cell_length_c   7.49921357
_cell_angle_alpha   84.77351918
_cell_angle_beta   84.71261935
_cell_angle_gamma   42.83266228
_symmetry_Int_Tables_number   1
_chemical_formula_structural   La10Tc2IrPd
_chemical_formula_sum   'La10 Tc2 Ir1 Pd1'
_cell_volume   430.36725875
_cell_formula_units_Z   1
loop_
 _symmetry_equiv_pos_site_id
 _symmetry_equiv_pos_as_xyz
  1  'x, y, z'
loop_
 _atom_site_type_symbol
 _atom_site_label
 _atom_site_symmetry_multiplicity
 _atom_site_fract_x
 _atom_site_fract_y
 _atom_site_fract_z
 _atom_site_occupancy
  La  La0  1  0.016872  0.799368  0.905528  1
  La  La1  1  0.209541  0.972492  0.597501  1
  La  La2  1  0.003162  0.182526  0.077742  1
  La  La3  1  0.810763  0.000462  0.412409  1
  La  La4  1  0.351588  0.214583  0.817206  1
  La  La5  1  0.787680  0.651122  0.687170  1
  La  La6  1  0.632318  0.795629  0.173600  1
  La  La7  1  0.218596  0.362077  0.321995  1
  La  La8  1  0.572315  0.423325  0.755774  1
  La  La9  1  0.427056  0.569878  0.248780  1
  Tc  Tc10  1  0.169216  0.613826  0.571293  1
  Tc  Tc11  1  0.386347  0.832261  0.927767  1
  Ir  Ir12  1  0.594795  0.177713  0.080631  1
  Pd  Pd13  1  0.819749  0.404740  0.422604  1
