# generated using pymatgen
data_Tb10Y2PdRh3
_symmetry_space_group_name_H-M   'P 1'
_cell_length_a   6.34411816
_cell_length_b   7.19401904
_cell_length_c   9.59278500
_cell_angle_alpha   90.00000000
_cell_angle_beta   90.00000000
_cell_angle_gamma   90.00692658
_symmetry_Int_Tables_number   1
_chemical_formula_structural   Tb10Y2PdRh3
_chemical_formula_sum   'Tb10 Y2 Pd1 Rh3'
_cell_volume   437.81189165
_cell_formula_units_Z   1
loop_
 _symmetry_equiv_pos_site_id
 _symmetry_equiv_pos_as_xyz
  1  'x, y, z'
loop_
 _atom_site_type_symbol
 _atom_site_label
 _atom_site_symmetry_multiplicity
 _atom_site_fract_x
 _atom_site_fract_y
 _atom_site_fract_z
 _atom_site_occupancy
  Tb  Tb0  1  0.333498  0.675431  0.060988  1
  Tb  Tb1  1  0.171654  0.182478  0.439550  1
  Tb  Tb2  1  0.671669  0.320532  0.563983  1
  Tb  Tb3  1  0.829294  0.822142  0.934977  1
  Tb  Tb4  1  0.671669  0.320532  0.936017  1
  Tb  Tb5  1  0.829294  0.822142  0.565023  1
  Tb  Tb6  1  0.333498  0.675431  0.439012  1
  Tb  Tb7  1  0.171654  0.182478  0.060450  1
  Tb  Tb8  1  0.134374  0.467422  0.750000  1
  Tb  Tb9  1  0.364192  0.967223  0.750000  1
  Y  Y10  1  0.861597  0.524937  0.250000  1
  Y  Y11  1  0.629040  0.033404  0.250000  1
  Pd  Pd12  1  0.063573  0.885606  0.250000  1
  Rh  Rh13  1  0.435613  0.383931  0.250000  1
  Rh  Rh14  1  0.940684  0.118521  0.750000  1
  Rh  Rh15  1  0.558698  0.617792  0.750000  1
