# generated using pymatgen
data_Hf8Fe4Cu4Si13Ge
_symmetry_space_group_name_H-M   'P 1'
_cell_length_a   5.16596149
_cell_length_b   9.54550197
_cell_length_c   9.54567651
_cell_angle_alpha   85.80011784
_cell_angle_beta   74.29909561
_cell_angle_gamma   74.30035579
_symmetry_Int_Tables_number   1
_chemical_formula_structural   Hf8Fe4Cu4Si13Ge
_chemical_formula_sum   'Hf8 Fe4 Cu4 Si13 Ge1'
_cell_volume   436.24451193
_cell_formula_units_Z   1
loop_
 _symmetry_equiv_pos_site_id
 _symmetry_equiv_pos_as_xyz
  1  'x, y, z'
loop_
 _atom_site_type_symbol
 _atom_site_label
 _atom_site_symmetry_multiplicity
 _atom_site_fract_x
 _atom_site_fract_y
 _atom_site_fract_z
 _atom_site_occupancy
  Hf  Hf0  1  0.136248  0.999897  0.723838  1
  Hf  Hf1  1  0.860086  0.000043  0.276162  1
  Hf  Hf2  1  0.860007  0.276223  0.000085  1
  Hf  Hf3  1  0.136292  0.723775  0.999939  1
  Hf  Hf4  1  0.490077  0.196802  0.803264  1
  Hf  Hf5  1  0.490200  0.803138  0.196728  1
  Hf  Hf6  1  0.316867  0.196768  0.196694  1
  Hf  Hf7  1  0.710340  0.803196  0.803328  1
  Fe  Fe8  1  0.598182  0.803517  0.499690  1
  Fe  Fe9  1  0.901472  0.196367  0.500297  1
  Fe  Fe10  1  0.901434  0.500356  0.196382  1
  Fe  Fe11  1  0.598101  0.499747  0.803633  1
  Cu  Cu12  1  0.391862  0.499628  0.216389  1
  Cu  Cu13  1  0.107935  0.500400  0.783595  1
  Cu  Cu14  1  0.107952  0.783537  0.500384  1
  Cu  Cu15  1  0.391851  0.216455  0.499615  1
  Si  Si16  1  0.291631  0.999840  0.415555  1
  Si  Si17  1  0.706793  0.999871  0.584446  1
  Si  Si18  1  0.707012  0.584350  0.000052  1
  Si  Si19  1  0.291223  0.415683  0.000017  1
  Si  Si20  1  0.971216  0.293026  0.707220  1
  Si  Si21  1  0.971232  0.706992  0.292917  1
  Si  Si22  1  0.738420  0.292864  0.292566  1
  Si  Si23  1  0.323981  0.707230  0.707273  1
  Si  Si24  1  0.550852  0.409131  0.591079  1
  Si  Si25  1  0.551078  0.591012  0.408914  1
  Si  Si26  1  0.039852  0.409066  0.408797  1
  Si  Si27  1  0.857614  0.591118  0.591132  1
  Si  Si28  1  0.748004  0.999990  0.999994  1
  Ge  Ge29  1  0.252188  0.999977  0.000017  1
