# generated using pymatgen
data_UFe2CoB2
_symmetry_space_group_name_H-M   'P 1'
_cell_length_a   5.03849111
_cell_length_b   5.13608381
_cell_length_c   2.87368900
_cell_angle_alpha   90.00000000
_cell_angle_beta   90.00000000
_cell_angle_gamma   120.64282935
_symmetry_Int_Tables_number   1
_chemical_formula_structural   UFe2CoB2
_chemical_formula_sum   'U1 Fe2 Co1 B2'
_cell_volume   63.98132309
_cell_formula_units_Z   1
loop_
 _symmetry_equiv_pos_site_id
 _symmetry_equiv_pos_as_xyz
  1  'x, y, z'
loop_
 _atom_site_type_symbol
 _atom_site_label
 _atom_site_symmetry_multiplicity
 _atom_site_fract_x
 _atom_site_fract_y
 _atom_site_fract_z
 _atom_site_occupancy
  U  U0  1  0.000000  0.000000  0.000000  1
  Fe  Fe1  1  0.500000  0.000000  0.500000  1
  Fe  Fe2  1  0.500000  0.500000  0.500000  1
  Co  Co3  1  0.000000  0.500000  0.500000  1
  B  B4  1  0.667819  0.333909  0.000000  1
  B  B5  1  0.332181  0.666091  0.000000  1
