# generated using pymatgen
data_ErLu7Re(B8Ir)3
_symmetry_space_group_name_H-M   'P 1'
_cell_length_a   3.60704600
_cell_length_b   9.07096497
_cell_length_c   11.40346603
_cell_angle_alpha   90.15170974
_cell_angle_beta   90.00000000
_cell_angle_gamma   90.00000000
_symmetry_Int_Tables_number   1
_chemical_formula_structural   ErLu7Re(B8Ir)3
_chemical_formula_sum   'Er1 Lu7 Re1 B24 Ir3'
_cell_volume   373.11312057
_cell_formula_units_Z   1
loop_
 _symmetry_equiv_pos_site_id
 _symmetry_equiv_pos_as_xyz
  1  'x, y, z'
loop_
 _atom_site_type_symbol
 _atom_site_label
 _atom_site_symmetry_multiplicity
 _atom_site_fract_x
 _atom_site_fract_y
 _atom_site_fract_z
 _atom_site_occupancy
  Er  Er0  1  0.000000  0.319968  0.413893  1
  Lu  Lu1  1  0.000000  0.684769  0.590605  1
  Lu  Lu2  1  0.000000  0.819481  0.082084  1
  Lu  Lu3  1  0.000000  0.176551  0.912432  1
  Lu  Lu4  1  0.000000  0.943539  0.373404  1
  Lu  Lu5  1  0.000000  0.053336  0.626621  1
  Lu  Lu6  1  0.000000  0.443626  0.125809  1
  Lu  Lu7  1  0.000000  0.557368  0.874852  1
  Re  Re8  1  0.000000  0.862300  0.821290  1
  B  B9  1  0.500000  0.554336  0.435027  1
  B  B10  1  0.500000  0.447814  0.566215  1
  B  B11  1  0.500000  0.053517  0.065590  1
  B  B12  1  0.500000  0.946899  0.934040  1
  B  B13  1  0.500000  0.751100  0.421230  1
  B  B14  1  0.500000  0.249266  0.579237  1
  B  B15  1  0.500000  0.249885  0.078316  1
  B  B16  1  0.500000  0.750671  0.920347  1
  B  B17  1  0.500000  0.793152  0.263931  1
  B  B18  1  0.500000  0.206918  0.734562  1
  B  B19  1  0.500000  0.293764  0.235321  1
  B  B20  1  0.500000  0.706989  0.765438  1
  B  B21  1  0.500000  0.631056  0.183302  1
  B  B22  1  0.500000  0.368408  0.816681  1
  B  B23  1  0.500000  0.131234  0.316191  1
  B  B24  1  0.500000  0.869192  0.684624  1
  B  B25  1  0.500000  0.980467  0.212969  1
  B  B26  1  0.500000  0.018443  0.786653  1
  B  B27  1  0.500000  0.480903  0.286899  1
  B  B28  1  0.500000  0.519085  0.713916  1
  B  B29  1  0.500000  0.605961  0.030182  1
  B  B30  1  0.500000  0.391748  0.970815  1
  B  B31  1  0.500000  0.106509  0.470375  1
  B  B32  1  0.500000  0.893618  0.528187  1
  Ir  Ir33  1  0.000000  0.638191  0.321777  1
  Ir  Ir34  1  0.000000  0.362408  0.678756  1
  Ir  Ir35  1  0.000000  0.137525  0.178427  1
