# generated using pymatgen
data_Pr5Nd5Ir4
_symmetry_space_group_name_H-M   'P 1'
_cell_length_a   9.02708399
_cell_length_b   9.03671503
_cell_length_c   7.35801420
_cell_angle_alpha   83.61407011
_cell_angle_beta   83.53900133
_cell_angle_gamma   43.88020740
_symmetry_Int_Tables_number   1
_chemical_formula_structural   Pr5Nd5Ir4
_chemical_formula_sum   'Pr5 Nd5 Ir4'
_cell_volume   413.01421528
_cell_formula_units_Z   1
loop_
 _symmetry_equiv_pos_site_id
 _symmetry_equiv_pos_as_xyz
  1  'x, y, z'
loop_
 _atom_site_type_symbol
 _atom_site_label
 _atom_site_symmetry_multiplicity
 _atom_site_fract_x
 _atom_site_fract_y
 _atom_site_fract_z
 _atom_site_occupancy
  Pr  Pr0  1  0.019005  0.795790  0.918953  1
  Pr  Pr1  1  0.204401  0.980854  0.581103  1
  Pr  Pr2  1  0.980762  0.204510  0.081534  1
  Pr  Pr3  1  0.795906  0.018710  0.418595  1
  Pr  Pr4  1  0.350588  0.213542  0.815630  1
  Nd  Nd5  1  0.786163  0.648561  0.683685  1
  Nd  Nd6  1  0.648975  0.785795  0.184301  1
  Nd  Nd7  1  0.213569  0.351412  0.316090  1
  Nd  Nd8  1  0.567477  0.433042  0.749998  1
  Nd  Nd9  1  0.432765  0.567306  0.249930  1
  Ir  Ir10  1  0.181082  0.596394  0.573599  1
  Ir  Ir11  1  0.405101  0.817356  0.925761  1
  Ir  Ir12  1  0.818314  0.405029  0.425663  1
  Ir  Ir13  1  0.595890  0.181699  0.075158  1
