# generated using pymatgen
data_TbThPdPt5
_symmetry_space_group_name_H-M   'P 1'
_cell_length_a   5.89964000
_cell_length_b   5.92306436
_cell_length_c   9.68174100
_cell_angle_alpha   90.00000000
_cell_angle_beta   90.00000000
_cell_angle_gamma   119.86925211
_symmetry_Int_Tables_number   1
_chemical_formula_structural   TbThPdPt5
_chemical_formula_sum   'Tb2 Th2 Pd2 Pt10'
_cell_volume   293.37745228
_cell_formula_units_Z   2
loop_
 _symmetry_equiv_pos_site_id
 _symmetry_equiv_pos_as_xyz
  1  'x, y, z'
loop_
 _atom_site_type_symbol
 _atom_site_label
 _atom_site_symmetry_multiplicity
 _atom_site_fract_x
 _atom_site_fract_y
 _atom_site_fract_z
 _atom_site_occupancy
  Tb  Tb0  1  0.332990  0.665980  0.250000  1
  Tb  Tb1  1  0.667010  0.334020  0.750000  1
  Th  Th2  1  0.000000  0.000000  0.500000  1
  Th  Th3  1  0.000000  0.000000  0.000000  1
  Pd  Pd4  1  0.500000  0.000000  0.500000  1
  Pd  Pd5  1  0.500000  0.000000  0.000000  1
  Pt  Pt6  1  0.500000  0.500000  0.500000  1
  Pt  Pt7  1  0.000000  0.500000  0.500000  1
  Pt  Pt8  1  0.500000  0.500000  0.000000  1
  Pt  Pt9  1  0.000000  0.500000  0.000000  1
  Pt  Pt10  1  0.822806  0.645614  0.250000  1
  Pt  Pt11  1  0.349541  0.174447  0.250000  1
  Pt  Pt12  1  0.824905  0.174447  0.250000  1
  Pt  Pt13  1  0.177194  0.354386  0.750000  1
  Pt  Pt14  1  0.650459  0.825553  0.750000  1
  Pt  Pt15  1  0.175095  0.825553  0.750000  1
