# generated using pymatgen
data_ErSc(NbSe2)8
_symmetry_space_group_name_H-M   'P 1'
_cell_length_a   7.00129200
_cell_length_b   7.00129223
_cell_length_c   13.97530300
_cell_angle_alpha   90.00000000
_cell_angle_beta   90.00000000
_cell_angle_gamma   119.99999890
_symmetry_Int_Tables_number   1
_chemical_formula_structural   ErSc(NbSe2)8
_chemical_formula_sum   'Er1 Sc1 Nb8 Se16'
_cell_volume   593.26436872
_cell_formula_units_Z   1
loop_
 _symmetry_equiv_pos_site_id
 _symmetry_equiv_pos_as_xyz
  1  'x, y, z'
loop_
 _atom_site_type_symbol
 _atom_site_label
 _atom_site_symmetry_multiplicity
 _atom_site_fract_x
 _atom_site_fract_y
 _atom_site_fract_z
 _atom_site_occupancy
  Er  Er0  1  0.000000  0.000000  0.500000  1
  Sc  Sc1  1  0.000000  0.000000  0.000000  1
  Nb  Nb2  1  0.000000  0.000000  0.241405  1
  Nb  Nb3  1  0.000000  0.000000  0.758595  1
  Nb  Nb4  1  0.506863  0.013728  0.241269  1
  Nb  Nb5  1  0.986272  0.493137  0.241269  1
  Nb  Nb6  1  0.506863  0.493137  0.241269  1
  Nb  Nb7  1  0.493137  0.986272  0.758731  1
  Nb  Nb8  1  0.013728  0.506863  0.758731  1
  Nb  Nb9  1  0.493137  0.506863  0.758731  1
  Se  Se10  1  0.333333  0.666667  0.882183  1
  Se  Se11  1  0.666667  0.333333  0.117817  1
  Se  Se12  1  0.666667  0.333333  0.364873  1
  Se  Se13  1  0.333333  0.666667  0.635127  1
  Se  Se14  1  0.169013  0.830987  0.360906  1
  Se  Se15  1  0.169013  0.338026  0.360906  1
  Se  Se16  1  0.661974  0.830987  0.360906  1
  Se  Se17  1  0.830987  0.169013  0.639094  1
  Se  Se18  1  0.830987  0.661974  0.639094  1
  Se  Se19  1  0.338026  0.169013  0.639094  1
  Se  Se20  1  0.830563  0.169437  0.877470  1
  Se  Se21  1  0.830563  0.661126  0.877470  1
  Se  Se22  1  0.338874  0.169437  0.877470  1
  Se  Se23  1  0.169437  0.830563  0.122530  1
  Se  Se24  1  0.169437  0.338874  0.122530  1
  Se  Se25  1  0.661126  0.830563  0.122530  1
