# generated using pymatgen
data_Sr2Th3Si12Ir19
_symmetry_space_group_name_H-M   'P 1'
_cell_length_a   12.97279534
_cell_length_b   12.96763049
_cell_length_c   4.04887300
_cell_angle_alpha   90.00000000
_cell_angle_beta   90.00000000
_cell_angle_gamma   119.98683351
_symmetry_Int_Tables_number   1
_chemical_formula_structural   Sr2Th3Si12Ir19
_chemical_formula_sum   'Sr2 Th3 Si12 Ir19'
_cell_volume   589.95187326
_cell_formula_units_Z   1
loop_
 _symmetry_equiv_pos_site_id
 _symmetry_equiv_pos_as_xyz
  1  'x, y, z'
loop_
 _atom_site_type_symbol
 _atom_site_label
 _atom_site_symmetry_multiplicity
 _atom_site_fract_x
 _atom_site_fract_y
 _atom_site_fract_z
 _atom_site_occupancy
  Sr  Sr0  1  0.185493  0.186319  0.500000  1
  Sr  Sr1  1  0.814507  0.000825  0.500000  1
  Th  Th2  1  0.000000  0.817405  0.500000  1
  Th  Th3  1  0.332816  0.666215  0.000000  1
  Th  Th4  1  0.667184  0.333398  0.000000  1
  Si  Si5  1  0.000000  0.183832  0.000000  1
  Si  Si6  1  0.813111  0.815772  0.000000  1
  Si  Si7  1  0.186889  0.002661  0.000000  1
  Si  Si8  1  0.522584  0.689469  0.500000  1
  Si  Si9  1  0.311841  0.833494  0.500000  1
  Si  Si10  1  0.166442  0.477325  0.500000  1
  Si  Si11  1  0.477416  0.166885  0.500000  1
  Si  Si12  1  0.688159  0.521654  0.500000  1
  Si  Si13  1  0.833558  0.310883  0.500000  1
  Si  Si14  1  0.000000  0.629986  0.000000  1
  Si  Si15  1  0.369771  0.369800  0.000000  1
  Si  Si16  1  0.630229  0.000029  0.000000  1
  Ir  Ir17  1  0.000000  0.284453  0.500000  1
  Ir  Ir18  1  0.716308  0.714748  0.500000  1
  Ir  Ir19  1  0.283692  0.998440  0.500000  1
  Ir  Ir20  1  0.617780  0.801468  0.000000  1
  Ir  Ir21  1  0.194313  0.817320  0.000000  1
  Ir  Ir22  1  0.184128  0.382207  0.000000  1
  Ir  Ir23  1  0.382220  0.183688  0.000000  1
  Ir  Ir24  1  0.805687  0.623007  0.000000  1
  Ir  Ir25  1  0.815872  0.198079  0.000000  1
  Ir  Ir26  1  0.510422  0.873135  0.500000  1
  Ir  Ir27  1  0.126944  0.637858  0.500000  1
  Ir  Ir28  1  0.364246  0.490523  0.500000  1
  Ir  Ir29  1  0.489578  0.362713  0.500000  1
  Ir  Ir30  1  0.873056  0.510915  0.500000  1
  Ir  Ir31  1  0.635754  0.126277  0.500000  1
  Ir  Ir32  1  0.000000  0.993358  0.000000  1
  Ir  Ir33  1  0.000000  0.448915  0.000000  1
  Ir  Ir34  1  0.553438  0.550191  0.000000  1
  Ir  Ir35  1  0.446562  0.996753  0.000000  1
