# generated using pymatgen
data_ZrSc2NbRu4
_symmetry_space_group_name_H-M   'P 1'
_cell_length_a   6.40985500
_cell_length_b   4.56288600
_cell_length_c   9.15262300
_cell_angle_alpha   90.00000000
_cell_angle_beta   90.00140728
_cell_angle_gamma   90.00000000
_symmetry_Int_Tables_number   1
_chemical_formula_structural   ZrSc2NbRu4
_chemical_formula_sum   'Zr2 Sc4 Nb2 Ru8'
_cell_volume   267.69077041
_cell_formula_units_Z   2
loop_
 _symmetry_equiv_pos_site_id
 _symmetry_equiv_pos_as_xyz
  1  'x, y, z'
loop_
 _atom_site_type_symbol
 _atom_site_label
 _atom_site_symmetry_multiplicity
 _atom_site_fract_x
 _atom_site_fract_y
 _atom_site_fract_z
 _atom_site_occupancy
  Zr  Zr0  1  0.250025  0.250001  0.124957  1
  Zr  Zr1  1  0.750024  0.750000  0.375048  1
  Sc  Sc2  1  0.750030  0.250001  0.123611  1
  Sc  Sc3  1  0.250041  0.750000  0.376388  1
  Sc  Sc4  1  0.749982  0.250001  0.626135  1
  Sc  Sc5  1  0.249958  0.750000  0.873864  1
  Nb  Nb6  1  0.249985  0.250001  0.624874  1
  Nb  Nb7  1  0.749957  0.750000  0.875126  1
  Ru  Ru8  1  0.503948  0.750000  0.120099  1
  Ru  Ru9  1  0.996076  0.750000  0.120101  1
  Ru  Ru10  1  0.496081  0.250001  0.379902  1
  Ru  Ru11  1  0.003962  0.250001  0.379902  1
  Ru  Ru12  1  0.003436  0.750000  0.629578  1
  Ru  Ru13  1  0.496548  0.750000  0.629585  1
  Ru  Ru14  1  0.996527  0.250001  0.870418  1
  Ru  Ru15  1  0.503420  0.250001  0.870415  1
