# generated using pymatgen
data_YbGd(Ga2Pd)2
_symmetry_space_group_name_H-M   'P 1'
_cell_length_a   5.52487255
_cell_length_b   5.52487379
_cell_length_c   6.81300800
_cell_angle_alpha   90.00000000
_cell_angle_beta   90.00000000
_cell_angle_gamma   47.22493145
_symmetry_Int_Tables_number   1
_chemical_formula_structural   YbGd(Ga2Pd)2
_chemical_formula_sum   'Yb1 Gd1 Ga4 Pd2'
_cell_volume   152.64923745
_cell_formula_units_Z   1
loop_
 _symmetry_equiv_pos_site_id
 _symmetry_equiv_pos_as_xyz
  1  'x, y, z'
loop_
 _atom_site_type_symbol
 _atom_site_label
 _atom_site_symmetry_multiplicity
 _atom_site_fract_x
 _atom_site_fract_y
 _atom_site_fract_z
 _atom_site_occupancy
  Yb  Yb0  1  0.584179  0.584179  0.750000  1
  Gd  Gd1  1  0.416112  0.416112  0.249999  1
  Ga  Ga2  1  0.131096  0.131096  0.054644  1
  Ga  Ga3  1  0.868441  0.868441  0.556990  1
  Ga  Ga4  1  0.868441  0.868441  0.943010  1
  Ga  Ga5  1  0.131096  0.131096  0.445357  1
  Pd  Pd6  1  0.703275  0.703275  0.249999  1
  Pd  Pd7  1  0.297362  0.297362  0.750000  1
