# generated using pymatgen
data_Tb18TlAgIr12
_symmetry_space_group_name_H-M   'P 1'
_cell_length_a   10.87265200
_cell_length_b   10.87265200
_cell_length_c   6.28110100
_cell_angle_alpha   90.00000000
_cell_angle_beta   90.00000000
_cell_angle_gamma   90.00000000
_symmetry_Int_Tables_number   1
_chemical_formula_structural   Tb18TlAgIr12
_chemical_formula_sum   'Tb18 Tl1 Ag1 Ir12'
_cell_volume   742.51760053
_cell_formula_units_Z   1
loop_
 _symmetry_equiv_pos_site_id
 _symmetry_equiv_pos_as_xyz
  1  'x, y, z'
loop_
 _atom_site_type_symbol
 _atom_site_label
 _atom_site_symmetry_multiplicity
 _atom_site_fract_x
 _atom_site_fract_y
 _atom_site_fract_z
 _atom_site_occupancy
  Tb  Tb0  1  0.283298  0.086468  0.378446  1
  Tb  Tb1  1  0.293352  0.913827  0.875145  1
  Tb  Tb2  1  0.706648  0.086173  0.875145  1
  Tb  Tb3  1  0.716702  0.913532  0.378446  1
  Tb  Tb4  1  0.583168  0.778810  0.879441  1
  Tb  Tb5  1  0.587936  0.207212  0.374224  1
  Tb  Tb6  1  0.412064  0.792788  0.374224  1
  Tb  Tb7  1  0.416832  0.221190  0.879441  1
  Tb  Tb8  1  0.207212  0.412064  0.625776  1
  Tb  Tb9  1  0.221190  0.583168  0.120559  1
  Tb  Tb10  1  0.778810  0.416832  0.120559  1
  Tb  Tb11  1  0.792788  0.587936  0.625776  1
  Tb  Tb12  1  0.913827  0.706648  0.124855  1
  Tb  Tb13  1  0.913532  0.283298  0.621554  1
  Tb  Tb14  1  0.086468  0.716702  0.621554  1
  Tb  Tb15  1  0.086173  0.293352  0.124855  1
  Tb  Tb16  1  0.000000  0.000000  0.000000  1
  Tb  Tb17  1  0.500000  0.500000  0.500000  1
  Tl  Tl18  1  0.000000  0.000000  0.500000  1
  Ag  Ag19  1  0.500000  0.500000  0.000000  1
  Ir  Ir20  1  0.844427  0.161041  0.234797  1
  Ir  Ir21  1  0.838959  0.844427  0.765203  1
  Ir  Ir22  1  0.161041  0.155573  0.765203  1
  Ir  Ir23  1  0.155573  0.838959  0.234797  1
  Ir  Ir24  1  0.660840  0.343330  0.734164  1
  Ir  Ir25  1  0.656670  0.660840  0.265836  1
  Ir  Ir26  1  0.343330  0.339160  0.265836  1
  Ir  Ir27  1  0.339160  0.656670  0.734164  1
  Ir  Ir28  1  0.500000  0.000000  0.117391  1
  Ir  Ir29  1  0.500000  0.000000  0.617637  1
  Ir  Ir30  1  0.000000  0.500000  0.882609  1
  Ir  Ir31  1  0.000000  0.500000  0.382363  1
