# generated using pymatgen
data_Li5Hf6AlRh12
_symmetry_space_group_name_H-M   'P 1'
_cell_length_a   4.45972000
_cell_length_b   6.19130300
_cell_length_c   13.32156300
_cell_angle_alpha   90.00000000
_cell_angle_beta   89.99958369
_cell_angle_gamma   90.00000000
_symmetry_Int_Tables_number   1
_chemical_formula_structural   Li5Hf6AlRh12
_chemical_formula_sum   'Li5 Hf6 Al1 Rh12'
_cell_volume   367.82804123
_cell_formula_units_Z   1
loop_
 _symmetry_equiv_pos_site_id
 _symmetry_equiv_pos_as_xyz
  1  'x, y, z'
loop_
 _atom_site_type_symbol
 _atom_site_label
 _atom_site_symmetry_multiplicity
 _atom_site_fract_x
 _atom_site_fract_y
 _atom_site_fract_z
 _atom_site_occupancy
  Li  Li0  1  0.499876  0.000000  0.167224  1
  Li  Li1  1  0.999902  0.500000  0.333672  1
  Li  Li2  1  0.500001  0.000000  0.500000  1
  Li  Li3  1  0.000098  0.500000  0.666328  1
  Li  Li4  1  0.500124  0.000000  0.832776  1
  Hf  Hf5  1  0.000000  0.000000  0.000000  1
  Hf  Hf6  1  0.499887  0.500000  0.169675  1
  Hf  Hf7  1  0.999886  0.000000  0.335206  1
  Hf  Hf8  1  0.500001  0.500000  0.500000  1
  Hf  Hf9  1  0.000114  0.000000  0.664794  1
  Hf  Hf10  1  0.500113  0.500000  0.830325  1
  Al  Al11  1  0.000000  0.500000  0.000000  1
  Rh  Rh12  1  0.500001  0.253716  0.000000  1
  Rh  Rh13  1  0.500001  0.746284  0.000000  1
  Rh  Rh14  1  0.999886  0.251644  0.165204  1
  Rh  Rh15  1  0.999886  0.748356  0.165204  1
  Rh  Rh16  1  0.499879  0.248693  0.333358  1
  Rh  Rh17  1  0.499879  0.751307  0.333358  1
  Rh  Rh18  1  0.000000  0.251005  0.500000  1
  Rh  Rh19  1  0.000000  0.748995  0.500000  1
  Rh  Rh20  1  0.500121  0.248693  0.666642  1
  Rh  Rh21  1  0.500121  0.751307  0.666642  1
  Rh  Rh22  1  0.000114  0.251644  0.834796  1
  Rh  Rh23  1  0.000114  0.748356  0.834796  1
