# generated using pymatgen
data_Cd5Hg(Pd2Au)6
_symmetry_space_group_name_H-M   'P 1'
_cell_length_a   4.39462700
_cell_length_b   7.06255400
_cell_length_c   13.33121300
_cell_angle_alpha   90.00004583
_cell_angle_beta   90.00130994
_cell_angle_gamma   90.00252849
_symmetry_Int_Tables_number   1
_chemical_formula_structural   Cd5Hg(Pd2Au)6
_chemical_formula_sum   'Cd5 Hg1 Pd12 Au6'
_cell_volume   413.76473039
_cell_formula_units_Z   1
loop_
 _symmetry_equiv_pos_site_id
 _symmetry_equiv_pos_as_xyz
  1  'x, y, z'
loop_
 _atom_site_type_symbol
 _atom_site_label
 _atom_site_symmetry_multiplicity
 _atom_site_fract_x
 _atom_site_fract_y
 _atom_site_fract_z
 _atom_site_occupancy
  Cd  Cd0  1  0.499999  0.500000  0.166770  1
  Cd  Cd1  1  0.999996  0.000000  0.333495  1
  Cd  Cd2  1  0.500001  0.500000  0.499999  1
  Cd  Cd3  1  0.000003  0.000000  0.666504  1
  Cd  Cd4  1  0.500001  0.500000  0.833231  1
  Hg  Hg5  1  0.000000  0.000000  0.000001  1
  Pd  Pd6  1  0.499995  0.250936  0.000000  1
  Pd  Pd7  1  0.500005  0.749064  0.000001  1
  Pd  Pd8  1  0.000006  0.250242  0.167011  1
  Pd  Pd9  1  0.999998  0.749758  0.167011  1
  Pd  Pd10  1  0.499983  0.250225  0.333445  1
  Pd  Pd11  1  0.500003  0.749774  0.333445  1
  Pd  Pd12  1  0.000026  0.249962  0.500000  1
  Pd  Pd13  1  0.999975  0.750038  0.500000  1
  Pd  Pd14  1  0.499997  0.250225  0.666555  1
  Pd  Pd15  1  0.500016  0.749774  0.666555  1
  Pd  Pd16  1  0.000001  0.250242  0.832988  1
  Pd  Pd17  1  0.999995  0.749757  0.832988  1
  Au  Au18  1  0.000000  0.500000  0.000001  1
  Au  Au19  1  0.500006  0.000000  0.167762  1
  Au  Au20  1  0.999995  0.500000  0.333217  1
  Au  Au21  1  0.500001  0.000000  0.499999  1
  Au  Au22  1  0.000005  0.500001  0.666782  1
  Au  Au23  1  0.499994  0.999999  0.832239  1
