# generated using pymatgen
data_MgSc3Be2(B2Ir5)2
_symmetry_space_group_name_H-M   'P 1'
_cell_length_a   9.32998258
_cell_length_b   9.32998258
_cell_length_c   2.94123100
_cell_angle_alpha   90.00000000
_cell_angle_beta   90.00000000
_cell_angle_gamma   89.34896047
_symmetry_Int_Tables_number   1
_chemical_formula_structural   MgSc3Be2(B2Ir5)2
_chemical_formula_sum   'Mg1 Sc3 Be2 B4 Ir10'
_cell_volume   256.01343877
_cell_formula_units_Z   1
loop_
 _symmetry_equiv_pos_site_id
 _symmetry_equiv_pos_as_xyz
  1  'x, y, z'
loop_
 _atom_site_type_symbol
 _atom_site_label
 _atom_site_symmetry_multiplicity
 _atom_site_fract_x
 _atom_site_fract_y
 _atom_site_fract_z
 _atom_site_occupancy
  Mg  Mg0  1  0.177168  0.322833  0.000000  1
  Sc  Sc1  1  0.322161  0.824139  0.000000  1
  Sc  Sc2  1  0.675861  0.177840  0.000000  1
  Sc  Sc3  1  0.825529  0.674471  0.000000  1
  Be  Be4  1  0.998078  0.996789  0.000000  1
  Be  Be5  1  0.503211  0.501922  0.000000  1
  B  B6  1  0.129034  0.625880  0.000000  1
  B  B7  1  0.874120  0.370967  0.000000  1
  B  B8  1  0.627196  0.872804  0.000000  1
  B  B9  1  0.367540  0.132461  0.000000  1
  Ir  Ir10  1  0.002659  0.497341  0.499999  1
  Ir  Ir11  1  0.498515  0.001485  0.499999  1
  Ir  Ir12  1  0.205594  0.066889  0.499999  1
  Ir  Ir13  1  0.790947  0.932288  0.499999  1
  Ir  Ir14  1  0.709042  0.433254  0.499999  1
  Ir  Ir15  1  0.294192  0.568412  0.499999  1
  Ir  Ir16  1  0.433109  0.294405  0.499999  1
  Ir  Ir17  1  0.567711  0.709053  0.499999  1
  Ir  Ir18  1  0.066744  0.790958  0.499999  1
  Ir  Ir19  1  0.931587  0.205807  0.499999  1
