# generated using pymatgen
data_PaAl5Cu6
_symmetry_space_group_name_H-M   'P 1'
_cell_length_a   10.32014320
_cell_length_b   8.18083670
_cell_length_c   7.83401498
_cell_angle_alpha   80.21112394
_cell_angle_beta   51.36733783
_cell_angle_gamma   48.42154771
_symmetry_Int_Tables_number   1
_chemical_formula_structural   PaAl5Cu6
_chemical_formula_sum   'Pa2 Al10 Cu12'
_cell_volume   351.09037789
_cell_formula_units_Z   2
loop_
 _symmetry_equiv_pos_site_id
 _symmetry_equiv_pos_as_xyz
  1  'x, y, z'
loop_
 _atom_site_type_symbol
 _atom_site_label
 _atom_site_symmetry_multiplicity
 _atom_site_fract_x
 _atom_site_fract_y
 _atom_site_fract_z
 _atom_site_occupancy
  Pa  Pa0  1  0.000000  0.000000  0.000000  1
  Pa  Pa1  1  0.250000  0.250000  0.250000  1
  Al  Al2  1  0.500000  0.500000  0.500000  1
  Al  Al3  1  0.750000  0.750000  0.750000  1
  Al  Al4  1  0.754713  0.071061  0.835517  1
  Al  Al5  1  0.835517  0.338710  0.754713  1
  Al  Al6  1  0.071061  0.754713  0.338710  1
  Al  Al7  1  0.338710  0.835517  0.071061  1
  Al  Al8  1  0.495287  0.178939  0.414483  1
  Al  Al9  1  0.414483  0.911290  0.495287  1
  Al  Al10  1  0.178939  0.495287  0.911290  1
  Al  Al11  1  0.911290  0.414483  0.178939  1
  Cu  Cu12  1  0.625000  0.125000  0.625000  1
  Cu  Cu13  1  0.625000  0.625000  0.625000  1
  Cu  Cu14  1  0.125000  0.625000  0.625000  1
  Cu  Cu15  1  0.625000  0.625000  0.125000  1
  Cu  Cu16  1  0.491648  0.434536  0.182951  1
  Cu  Cu17  1  0.182951  0.890866  0.491648  1
  Cu  Cu18  1  0.434536  0.491648  0.890866  1
  Cu  Cu19  1  0.890866  0.182951  0.434536  1
  Cu  Cu20  1  0.758352  0.815464  0.067049  1
  Cu  Cu21  1  0.067049  0.359134  0.758352  1
  Cu  Cu22  1  0.815464  0.758352  0.359134  1
  Cu  Cu23  1  0.359134  0.067049  0.815464  1
