# generated using pymatgen
data_YTm7(CdPt)2
_symmetry_space_group_name_H-M   'P 1'
_cell_length_a   9.58540486
_cell_length_b   9.58540557
_cell_length_c   9.58061900
_cell_angle_alpha   60.01651387
_cell_angle_beta   60.01651141
_cell_angle_gamma   59.96696992
_symmetry_Int_Tables_number   1
_chemical_formula_structural   YTm7(CdPt)2
_chemical_formula_sum   'Y2 Tm14 Cd4 Pt4'
_cell_volume   622.44257882
_cell_formula_units_Z   2
loop_
 _symmetry_equiv_pos_site_id
 _symmetry_equiv_pos_as_xyz
  1  'x, y, z'
loop_
 _atom_site_type_symbol
 _atom_site_label
 _atom_site_symmetry_multiplicity
 _atom_site_fract_x
 _atom_site_fract_y
 _atom_site_fract_z
 _atom_site_occupancy
  Y  Y0  1  0.565326  0.565326  0.934674  1
  Y  Y1  1  0.934674  0.934674  0.565326  1
  Tm  Tm2  1  0.352442  0.352442  0.353138  1
  Tm  Tm3  1  0.352442  0.352442  0.941979  1
  Tm  Tm4  1  0.353138  0.941979  0.352442  1
  Tm  Tm5  1  0.941979  0.353138  0.352442  1
  Tm  Tm6  1  0.810573  0.189427  0.189427  1
  Tm  Tm7  1  0.189427  0.810573  0.810573  1
  Tm  Tm8  1  0.189427  0.810573  0.189427  1
  Tm  Tm9  1  0.810573  0.189427  0.810573  1
  Tm  Tm10  1  0.189494  0.189494  0.810506  1
  Tm  Tm11  1  0.810506  0.810506  0.189494  1
  Tm  Tm12  1  0.935644  0.564356  0.564356  1
  Tm  Tm13  1  0.564356  0.935644  0.935644  1
  Tm  Tm14  1  0.564356  0.935644  0.564356  1
  Tm  Tm15  1  0.935644  0.564356  0.935644  1
  Cd  Cd16  1  0.582120  0.582120  0.581652  1
  Cd  Cd17  1  0.582120  0.582120  0.254108  1
  Cd  Cd18  1  0.581652  0.254108  0.582120  1
  Cd  Cd19  1  0.254108  0.581652  0.582120  1
  Pt  Pt20  1  0.143555  0.143555  0.143112  1
  Pt  Pt21  1  0.143555  0.143555  0.569778  1
  Pt  Pt22  1  0.143112  0.569778  0.143555  1
  Pt  Pt23  1  0.569778  0.143112  0.143555  1
