# generated using pymatgen
data_Mn24Mo4Os
_symmetry_space_group_name_H-M   'P 1'
_cell_length_a   7.58446623
_cell_length_b   7.58414331
_cell_length_c   7.58419807
_cell_angle_alpha   109.45985562
_cell_angle_beta   109.46728417
_cell_angle_gamma   109.47145539
_symmetry_Int_Tables_number   1
_chemical_formula_structural   Mn24Mo4Os
_chemical_formula_sum   'Mn24 Mo4 Os1'
_cell_volume   335.89230380
_cell_formula_units_Z   1
loop_
 _symmetry_equiv_pos_site_id
 _symmetry_equiv_pos_as_xyz
  1  'x, y, z'
loop_
 _atom_site_type_symbol
 _atom_site_label
 _atom_site_symmetry_multiplicity
 _atom_site_fract_x
 _atom_site_fract_y
 _atom_site_fract_z
 _atom_site_occupancy
  Mn  Mn0  1  0.324610  0.324618  0.713892  1
  Mn  Mn1  1  0.389294  0.675443  0.000236  1
  Mn  Mn2  1  0.675591  0.389332  0.000158  1
  Mn  Mn3  1  0.610958  0.286188  0.611036  1
  Mn  Mn4  1  0.389273  0.000018  0.675354  1
  Mn  Mn5  1  0.999846  0.388982  0.675306  1
  Mn  Mn6  1  0.286074  0.610748  0.610603  1
  Mn  Mn7  1  0.713837  0.324649  0.324413  1
  Mn  Mn8  1  0.324484  0.713652  0.324480  1
  Mn  Mn9  1  0.675437  0.999914  0.389298  1
  Mn  Mn10  1  0.999823  0.675257  0.388951  1
  Mn  Mn11  1  0.610905  0.610884  0.286150  1
  Mn  Mn12  1  0.804492  0.804416  0.181051  1
  Mn  Mn13  1  0.376519  0.195640  0.000083  1
  Mn  Mn14  1  0.195325  0.376374  0.000078  1
  Mn  Mn15  1  0.623602  0.819325  0.623477  1
  Mn  Mn16  1  0.376442  0.999960  0.195523  1
  Mn  Mn17  1  0.999922  0.376471  0.195325  1
  Mn  Mn18  1  0.819147  0.623612  0.623474  1
  Mn  Mn19  1  0.180855  0.804572  0.804505  1
  Mn  Mn20  1  0.804611  0.180907  0.804624  1
  Mn  Mn21  1  0.195299  0.999788  0.376250  1
  Mn  Mn22  1  0.999861  0.195375  0.376276  1
  Mn  Mn23  1  0.623662  0.623605  0.819241  1
  Mo  Mo24  1  0.999878  0.999984  0.635505  1
  Mo  Mo25  1  0.635847  0.000236  0.000167  1
  Mo  Mo26  1  0.000030  0.635525  0.000253  1
  Mo  Mo27  1  0.364342  0.364461  0.364255  1
  Os  Os28  1  0.000032  0.000063  0.000036  1
