# generated using pymatgen
data_Dy3HoGaRu7
_symmetry_space_group_name_H-M   'P 1'
_cell_length_a   5.35870333
_cell_length_b   5.35870214
_cell_length_c   8.64323102
_cell_angle_alpha   89.99945129
_cell_angle_beta   90.00054936
_cell_angle_gamma   119.99579326
_symmetry_Int_Tables_number   1
_chemical_formula_structural   Dy3HoGaRu7
_chemical_formula_sum   'Dy3 Ho1 Ga1 Ru7'
_cell_volume   214.95348629
_cell_formula_units_Z   1
loop_
 _symmetry_equiv_pos_site_id
 _symmetry_equiv_pos_as_xyz
  1  'x, y, z'
loop_
 _atom_site_type_symbol
 _atom_site_label
 _atom_site_symmetry_multiplicity
 _atom_site_fract_x
 _atom_site_fract_y
 _atom_site_fract_z
 _atom_site_occupancy
  Dy  Dy0  1  0.666690  0.333310  0.570868  1
  Dy  Dy1  1  0.333322  0.666678  0.429318  1
  Dy  Dy2  1  0.333310  0.666690  0.064479  1
  Ho  Ho3  1  0.666679  0.333321  0.935357  1
  Ga  Ga4  1  0.999988  0.000012  0.500006  1
  Ru  Ru5  1  0.000013  0.999987  0.999881  1
  Ru  Ru6  1  0.171195  0.342383  0.749380  1
  Ru  Ru7  1  0.171218  0.828782  0.749432  1
  Ru  Ru8  1  0.657617  0.828805  0.749380  1
  Ru  Ru9  1  0.828723  0.657484  0.250642  1
  Ru  Ru10  1  0.828729  0.171271  0.250616  1
  Ru  Ru11  1  0.342516  0.171277  0.250642  1
