# generated using pymatgen
data_Dy2Lu3(OsO6)2
_symmetry_space_group_name_H-M   'P 1'
_cell_length_a   6.78611387
_cell_length_b   6.78611540
_cell_length_c   7.38346454
_cell_angle_alpha   74.16236491
_cell_angle_beta   74.16235897
_cell_angle_gamma   48.96602304
_symmetry_Int_Tables_number   1
_chemical_formula_structural   Dy2Lu3(OsO6)2
_chemical_formula_sum   'Dy2 Lu3 Os2 O12'
_cell_volume   244.67911127
_cell_formula_units_Z   1
loop_
 _symmetry_equiv_pos_site_id
 _symmetry_equiv_pos_as_xyz
  1  'x, y, z'
loop_
 _atom_site_type_symbol
 _atom_site_label
 _atom_site_symmetry_multiplicity
 _atom_site_fract_x
 _atom_site_fract_y
 _atom_site_fract_z
 _atom_site_occupancy
  Dy  Dy0  1  0.699034  0.699034  0.642516  1
  Dy  Dy1  1  0.300966  0.300966  0.357484  1
  Lu  Lu2  1  0.687740  0.687740  0.172315  1
  Lu  Lu3  1  0.312260  0.312260  0.827685  1
  Lu  Lu4  1  0.000000  0.000000  0.500000  1
  Os  Os5  1  0.780850  0.219150  0.000000  1
  Os  Os6  1  0.219150  0.780850  0.000000  1
  O  O7  1  0.001024  0.001024  0.206558  1
  O  O8  1  0.998976  0.998976  0.793442  1
  O  O9  1  0.579414  0.083574  0.085389  1
  O  O10  1  0.420586  0.916426  0.914611  1
  O  O11  1  0.916426  0.420586  0.914611  1
  O  O12  1  0.083574  0.579414  0.085389  1
  O  O13  1  0.501294  0.501294  0.176579  1
  O  O14  1  0.498706  0.498706  0.823421  1
  O  O15  1  0.401754  0.898068  0.425121  1
  O  O16  1  0.598246  0.101932  0.574879  1
  O  O17  1  0.101932  0.598246  0.574879  1
  O  O18  1  0.898068  0.401754  0.425121  1
