# generated using pymatgen
data_SmDy7(Ge4Mo3)4
_symmetry_space_group_name_H-M   'P 1'
_cell_length_a   6.96699606
_cell_length_b   7.07329742
_cell_length_c   13.17217785
_cell_angle_alpha   89.98180745
_cell_angle_beta   90.00352728
_cell_angle_gamma   89.98728990
_symmetry_Int_Tables_number   1
_chemical_formula_structural   SmDy7(Ge4Mo3)4
_chemical_formula_sum   'Sm1 Dy7 Ge16 Mo12'
_cell_volume   649.12006995
_cell_formula_units_Z   1
loop_
 _symmetry_equiv_pos_site_id
 _symmetry_equiv_pos_as_xyz
  1  'x, y, z'
loop_
 _atom_site_type_symbol
 _atom_site_label
 _atom_site_symmetry_multiplicity
 _atom_site_fract_x
 _atom_site_fract_y
 _atom_site_fract_z
 _atom_site_occupancy
  Sm  Sm0  1  0.989731  0.831527  0.591828  1
  Dy  Dy1  1  0.488925  0.669330  0.592257  1
  Dy  Dy2  1  0.988797  0.830518  0.907599  1
  Dy  Dy3  1  0.511145  0.330217  0.092204  1
  Dy  Dy4  1  0.011378  0.169491  0.407229  1
  Dy  Dy5  1  0.511385  0.330776  0.407219  1
  Dy  Dy6  1  0.011208  0.169640  0.092197  1
  Dy  Dy7  1  0.488963  0.669566  0.908449  1
  Ge  Ge8  1  0.668090  0.953004  0.450842  1
  Ge  Ge9  1  0.169603  0.547105  0.048260  1
  Ge  Ge10  1  0.330213  0.047189  0.951881  1
  Ge  Ge11  1  0.829782  0.450595  0.548212  1
  Ge  Ge12  1  0.333051  0.048724  0.547931  1
  Ge  Ge13  1  0.830459  0.452858  0.951826  1
  Ge  Ge14  1  0.669845  0.953030  0.048274  1
  Ge  Ge15  1  0.170235  0.546188  0.450933  1
  Ge  Ge16  1  0.469188  0.366862  0.750473  1
  Ge  Ge17  1  0.968857  0.135033  0.750817  1
  Ge  Ge18  1  0.530552  0.633319  0.249640  1
  Ge  Ge19  1  0.030623  0.866456  0.249957  1
  Ge  Ge20  1  0.686581  0.856271  0.750787  1
  Ge  Ge21  1  0.189621  0.642722  0.751041  1
  Ge  Ge22  1  0.311809  0.143975  0.249796  1
  Ge  Ge23  1  0.811717  0.355569  0.249655  1
  Mo  Mo24  1  0.668082  0.156044  0.627875  1
  Mo  Mo25  1  0.169439  0.344532  0.873305  1
  Mo  Mo26  1  0.330563  0.844597  0.127138  1
  Mo  Mo27  1  0.830269  0.654578  0.372281  1
  Mo  Mo28  1  0.330944  0.844456  0.372425  1
  Mo  Mo29  1  0.830781  0.655367  0.127006  1
  Mo  Mo30  1  0.668873  0.155621  0.873113  1
  Mo  Mo31  1  0.169463  0.344492  0.627386  1
  Mo  Mo32  1  0.832982  0.494155  0.750333  1
  Mo  Mo33  1  0.333442  0.006478  0.750499  1
  Mo  Mo34  1  0.166697  0.505520  0.249718  1
  Mo  Mo35  1  0.666711  0.994196  0.249615  1
