# generated using pymatgen
data_Tb7(HoIn4)5
_symmetry_space_group_name_H-M   'P 1'
_cell_length_a   6.52073364
_cell_length_b   10.42499597
_cell_length_c   12.29364410
_cell_angle_alpha   90.05467527
_cell_angle_beta   89.97309841
_cell_angle_gamma   89.98995835
_symmetry_Int_Tables_number   1
_chemical_formula_structural   Tb7(HoIn4)5
_chemical_formula_sum   'Tb7 Ho5 In20'
_cell_volume   835.70449792
_cell_formula_units_Z   1
loop_
 _symmetry_equiv_pos_site_id
 _symmetry_equiv_pos_as_xyz
  1  'x, y, z'
loop_
 _atom_site_type_symbol
 _atom_site_label
 _atom_site_symmetry_multiplicity
 _atom_site_fract_x
 _atom_site_fract_y
 _atom_site_fract_z
 _atom_site_occupancy
  Tb  Tb0  1  0.609794  0.006709  0.642105  1
  Tb  Tb1  1  0.109773  0.993102  0.858034  1
  Tb  Tb2  1  0.390283  0.506866  0.358007  1
  Tb  Tb3  1  0.109619  0.506819  0.858437  1
  Tb  Tb4  1  0.390242  0.993172  0.357797  1
  Tb  Tb5  1  0.890041  0.006901  0.142179  1
  Tb  Tb6  1  0.609866  0.493159  0.641995  1
  Ho  Ho7  1  0.349758  0.750237  0.056083  1
  Ho  Ho8  1  0.149408  0.750012  0.556013  1
  Ho  Ho9  1  0.649653  0.250187  0.944053  1
  Ho  Ho10  1  0.850333  0.249782  0.443965  1
  Ho  Ho11  1  0.890733  0.493153  0.141564  1
  In  In12  1  0.616077  0.749798  0.504825  1
  In  In13  1  0.883361  0.749344  0.005697  1
  In  In14  1  0.383807  0.250038  0.495043  1
  In  In15  1  0.115743  0.250160  0.995167  1
  In  In16  1  0.651537  0.749188  0.245375  1
  In  In17  1  0.848959  0.749837  0.745798  1
  In  In18  1  0.348842  0.250104  0.754414  1
  In  In19  1  0.151063  0.250569  0.254170  1
  In  In20  1  0.124483  0.749840  0.284140  1
  In  In21  1  0.375603  0.749872  0.784153  1
  In  In22  1  0.875540  0.250139  0.715864  1
  In  In23  1  0.625618  0.250970  0.215507  1
  In  In24  1  0.875575  0.543608  0.400634  1
  In  In25  1  0.624878  0.956017  0.901562  1
  In  In26  1  0.124687  0.044034  0.598508  1
  In  In27  1  0.375064  0.456299  0.098739  1
  In  In28  1  0.124579  0.456127  0.598555  1
  In  In29  1  0.375217  0.044183  0.098571  1
  In  In30  1  0.875213  0.955902  0.401485  1
  In  In31  1  0.624657  0.543871  0.901565  1
