# generated using pymatgen
data_Nd6Mn3Al24Pt5
_symmetry_space_group_name_H-M   'P 1'
_cell_length_a   8.90473100
_cell_length_b   8.93433399
_cell_length_c   9.57378236
_cell_angle_alpha   90.29467397
_cell_angle_beta   90.00000000
_cell_angle_gamma   119.89046521
_symmetry_Int_Tables_number   1
_chemical_formula_structural   Nd6Mn3Al24Pt5
_chemical_formula_sum   'Nd6 Mn3 Al24 Pt5'
_cell_volume   660.34032930
_cell_formula_units_Z   1
loop_
 _symmetry_equiv_pos_site_id
 _symmetry_equiv_pos_as_xyz
  1  'x, y, z'
loop_
 _atom_site_type_symbol
 _atom_site_label
 _atom_site_symmetry_multiplicity
 _atom_site_fract_x
 _atom_site_fract_y
 _atom_site_fract_z
 _atom_site_occupancy
  Nd  Nd0  1  0.190364  0.380728  0.251424  1
  Nd  Nd1  1  0.809636  0.619272  0.748576  1
  Nd  Nd2  1  0.619073  0.811032  0.251102  1
  Nd  Nd3  1  0.380927  0.188968  0.748898  1
  Nd  Nd4  1  0.191960  0.811032  0.251102  1
  Nd  Nd5  1  0.808040  0.188968  0.748898  1
  Mn  Mn6  1  0.500000  0.000000  0.500000  1
  Mn  Mn7  1  0.000000  0.000000  0.000000  1
  Mn  Mn8  1  0.000000  0.000000  0.500000  1
  Al  Al9  1  0.333419  0.666838  0.022443  1
  Al  Al10  1  0.666581  0.333162  0.977557  1
  Al  Al11  1  0.661489  0.322978  0.522263  1
  Al  Al12  1  0.338511  0.677022  0.477737  1
  Al  Al13  1  0.159279  0.318558  0.573555  1
  Al  Al14  1  0.840721  0.681442  0.426445  1
  Al  Al15  1  0.678932  0.845794  0.574538  1
  Al  Al16  1  0.842145  0.684290  0.074936  1
  Al  Al17  1  0.321068  0.154206  0.425462  1
  Al  Al18  1  0.157855  0.315710  0.925064  1
  Al  Al19  1  0.166862  0.845794  0.574538  1
  Al  Al20  1  0.316595  0.158185  0.076938  1
  Al  Al21  1  0.833138  0.154206  0.425462  1
  Al  Al22  1  0.683405  0.841815  0.923062  1
  Al  Al23  1  0.841590  0.158185  0.076938  1
  Al  Al24  1  0.158410  0.841815  0.923062  1
  Al  Al25  1  0.562958  0.125915  0.257691  1
  Al  Al26  1  0.437042  0.874085  0.742309  1
  Al  Al27  1  0.870365  0.434147  0.249740  1
  Al  Al28  1  0.129635  0.565853  0.750260  1
  Al  Al29  1  0.563783  0.434147  0.249740  1
  Al  Al30  1  0.436217  0.565853  0.750260  1
  Al  Al31  1  0.000697  0.001395  0.250091  1
  Al  Al32  1  0.999303  0.998605  0.749909  1
  Pt  Pt33  1  0.500000  0.000000  0.000000  1
  Pt  Pt34  1  0.000000  0.500000  0.000000  1
  Pt  Pt35  1  0.500000  0.500000  0.000000  1
  Pt  Pt36  1  0.000000  0.500000  0.500000  1
  Pt  Pt37  1  0.500000  0.500000  0.500000  1
