# generated using pymatgen
data_Tb8Ta5Ti2Ge16Mo5
_symmetry_space_group_name_H-M   'P 1'
_cell_length_a   6.94086926
_cell_length_b   7.14141101
_cell_length_c   13.48129398
_cell_angle_alpha   89.92987504
_cell_angle_beta   90.02314468
_cell_angle_gamma   89.95541383
_symmetry_Int_Tables_number   1
_chemical_formula_structural   Tb8Ta5Ti2Ge16Mo5
_chemical_formula_sum   'Tb8 Ta5 Ti2 Ge16 Mo5'
_cell_volume   668.23463147
_cell_formula_units_Z   1
loop_
 _symmetry_equiv_pos_site_id
 _symmetry_equiv_pos_as_xyz
  1  'x, y, z'
loop_
 _atom_site_type_symbol
 _atom_site_label
 _atom_site_symmetry_multiplicity
 _atom_site_fract_x
 _atom_site_fract_y
 _atom_site_fract_z
 _atom_site_occupancy
  Tb  Tb0  1  0.003999  0.173478  0.405542  1
  Tb  Tb1  1  0.503004  0.323867  0.094517  1
  Tb  Tb2  1  0.495252  0.672405  0.593070  1
  Tb  Tb3  1  0.994435  0.826375  0.906470  1
  Tb  Tb4  1  0.994616  0.826563  0.593516  1
  Tb  Tb5  1  0.494509  0.673223  0.908048  1
  Tb  Tb6  1  0.504297  0.328831  0.404652  1
  Tb  Tb7  1  0.005531  0.171029  0.094335  1
  Ta  Ta8  1  0.837930  0.668360  0.371176  1
  Ta  Ta9  1  0.660802  0.166410  0.627001  1
  Ta  Ta10  1  0.162382  0.334382  0.874379  1
  Ta  Ta11  1  0.162048  0.332931  0.627355  1
  Ta  Ta12  1  0.660804  0.165549  0.873450  1
  Ti  Ti13  1  0.840385  0.666019  0.127323  1
  Ti  Ti14  1  0.338705  0.832709  0.371721  1
  Ge  Ge15  1  0.324902  0.040559  0.541877  1
  Ge  Ge16  1  0.825826  0.458682  0.958470  1
  Ge  Ge17  1  0.672852  0.953579  0.046111  1
  Ge  Ge18  1  0.175863  0.545345  0.455421  1
  Ge  Ge19  1  0.174265  0.545189  0.046110  1
  Ge  Ge20  1  0.673056  0.958734  0.456066  1
  Ge  Ge21  1  0.826349  0.458293  0.542109  1
  Ge  Ge22  1  0.325901  0.041977  0.958330  1
  Ge  Ge23  1  0.806114  0.362656  0.247932  1
  Ge  Ge24  1  0.308849  0.134210  0.251488  1
  Ge  Ge25  1  0.691837  0.858657  0.749786  1
  Ge  Ge26  1  0.192800  0.640386  0.750364  1
  Ge  Ge27  1  0.040252  0.874462  0.248242  1
  Ge  Ge28  1  0.532658  0.628733  0.247659  1
  Ge  Ge29  1  0.464767  0.379420  0.750673  1
  Ge  Ge30  1  0.964489  0.121765  0.750532  1
  Mo  Mo31  1  0.336863  0.836104  0.125730  1
  Mo  Mo32  1  0.337031  0.015790  0.750550  1
  Mo  Mo33  1  0.667123  0.986451  0.249818  1
  Mo  Mo34  1  0.162984  0.512582  0.249765  1
  Mo  Mo35  1  0.836518  0.484295  0.750415  1
