# generated using pymatgen
data_TbDyTcPtF14
_symmetry_space_group_name_H-M   'P 1'
_cell_length_a   5.58019158
_cell_length_b   8.93154044
_cell_length_c   12.03639190
_cell_angle_alpha   62.40248283
_cell_angle_beta   90.11649506
_cell_angle_gamma   90.08027180
_symmetry_Int_Tables_number   1
_chemical_formula_structural   TbDyTcPtF14
_chemical_formula_sum   'Tb2 Dy2 Tc2 Pt2 F28'
_cell_volume   531.63575349
_cell_formula_units_Z   2
loop_
 _symmetry_equiv_pos_site_id
 _symmetry_equiv_pos_as_xyz
  1  'x, y, z'
loop_
 _atom_site_type_symbol
 _atom_site_label
 _atom_site_symmetry_multiplicity
 _atom_site_fract_x
 _atom_site_fract_y
 _atom_site_fract_z
 _atom_site_occupancy
  Tb  Tb0  1  0.760476  0.184896  0.236988  1
  Tb  Tb1  1  0.239524  0.815104  0.763012  1
  Dy  Dy2  1  0.259372  0.813055  0.265409  1
  Dy  Dy3  1  0.740628  0.186945  0.734591  1
  Tc  Tc4  1  0.757457  0.727003  0.043111  1
  Tc  Tc5  1  0.242543  0.272997  0.956889  1
  Pt  Pt6  1  0.258944  0.273548  0.457152  1
  Pt  Pt7  1  0.741056  0.726452  0.542848  1
  F  F8  1  0.935739  0.703935  0.415237  1
  F  F9  1  0.064261  0.296065  0.584763  1
  F  F10  1  0.446589  0.291772  0.082361  1
  F  F11  1  0.553411  0.708228  0.917639  1
  F  F12  1  0.475294  0.730563  0.138930  1
  F  F13  1  0.524706  0.269437  0.861070  1
  F  F14  1  0.967505  0.273778  0.364857  1
  F  F15  1  0.032495  0.726222  0.635143  1
  F  F16  1  0.957154  0.746043  0.171245  1
  F  F17  1  0.042846  0.253957  0.828755  1
  F  F18  1  0.448017  0.257227  0.324956  1
  F  F19  1  0.551983  0.742773  0.675044  1
  F  F20  1  0.771532  0.479855  0.140668  1
  F  F21  1  0.228468  0.520145  0.859332  1
  F  F22  1  0.269912  0.521373  0.358531  1
  F  F23  1  0.730088  0.478627  0.641469  1
  F  F24  1  0.949603  0.278452  0.046659  1
  F  F25  1  0.050397  0.721548  0.953341  1
  F  F26  1  0.442151  0.719115  0.457551  1
  F  F27  1  0.557849  0.280885  0.542449  1
  F  F28  1  0.741737  0.974507  0.450185  1
  F  F29  1  0.258263  0.025493  0.549815  1
  F  F30  1  0.241608  0.026506  0.054190  1
  F  F31  1  0.758392  0.973494  0.945810  1
  F  F32  1  0.583494  0.968378  0.233154  1
  F  F33  1  0.416506  0.031622  0.766846  1
  F  F34  1  0.085547  0.028013  0.269945  1
  F  F35  1  0.914453  0.971987  0.730055  1
