# generated using pymatgen
data_HoTmCo2(NiB2)2
_symmetry_space_group_name_H-M   'P 1'
_cell_length_a   4.88765547
_cell_length_b   4.88765433
_cell_length_c   6.97299018
_cell_angle_alpha   58.82898785
_cell_angle_beta   58.82899577
_cell_angle_gamma   61.97706496
_symmetry_Int_Tables_number   1
_chemical_formula_structural   HoTmCo2(NiB2)2
_chemical_formula_sum   'Ho1 Tm1 Co2 Ni2 B4'
_cell_volume   117.22150463
_cell_formula_units_Z   1
loop_
 _symmetry_equiv_pos_site_id
 _symmetry_equiv_pos_as_xyz
  1  'x, y, z'
loop_
 _atom_site_type_symbol
 _atom_site_label
 _atom_site_symmetry_multiplicity
 _atom_site_fract_x
 _atom_site_fract_y
 _atom_site_fract_z
 _atom_site_occupancy
  Ho  Ho0  1  0.872436  0.127564  0.250000  1
  Tm  Tm1  1  0.124504  0.875496  0.750000  1
  Co  Co2  1  0.729489  0.533296  0.796766  1
  Co  Co3  1  0.466704  0.270511  0.703234  1
  Ni  Ni4  1  0.529961  0.732699  0.294605  1
  Ni  Ni5  1  0.267301  0.470039  0.205395  1
  B  B6  1  0.163585  0.495378  0.523801  1
  B  B7  1  0.504622  0.836415  0.976199  1
  B  B8  1  0.831751  0.490352  0.487416  1
  B  B9  1  0.509648  0.168249  0.012584  1
