# generated using pymatgen
data_Dy9Ho11(Bi2Rh)4
_symmetry_space_group_name_H-M   'P 1'
_cell_length_a   7.99746614
_cell_length_b   8.97959500
_cell_length_c   12.45181322
_cell_angle_alpha   90.00000000
_cell_angle_beta   89.97853651
_cell_angle_gamma   90.00000000
_symmetry_Int_Tables_number   1
_chemical_formula_structural   Dy9Ho11(Bi2Rh)4
_chemical_formula_sum   'Dy9 Ho11 Bi8 Rh4'
_cell_volume   894.21453846
_cell_formula_units_Z   1
loop_
 _symmetry_equiv_pos_site_id
 _symmetry_equiv_pos_as_xyz
  1  'x, y, z'
loop_
 _atom_site_type_symbol
 _atom_site_label
 _atom_site_symmetry_multiplicity
 _atom_site_fract_x
 _atom_site_fract_y
 _atom_site_fract_z
 _atom_site_occupancy
  Dy  Dy0  1  0.839807  0.750000  0.793966  1
  Dy  Dy1  1  0.160198  0.250000  0.206126  1
  Dy  Dy2  1  0.339790  0.250000  0.706176  1
  Dy  Dy3  1  0.660085  0.750000  0.293715  1
  Dy  Dy4  1  0.374678  0.750000  0.690930  1
  Dy  Dy5  1  0.625271  0.250000  0.309126  1
  Dy  Dy6  1  0.874757  0.250000  0.809195  1
  Dy  Dy7  1  0.125296  0.750000  0.190836  1
  Dy  Dy8  1  0.952852  0.750000  0.501625  1
  Ho  Ho9  1  0.047385  0.250000  0.498376  1
  Ho  Ho10  1  0.452611  0.250000  0.998341  1
  Ho  Ho11  1  0.547414  0.750000  0.001654  1
  Ho  Ho12  1  0.676952  0.042311  0.566321  1
  Ho  Ho13  1  0.323038  0.958087  0.433663  1
  Ho  Ho14  1  0.177027  0.958001  0.933723  1
  Ho  Ho15  1  0.323038  0.541913  0.433663  1
  Ho  Ho16  1  0.822976  0.042118  0.066248  1
  Ho  Ho17  1  0.676952  0.457689  0.566321  1
  Ho  Ho18  1  0.822976  0.457882  0.066248  1
  Ho  Ho19  1  0.177027  0.541999  0.933723  1
  Bi  Bi20  1  0.566840  0.492004  0.826404  1
  Bi  Bi21  1  0.433144  0.507977  0.173600  1
  Bi  Bi22  1  0.067026  0.507821  0.673794  1
  Bi  Bi23  1  0.433144  0.992023  0.173600  1
  Bi  Bi24  1  0.933106  0.491829  0.326190  1
  Bi  Bi25  1  0.566840  0.007996  0.826404  1
  Bi  Bi26  1  0.933106  0.008171  0.326190  1
  Bi  Bi27  1  0.067026  0.992179  0.673794  1
  Rh  Rh28  1  0.572008  0.750000  0.509138  1
  Rh  Rh29  1  0.427631  0.250000  0.490878  1
  Rh  Rh30  1  0.072329  0.250000  0.990872  1
  Rh  Rh31  1  0.927672  0.750000  0.009161  1
