# generated using pymatgen
data_ErPa(BiRh)2
_symmetry_space_group_name_H-M   'P 1'
_cell_length_a   4.72100500
_cell_length_b   6.67406700
_cell_length_c   9.36611700
_cell_angle_alpha   90.00000000
_cell_angle_beta   90.00000000
_cell_angle_gamma   90.00000000
_symmetry_Int_Tables_number   1
_chemical_formula_structural   ErPa(BiRh)2
_chemical_formula_sum   'Er2 Pa2 Bi4 Rh4'
_cell_volume   295.11045871
_cell_formula_units_Z   2
loop_
 _symmetry_equiv_pos_site_id
 _symmetry_equiv_pos_as_xyz
  1  'x, y, z'
loop_
 _atom_site_type_symbol
 _atom_site_label
 _atom_site_symmetry_multiplicity
 _atom_site_fract_x
 _atom_site_fract_y
 _atom_site_fract_z
 _atom_site_occupancy
  Er  Er0  1  0.000000  0.011076  0.374965  1
  Er  Er1  1  0.499999  0.511077  0.625035  1
  Pa  Pa2  1  0.499999  0.487812  0.126487  1
  Pa  Pa3  1  0.000000  0.987812  0.873513  1
  Bi  Bi4  1  0.499999  0.984782  0.133003  1
  Bi  Bi5  1  0.000000  0.510137  0.384680  1
  Bi  Bi6  1  0.499999  0.010137  0.615319  1
  Bi  Bi7  1  0.000000  0.484781  0.866997  1
  Rh  Rh8  1  0.000000  0.734535  0.114482  1
  Rh  Rh9  1  0.499999  0.271656  0.356740  1
  Rh  Rh10  1  0.000000  0.771657  0.643260  1
  Rh  Rh11  1  0.499999  0.234538  0.885518  1
