# generated using pymatgen
data_Tm2Th2(Ga8Pt3)3
_symmetry_space_group_name_H-M   'P 1'
_cell_length_a   7.61638520
_cell_length_b   7.62857108
_cell_length_c   13.32015484
_cell_angle_alpha   84.54228543
_cell_angle_beta   101.11083559
_cell_angle_gamma   119.90903306
_symmetry_Int_Tables_number   1
_chemical_formula_structural   Tm2Th2(Ga8Pt3)3
_chemical_formula_sum   'Tm2 Th2 Ga24 Pt9'
_cell_volume   658.28128688
_cell_formula_units_Z   1
loop_
 _symmetry_equiv_pos_site_id
 _symmetry_equiv_pos_as_xyz
  1  'x, y, z'
loop_
 _atom_site_type_symbol
 _atom_site_label
 _atom_site_symmetry_multiplicity
 _atom_site_fract_x
 _atom_site_fract_y
 _atom_site_fract_z
 _atom_site_occupancy
  Tm  Tm0  1  0.768059  0.501651  0.807661  1
  Tm  Tm1  1  0.231941  0.498349  0.192339  1
  Th  Th2  1  0.436427  0.831924  0.808356  1
  Th  Th3  1  0.563573  0.168076  0.191644  1
  Ga  Ga4  1  0.482227  0.171354  0.937841  1
  Ga  Ga5  1  0.517773  0.828646  0.062159  1
  Ga  Ga6  1  0.020938  0.166444  0.559917  1
  Ga  Ga7  1  0.979062  0.833556  0.440083  1
  Ga  Ga8  1  0.352539  0.832661  0.556234  1
  Ga  Ga9  1  0.647461  0.167339  0.443766  1
  Ga  Ga10  1  0.613477  0.829748  0.328282  1
  Ga  Ga11  1  0.386523  0.170252  0.671718  1
  Ga  Ga12  1  0.052994  0.492071  0.672153  1
  Ga  Ga13  1  0.947006  0.507929  0.327847  1
  Ga  Ga14  1  0.732346  0.836897  0.670511  1
  Ga  Ga15  1  0.267654  0.163103  0.329489  1
  Ga  Ga16  1  0.141368  0.498707  0.941332  1
  Ga  Ga17  1  0.858632  0.501293  0.058668  1
  Ga  Ga18  1  0.815743  0.829664  0.945181  1
  Ga  Ga19  1  0.184257  0.170336  0.054819  1
  Ga  Ga20  1  0.313974  0.500129  0.442123  1
  Ga  Ga21  1  0.686026  0.499871  0.557877  1
  Ga  Ga22  1  0.098317  0.831980  0.182149  1
  Ga  Ga23  1  0.901683  0.168020  0.817851  1
  Ga  Ga24  1  0.306366  0.365651  0.816218  1
  Ga  Ga25  1  0.693634  0.634349  0.183782  1
  Ga  Ga26  1  0.096646  0.958663  0.816555  1
  Ga  Ga27  1  0.903354  0.041337  0.183445  1
  Pt  Pt28  1  0.386003  0.506829  0.639186  1
  Pt  Pt29  1  0.613997  0.493171  0.360814  1
  Pt  Pt30  1  0.173809  0.832639  0.999340  1
  Pt  Pt31  1  0.826191  0.167361  0.000660  1
  Pt  Pt32  1  0.294034  0.834748  0.360281  1
  Pt  Pt33  1  0.705966  0.165252  0.639719  1
  Pt  Pt34  1  0.048239  0.827228  0.638269  1
  Pt  Pt35  1  0.951761  0.172772  0.361731  1
  Pt  Pt36  1  0.500000  0.500000  0.000000  1
