# generated using pymatgen
data_Pr2Si3Hg
_symmetry_space_group_name_H-M   'P 1'
_cell_length_a   4.28680128
_cell_length_b   4.33392653
_cell_length_c   7.88278364
_cell_angle_alpha   74.04406307
_cell_angle_beta   74.22209297
_cell_angle_gamma   89.99999426
_symmetry_Int_Tables_number   1
_chemical_formula_structural   Pr2Si3Hg
_chemical_formula_sum   'Pr2 Si3 Hg1'
_cell_volume   135.06124965
_cell_formula_units_Z   1
loop_
 _symmetry_equiv_pos_site_id
 _symmetry_equiv_pos_as_xyz
  1  'x, y, z'
loop_
 _atom_site_type_symbol
 _atom_site_label
 _atom_site_symmetry_multiplicity
 _atom_site_fract_x
 _atom_site_fract_y
 _atom_site_fract_z
 _atom_site_occupancy
  Pr  Pr0  1  0.867877  0.617877  0.264245  1
  Pr  Pr1  1  0.135692  0.385692  0.728615  1
  Si  Si2  1  0.290251  0.040251  0.419497  1
  Si  Si3  1  0.450592  0.200592  0.098817  1
  Si  Si4  1  0.714567  0.964567  0.570865  1
  Hg  Hg5  1  0.541020  0.791020  0.917962  1
