# generated using pymatgen
data_Ho6Zn4Pd12Pt
_symmetry_space_group_name_H-M   'P 1'
_cell_length_a   8.24662220
_cell_length_b   8.24662151
_cell_length_c   8.24662200
_cell_angle_alpha   109.47122185
_cell_angle_beta   109.47122013
_cell_angle_gamma   109.47122285
_symmetry_Int_Tables_number   1
_chemical_formula_structural   Ho6Zn4Pd12Pt
_chemical_formula_sum   'Ho6 Zn4 Pd12 Pt1'
_cell_volume   431.72415001
_cell_formula_units_Z   1
loop_
 _symmetry_equiv_pos_site_id
 _symmetry_equiv_pos_as_xyz
  1  'x, y, z'
loop_
 _atom_site_type_symbol
 _atom_site_label
 _atom_site_symmetry_multiplicity
 _atom_site_fract_x
 _atom_site_fract_y
 _atom_site_fract_z
 _atom_site_occupancy
  Ho  Ho0  1  0.700892  0.700892  0.000000  1
  Ho  Ho1  1  0.299108  0.000000  0.299108  1
  Ho  Ho2  1  0.000000  0.299108  0.299108  1
  Ho  Ho3  1  0.299108  0.299108  0.000000  1
  Ho  Ho4  1  0.700892  0.000000  0.700892  1
  Ho  Ho5  1  0.000000  0.700892  0.700892  1
  Zn  Zn6  1  0.000000  0.000000  0.500000  1
  Zn  Zn7  1  0.000000  0.500000  0.000000  1
  Zn  Zn8  1  0.500000  0.000000  0.000000  1
  Zn  Zn9  1  0.500000  0.500000  0.500000  1
  Pd  Pd10  1  0.334354  0.334354  0.668707  1
  Pd  Pd11  1  0.665646  0.000000  0.334354  1
  Pd  Pd12  1  0.000000  0.665646  0.334354  1
  Pd  Pd13  1  0.665646  0.334354  0.000000  1
  Pd  Pd14  1  0.334354  0.668707  0.334354  1
  Pd  Pd15  1  0.000000  0.334354  0.665646  1
  Pd  Pd16  1  0.334354  0.665646  0.000000  1
  Pd  Pd17  1  0.334354  0.000000  0.665646  1
  Pd  Pd18  1  0.668707  0.334354  0.334354  1
  Pd  Pd19  1  0.665646  0.665646  0.331293  1
  Pd  Pd20  1  0.665646  0.331293  0.665646  1
  Pd  Pd21  1  0.331293  0.665646  0.665646  1
  Pt  Pt22  1  0.000000  0.000000  0.000000  1
