# generated using pymatgen
data_PrTh9(In3S)2
_symmetry_space_group_name_H-M   'P 1'
_cell_length_a   9.44255700
_cell_length_b   9.47425769
_cell_length_c   6.64373500
_cell_angle_alpha   90.00000000
_cell_angle_beta   90.00000000
_cell_angle_gamma   120.11112221
_symmetry_Int_Tables_number   1
_chemical_formula_structural   PrTh9(In3S)2
_chemical_formula_sum   'Pr1 Th9 In6 S2'
_cell_volume   514.15060821
_cell_formula_units_Z   1
loop_
 _symmetry_equiv_pos_site_id
 _symmetry_equiv_pos_as_xyz
  1  'x, y, z'
loop_
 _atom_site_type_symbol
 _atom_site_label
 _atom_site_symmetry_multiplicity
 _atom_site_fract_x
 _atom_site_fract_y
 _atom_site_fract_z
 _atom_site_occupancy
  Pr  Pr0  1  0.000000  0.750882  0.750000  1
  Th  Th1  1  0.250870  0.250431  0.750000  1
  Th  Th2  1  0.335154  0.665635  0.499394  1
  Th  Th3  1  0.664846  0.330479  0.499394  1
  Th  Th4  1  0.750858  0.751448  0.250000  1
  Th  Th5  1  0.749130  0.999561  0.750000  1
  Th  Th6  1  0.000000  0.252643  0.250000  1
  Th  Th7  1  0.249142  0.000589  0.250000  1
  Th  Th8  1  0.335154  0.665635  0.000606  1
  Th  Th9  1  0.664846  0.330479  0.000606  1
  In  In10  1  0.608552  0.607428  0.750000  1
  In  In11  1  0.000000  0.391739  0.750000  1
  In  In12  1  0.391448  0.998876  0.750000  1
  In  In13  1  0.607883  0.999562  0.250000  1
  In  In14  1  0.392117  0.391679  0.250000  1
  In  In15  1  0.000000  0.607879  0.250000  1
  S  S16  1  0.000000  0.002527  0.001360  1
  S  S17  1  0.000000  0.002527  0.498640  1
