# generated using pymatgen
data_Tb3Sm5(AsI6)2
_symmetry_space_group_name_H-M   'P 1'
_cell_length_a   4.30710100
_cell_length_b   14.10278143
_cell_length_c   14.88255912
_cell_angle_alpha   90.13306122
_cell_angle_beta   90.00000000
_cell_angle_gamma   90.00000000
_symmetry_Int_Tables_number   1
_chemical_formula_structural   Tb3Sm5(AsI6)2
_chemical_formula_sum   'Tb3 Sm5 As2 I12'
_cell_volume   903.99551580
_cell_formula_units_Z   1
loop_
 _symmetry_equiv_pos_site_id
 _symmetry_equiv_pos_as_xyz
  1  'x, y, z'
loop_
 _atom_site_type_symbol
 _atom_site_label
 _atom_site_symmetry_multiplicity
 _atom_site_fract_x
 _atom_site_fract_y
 _atom_site_fract_z
 _atom_site_occupancy
  Tb  Tb0  1  0.500000  0.884274  0.653349  1
  Tb  Tb1  1  0.500000  0.614888  0.152215  1
  Tb  Tb2  1  0.500000  0.385150  0.847668  1
  Sm  Sm3  1  0.500000  0.115149  0.347509  1
  Sm  Sm4  1  0.000000  0.111587  0.573987  1
  Sm  Sm5  1  0.000000  0.889076  0.425163  1
  Sm  Sm6  1  0.000000  0.610924  0.925740  1
  Sm  Sm7  1  0.000000  0.389299  0.073993  1
  As  As8  1  0.500000  0.998580  0.501868  1
  As  As9  1  0.500000  0.500182  0.999843  1
  I  I10  1  0.500000  0.244830  0.161053  1
  I  I11  1  0.500000  0.756221  0.837296  1
  I  I12  1  0.500000  0.743361  0.337122  1
  I  I13  1  0.500000  0.256387  0.663395  1
  I  I14  1  0.000000  0.261162  0.414531  1
  I  I15  1  0.000000  0.742423  0.587960  1
  I  I16  1  0.000000  0.757339  0.088226  1
  I  I17  1  0.000000  0.242546  0.911578  1
  I  I18  1  0.000000  0.999288  0.238765  1
  I  I19  1  0.000000  0.997260  0.758877  1
  I  I20  1  0.000000  0.503169  0.258783  1
  I  I21  1  0.000000  0.496906  0.741078  1
