# generated using pymatgen
data_FeMo(WCl5)4
_symmetry_space_group_name_H-M   'P 1'
_cell_length_a   8.96623726
_cell_length_b   8.96623688
_cell_length_c   12.58943794
_cell_angle_alpha   86.96274985
_cell_angle_beta   86.96275376
_cell_angle_gamma   139.20982536
_symmetry_Int_Tables_number   1
_chemical_formula_structural   FeMo(WCl5)4
_chemical_formula_sum   'Fe1 Mo1 W4 Cl20'
_cell_volume   653.51366794
_cell_formula_units_Z   1
loop_
 _symmetry_equiv_pos_site_id
 _symmetry_equiv_pos_as_xyz
  1  'x, y, z'
loop_
 _atom_site_type_symbol
 _atom_site_label
 _atom_site_symmetry_multiplicity
 _atom_site_fract_x
 _atom_site_fract_y
 _atom_site_fract_z
 _atom_site_occupancy
  Fe  Fe0  1  0.943089  0.056911  0.250000  1
  Mo  Mo1  1  0.049959  0.950041  0.750000  1
  W  W2  1  0.429589  0.570411  0.750000  1
  W  W3  1  0.570883  0.429117  0.250000  1
  W  W4  1  0.272882  0.727118  0.750000  1
  W  W5  1  0.728758  0.271242  0.250000  1
  Cl  Cl6  1  0.778392  0.478778  0.383595  1
  Cl  Cl7  1  0.521222  0.221608  0.116405  1
  Cl  Cl8  1  0.216908  0.517323  0.617626  1
  Cl  Cl9  1  0.482677  0.783092  0.882374  1
  Cl  Cl10  1  0.897903  0.789700  0.144519  1
  Cl  Cl11  1  0.210300  0.102097  0.355481  1
  Cl  Cl12  1  0.096050  0.199414  0.861310  1
  Cl  Cl13  1  0.800586  0.903950  0.638690  1
  Cl  Cl14  1  0.080050  0.592633  0.148223  1
  Cl  Cl15  1  0.407367  0.919950  0.351777  1
  Cl  Cl16  1  0.920851  0.409949  0.854371  1
  Cl  Cl17  1  0.590051  0.079149  0.645629  1
  Cl  Cl18  1  0.604595  0.678963  0.355217  1
  Cl  Cl19  1  0.321037  0.395405  0.144783  1
  Cl  Cl20  1  0.404709  0.324096  0.642884  1
  Cl  Cl21  1  0.675904  0.595291  0.857117  1
  Cl  Cl22  1  0.947837  0.267500  0.362053  1
  Cl  Cl23  1  0.732500  0.052163  0.137947  1
  Cl  Cl24  1  0.045027  0.729127  0.638995  1
  Cl  Cl25  1  0.270873  0.954973  0.861005  1
