# generated using pymatgen
data_Er3Tm5Cd2IrRu
_symmetry_space_group_name_H-M   'P 1'
_cell_length_a   9.52211528
_cell_length_b   9.52211524
_cell_length_c   9.58443800
_cell_angle_alpha   59.78325413
_cell_angle_beta   59.78325429
_cell_angle_gamma   59.65968614
_symmetry_Int_Tables_number   1
_chemical_formula_structural   Er3Tm5Cd2IrRu
_chemical_formula_sum   'Er6 Tm10 Cd4 Ir2 Ru2'
_cell_volume   610.89395678
_cell_formula_units_Z   2
loop_
 _symmetry_equiv_pos_site_id
 _symmetry_equiv_pos_as_xyz
  1  'x, y, z'
loop_
 _atom_site_type_symbol
 _atom_site_label
 _atom_site_symmetry_multiplicity
 _atom_site_fract_x
 _atom_site_fract_y
 _atom_site_fract_z
 _atom_site_occupancy
  Er  Er0  1  0.188443  0.808687  0.813669  1
  Er  Er1  1  0.808687  0.188443  0.189202  1
  Er  Er2  1  0.808687  0.188443  0.813669  1
  Er  Er3  1  0.188443  0.808687  0.189202  1
  Er  Er4  1  0.809574  0.809574  0.190426  1
  Er  Er5  1  0.188343  0.188343  0.811657  1
  Tm  Tm6  1  0.598560  0.598560  0.598531  1
  Tm  Tm7  1  0.598560  0.598560  0.204349  1
  Tm  Tm8  1  0.597069  0.210740  0.596095  1
  Tm  Tm9  1  0.210740  0.597069  0.596095  1
  Tm  Tm10  1  0.062010  0.437199  0.440970  1
  Tm  Tm11  1  0.437199  0.062010  0.059821  1
  Tm  Tm12  1  0.437199  0.062010  0.440970  1
  Tm  Tm13  1  0.062010  0.437199  0.059821  1
  Tm  Tm14  1  0.437984  0.437984  0.062016  1
  Tm  Tm15  1  0.059289  0.059289  0.440711  1
  Cd  Cd16  1  0.830663  0.830663  0.829774  1
  Cd  Cd17  1  0.830663  0.830663  0.508898  1
  Cd  Cd18  1  0.831427  0.507079  0.830746  1
  Cd  Cd19  1  0.507079  0.831427  0.830746  1
  Ir  Ir20  1  0.395348  0.827653  0.388499  1
  Ir  Ir21  1  0.827653  0.395348  0.388499  1
  Ru  Ru22  1  0.392185  0.392185  0.386646  1
  Ru  Ru23  1  0.392185  0.392185  0.828983  1
