# generated using pymatgen
data_Ba4YNp2O12
_symmetry_space_group_name_H-M   'P 1'
_cell_length_a   10.37115659
_cell_length_b   10.37115705
_cell_length_c   10.37115900
_cell_angle_alpha   33.89184489
_cell_angle_beta   33.89184109
_cell_angle_gamma   33.89184543
_symmetry_Int_Tables_number   1
_chemical_formula_structural   Ba4YNp2O12
_chemical_formula_sum   'Ba4 Y1 Np2 O12'
_cell_volume   309.13782252
_cell_formula_units_Z   1
loop_
 _symmetry_equiv_pos_site_id
 _symmetry_equiv_pos_as_xyz
  1  'x, y, z'
loop_
 _atom_site_type_symbol
 _atom_site_label
 _atom_site_symmetry_multiplicity
 _atom_site_fract_x
 _atom_site_fract_y
 _atom_site_fract_z
 _atom_site_occupancy
  Ba  Ba0  1  0.715158  0.715158  0.715158  1
  Ba  Ba1  1  0.284842  0.284842  0.284842  1
  Ba  Ba2  1  0.862105  0.862105  0.862105  1
  Ba  Ba3  1  0.137895  0.137895  0.137895  1
  Y  Y4  1  0.000000  0.000000  0.000000  1
  Np  Np5  1  0.579847  0.579847  0.579847  1
  Np  Np6  1  0.420153  0.420153  0.420153  1
  O  O7  1  0.217862  0.697249  0.217862  1
  O  O8  1  0.217862  0.217862  0.697249  1
  O  O9  1  0.697249  0.217862  0.217862  1
  O  O10  1  0.782138  0.302751  0.782138  1
  O  O11  1  0.782138  0.782138  0.302751  1
  O  O12  1  0.302751  0.782138  0.782138  1
  O  O13  1  0.379662  0.874857  0.379662  1
  O  O14  1  0.379662  0.379662  0.874857  1
  O  O15  1  0.874857  0.379662  0.379662  1
  O  O16  1  0.620338  0.125143  0.620338  1
  O  O17  1  0.620338  0.620338  0.125143  1
  O  O18  1  0.125143  0.620338  0.620338  1
