# generated using pymatgen
data_La2NdCd3IrPd2
_symmetry_space_group_name_H-M   'P 1'
_cell_length_a   7.81387015
_cell_length_b   7.82190449
_cell_length_c   4.07466900
_cell_angle_alpha   90.00000000
_cell_angle_beta   90.00000000
_cell_angle_gamma   120.75007395
_symmetry_Int_Tables_number   1
_chemical_formula_structural   La2NdCd3IrPd2
_chemical_formula_sum   'La2 Nd1 Cd3 Ir1 Pd2'
_cell_volume   214.02735747
_cell_formula_units_Z   1
loop_
 _symmetry_equiv_pos_site_id
 _symmetry_equiv_pos_as_xyz
  1  'x, y, z'
loop_
 _atom_site_type_symbol
 _atom_site_label
 _atom_site_symmetry_multiplicity
 _atom_site_fract_x
 _atom_site_fract_y
 _atom_site_fract_z
 _atom_site_occupancy
  La  La0  1  0.581684  0.984531  0.000000  1
  La  La1  1  0.015709  0.597316  0.000000  1
  Nd  Nd2  1  0.400380  0.414131  0.000000  1
  Cd  Cd3  1  0.253555  0.006704  0.500000  1
  Cd  Cd4  1  0.998470  0.248774  0.500000  1
  Cd  Cd5  1  0.749046  0.744746  0.500000  1
  Ir  Ir6  1  0.333190  0.669199  0.500000  1
  Pd  Pd7  1  0.667348  0.333965  0.500000  1
  Pd  Pd8  1  0.000619  0.000633  0.000000  1
