# generated using pymatgen
data_Ba4SbO7
_symmetry_space_group_name_H-M   'P 1'
_cell_length_a   6.18457700
_cell_length_b   7.41487200
_cell_length_c   9.65418400
_cell_angle_alpha   103.07499110
_cell_angle_beta   90.00000000
_cell_angle_gamma   90.00000000
_symmetry_Int_Tables_number   1
_chemical_formula_structural   Ba4SbO7
_chemical_formula_sum   'Ba8 Sb2 O14'
_cell_volume   431.24248659
_cell_formula_units_Z   2
loop_
 _symmetry_equiv_pos_site_id
 _symmetry_equiv_pos_as_xyz
  1  'x, y, z'
loop_
 _atom_site_type_symbol
 _atom_site_label
 _atom_site_symmetry_multiplicity
 _atom_site_fract_x
 _atom_site_fract_y
 _atom_site_fract_z
 _atom_site_occupancy
  Ba  Ba0  1  0.174394  0.625961  0.080508  1
  Ba  Ba1  1  0.674394  0.374039  0.919492  1
  Ba  Ba2  1  0.655881  0.008790  0.132966  1
  Ba  Ba3  1  0.155881  0.991210  0.867034  1
  Ba  Ba4  1  0.175062  0.904025  0.438174  1
  Ba  Ba5  1  0.675062  0.095975  0.561826  1
  Ba  Ba6  1  0.158132  0.486336  0.620909  1
  Ba  Ba7  1  0.658132  0.513664  0.379091  1
  Sb  Sb8  1  0.159251  0.261171  0.245015  1
  Sb  Sb9  1  0.659251  0.738829  0.754985  1
  O  O10  1  0.400919  0.313322  0.115799  1
  O  O11  1  0.900919  0.686678  0.884201  1
  O  O12  1  0.942674  0.304477  0.098773  1
  O  O13  1  0.442674  0.695523  0.901227  1
  O  O14  1  0.916544  0.207411  0.370823  1
  O  O15  1  0.416544  0.792589  0.629177  1
  O  O16  1  0.379990  0.223532  0.390445  1
  O  O17  1  0.879990  0.776468  0.609555  1
  O  O18  1  0.140155  0.534212  0.341683  1
  O  O19  1  0.640155  0.465788  0.658317  1
  O  O20  1  0.162773  0.986725  0.154190  1
  O  O21  1  0.662773  0.013275  0.845810  1
  O  O22  1  0.088497  0.184418  0.688042  1
  O  O23  1  0.588497  0.815582  0.311958  1
