# generated using pymatgen
data_TmPa4Ga15
_symmetry_space_group_name_H-M   'P 1'
_cell_length_a   12.49018612
_cell_length_b   12.49018597
_cell_length_c   12.49018413
_cell_angle_alpha   28.46459212
_cell_angle_beta   28.46459456
_cell_angle_gamma   28.46459285
_symmetry_Int_Tables_number   1
_chemical_formula_structural   TmPa4Ga15
_chemical_formula_sum   'Tm1 Pa4 Ga15'
_cell_volume   391.20577614
_cell_formula_units_Z   1
loop_
 _symmetry_equiv_pos_site_id
 _symmetry_equiv_pos_as_xyz
  1  'x, y, z'
loop_
 _atom_site_type_symbol
 _atom_site_label
 _atom_site_symmetry_multiplicity
 _atom_site_fract_x
 _atom_site_fract_y
 _atom_site_fract_z
 _atom_site_occupancy
  Tm  Tm0  1  0.599563  0.599563  0.599563  1
  Pa  Pa1  1  0.130811  0.130811  0.130811  1
  Pa  Pa2  1  0.870077  0.870077  0.870077  1
  Pa  Pa3  1  0.400378  0.400378  0.400378  1
  Pa  Pa4  1  0.998978  0.998978  0.998978  1
  Ga  Ga5  1  0.432305  0.882598  0.882598  1
  Ga  Ga6  1  0.882598  0.882598  0.432305  1
  Ga  Ga7  1  0.882598  0.432305  0.882598  1
  Ga  Ga8  1  0.118498  0.563725  0.118498  1
  Ga  Ga9  1  0.118498  0.118498  0.563725  1
  Ga  Ga10  1  0.563725  0.118498  0.118498  1
  Ga  Ga11  1  0.129764  0.636419  0.636419  1
  Ga  Ga12  1  0.636419  0.636419  0.129764  1
  Ga  Ga13  1  0.636419  0.129764  0.636419  1
  Ga  Ga14  1  0.364647  0.871944  0.364647  1
  Ga  Ga15  1  0.364647  0.364647  0.871944  1
  Ga  Ga16  1  0.871944  0.364647  0.364647  1
  Ga  Ga17  1  0.499848  0.499848  0.998439  1
  Ga  Ga18  1  0.499848  0.998439  0.499848  1
  Ga  Ga19  1  0.998439  0.499848  0.499848  1
