# generated using pymatgen
data_Be4CoCu2Ru
_symmetry_space_group_name_H-M   'P 1'
_cell_length_a   5.26740700
_cell_length_b   5.26738400
_cell_length_c   5.61545400
_cell_angle_alpha   89.99960014
_cell_angle_beta   90.00000000
_cell_angle_gamma   90.00000000
_symmetry_Int_Tables_number   1
_chemical_formula_structural   Be4CoCu2Ru
_chemical_formula_sum   'Be8 Co2 Cu4 Ru2'
_cell_volume   155.80332824
_cell_formula_units_Z   2
loop_
 _symmetry_equiv_pos_site_id
 _symmetry_equiv_pos_as_xyz
  1  'x, y, z'
loop_
 _atom_site_type_symbol
 _atom_site_label
 _atom_site_symmetry_multiplicity
 _atom_site_fract_x
 _atom_site_fract_y
 _atom_site_fract_z
 _atom_site_occupancy
  Be  Be0  1  0.499909  0.499971  0.249649  1
  Be  Be1  1  0.499910  0.000019  0.249646  1
  Be  Be2  1  0.999907  0.500027  0.250351  1
  Be  Be3  1  0.999910  0.999981  0.250354  1
  Be  Be4  1  0.000061  0.500026  0.749714  1
  Be  Be5  1  0.000063  0.999963  0.749716  1
  Be  Be6  1  0.500061  0.499972  0.750287  1
  Be  Be7  1  0.500063  0.000037  0.750285  1
  Co  Co8  1  0.249745  0.250001  0.000045  1
  Co  Co9  1  0.749746  0.750001  0.499953  1
  Cu  Cu10  1  0.249962  0.750001  0.000141  1
  Cu  Cu11  1  0.749963  0.250001  0.499859  1
  Cu  Cu12  1  0.250173  0.750001  0.500135  1
  Cu  Cu13  1  0.750174  0.250001  0.999865  1
  Ru  Ru14  1  0.250174  0.250000  0.499930  1
  Ru  Ru15  1  0.750176  0.750002  0.000070  1
