# generated using pymatgen
data_Ta3Ti4Re8Mo
_symmetry_space_group_name_H-M   'P 1'
_cell_length_a   6.32789400
_cell_length_b   4.46333000
_cell_length_c   8.92487700
_cell_angle_alpha   90.00000000
_cell_angle_beta   89.99918547
_cell_angle_gamma   90.00000000
_symmetry_Int_Tables_number   1
_chemical_formula_structural   Ta3Ti4Re8Mo
_chemical_formula_sum   'Ta3 Ti4 Re8 Mo1'
_cell_volume   252.06957725
_cell_formula_units_Z   1
loop_
 _symmetry_equiv_pos_site_id
 _symmetry_equiv_pos_as_xyz
  1  'x, y, z'
loop_
 _atom_site_type_symbol
 _atom_site_label
 _atom_site_symmetry_multiplicity
 _atom_site_fract_x
 _atom_site_fract_y
 _atom_site_fract_z
 _atom_site_occupancy
  Ta  Ta0  1  0.749989  0.250000  0.124020  1
  Ta  Ta1  1  0.249997  0.749999  0.375017  1
  Ta  Ta2  1  0.750005  0.250000  0.625949  1
  Ti  Ti3  1  0.249986  0.250000  0.124754  1
  Ti  Ti4  1  0.749990  0.749999  0.374998  1
  Ti  Ti5  1  0.250011  0.250000  0.625238  1
  Ti  Ti6  1  0.750011  0.749999  0.875007  1
  Re  Re7  1  0.498590  0.749999  0.121941  1
  Re  Re8  1  0.001400  0.749999  0.121949  1
  Re  Re9  1  0.499988  0.250000  0.374985  1
  Re  Re10  1  0.000017  0.250000  0.374972  1
  Re  Re11  1  0.001382  0.749999  0.628078  1
  Re  Re12  1  0.498624  0.749999  0.628078  1
  Re  Re13  1  0.003483  0.250000  0.874990  1
  Re  Re14  1  0.496521  0.250000  0.875000  1
  Mo  Mo15  1  0.250005  0.749999  0.875025  1
