# generated using pymatgen
data_Cs6ScInTe6
_symmetry_space_group_name_H-M   'P 1'
_cell_length_a   15.14612600
_cell_length_b   9.46261546
_cell_length_c   12.32606881
_cell_angle_alpha   52.68784958
_cell_angle_beta   90.00000000
_cell_angle_gamma   90.00000000
_symmetry_Int_Tables_number   1
_chemical_formula_structural   Cs6ScInTe6
_chemical_formula_sum   'Cs12 Sc2 In2 Te12'
_cell_volume   1405.05354482
_cell_formula_units_Z   2
loop_
 _symmetry_equiv_pos_site_id
 _symmetry_equiv_pos_as_xyz
  1  'x, y, z'
loop_
 _atom_site_type_symbol
 _atom_site_label
 _atom_site_symmetry_multiplicity
 _atom_site_fract_x
 _atom_site_fract_y
 _atom_site_fract_z
 _atom_site_occupancy
  Cs  Cs0  1  0.580726  0.651214  0.106803  1
  Cs  Cs1  1  0.080726  0.348786  0.393197  1
  Cs  Cs2  1  0.418171  0.351343  0.891494  1
  Cs  Cs3  1  0.918171  0.648657  0.608506  1
  Cs  Cs4  1  0.310071  0.872101  0.917082  1
  Cs  Cs5  1  0.810071  0.127899  0.582918  1
  Cs  Cs6  1  0.687853  0.124828  0.086039  1
  Cs  Cs7  1  0.187853  0.875172  0.413961  1
  Cs  Cs8  1  0.873967  0.619604  0.019870  1
  Cs  Cs9  1  0.373967  0.380396  0.480130  1
  Cs  Cs10  1  0.128026  0.378829  0.981888  1
  Cs  Cs11  1  0.628026  0.621171  0.518112  1
  Sc  Sc12  1  0.441891  0.063038  0.344352  1
  Sc  Sc13  1  0.941891  0.936962  0.155648  1
  In  In14  1  0.558723  0.933336  0.660047  1
  In  In15  1  0.058723  0.066664  0.839953  1
  Te  Te16  1  0.113558  0.848931  0.123559  1
  Te  Te17  1  0.613558  0.151069  0.376441  1
  Te  Te18  1  0.884780  0.149783  0.879065  1
  Te  Te19  1  0.384780  0.850217  0.620935  1
  Te  Te20  1  0.830000  0.646342  0.311514  1
  Te  Te21  1  0.330000  0.353658  0.188486  1
  Te  Te22  1  0.172723  0.360594  0.688249  1
  Te  Te23  1  0.672723  0.639406  0.811751  1
  Te  Te24  1  0.050676  0.874729  0.735032  1
  Te  Te25  1  0.550676  0.125271  0.764968  1
  Te  Te26  1  0.948834  0.121374  0.263562  1
  Te  Te27  1  0.448834  0.878626  0.236438  1
