# generated using pymatgen
data_La6LuHfBi10
_symmetry_space_group_name_H-M   'P 1'
_cell_length_a   9.86247600
_cell_length_b   9.86247621
_cell_length_c   6.68979800
_cell_angle_alpha   90.00000000
_cell_angle_beta   90.00000000
_cell_angle_gamma   119.99999930
_symmetry_Int_Tables_number   1
_chemical_formula_structural   La6LuHfBi10
_chemical_formula_sum   'La6 Lu1 Hf1 Bi10'
_cell_volume   563.52808732
_cell_formula_units_Z   1
loop_
 _symmetry_equiv_pos_site_id
 _symmetry_equiv_pos_as_xyz
  1  'x, y, z'
loop_
 _atom_site_type_symbol
 _atom_site_label
 _atom_site_symmetry_multiplicity
 _atom_site_fract_x
 _atom_site_fract_y
 _atom_site_fract_z
 _atom_site_occupancy
  La  La0  1  0.000000  0.618983  0.249527  1
  La  La1  1  0.381017  0.381017  0.249527  1
  La  La2  1  0.381017  0.000000  0.750473  1
  La  La3  1  0.618983  0.618983  0.750473  1
  La  La4  1  0.618983  0.000000  0.249527  1
  La  La5  1  0.000000  0.381017  0.750473  1
  Lu  Lu6  1  0.000000  0.000000  0.500000  1
  Hf  Hf7  1  0.000000  0.000000  0.000000  1
  Bi  Bi8  1  0.000000  0.262003  0.244364  1
  Bi  Bi9  1  0.333333  0.666667  0.500000  1
  Bi  Bi10  1  0.666667  0.333333  0.000000  1
  Bi  Bi11  1  0.333333  0.666667  0.000000  1
  Bi  Bi12  1  0.262003  0.262003  0.755636  1
  Bi  Bi13  1  0.737997  0.000000  0.755636  1
  Bi  Bi14  1  0.000000  0.737997  0.755636  1
  Bi  Bi15  1  0.737997  0.737997  0.244364  1
  Bi  Bi16  1  0.262003  0.000000  0.244364  1
  Bi  Bi17  1  0.666667  0.333333  0.500000  1
