# generated using pymatgen
data_Tb8Tm11UPb16
_symmetry_space_group_name_H-M   'P 1'
_cell_length_a   8.16901900
_cell_length_b   8.24565928
_cell_length_c   15.54351700
_cell_angle_alpha   90.00289062
_cell_angle_beta   89.99967035
_cell_angle_gamma   90.01461987
_symmetry_Int_Tables_number   1
_chemical_formula_structural   Tb8Tm11UPb16
_chemical_formula_sum   'Tb8 Tm11 U1 Pb16'
_cell_volume   1046.99490731
_cell_formula_units_Z   1
loop_
 _symmetry_equiv_pos_site_id
 _symmetry_equiv_pos_as_xyz
  1  'x, y, z'
loop_
 _atom_site_type_symbol
 _atom_site_label
 _atom_site_symmetry_multiplicity
 _atom_site_fract_x
 _atom_site_fract_y
 _atom_site_fract_z
 _atom_site_occupancy
  Tb  Tb0  1  0.535524  0.324009  0.900053  1
  Tb  Tb1  1  0.034964  0.177214  0.599203  1
  Tb  Tb2  1  0.465390  0.677185  0.400542  1
  Tb  Tb3  1  0.965139  0.821878  0.098166  1
  Tb  Tb4  1  0.465347  0.677280  0.099677  1
  Tb  Tb5  1  0.965207  0.822897  0.400463  1
  Tb  Tb6  1  0.534585  0.322558  0.599153  1
  Tb  Tb7  1  0.035216  0.177201  0.900196  1
  Tm  Tm8  1  0.375737  0.841553  0.879429  1
  Tm  Tm9  1  0.876384  0.658564  0.621192  1
  Tm  Tm10  1  0.623946  0.158393  0.379346  1
  Tm  Tm11  1  0.124036  0.341277  0.120804  1
  Tm  Tm12  1  0.623448  0.158759  0.121125  1
  Tm  Tm13  1  0.123770  0.341511  0.379302  1
  Tm  Tm14  1  0.376251  0.841895  0.620331  1
  Tm  Tm15  1  0.204983  0.505638  0.750584  1
  Tm  Tm16  1  0.708519  0.993349  0.750073  1
  Tm  Tm17  1  0.791606  0.495225  0.250528  1
  Tm  Tm18  1  0.291727  0.004754  0.250120  1
  U  U19  1  0.878578  0.658044  0.880780  1
  Pb  Pb20  1  0.283370  0.034269  0.042482  1
  Pb  Pb21  1  0.783088  0.465708  0.457293  1
  Pb  Pb22  1  0.716877  0.965681  0.542827  1
  Pb  Pb23  1  0.212033  0.535894  0.955874  1
  Pb  Pb24  1  0.719007  0.960917  0.955775  1
  Pb  Pb25  1  0.216516  0.534309  0.542786  1
  Pb  Pb26  1  0.283268  0.034494  0.457177  1
  Pb  Pb27  1  0.784893  0.469263  0.040036  1
  Pb  Pb28  1  0.574412  0.627385  0.752006  1
  Pb  Pb29  1  0.067911  0.869725  0.751845  1
  Pb  Pb30  1  0.428703  0.373584  0.249703  1
  Pb  Pb31  1  0.928968  0.126770  0.249816  1
  Pb  Pb32  1  0.345449  0.151850  0.750129  1
  Pb  Pb33  1  0.845232  0.351083  0.751492  1
  Pb  Pb34  1  0.654943  0.848332  0.249793  1
  Pb  Pb35  1  0.154972  0.651552  0.249900  1
