# generated using pymatgen
data_La16Hg4Ir3Ru
_symmetry_space_group_name_H-M   'P 1'
_cell_length_a   10.08994207
_cell_length_b   10.08496360
_cell_length_c   10.08496300
_cell_angle_alpha   59.99999870
_cell_angle_beta   60.01631918
_cell_angle_gamma   60.01632281
_symmetry_Int_Tables_number   1
_chemical_formula_structural   La16Hg4Ir3Ru
_chemical_formula_sum   'La16 Hg4 Ir3 Ru1'
_cell_volume   725.82079682
_cell_formula_units_Z   1
loop_
 _symmetry_equiv_pos_site_id
 _symmetry_equiv_pos_as_xyz
  1  'x, y, z'
loop_
 _atom_site_type_symbol
 _atom_site_label
 _atom_site_symmetry_multiplicity
 _atom_site_fract_x
 _atom_site_fract_y
 _atom_site_fract_z
 _atom_site_occupancy
  La  La0  1  0.900745  0.903017  0.903017  1
  La  La1  1  0.442506  0.436697  0.060398  1
  La  La2  1  0.060062  0.058756  0.440591  1
  La  La3  1  0.442506  0.060398  0.060398  1
  La  La4  1  0.309357  0.690320  0.310004  1
  La  La5  1  0.688849  0.690931  0.310110  1
  La  La6  1  0.688849  0.310110  0.310110  1
  La  La7  1  0.295325  0.901559  0.901559  1
  La  La8  1  0.900745  0.293221  0.903017  1
  La  La9  1  0.309357  0.690320  0.690320  1
  La  La10  1  0.900745  0.903017  0.293221  1
  La  La11  1  0.060062  0.440591  0.058756  1
  La  La12  1  0.309357  0.310004  0.690320  1
  La  La13  1  0.060062  0.440591  0.440591  1
  La  La14  1  0.442506  0.060398  0.436697  1
  La  La15  1  0.688849  0.310110  0.690931  1
  Hg  Hg16  1  0.667775  0.666815  0.998595  1
  Hg  Hg17  1  0.998771  0.667076  0.667076  1
  Hg  Hg18  1  0.667775  0.998595  0.666815  1
  Hg  Hg19  1  0.667775  0.666815  0.666815  1
  Ir  Ir20  1  0.110544  0.108354  0.672746  1
  Ir  Ir21  1  0.110544  0.108354  0.108354  1
  Ir  Ir22  1  0.110544  0.672746  0.108354  1
  Ru  Ru23  1  0.666386  0.111204  0.111204  1
