# generated using pymatgen
data_Sr4InPb3Au4
_symmetry_space_group_name_H-M   'P 1'
_cell_length_a   4.92953100
_cell_length_b   7.94659968
_cell_length_c   8.69450044
_cell_angle_alpha   89.76819051
_cell_angle_beta   90.00000000
_cell_angle_gamma   90.00000000
_symmetry_Int_Tables_number   1
_chemical_formula_structural   Sr4InPb3Au4
_chemical_formula_sum   'Sr4 In1 Pb3 Au4'
_cell_volume   340.58696035
_cell_formula_units_Z   1
loop_
 _symmetry_equiv_pos_site_id
 _symmetry_equiv_pos_as_xyz
  1  'x, y, z'
loop_
 _atom_site_type_symbol
 _atom_site_label
 _atom_site_symmetry_multiplicity
 _atom_site_fract_x
 _atom_site_fract_y
 _atom_site_fract_z
 _atom_site_occupancy
  Sr  Sr0  1  0.750000  0.989704  0.702791  1
  Sr  Sr1  1  0.250000  0.007214  0.294353  1
  Sr  Sr2  1  0.750000  0.491171  0.801499  1
  Sr  Sr3  1  0.250000  0.509435  0.200957  1
  In  In4  1  0.750000  0.813586  0.076013  1
  Pb  Pb5  1  0.750000  0.322635  0.420204  1
  Pb  Pb6  1  0.250000  0.179586  0.919082  1
  Pb  Pb7  1  0.250000  0.685057  0.580413  1
  Au  Au8  1  0.250000  0.786963  0.919929  1
  Au  Au9  1  0.250000  0.287104  0.592879  1
  Au  Au10  1  0.750000  0.719889  0.397201  1
  Au  Au11  1  0.750000  0.207658  0.094680  1
