# generated using pymatgen
data_Er3Si2(PPd5)4
_symmetry_space_group_name_H-M   'P 1'
_cell_length_a   8.68854451
_cell_length_b   8.68336441
_cell_length_c   8.68854413
_cell_angle_alpha   60.01970758
_cell_angle_beta   59.92923012
_cell_angle_gamma   60.01971295
_symmetry_Int_Tables_number   1
_chemical_formula_structural   Er3Si2(PPd5)4
_chemical_formula_sum   'Er3 Si2 P4 Pd20'
_cell_volume   463.40790278
_cell_formula_units_Z   1
loop_
 _symmetry_equiv_pos_site_id
 _symmetry_equiv_pos_as_xyz
  1  'x, y, z'
loop_
 _atom_site_type_symbol
 _atom_site_label
 _atom_site_symmetry_multiplicity
 _atom_site_fract_x
 _atom_site_fract_y
 _atom_site_fract_z
 _atom_site_occupancy
  Er  Er0  1  0.998954  0.000000  0.001046  1
  Er  Er1  1  0.750995  0.749908  0.749190  1
  Er  Er2  1  0.250810  0.250092  0.249005  1
  Si  Si3  1  0.734241  0.267255  0.265759  1
  Si  Si4  1  0.734241  0.732745  0.265759  1
  P  P5  1  0.737112  0.264683  0.733522  1
  P  P6  1  0.266478  0.735317  0.262888  1
  P  P7  1  0.265387  0.736282  0.734613  1
  P  P8  1  0.265387  0.263718  0.734613  1
  Pd  Pd9  1  0.343863  0.001420  0.000187  1
  Pd  Pd10  1  0.000094  0.655860  0.345570  1
  Pd  Pd11  1  0.345969  0.000000  0.654031  1
  Pd  Pd12  1  0.001544  0.654158  0.998456  1
  Pd  Pd13  1  0.654430  0.344140  0.999906  1
  Pd  Pd14  1  0.614805  0.617410  0.150374  1
  Pd  Pd15  1  0.382386  0.848555  0.384601  1
  Pd  Pd16  1  0.152532  0.615855  0.615756  1
  Pd  Pd17  1  0.654161  0.000000  0.345839  1
  Pd  Pd18  1  0.999813  0.345470  0.656137  1
  Pd  Pd19  1  0.654430  0.001523  0.999906  1
  Pd  Pd20  1  0.000094  0.998477  0.345570  1
  Pd  Pd21  1  0.615399  0.151445  0.617614  1
  Pd  Pd22  1  0.343863  0.654530  0.000187  1
  Pd  Pd23  1  0.382386  0.384459  0.384601  1
  Pd  Pd24  1  0.615399  0.615541  0.617614  1
  Pd  Pd25  1  0.384244  0.384145  0.847468  1
  Pd  Pd26  1  0.999813  0.998580  0.656137  1
  Pd  Pd27  1  0.849626  0.382590  0.385195  1
  Pd  Pd28  1  0.001544  0.345842  0.998456  1
