# generated using pymatgen
data_Zr13Sc5(CoRe4)2
_symmetry_space_group_name_H-M   'P 1'
_cell_length_a   8.73269630
_cell_length_b   8.71451529
_cell_length_c   8.43024400
_cell_angle_alpha   90.00000000
_cell_angle_beta   90.00000000
_cell_angle_gamma   119.93114983
_symmetry_Int_Tables_number   1
_chemical_formula_structural   Zr13Sc5(CoRe4)2
_chemical_formula_sum   'Zr13 Sc5 Co2 Re8'
_cell_volume   555.98523301
_cell_formula_units_Z   1
loop_
 _symmetry_equiv_pos_site_id
 _symmetry_equiv_pos_as_xyz
  1  'x, y, z'
loop_
 _atom_site_type_symbol
 _atom_site_label
 _atom_site_symmetry_multiplicity
 _atom_site_fract_x
 _atom_site_fract_y
 _atom_site_fract_z
 _atom_site_occupancy
  Zr  Zr0  1  0.199611  0.800820  0.442067  1
  Zr  Zr1  1  0.199611  0.398791  0.442067  1
  Zr  Zr2  1  0.601366  0.800683  0.442136  1
  Zr  Zr3  1  0.799988  0.198438  0.557583  1
  Zr  Zr4  1  0.799988  0.601550  0.557583  1
  Zr  Zr5  1  0.398664  0.199332  0.558326  1
  Zr  Zr6  1  0.799988  0.198438  0.942417  1
  Zr  Zr7  1  0.799988  0.601550  0.942417  1
  Zr  Zr8  1  0.398664  0.199332  0.941674  1
  Zr  Zr9  1  0.199611  0.800820  0.057933  1
  Zr  Zr10  1  0.199611  0.398791  0.057933  1
  Zr  Zr11  1  0.601366  0.800683  0.057864  1
  Zr  Zr12  1  0.084196  0.542098  0.750000  1
  Sc  Sc13  1  0.541886  0.458238  0.250000  1
  Sc  Sc14  1  0.541886  0.083649  0.250000  1
  Sc  Sc15  1  0.916540  0.458271  0.250000  1
  Sc  Sc16  1  0.458068  0.541653  0.750000  1
  Sc  Sc17  1  0.458068  0.916414  0.750000  1
  Co  Co18  1  0.333256  0.666628  0.250000  1
  Co  Co19  1  0.668243  0.334121  0.750000  1
  Re  Re20  1  0.891525  0.108351  0.250000  1
  Re  Re21  1  0.891525  0.783174  0.250000  1
  Re  Re22  1  0.216091  0.108046  0.250000  1
  Re  Re23  1  0.107950  0.891761  0.750000  1
  Re  Re24  1  0.107950  0.216190  0.750000  1
  Re  Re25  1  0.784425  0.892212  0.750000  1
  Re  Re26  1  0.999964  0.999982  0.498596  1
  Re  Re27  1  0.999964  0.999982  0.001404  1
