# generated using pymatgen
data_Nd2PaIr3
_symmetry_space_group_name_H-M   'P 1'
_cell_length_a   5.46553578
_cell_length_b   5.89206167
_cell_length_c   5.89206000
_cell_angle_alpha   59.99999815
_cell_angle_beta   57.38307522
_cell_angle_gamma   57.38307269
_symmetry_Int_Tables_number   1
_chemical_formula_structural   Nd2PaIr3
_chemical_formula_sum   'Nd2 Pa1 Ir3'
_cell_volume   128.61452291
_cell_formula_units_Z   1
loop_
 _symmetry_equiv_pos_site_id
 _symmetry_equiv_pos_as_xyz
  1  'x, y, z'
loop_
 _atom_site_type_symbol
 _atom_site_label
 _atom_site_symmetry_multiplicity
 _atom_site_fract_x
 _atom_site_fract_y
 _atom_site_fract_z
 _atom_site_occupancy
  Nd  Nd0  1  0.758372  0.747209  0.747209  1
  Nd  Nd1  1  0.491628  0.502791  0.502791  1
  Pa  Pa2  1  0.625000  0.125000  0.125000  1
  Ir  Ir3  1  0.125000  0.625000  0.125000  1
  Ir  Ir4  1  0.125000  0.125000  0.625000  1
  Ir  Ir5  1  0.125000  0.125000  0.125000  1
