# generated using pymatgen
data_Dy3Y9InCo4Os
_symmetry_space_group_name_H-M   'P 1'
_cell_length_a   8.33513842
_cell_length_b   8.33889706
_cell_length_c   8.33513707
_cell_angle_alpha   111.43691770
_cell_angle_beta   110.27007571
_cell_angle_gamma   106.72527652
_symmetry_Int_Tables_number   1
_chemical_formula_structural   Dy3Y9InCo4Os
_chemical_formula_sum   'Dy3 Y9 In1 Co4 Os1'
_cell_volume   445.26640207
_cell_formula_units_Z   1
loop_
 _symmetry_equiv_pos_site_id
 _symmetry_equiv_pos_as_xyz
  1  'x, y, z'
loop_
 _atom_site_type_symbol
 _atom_site_label
 _atom_site_symmetry_multiplicity
 _atom_site_fract_x
 _atom_site_fract_y
 _atom_site_fract_z
 _atom_site_occupancy
  Dy  Dy0  1  0.684976  0.377717  0.692741  1
  Dy  Dy1  1  0.314993  0.007257  0.692263  1
  Dy  Dy2  1  0.684965  0.992406  0.307442  1
  Y  Y3  1  0.411094  0.217747  0.192608  1
  Y  Y4  1  0.589398  0.782138  0.807411  1
  Y  Y5  1  0.025139  0.217747  0.806652  1
  Y  Y6  1  0.974727  0.782138  0.192741  1
  Y  Y7  1  0.181887  0.282815  0.464785  1
  Y  Y8  1  0.818311  0.717070  0.535315  1
  Y  Y9  1  0.181755  0.717070  0.898761  1
  Y  Y10  1  0.818029  0.282815  0.100926  1
  Y  Y11  1  0.314833  0.620765  0.305931  1
  In  In12  1  0.499913  0.500045  0.000131  1
  Co  Co13  1  0.380294  0.001208  0.380458  1
  Co  Co14  1  0.620751  0.001208  0.620916  1
  Co  Co15  1  0.110428  0.611116  0.500687  1
  Co  Co16  1  0.888339  0.388211  0.499872  1
  Os  Os17  1  0.000166  0.000527  0.000361  1
