# generated using pymatgen
data_Hf8NiBi4Ir
_symmetry_space_group_name_H-M   'P 1'
_cell_length_a   8.31810490
_cell_length_b   8.31807666
_cell_length_c   8.31810600
_cell_angle_alpha   95.67892679
_cell_angle_beta   95.67905973
_cell_angle_gamma   143.33044301
_symmetry_Int_Tables_number   1
_chemical_formula_structural   Hf8NiBi4Ir
_chemical_formula_sum   'Hf8 Ni1 Bi4 Ir1'
_cell_volume   326.25996366
_cell_formula_units_Z   1
loop_
 _symmetry_equiv_pos_site_id
 _symmetry_equiv_pos_as_xyz
  1  'x, y, z'
loop_
 _atom_site_type_symbol
 _atom_site_label
 _atom_site_symmetry_multiplicity
 _atom_site_fract_x
 _atom_site_fract_y
 _atom_site_fract_z
 _atom_site_occupancy
  Hf  Hf0  1  0.702233  0.586487  0.282674  1
  Hf  Hf1  1  0.586485  0.303814  0.884256  1
  Hf  Hf2  1  0.080443  0.196189  0.282676  1
  Hf  Hf3  1  0.913514  0.797770  0.717328  1
  Hf  Hf4  1  0.196186  0.913514  0.115747  1
  Hf  Hf5  1  0.797767  0.080440  0.884255  1
  Hf  Hf6  1  0.303813  0.419558  0.717326  1
  Hf  Hf7  1  0.419561  0.702235  0.115748  1
  Ni  Ni8  1  0.750000  0.749992  0.999991  1
  Bi  Bi9  1  0.139023  0.639024  0.778047  1
  Bi  Bi10  1  0.360974  0.139025  0.499999  1
  Bi  Bi11  1  0.639024  0.860973  0.499999  1
  Bi  Bi12  1  0.860978  0.360978  0.221953  1
  Ir  Ir13  1  0.250000  0.250001  0.000000  1
