# generated using pymatgen
data_Rb8Ho6IrBr20
_symmetry_space_group_name_H-M   'P 1'
_cell_length_a   12.37960638
_cell_length_b   12.37973455
_cell_length_c   12.37959300
_cell_angle_alpha   60.00043693
_cell_angle_beta   60.00021186
_cell_angle_gamma   59.99999676
_symmetry_Int_Tables_number   1
_chemical_formula_structural   Rb8Ho6IrBr20
_chemical_formula_sum   'Rb8 Ho6 Ir1 Br20'
_cell_volume   1341.56480469
_cell_formula_units_Z   1
loop_
 _symmetry_equiv_pos_site_id
 _symmetry_equiv_pos_as_xyz
  1  'x, y, z'
loop_
 _atom_site_type_symbol
 _atom_site_label
 _atom_site_symmetry_multiplicity
 _atom_site_fract_x
 _atom_site_fract_y
 _atom_site_fract_z
 _atom_site_occupancy
  Rb  Rb0  1  0.358785  0.358806  0.358800  1
  Rb  Rb1  1  0.641209  0.641205  0.641197  1
  Rb  Rb2  1  0.358802  0.358792  0.923610  1
  Rb  Rb3  1  0.358786  0.923630  0.358794  1
  Rb  Rb4  1  0.641203  0.641197  0.076395  1
  Rb  Rb5  1  0.641221  0.076366  0.641194  1
  Rb  Rb6  1  0.923610  0.358797  0.358796  1
  Rb  Rb7  1  0.076385  0.641210  0.641205  1
  Ho  Ho8  1  0.843747  0.156254  0.156254  1
  Ho  Ho9  1  0.156253  0.843746  0.843746  1
  Ho  Ho10  1  0.156252  0.843750  0.156252  1
  Ho  Ho11  1  0.843749  0.156250  0.843747  1
  Ho  Ho12  1  0.156251  0.156248  0.843751  1
  Ho  Ho13  1  0.843750  0.843753  0.156249  1
  Ir  Ir14  1  0.000000  0.000000  0.000000  1
  Br  Br15  1  0.330776  0.000000  0.000001  1
  Br  Br16  1  0.669223  0.000000  0.999999  1
  Br  Br17  1  0.000000  0.330775  0.669224  1
  Br  Br18  1  0.000000  0.669224  0.330777  1
  Br  Br19  1  0.000001  0.330776  0.000001  1
  Br  Br20  1  0.669222  0.000001  0.330779  1
  Br  Br21  1  0.999999  0.669224  0.000000  1
  Br  Br22  1  0.330778  0.999999  0.669223  1
  Br  Br23  1  0.999999  0.000000  0.330779  1
  Br  Br24  1  0.000000  0.999999  0.669222  1
  Br  Br25  1  0.669224  0.330775  0.999999  1
  Br  Br26  1  0.330776  0.669224  0.000001  1
  Br  Br27  1  0.678780  0.321219  0.321221  1
  Br  Br28  1  0.321220  0.678781  0.678780  1
  Br  Br29  1  0.321218  0.678784  0.321218  1
  Br  Br30  1  0.678781  0.321216  0.678783  1
  Br  Br31  1  0.321219  0.321215  0.678784  1
  Br  Br32  1  0.678782  0.678785  0.321216  1
  Br  Br33  1  0.249998  0.250006  0.249999  1
  Br  Br34  1  0.750001  0.749993  0.750004  1
