# generated using pymatgen
data_Ta4Sn3O13
_symmetry_space_group_name_H-M   'P 1'
_cell_length_a   7.58314801
_cell_length_b   7.58314759
_cell_length_c   7.58314795
_cell_angle_alpha   59.51861931
_cell_angle_beta   59.51861913
_cell_angle_gamma   59.51863027
_symmetry_Int_Tables_number   1
_chemical_formula_structural   Ta4Sn3O13
_chemical_formula_sum   'Ta4 Sn3 O13'
_cell_volume   304.96733680
_cell_formula_units_Z   1
loop_
 _symmetry_equiv_pos_site_id
 _symmetry_equiv_pos_as_xyz
  1  'x, y, z'
loop_
 _atom_site_type_symbol
 _atom_site_label
 _atom_site_symmetry_multiplicity
 _atom_site_fract_x
 _atom_site_fract_y
 _atom_site_fract_z
 _atom_site_occupancy
  Ta  Ta0  1  0.497842  0.497842  0.497842  1
  Ta  Ta1  1  0.998495  0.502389  0.502389  1
  Ta  Ta2  1  0.502389  0.502389  0.998495  1
  Ta  Ta3  1  0.502389  0.998495  0.502389  1
  Sn  Sn4  1  0.502209  0.026513  0.026513  1
  Sn  Sn5  1  0.026513  0.026513  0.502209  1
  Sn  Sn6  1  0.026513  0.502209  0.026513  1
  O  O7  1  0.814038  0.425706  0.425706  1
  O  O8  1  0.435681  0.801617  0.801617  1
  O  O9  1  0.425706  0.425706  0.814038  1
  O  O10  1  0.801617  0.801617  0.435681  1
  O  O11  1  0.801617  0.435681  0.801617  1
  O  O12  1  0.425706  0.814038  0.425706  1
  O  O13  1  0.188175  0.553934  0.553934  1
  O  O14  1  0.549994  0.179986  0.179986  1
  O  O15  1  0.553934  0.553934  0.188175  1
  O  O16  1  0.179986  0.179986  0.549994  1
  O  O17  1  0.179986  0.549994  0.179986  1
  O  O18  1  0.553934  0.188175  0.553934  1
  O  O19  1  0.158273  0.158273  0.158273  1
