# generated using pymatgen
data_Ho4CoCu3
_symmetry_space_group_name_H-M   'P 1'
_cell_length_a   4.33479800
_cell_length_b   5.39364236
_cell_length_c   7.05204220
_cell_angle_alpha   90.35475636
_cell_angle_beta   90.00000000
_cell_angle_gamma   90.00000000
_symmetry_Int_Tables_number   1
_chemical_formula_structural   Ho4CoCu3
_chemical_formula_sum   'Ho4 Co1 Cu3'
_cell_volume   164.87605509
_cell_formula_units_Z   1
loop_
 _symmetry_equiv_pos_site_id
 _symmetry_equiv_pos_as_xyz
  1  'x, y, z'
loop_
 _atom_site_type_symbol
 _atom_site_label
 _atom_site_symmetry_multiplicity
 _atom_site_fract_x
 _atom_site_fract_y
 _atom_site_fract_z
 _atom_site_occupancy
  Ho  Ho0  1  0.000000  0.629220  0.325623  1
  Ho  Ho1  1  0.000000  0.874566  0.812267  1
  Ho  Ho2  1  0.500000  0.359138  0.669401  1
  Ho  Ho3  1  0.500000  0.135054  0.193999  1
  Co  Co4  1  0.000000  0.129844  0.468275  1
  Cu  Cu5  1  0.000000  0.379293  0.964149  1
  Cu  Cu6  1  0.500000  0.868806  0.536295  1
  Cu  Cu7  1  0.500000  0.624078  0.029993  1
