# generated using pymatgen
data_Al10NiRuRh2
_symmetry_space_group_name_H-M   'P 1'
_cell_length_a   7.88930501
_cell_length_b   7.89620241
_cell_length_c   7.78308600
_cell_angle_alpha   90.00000000
_cell_angle_beta   90.00000000
_cell_angle_gamma   120.02892467
_symmetry_Int_Tables_number   1
_chemical_formula_structural   Al10NiRuRh2
_chemical_formula_sum   'Al20 Ni2 Ru2 Rh4'
_cell_volume   419.77137980
_cell_formula_units_Z   2
loop_
 _symmetry_equiv_pos_site_id
 _symmetry_equiv_pos_as_xyz
  1  'x, y, z'
loop_
 _atom_site_type_symbol
 _atom_site_label
 _atom_site_symmetry_multiplicity
 _atom_site_fract_x
 _atom_site_fract_y
 _atom_site_fract_z
 _atom_site_occupancy
  Al  Al0  1  0.000000  0.001222  0.000000  1
  Al  Al1  1  0.000000  0.001222  0.500000  1
  Al  Al2  1  0.471956  0.944357  0.250000  1
  Al  Al3  1  0.528044  0.472402  0.750000  1
  Al  Al4  1  0.940530  0.469144  0.750000  1
  Al  Al5  1  0.059470  0.528614  0.250000  1
  Al  Al6  1  0.468544  0.529255  0.250000  1
  Al  Al7  1  0.531456  0.060711  0.750000  1
  Al  Al8  1  0.192568  0.389905  0.939074  1
  Al  Al9  1  0.807432  0.197338  0.439074  1
  Al  Al10  1  0.389975  0.197618  0.436670  1
  Al  Al11  1  0.610025  0.807643  0.936670  1
  Al  Al12  1  0.197203  0.803392  0.938762  1
  Al  Al13  1  0.802797  0.606190  0.061238  1
  Al  Al14  1  0.807432  0.197338  0.060926  1
  Al  Al15  1  0.802797  0.606190  0.438762  1
  Al  Al16  1  0.389975  0.197618  0.063330  1
  Al  Al17  1  0.610025  0.807643  0.563330  1
  Al  Al18  1  0.192568  0.389905  0.560926  1
  Al  Al19  1  0.197203  0.803392  0.561238  1
  Ni  Ni20  1  0.333001  0.665099  0.750000  1
  Ni  Ni21  1  0.666999  0.332097  0.250000  1
  Ru  Ru22  1  0.129258  0.257235  0.250000  1
  Ru  Ru23  1  0.870742  0.127976  0.750000  1
  Rh  Rh24  1  0.260747  0.128433  0.750000  1
  Rh  Rh25  1  0.739253  0.867688  0.250000  1
  Rh  Rh26  1  0.127773  0.869075  0.250000  1
  Rh  Rh27  1  0.872227  0.741301  0.750000  1
