# generated using pymatgen
data_LaBi3(SbO4)4
_symmetry_space_group_name_H-M   'P 1'
_cell_length_a   5.20799066
_cell_length_b   5.38137512
_cell_length_c   13.62089251
_cell_angle_alpha   70.36560886
_cell_angle_beta   90.16239704
_cell_angle_gamma   90.43223322
_symmetry_Int_Tables_number   1
_chemical_formula_structural   LaBi3(SbO4)4
_chemical_formula_sum   'La1 Bi3 Sb4 O16'
_cell_volume   359.53496034
_cell_formula_units_Z   1
loop_
 _symmetry_equiv_pos_site_id
 _symmetry_equiv_pos_as_xyz
  1  'x, y, z'
loop_
 _atom_site_type_symbol
 _atom_site_label
 _atom_site_symmetry_multiplicity
 _atom_site_fract_x
 _atom_site_fract_y
 _atom_site_fract_z
 _atom_site_occupancy
  La  La0  1  0.289592  0.344953  0.164994  1
  Bi  Bi1  1  0.775807  0.673428  0.329661  1
  Bi  Bi2  1  0.731045  0.668611  0.826804  1
  Bi  Bi3  1  0.236053  0.333536  0.669305  1
  Sb  Sb4  1  0.747530  0.921295  0.067736  1
  Sb  Sb5  1  0.752246  0.919977  0.568180  1
  Sb  Sb6  1  0.248695  0.082410  0.930218  1
  Sb  Sb7  1  0.246901  0.077041  0.432003  1
  O  O8  1  0.430820  0.754056  0.029244  1
  O  O9  1  0.063205  0.749068  0.533059  1
  O  O10  1  0.555935  0.248393  0.975241  1
  O  O11  1  0.939808  0.246039  0.472753  1
  O  O12  1  0.602620  0.990522  0.190928  1
  O  O13  1  0.900550  0.987522  0.692272  1
  O  O14  1  0.406623  0.013367  0.809720  1
  O  O15  1  0.093994  0.999741  0.312492  1
  O  O16  1  0.064486  0.144845  0.053131  1
  O  O17  1  0.436146  0.139696  0.556128  1
  O  O18  1  0.930635  0.858013  0.943480  1
  O  O19  1  0.565039  0.853262  0.445735  1
  O  O20  1  0.875980  0.589884  0.169067  1
  O  O21  1  0.607614  0.591179  0.672614  1
  O  O22  1  0.110831  0.409898  0.826001  1
  O  O23  1  0.387847  0.403262  0.329234  1
