# generated using pymatgen
data_ErPa3(Ta3Ge4)2
_symmetry_space_group_name_H-M   'P 1'
_cell_length_a   7.05508400
_cell_length_b   7.14202789
_cell_length_c   13.56053622
_cell_angle_alpha   89.91985073
_cell_angle_beta   90.00000000
_cell_angle_gamma   90.00000000
_symmetry_Int_Tables_number   1
_chemical_formula_structural   ErPa3(Ta3Ge4)2
_chemical_formula_sum   'Er2 Pa6 Ta12 Ge16'
_cell_volume   683.28229697
_cell_formula_units_Z   2
loop_
 _symmetry_equiv_pos_site_id
 _symmetry_equiv_pos_as_xyz
  1  'x, y, z'
loop_
 _atom_site_type_symbol
 _atom_site_label
 _atom_site_symmetry_multiplicity
 _atom_site_fract_x
 _atom_site_fract_y
 _atom_site_fract_z
 _atom_site_occupancy
  Er  Er0  1  0.491266  0.327744  0.405058  1
  Er  Er1  1  0.991266  0.172256  0.094942  1
  Pa  Pa2  1  0.493785  0.328907  0.093187  1
  Pa  Pa3  1  0.993785  0.171093  0.406813  1
  Pa  Pa4  1  0.507457  0.675361  0.593778  1
  Pa  Pa5  1  0.007457  0.824639  0.906222  1
  Pa  Pa6  1  0.510035  0.671183  0.908491  1
  Pa  Pa7  1  0.010035  0.828817  0.591509  1
  Ta  Ta8  1  0.668452  0.004052  0.750591  1
  Ta  Ta9  1  0.168452  0.495948  0.749409  1
  Ta  Ta10  1  0.333481  0.992553  0.248795  1
  Ta  Ta11  1  0.833481  0.507447  0.251205  1
  Ta  Ta12  1  0.842105  0.334646  0.624766  1
  Ta  Ta13  1  0.342105  0.165354  0.875234  1
  Ta  Ta14  1  0.160590  0.664997  0.124922  1
  Ta  Ta15  1  0.660590  0.835003  0.375078  1
  Ta  Ta16  1  0.153098  0.669444  0.375009  1
  Ta  Ta17  1  0.653098  0.830556  0.124991  1
  Ta  Ta18  1  0.838042  0.337374  0.873686  1
  Ta  Ta19  1  0.338042  0.162626  0.626314  1
  Ge  Ge20  1  0.809350  0.640535  0.749149  1
  Ge  Ge21  1  0.309350  0.859465  0.750851  1
  Ge  Ge22  1  0.192284  0.359055  0.249384  1
  Ge  Ge23  1  0.692284  0.140945  0.250616  1
  Ge  Ge24  1  0.539241  0.375589  0.749002  1
  Ge  Ge25  1  0.039241  0.124411  0.750998  1
  Ge  Ge26  1  0.459683  0.622442  0.251963  1
  Ge  Ge27  1  0.959683  0.877558  0.248037  1
  Ge  Ge28  1  0.674482  0.045959  0.542758  1
  Ge  Ge29  1  0.174482  0.454041  0.957242  1
  Ge  Ge30  1  0.319374  0.958569  0.043933  1
  Ge  Ge31  1  0.819374  0.541431  0.456067  1
  Ge  Ge32  1  0.328518  0.957864  0.455702  1
  Ge  Ge33  1  0.828518  0.542136  0.044298  1
  Ge  Ge34  1  0.678757  0.044931  0.958060  1
  Ge  Ge35  1  0.178757  0.455069  0.541940  1
