# generated using pymatgen
data_CuSiRhSe4
_symmetry_space_group_name_H-M   'P 1'
_cell_length_a   7.33131297
_cell_length_b   7.33131294
_cell_length_c   7.33131306
_cell_angle_alpha   120.34796698
_cell_angle_beta   118.68195615
_cell_angle_gamma   90.84814810
_symmetry_Int_Tables_number   1
_chemical_formula_structural   CuSiRhSe4
_chemical_formula_sum   'Cu2 Si2 Rh2 Se8'
_cell_volume   280.56819194
_cell_formula_units_Z   2
loop_
 _symmetry_equiv_pos_site_id
 _symmetry_equiv_pos_as_xyz
  1  'x, y, z'
loop_
 _atom_site_type_symbol
 _atom_site_label
 _atom_site_symmetry_multiplicity
 _atom_site_fract_x
 _atom_site_fract_y
 _atom_site_fract_z
 _atom_site_occupancy
  Cu  Cu0  1  0.373963  0.623963  0.750000  1
  Cu  Cu1  1  0.626037  0.376037  0.250000  1
  Si  Si2  1  0.000000  0.000000  0.500000  1
  Si  Si3  1  0.000000  0.500000  0.000000  1
  Rh  Rh4  1  0.000000  0.000000  0.000000  1
  Rh  Rh5  1  0.500000  0.000000  0.500000  1
  Se  Se6  1  0.238490  0.759664  0.021174  1
  Se  Se7  1  0.238490  0.217315  0.478826  1
  Se  Se8  1  0.239373  0.757604  0.481768  1
  Se  Se9  1  0.775836  0.757604  0.018232  1
  Se  Se10  1  0.761510  0.240336  0.978826  1
  Se  Se11  1  0.761510  0.782685  0.521174  1
  Se  Se12  1  0.760627  0.242396  0.518232  1
  Se  Se13  1  0.224164  0.242396  0.981768  1
