# generated using pymatgen
data_AgSnP7Au2
_symmetry_space_group_name_H-M   'P 1'
_cell_length_a   11.21845200
_cell_length_b   6.39072163
_cell_length_c   6.55376086
_cell_angle_alpha   71.18143452
_cell_angle_beta   90.00000000
_cell_angle_gamma   90.00000000
_symmetry_Int_Tables_number   1
_chemical_formula_structural   AgSnP7Au2
_chemical_formula_sum   'Ag2 Sn2 P14 Au4'
_cell_volume   444.74860396
_cell_formula_units_Z   2
loop_
 _symmetry_equiv_pos_site_id
 _symmetry_equiv_pos_as_xyz
  1  'x, y, z'
loop_
 _atom_site_type_symbol
 _atom_site_label
 _atom_site_symmetry_multiplicity
 _atom_site_fract_x
 _atom_site_fract_y
 _atom_site_fract_z
 _atom_site_occupancy
  Ag  Ag0  1  0.601308  0.309773  0.315517  1
  Ag  Ag1  1  0.101308  0.690227  0.684483  1
  Sn  Sn2  1  0.252560  0.690500  0.041554  1
  Sn  Sn3  1  0.752560  0.309500  0.958446  1
  P  P4  1  0.247836  0.260754  0.282025  1
  P  P5  1  0.747836  0.739246  0.717975  1
  P  P6  1  0.588329  0.201931  0.716380  1
  P  P7  1  0.088329  0.798069  0.283620  1
  P  P8  1  0.412030  0.800929  0.290268  1
  P  P9  1  0.912030  0.199071  0.709732  1
  P  P10  1  0.408661  0.280977  0.805830  1
  P  P11  1  0.908661  0.719023  0.194170  1
  P  P12  1  0.917769  0.834735  0.835793  1
  P  P13  1  0.417769  0.165265  0.164207  1
  P  P14  1  0.078448  0.161238  0.161703  1
  P  P15  1  0.578448  0.838762  0.838297  1
  P  P16  1  0.091428  0.275967  0.805078  1
  P  P17  1  0.591428  0.724033  0.194922  1
  Au  Au18  1  0.401249  0.685968  0.687376  1
  Au  Au19  1  0.901249  0.314032  0.312624  1
  Au  Au20  1  0.250382  0.074961  0.680086  1
  Au  Au21  1  0.750382  0.925039  0.319914  1
