# generated using pymatgen
data_Na2Nb3P7Rh9
_symmetry_space_group_name_H-M   'P 1'
_cell_length_a   3.92651400
_cell_length_b   9.64953734
_cell_length_c   9.65237607
_cell_angle_alpha   120.05397928
_cell_angle_beta   90.00112413
_cell_angle_gamma   89.99676009
_symmetry_Int_Tables_number   1
_chemical_formula_structural   Na2Nb3P7Rh9
_chemical_formula_sum   'Na2 Nb3 P7 Rh9'
_cell_volume   316.54978568
_cell_formula_units_Z   1
loop_
 _symmetry_equiv_pos_site_id
 _symmetry_equiv_pos_as_xyz
  1  'x, y, z'
loop_
 _atom_site_type_symbol
 _atom_site_label
 _atom_site_symmetry_multiplicity
 _atom_site_fract_x
 _atom_site_fract_y
 _atom_site_fract_z
 _atom_site_occupancy
  Na  Na0  1  0.261731  0.666669  0.333485  1
  Na  Na1  1  0.761491  0.333260  0.666509  1
  Nb  Nb2  1  0.761945  0.094010  0.874513  1
  Nb  Nb3  1  0.761957  0.125554  0.219571  1
  Nb  Nb4  1  0.761949  0.780469  0.906030  1
  P  P5  1  0.261984  0.000155  0.000154  1
  P  P6  1  0.761888  0.878522  0.589479  1
  P  P7  1  0.761898  0.410452  0.288928  1
  P  P8  1  0.761896  0.711000  0.121443  1
  P  P9  1  0.261860  0.119158  0.417123  1
  P  P10  1  0.261843  0.582950  0.702140  1
  P  P11  1  0.261853  0.297874  0.880783  1
  Rh  Rh12  1  0.261951  0.886358  0.159857  1
  Rh  Rh13  1  0.261926  0.840303  0.726650  1
  Rh  Rh14  1  0.261924  0.273548  0.113618  1
  Rh  Rh15  1  0.761939  0.610116  0.562821  1
  Rh  Rh16  1  0.761960  0.436993  0.046984  1
  Rh  Rh17  1  0.762043  0.952844  0.390024  1
  Rh  Rh18  1  0.262047  0.370712  0.436121  1
  Rh  Rh19  1  0.261966  0.563710  0.934605  1
  Rh  Rh20  1  0.261952  0.065344  0.629160  1
