# generated using pymatgen
data_TbFe2PC
_symmetry_space_group_name_H-M   'P 1'
_cell_length_a   5.49527261
_cell_length_b   5.49527332
_cell_length_c   6.68530200
_cell_angle_alpha   90.00000000
_cell_angle_beta   90.00000000
_cell_angle_gamma   140.87636207
_symmetry_Int_Tables_number   1
_chemical_formula_structural   TbFe2PC
_chemical_formula_sum   'Tb2 Fe4 P2 C2'
_cell_volume   127.38729636
_cell_formula_units_Z   2
loop_
 _symmetry_equiv_pos_site_id
 _symmetry_equiv_pos_as_xyz
  1  'x, y, z'
loop_
 _atom_site_type_symbol
 _atom_site_label
 _atom_site_symmetry_multiplicity
 _atom_site_fract_x
 _atom_site_fract_y
 _atom_site_fract_z
 _atom_site_occupancy
  Tb  Tb0  1  0.549046  0.450954  0.250000  1
  Tb  Tb1  1  0.450954  0.549046  0.750000  1
  Fe  Fe2  1  0.832568  0.167432  0.057187  1
  Fe  Fe3  1  0.167432  0.832568  0.942813  1
  Fe  Fe4  1  0.167432  0.832568  0.557187  1
  Fe  Fe5  1  0.832568  0.167432  0.442813  1
  P  P6  1  0.270484  0.729516  0.250000  1
  P  P7  1  0.729516  0.270484  0.750000  1
  C  C8  1  0.000000  0.000000  0.000000  1
  C  C9  1  0.000000  0.000000  0.500000  1
