# generated using pymatgen
data_Y8SiSBr12
_symmetry_space_group_name_H-M   'P 1'
_cell_length_a   4.03975100
_cell_length_b   13.16775056
_cell_length_c   13.93876900
_cell_angle_alpha   89.98330872
_cell_angle_beta   90.00000000
_cell_angle_gamma   90.00000000
_symmetry_Int_Tables_number   1
_chemical_formula_structural   Y8SiSBr12
_chemical_formula_sum   'Y8 Si1 S1 Br12'
_cell_volume   741.46488900
_cell_formula_units_Z   1
loop_
 _symmetry_equiv_pos_site_id
 _symmetry_equiv_pos_as_xyz
  1  'x, y, z'
loop_
 _atom_site_type_symbol
 _atom_site_label
 _atom_site_symmetry_multiplicity
 _atom_site_fract_x
 _atom_site_fract_y
 _atom_site_fract_z
 _atom_site_occupancy
  Y  Y0  1  0.500000  0.115147  0.345969  1
  Y  Y1  1  0.500000  0.884853  0.654031  1
  Y  Y2  1  0.500000  0.618869  0.159169  1
  Y  Y3  1  0.500000  0.381131  0.840831  1
  Y  Y4  1  0.000000  0.111045  0.573980  1
  Y  Y5  1  0.000000  0.888955  0.426020  1
  Y  Y6  1  0.000000  0.618870  0.920564  1
  Y  Y7  1  0.000000  0.381130  0.079436  1
  Si  Si8  1  0.500000  0.500000  0.000000  1
  S  S9  1  0.500000  0.000000  0.500000  1
  Br  Br10  1  0.500000  0.241218  0.166488  1
  Br  Br11  1  0.500000  0.758782  0.833512  1
  Br  Br12  1  0.500000  0.751163  0.340444  1
  Br  Br13  1  0.500000  0.248837  0.659556  1
  Br  Br14  1  0.000000  0.254393  0.413877  1
  Br  Br15  1  0.000000  0.745607  0.586123  1
  Br  Br16  1  0.000000  0.758197  0.088915  1
  Br  Br17  1  0.000000  0.241803  0.911085  1
  Br  Br18  1  0.000000  0.000204  0.244714  1
  Br  Br19  1  0.000000  0.999796  0.755286  1
  Br  Br20  1  0.000000  0.502452  0.260581  1
  Br  Br21  1  0.000000  0.497548  0.739419  1
