# generated using pymatgen
data_Ho3As4Pd7
_symmetry_space_group_name_H-M   'P 1'
_cell_length_a   8.12176372
_cell_length_b   8.12176345
_cell_length_c   9.62828397
_cell_angle_alpha   55.54968573
_cell_angle_beta   55.54968661
_cell_angle_gamma   29.45432402
_symmetry_Int_Tables_number   1
_chemical_formula_structural   Ho3As4Pd7
_chemical_formula_sum   'Ho3 As4 Pd7'
_cell_volume   253.30890097
_cell_formula_units_Z   1
loop_
 _symmetry_equiv_pos_site_id
 _symmetry_equiv_pos_as_xyz
  1  'x, y, z'
loop_
 _atom_site_type_symbol
 _atom_site_label
 _atom_site_symmetry_multiplicity
 _atom_site_fract_x
 _atom_site_fract_y
 _atom_site_fract_z
 _atom_site_occupancy
  Ho  Ho0  1  0.676906  0.676906  0.329031  1
  Ho  Ho1  1  0.323094  0.323094  0.670969  1
  Ho  Ho2  1  0.000000  0.000000  0.000000  1
  As  As3  1  0.340870  0.340870  0.250608  1
  As  As4  1  0.659130  0.659130  0.749392  1
  As  As5  1  0.894198  0.894198  0.823286  1
  As  As6  1  0.105802  0.105802  0.176714  1
  Pd  Pd7  1  0.304659  0.304659  0.026987  1
  Pd  Pd8  1  0.695341  0.695341  0.973013  1
  Pd  Pd9  1  0.512488  0.512488  0.705465  1
  Pd  Pd10  1  0.832360  0.832360  0.427153  1
  Pd  Pd11  1  0.487512  0.487512  0.294535  1
  Pd  Pd12  1  0.167640  0.167640  0.572847  1
  Pd  Pd13  1  0.000000  0.000000  0.500000  1
