# generated using pymatgen
data_Hf2Zr2TiNb3P4
_symmetry_space_group_name_H-M   'P 1'
_cell_length_a   3.54176000
_cell_length_b   6.87150495
_cell_length_c   8.31325206
_cell_angle_alpha   90.23241153
_cell_angle_beta   90.00000000
_cell_angle_gamma   90.00000000
_symmetry_Int_Tables_number   1
_chemical_formula_structural   Hf2Zr2TiNb3P4
_chemical_formula_sum   'Hf2 Zr2 Ti1 Nb3 P4'
_cell_volume   202.31979117
_cell_formula_units_Z   1
loop_
 _symmetry_equiv_pos_site_id
 _symmetry_equiv_pos_as_xyz
  1  'x, y, z'
loop_
 _atom_site_type_symbol
 _atom_site_label
 _atom_site_symmetry_multiplicity
 _atom_site_fract_x
 _atom_site_fract_y
 _atom_site_fract_z
 _atom_site_occupancy
  Hf  Hf0  1  0.750000  0.467392  0.166850  1
  Hf  Hf1  1  0.750000  0.966511  0.330860  1
  Zr  Zr2  1  0.250000  0.032203  0.669104  1
  Zr  Zr3  1  0.250000  0.533155  0.833448  1
  Ti  Ti4  1  0.750000  0.863138  0.940943  1
  Nb  Nb5  1  0.250000  0.640946  0.440119  1
  Nb  Nb6  1  0.750000  0.360398  0.559132  1
  Nb  Nb7  1  0.250000  0.138295  0.060103  1
  P  P8  1  0.250000  0.262883  0.355667  1
  P  P9  1  0.250000  0.762806  0.137642  1
  P  P10  1  0.750000  0.737370  0.647588  1
  P  P11  1  0.750000  0.234903  0.858544  1
