# generated using pymatgen
data_Pr6RuCl10
_symmetry_space_group_name_H-M   'P 1'
_cell_length_a   7.52273397
_cell_length_b   9.12495546
_cell_length_c   9.45811804
_cell_angle_alpha   109.63422802
_cell_angle_beta   96.66830872
_cell_angle_gamma   107.53164393
_symmetry_Int_Tables_number   1
_chemical_formula_structural   Pr6RuCl10
_chemical_formula_sum   'Pr6 Ru1 Cl10'
_cell_volume   565.76439013
_cell_formula_units_Z   1
loop_
 _symmetry_equiv_pos_site_id
 _symmetry_equiv_pos_as_xyz
  1  'x, y, z'
loop_
 _atom_site_type_symbol
 _atom_site_label
 _atom_site_symmetry_multiplicity
 _atom_site_fract_x
 _atom_site_fract_y
 _atom_site_fract_z
 _atom_site_occupancy
  Pr  Pr0  1  0.146737  0.063198  0.750958  1
  Pr  Pr1  1  0.618768  0.842352  0.796983  1
  Pr  Pr2  1  0.853263  0.936802  0.249042  1
  Pr  Pr3  1  0.029200  0.703203  0.905194  1
  Pr  Pr4  1  0.381232  0.157648  0.203017  1
  Pr  Pr5  1  0.970800  0.296797  0.094806  1
  Ru  Ru6  1  0.000000  0.000000  0.000000  1
  Cl  Cl7  1  0.198588  0.750995  0.655526  1
  Cl  Cl8  1  0.645716  0.534487  0.723298  1
  Cl  Cl9  1  0.236523  0.078794  0.445607  1
  Cl  Cl10  1  0.801412  0.249005  0.344474  1
  Cl  Cl11  1  0.554239  0.167727  0.928141  1
  Cl  Cl12  1  0.763477  0.921206  0.554393  1
  Cl  Cl13  1  0.908411  0.628165  0.160171  1
  Cl  Cl14  1  0.354284  0.465513  0.276702  1
  Cl  Cl15  1  0.091589  0.371835  0.839829  1
  Cl  Cl16  1  0.445761  0.832273  0.071859  1
