# generated using pymatgen
data_YNi5Sn
_symmetry_space_group_name_H-M   'P 1'
_cell_length_a   4.88592600
_cell_length_b   8.04743300
_cell_length_c   10.24077400
_cell_angle_alpha   90.00000000
_cell_angle_beta   90.00000000
_cell_angle_gamma   90.00000000
_symmetry_Int_Tables_number   1
_chemical_formula_structural   YNi5Sn
_chemical_formula_sum   'Y4 Ni20 Sn4'
_cell_volume   402.65865322
_cell_formula_units_Z   4
loop_
 _symmetry_equiv_pos_site_id
 _symmetry_equiv_pos_as_xyz
  1  'x, y, z'
loop_
 _atom_site_type_symbol
 _atom_site_label
 _atom_site_symmetry_multiplicity
 _atom_site_fract_x
 _atom_site_fract_y
 _atom_site_fract_z
 _atom_site_occupancy
  Y  Y0  1  0.250000  0.748910  0.059796  1
  Y  Y1  1  0.750000  0.251090  0.940204  1
  Y  Y2  1  0.750000  0.751090  0.559796  1
  Y  Y3  1  0.250000  0.248910  0.440204  1
  Ni  Ni4  1  0.250000  0.813326  0.746067  1
  Ni  Ni5  1  0.750000  0.186674  0.253933  1
  Ni  Ni6  1  0.750000  0.686674  0.246067  1
  Ni  Ni7  1  0.250000  0.313326  0.753933  1
  Ni  Ni8  1  0.501080  0.566329  0.810114  1
  Ni  Ni9  1  0.498920  0.433671  0.189886  1
  Ni  Ni10  1  0.498920  0.933671  0.310114  1
  Ni  Ni11  1  0.001080  0.433671  0.189886  1
  Ni  Ni12  1  0.501080  0.066329  0.689886  1
  Ni  Ni13  1  0.998920  0.566329  0.810114  1
  Ni  Ni14  1  0.998920  0.066329  0.689886  1
  Ni  Ni15  1  0.001080  0.933671  0.310114  1
  Ni  Ni16  1  0.250000  0.912894  0.518428  1
  Ni  Ni17  1  0.750000  0.087106  0.481572  1
  Ni  Ni18  1  0.750000  0.587106  0.018428  1
  Ni  Ni19  1  0.250000  0.412894  0.981572  1
  Ni  Ni20  1  0.250000  0.553084  0.600891  1
  Ni  Ni21  1  0.750000  0.446916  0.399109  1
  Ni  Ni22  1  0.750000  0.946916  0.100891  1
  Ni  Ni23  1  0.250000  0.053084  0.899109  1
  Sn  Sn24  1  0.250000  0.640430  0.360400  1
  Sn  Sn25  1  0.750000  0.359570  0.639600  1
  Sn  Sn26  1  0.750000  0.859570  0.860400  1
  Sn  Sn27  1  0.250000  0.140430  0.139600  1
