# generated using pymatgen
data_Ho3Er6TmRu4
_symmetry_space_group_name_H-M   'P 1'
_cell_length_a   6.28148362
_cell_length_b   7.25963009
_cell_length_c   8.39855032
_cell_angle_alpha   96.79627268
_cell_angle_beta   112.01651411
_cell_angle_gamma   89.99367709
_symmetry_Int_Tables_number   1
_chemical_formula_structural   Ho3Er6TmRu4
_chemical_formula_sum   'Ho3 Er6 Tm1 Ru4'
_cell_volume   352.15307732
_cell_formula_units_Z   1
loop_
 _symmetry_equiv_pos_site_id
 _symmetry_equiv_pos_as_xyz
  1  'x, y, z'
loop_
 _atom_site_type_symbol
 _atom_site_label
 _atom_site_symmetry_multiplicity
 _atom_site_fract_x
 _atom_site_fract_y
 _atom_site_fract_z
 _atom_site_occupancy
  Ho  Ho0  1  0.791271  0.084025  0.813446  1
  Ho  Ho1  1  0.977592  0.415972  0.186318  1
  Ho  Ho2  1  0.208678  0.915590  0.186411  1
  Er  Er3  1  0.022213  0.584495  0.813739  1
  Er  Er4  1  0.205957  0.184367  0.565412  1
  Er  Er5  1  0.640713  0.315641  0.434814  1
  Er  Er6  1  0.793978  0.815482  0.434458  1
  Er  Er7  1  0.359420  0.684544  0.565559  1
  Er  Er8  1  0.419207  0.249902  0.999862  1
  Tm  Tm9  1  0.580234  0.750098  0.000017  1
  Ru  Ru10  1  0.603071  0.424279  0.779917  1
  Ru  Ru11  1  0.822863  0.076162  0.220001  1
  Ru  Ru12  1  0.397503  0.576324  0.220117  1
  Ru  Ru13  1  0.177300  0.923118  0.779929  1
