# generated using pymatgen
data_Tb3Ni8P6Os
_symmetry_space_group_name_H-M   'P 1'
_cell_length_a   3.78901400
_cell_length_b   10.48449500
_cell_length_c   12.40186300
_cell_angle_alpha   90.00000000
_cell_angle_beta   90.00000000
_cell_angle_gamma   90.00000000
_symmetry_Int_Tables_number   1
_chemical_formula_structural   Tb3Ni8P6Os
_chemical_formula_sum   'Tb6 Ni16 P12 Os2'
_cell_volume   492.67514874
_cell_formula_units_Z   2
loop_
 _symmetry_equiv_pos_site_id
 _symmetry_equiv_pos_as_xyz
  1  'x, y, z'
loop_
 _atom_site_type_symbol
 _atom_site_label
 _atom_site_symmetry_multiplicity
 _atom_site_fract_x
 _atom_site_fract_y
 _atom_site_fract_z
 _atom_site_occupancy
  Tb  Tb0  1  0.751928  0.000000  0.477216  1
  Tb  Tb1  1  0.251928  0.500000  0.522784  1
  Tb  Tb2  1  0.251789  0.686331  0.792005  1
  Tb  Tb3  1  0.251789  0.313669  0.792005  1
  Tb  Tb4  1  0.751789  0.813669  0.207995  1
  Tb  Tb5  1  0.751789  0.186331  0.207995  1
  Ni  Ni6  1  0.751645  0.000000  0.019697  1
  Ni  Ni7  1  0.251645  0.500000  0.980303  1
  Ni  Ni8  1  0.252067  0.197574  0.570824  1
  Ni  Ni9  1  0.252067  0.802426  0.570824  1
  Ni  Ni10  1  0.752067  0.302426  0.429176  1
  Ni  Ni11  1  0.752067  0.697574  0.429176  1
  Ni  Ni12  1  0.251881  0.619769  0.289670  1
  Ni  Ni13  1  0.251881  0.380231  0.289670  1
  Ni  Ni14  1  0.751881  0.880231  0.710330  1
  Ni  Ni15  1  0.751881  0.119769  0.710330  1
  Ni  Ni16  1  0.251660  0.168884  0.013866  1
  Ni  Ni17  1  0.251660  0.831116  0.013866  1
  Ni  Ni18  1  0.751660  0.331116  0.986134  1
  Ni  Ni19  1  0.751660  0.668884  0.986134  1
  Ni  Ni20  1  0.251914  0.000000  0.300354  1
  Ni  Ni21  1  0.751914  0.500000  0.699646  1
  P  P22  1  0.251930  0.186812  0.385813  1
  P  P23  1  0.251930  0.813188  0.385813  1
  P  P24  1  0.751930  0.313188  0.614187  1
  P  P25  1  0.751930  0.686812  0.614187  1
  P  P26  1  0.251668  0.000000  0.125400  1
  P  P27  1  0.751668  0.500000  0.874600  1
  P  P28  1  0.251703  0.648441  0.106997  1
  P  P29  1  0.251703  0.351559  0.106997  1
  P  P30  1  0.751703  0.851559  0.893003  1
  P  P31  1  0.751703  0.148441  0.893003  1
  P  P32  1  0.251878  0.000000  0.652670  1
  P  P33  1  0.751878  0.500000  0.347330  1
  Os  Os34  1  0.251710  0.000000  0.843559  1
  Os  Os35  1  0.751710  0.500000  0.156441  1
