# generated using pymatgen
data_NdMgSnH
_symmetry_space_group_name_H-M   'P 1'
_cell_length_a   4.48728400
_cell_length_b   8.04151000
_cell_length_c   9.10084200
_cell_angle_alpha   90.00000000
_cell_angle_beta   90.00000000
_cell_angle_gamma   90.00000000
_symmetry_Int_Tables_number   1
_chemical_formula_structural   NdMgSnH
_chemical_formula_sum   'Nd4 Mg4 Sn4 H4'
_cell_volume   328.39968953
_cell_formula_units_Z   4
loop_
 _symmetry_equiv_pos_site_id
 _symmetry_equiv_pos_as_xyz
  1  'x, y, z'
loop_
 _atom_site_type_symbol
 _atom_site_label
 _atom_site_symmetry_multiplicity
 _atom_site_fract_x
 _atom_site_fract_y
 _atom_site_fract_z
 _atom_site_occupancy
  Nd  Nd0  1  0.750000  0.487134  0.832509  1
  Nd  Nd1  1  0.250000  0.512866  0.167491  1
  Nd  Nd2  1  0.250000  0.012866  0.332509  1
  Nd  Nd3  1  0.750000  0.987134  0.667491  1
  Mg  Mg4  1  0.750000  0.330430  0.423322  1
  Mg  Mg5  1  0.250000  0.669570  0.576678  1
  Mg  Mg6  1  0.250000  0.169570  0.923322  1
  Mg  Mg7  1  0.750000  0.830430  0.076678  1
  Sn  Sn8  1  0.750000  0.200633  0.116222  1
  Sn  Sn9  1  0.250000  0.799367  0.883778  1
  Sn  Sn10  1  0.250000  0.299367  0.616222  1
  Sn  Sn11  1  0.750000  0.700633  0.383778  1
  H  H12  1  0.250000  0.933155  0.572249  1
  H  H13  1  0.750000  0.066845  0.427751  1
  H  H14  1  0.750000  0.566845  0.072249  1
  H  H15  1  0.250000  0.433155  0.927751  1
