# generated using pymatgen
data_Cs10ScGa5Se14
_symmetry_space_group_name_H-M   'P 1'
_cell_length_a   11.47654524
_cell_length_b   11.47654455
_cell_length_c   9.80218774
_cell_angle_alpha   75.86025012
_cell_angle_beta   75.86025071
_cell_angle_gamma   71.64291084
_symmetry_Int_Tables_number   1
_chemical_formula_structural   Cs10ScGa5Se14
_chemical_formula_sum   'Cs10 Sc1 Ga5 Se14'
_cell_volume   1168.42394937
_cell_formula_units_Z   1
loop_
 _symmetry_equiv_pos_site_id
 _symmetry_equiv_pos_as_xyz
  1  'x, y, z'
loop_
 _atom_site_type_symbol
 _atom_site_label
 _atom_site_symmetry_multiplicity
 _atom_site_fract_x
 _atom_site_fract_y
 _atom_site_fract_z
 _atom_site_occupancy
  Cs  Cs0  1  0.023661  0.438346  0.718383  1
  Cs  Cs1  1  0.438346  0.023661  0.718383  1
  Cs  Cs2  1  0.973960  0.564776  0.282346  1
  Cs  Cs3  1  0.564776  0.973960  0.282346  1
  Cs  Cs4  1  0.288354  0.711233  0.999055  1
  Cs  Cs5  1  0.711233  0.288354  0.999055  1
  Cs  Cs6  1  0.843919  0.154539  0.500642  1
  Cs  Cs7  1  0.154539  0.843919  0.500642  1
  Cs  Cs8  1  0.427334  0.427334  0.689969  1
  Cs  Cs9  1  0.572286  0.572286  0.308198  1
  Sc  Sc10  1  0.214039  0.214039  0.180400  1
  Ga  Ga11  1  0.786464  0.786464  0.817649  1
  Ga  Ga12  1  0.071746  0.071746  0.058749  1
  Ga  Ga13  1  0.928796  0.928796  0.942645  1
  Ga  Ga14  1  0.347143  0.347143  0.335370  1
  Ga  Ga15  1  0.652947  0.652947  0.663952  1
  Se  Se16  1  0.994338  0.284885  0.112351  1
  Se  Se17  1  0.284885  0.994338  0.112351  1
  Se  Se18  1  0.995024  0.717726  0.886714  1
  Se  Se19  1  0.717726  0.995024  0.886714  1
  Se  Se20  1  0.206136  0.206136  0.444073  1
  Se  Se21  1  0.794830  0.794830  0.565995  1
  Se  Se22  1  0.063955  0.063955  0.813495  1
  Se  Se23  1  0.936793  0.936793  0.188377  1
  Se  Se24  1  0.357226  0.357226  0.071019  1
  Se  Se25  1  0.650340  0.650340  0.924044  1
  Se  Se26  1  0.250672  0.550822  0.395307  1
  Se  Se27  1  0.550822  0.250672  0.395307  1
  Se  Se28  1  0.748499  0.449210  0.603233  1
  Se  Se29  1  0.449210  0.748499  0.603233  1
