# generated using pymatgen
data_H12Ir3Rh
_symmetry_space_group_name_H-M   'P 1'
_cell_length_a   5.73390106
_cell_length_b   5.75366613
_cell_length_c   5.75366500
_cell_angle_alpha   60.00000072
_cell_angle_beta   59.88590743
_cell_angle_gamma   59.88590871
_symmetry_Int_Tables_number   1
_chemical_formula_structural   H12Ir3Rh
_chemical_formula_sum   'H12 Ir3 Rh1'
_cell_volume   133.99029128
_cell_formula_units_Z   1
loop_
 _symmetry_equiv_pos_site_id
 _symmetry_equiv_pos_as_xyz
  1  'x, y, z'
loop_
 _atom_site_type_symbol
 _atom_site_label
 _atom_site_symmetry_multiplicity
 _atom_site_fract_x
 _atom_site_fract_y
 _atom_site_fract_z
 _atom_site_occupancy
  H  H0  1  0.756065  0.755479  0.244228  1
  H  H1  1  0.245523  0.245266  0.754605  1
  H  H2  1  0.756065  0.244228  0.755479  1
  H  H3  1  0.245523  0.754605  0.245266  1
  H  H4  1  0.245523  0.754605  0.754605  1
  H  H5  1  0.756065  0.244228  0.244228  1
  H  H6  1  0.493935  0.494521  0.005772  1
  H  H7  1  0.004477  0.004734  0.495395  1
  H  H8  1  0.493935  0.005772  0.494521  1
  H  H9  1  0.004477  0.495395  0.004734  1
  H  H10  1  0.004477  0.495395  0.495395  1
  H  H11  1  0.493935  0.005772  0.005772  1
  Ir  Ir12  1  0.125000  0.625000  0.125000  1
  Ir  Ir13  1  0.125000  0.125000  0.625000  1
  Ir  Ir14  1  0.125000  0.125000  0.125000  1
  Rh  Rh15  1  0.625000  0.125000  0.125000  1
