# generated using pymatgen
data_YEr7B24Ir3Ru
_symmetry_space_group_name_H-M   'P 1'
_cell_length_a   3.62895700
_cell_length_b   9.15446353
_cell_length_c   11.47559706
_cell_angle_alpha   90.01366714
_cell_angle_beta   90.00000000
_cell_angle_gamma   90.00000000
_symmetry_Int_Tables_number   1
_chemical_formula_structural   YEr7B24Ir3Ru
_chemical_formula_sum   'Y1 Er7 B24 Ir3 Ru1'
_cell_volume   381.23257232
_cell_formula_units_Z   1
loop_
 _symmetry_equiv_pos_site_id
 _symmetry_equiv_pos_as_xyz
  1  'x, y, z'
loop_
 _atom_site_type_symbol
 _atom_site_label
 _atom_site_symmetry_multiplicity
 _atom_site_fract_x
 _atom_site_fract_y
 _atom_site_fract_z
 _atom_site_occupancy
  Y  Y0  1  0.000000  0.320810  0.413168  1
  Er  Er1  1  0.000000  0.680511  0.588074  1
  Er  Er2  1  0.000000  0.820940  0.084915  1
  Er  Er3  1  0.000000  0.177254  0.912973  1
  Er  Er4  1  0.000000  0.944138  0.374016  1
  Er  Er5  1  0.000000  0.054021  0.627079  1
  Er  Er6  1  0.000000  0.444343  0.125621  1
  Er  Er7  1  0.000000  0.557526  0.874349  1
  B  B8  1  0.500000  0.554342  0.434765  1
  B  B9  1  0.500000  0.446775  0.566040  1
  B  B10  1  0.500000  0.053188  0.065456  1
  B  B11  1  0.500000  0.945912  0.933615  1
  B  B12  1  0.500000  0.750008  0.421218  1
  B  B13  1  0.500000  0.249963  0.579678  1
  B  B14  1  0.500000  0.249459  0.078814  1
  B  B15  1  0.500000  0.751689  0.920108  1
  B  B16  1  0.500000  0.793444  0.264900  1
  B  B17  1  0.500000  0.206665  0.734636  1
  B  B18  1  0.500000  0.293589  0.234527  1
  B  B19  1  0.500000  0.707624  0.765863  1
  B  B20  1  0.500000  0.632302  0.183787  1
  B  B21  1  0.500000  0.367849  0.816091  1
  B  B22  1  0.500000  0.132198  0.315622  1
  B  B23  1  0.500000  0.867855  0.685179  1
  B  B24  1  0.500000  0.981491  0.213024  1
  B  B25  1  0.500000  0.016611  0.786653  1
  B  B26  1  0.500000  0.482526  0.286034  1
  B  B27  1  0.500000  0.518266  0.714006  1
  B  B28  1  0.500000  0.610463  0.030516  1
  B  B29  1  0.500000  0.389158  0.969746  1
  B  B30  1  0.500000  0.109393  0.469923  1
  B  B31  1  0.500000  0.889837  0.529991  1
  Ir  Ir32  1  0.000000  0.639014  0.321540  1
  Ir  Ir33  1  0.000000  0.361923  0.679241  1
  Ir  Ir34  1  0.000000  0.137211  0.177589  1
  Ru  Ru35  1  0.000000  0.861705  0.821242  1
