# generated using pymatgen
data_Nd3In3NiIrRh
_symmetry_space_group_name_H-M   'P 1'
_cell_length_a   7.57760300
_cell_length_b   7.57760351
_cell_length_c   4.03604100
_cell_angle_alpha   90.00000000
_cell_angle_beta   90.00000000
_cell_angle_gamma   120.00000213
_symmetry_Int_Tables_number   1
_chemical_formula_structural   Nd3In3NiIrRh
_chemical_formula_sum   'Nd3 In3 Ni1 Ir1 Rh1'
_cell_volume   200.70117621
_cell_formula_units_Z   1
loop_
 _symmetry_equiv_pos_site_id
 _symmetry_equiv_pos_as_xyz
  1  'x, y, z'
loop_
 _atom_site_type_symbol
 _atom_site_label
 _atom_site_symmetry_multiplicity
 _atom_site_fract_x
 _atom_site_fract_y
 _atom_site_fract_z
 _atom_site_occupancy
  Nd  Nd0  1  0.412025  0.413687  0.500000  1
  Nd  Nd1  1  0.586313  0.998339  0.500000  1
  Nd  Nd2  1  0.001661  0.587975  0.500000  1
  In  In3  1  0.756379  0.756321  0.000000  1
  In  In4  1  0.243679  0.000058  0.000000  1
  In  In5  1  0.999942  0.243621  0.000000  1
  Ni  Ni6  1  0.000000  0.000000  0.500000  1
  Ir  Ir7  1  0.333333  0.666667  0.000000  1
  Rh  Rh8  1  0.666667  0.333333  0.000000  1
