# generated using pymatgen
data_Tb9Dy7(TmSn4)4
_symmetry_space_group_name_H-M   'P 1'
_cell_length_a   8.01531502
_cell_length_b   8.17063102
_cell_length_c   15.45689101
_cell_angle_alpha   90.00298386
_cell_angle_beta   89.99703750
_cell_angle_gamma   90.00647794
_symmetry_Int_Tables_number   1
_chemical_formula_structural   Tb9Dy7(TmSn4)4
_chemical_formula_sum   'Tb9 Dy7 Tm4 Sn16'
_cell_volume   1012.27458799
_cell_formula_units_Z   1
loop_
 _symmetry_equiv_pos_site_id
 _symmetry_equiv_pos_as_xyz
  1  'x, y, z'
loop_
 _atom_site_type_symbol
 _atom_site_label
 _atom_site_symmetry_multiplicity
 _atom_site_fract_x
 _atom_site_fract_y
 _atom_site_fract_z
 _atom_site_occupancy
  Tb  Tb0  1  0.866893  0.662871  0.877907  1
  Tb  Tb1  1  0.519862  0.320436  0.902680  1
  Tb  Tb2  1  0.019893  0.179551  0.597321  1
  Tb  Tb3  1  0.480103  0.679550  0.402674  1
  Tb  Tb4  1  0.980123  0.820468  0.097364  1
  Tb  Tb5  1  0.480115  0.679534  0.097323  1
  Tb  Tb6  1  0.980102  0.820457  0.402670  1
  Tb  Tb7  1  0.519891  0.320447  0.597323  1
  Tb  Tb8  1  0.019898  0.179524  0.902669  1
  Dy  Dy9  1  0.366846  0.837151  0.877884  1
  Dy  Dy10  1  0.866859  0.662845  0.622093  1
  Dy  Dy11  1  0.633141  0.162848  0.377889  1
  Dy  Dy12  1  0.133125  0.337168  0.122104  1
  Dy  Dy13  1  0.633135  0.162854  0.122130  1
  Dy  Dy14  1  0.133140  0.337147  0.377887  1
  Dy  Dy15  1  0.366876  0.837152  0.622103  1
  Tm  Tm16  1  0.198277  0.502799  0.749980  1
  Tm  Tm17  1  0.698196  0.997237  0.749970  1
  Tm  Tm18  1  0.801767  0.497175  0.250004  1
  Tm  Tm19  1  0.301768  0.002820  0.249999  1
  Sn  Sn20  1  0.293229  0.036012  0.042536  1
  Sn  Sn21  1  0.793223  0.463986  0.457467  1
  Sn  Sn22  1  0.706782  0.963992  0.542541  1
  Sn  Sn23  1  0.206955  0.535961  0.957484  1
  Sn  Sn24  1  0.706674  0.964154  0.957497  1
  Sn  Sn25  1  0.206771  0.536013  0.542534  1
  Sn  Sn26  1  0.293216  0.036013  0.457460  1
  Sn  Sn27  1  0.793181  0.463887  0.042633  1
  Sn  Sn28  1  0.563716  0.618432  0.749951  1
  Sn  Sn29  1  0.063900  0.881637  0.749957  1
  Sn  Sn30  1  0.436182  0.381555  0.250003  1
  Sn  Sn31  1  0.936183  0.118446  0.250005  1
  Sn  Sn32  1  0.328914  0.148303  0.749995  1
  Sn  Sn33  1  0.828906  0.351595  0.749961  1
  Sn  Sn34  1  0.671083  0.851675  0.250000  1
  Sn  Sn35  1  0.171074  0.648306  0.250002  1
