# generated using pymatgen
data_Pr5Bi2PPb
_symmetry_space_group_name_H-M   'P 1'
_cell_length_a   9.60355403
_cell_length_b   9.58831083
_cell_length_c   7.01247000
_cell_angle_alpha   90.00000000
_cell_angle_beta   90.00000000
_cell_angle_gamma   119.94750736
_symmetry_Int_Tables_number   1
_chemical_formula_structural   Pr5Bi2PPb
_chemical_formula_sum   'Pr10 Bi4 P2 Pb2'
_cell_volume   559.50660011
_cell_formula_units_Z   2
loop_
 _symmetry_equiv_pos_site_id
 _symmetry_equiv_pos_as_xyz
  1  'x, y, z'
loop_
 _atom_site_type_symbol
 _atom_site_label
 _atom_site_symmetry_multiplicity
 _atom_site_fract_x
 _atom_site_fract_y
 _atom_site_fract_z
 _atom_site_occupancy
  Pr  Pr0  1  0.665442  0.332359  0.998946  1
  Pr  Pr1  1  0.334558  0.666919  0.998946  1
  Pr  Pr2  1  0.334558  0.666919  0.501054  1
  Pr  Pr3  1  0.665442  0.332359  0.501054  1
  Pr  Pr4  1  0.760910  0.762711  0.750000  1
  Pr  Pr5  1  0.239090  0.001801  0.750000  1
  Pr  Pr6  1  0.000000  0.237481  0.750000  1
  Pr  Pr7  1  0.237783  0.238022  0.250000  1
  Pr  Pr8  1  0.762217  0.000238  0.250000  1
  Pr  Pr9  1  0.000000  0.762791  0.250000  1
  Bi  Bi10  1  0.000000  0.602676  0.750000  1
  Bi  Bi11  1  0.602194  0.602294  0.250000  1
  Bi  Bi12  1  0.397806  0.000100  0.250000  1
  Bi  Bi13  1  0.000000  0.396940  0.250000  1
  P  P14  1  0.000000  0.999590  0.000229  1
  P  P15  1  0.000000  0.999590  0.499771  1
  Pb  Pb16  1  0.397653  0.397431  0.750000  1
  Pb  Pb17  1  0.602347  0.999778  0.750000  1
