# generated using pymatgen
data_Li8Y8Sn6BiPb
_symmetry_space_group_name_H-M   'P 1'
_cell_length_a   9.43384023
_cell_length_b   9.43123550
_cell_length_c   7.31936068
_cell_angle_alpha   90.03908863
_cell_angle_beta   89.96775366
_cell_angle_gamma   119.97240762
_symmetry_Int_Tables_number   1
_chemical_formula_structural   Li8Y8Sn6BiPb
_chemical_formula_sum   'Li8 Y8 Sn6 Bi1 Pb1'
_cell_volume   564.13293403
_cell_formula_units_Z   1
loop_
 _symmetry_equiv_pos_site_id
 _symmetry_equiv_pos_as_xyz
  1  'x, y, z'
loop_
 _atom_site_type_symbol
 _atom_site_label
 _atom_site_symmetry_multiplicity
 _atom_site_fract_x
 _atom_site_fract_y
 _atom_site_fract_z
 _atom_site_occupancy
  Li  Li0  1  0.166205  0.832378  0.196260  1
  Li  Li1  1  0.335716  0.171198  0.690881  1
  Li  Li2  1  0.828825  0.664312  0.690246  1
  Li  Li3  1  0.167735  0.334991  0.192955  1
  Li  Li4  1  0.665441  0.831792  0.193135  1
  Li  Li5  1  0.833242  0.166765  0.693998  1
  Li  Li6  1  0.335438  0.664603  0.815592  1
  Li  Li7  1  0.667041  0.334304  0.313832  1
  Y  Y8  1  0.513785  0.488017  0.990893  1
  Y  Y9  1  0.022243  0.507238  0.488896  1
  Y  Y10  1  0.493271  0.977093  0.489610  1
  Y  Y11  1  0.518588  0.027128  0.993216  1
  Y  Y12  1  0.972414  0.482123  0.994167  1
  Y  Y13  1  0.487273  0.514369  0.491469  1
  Y  Y14  1  0.996248  0.002145  0.987346  1
  Y  Y15  1  0.996559  0.001499  0.484218  1
  Sn  Sn16  1  0.834006  0.666743  0.256654  1
  Sn  Sn17  1  0.166068  0.333234  0.756885  1
  Sn  Sn18  1  0.666758  0.833967  0.756923  1
  Sn  Sn19  1  0.833489  0.166481  0.256070  1
  Sn  Sn20  1  0.332667  0.667334  0.223372  1
  Sn  Sn21  1  0.666990  0.332924  0.722802  1
  Bi  Bi22  1  0.166703  0.833361  0.754013  1
  Pb  Pb23  1  0.333294  0.166002  0.256572  1
