# generated using pymatgen
data_TbTaTi(Nb2Sn3)2
_symmetry_space_group_name_H-M   'P 1'
_cell_length_a   5.80022100
_cell_length_b   5.78446042
_cell_length_c   9.63780800
_cell_angle_alpha   90.00000000
_cell_angle_beta   90.00000000
_cell_angle_gamma   120.09016570
_symmetry_Int_Tables_number   1
_chemical_formula_structural   TbTaTi(Nb2Sn3)2
_chemical_formula_sum   'Tb1 Ta1 Ti1 Nb4 Sn6'
_cell_volume   279.78278756
_cell_formula_units_Z   1
loop_
 _symmetry_equiv_pos_site_id
 _symmetry_equiv_pos_as_xyz
  1  'x, y, z'
loop_
 _atom_site_type_symbol
 _atom_site_label
 _atom_site_symmetry_multiplicity
 _atom_site_fract_x
 _atom_site_fract_y
 _atom_site_fract_z
 _atom_site_occupancy
  Tb  Tb0  1  0.000000  0.000000  0.998196  1
  Ta  Ta1  1  0.500000  0.000000  0.749601  1
  Ti  Ti2  1  0.500000  0.000000  0.248815  1
  Nb  Nb3  1  0.000000  0.500000  0.752540  1
  Nb  Nb4  1  0.500000  0.500000  0.752540  1
  Nb  Nb5  1  0.000000  0.500000  0.249531  1
  Nb  Nb6  1  0.500000  0.500000  0.249531  1
  Sn  Sn7  1  0.664787  0.329574  0.498946  1
  Sn  Sn8  1  0.335213  0.670426  0.498946  1
  Sn  Sn9  1  0.665436  0.330871  0.001955  1
  Sn  Sn10  1  0.334564  0.669129  0.001955  1
  Sn  Sn11  1  0.000000  0.000000  0.671079  1
  Sn  Sn12  1  0.000000  0.000000  0.326364  1
