# generated using pymatgen
data_Tb2DyTeP2
_symmetry_space_group_name_H-M   'P 1'
_cell_length_a   4.11389700
_cell_length_b   10.30158160
_cell_length_c   7.09909500
_cell_angle_alpha   89.88824026
_cell_angle_beta   90.00000000
_cell_angle_gamma   90.00000000
_symmetry_Int_Tables_number   1
_chemical_formula_structural   Tb2DyTeP2
_chemical_formula_sum   'Tb4 Dy2 Te2 P4'
_cell_volume   300.85655804
_cell_formula_units_Z   2
loop_
 _symmetry_equiv_pos_site_id
 _symmetry_equiv_pos_as_xyz
  1  'x, y, z'
loop_
 _atom_site_type_symbol
 _atom_site_label
 _atom_site_symmetry_multiplicity
 _atom_site_fract_x
 _atom_site_fract_y
 _atom_site_fract_z
 _atom_site_occupancy
  Tb  Tb0  1  0.250000  0.799559  0.916369  1
  Tb  Tb1  1  0.750000  0.200441  0.083631  1
  Tb  Tb2  1  0.750000  0.798710  0.416768  1
  Tb  Tb3  1  0.250000  0.201290  0.583232  1
  Dy  Dy4  1  0.250000  0.500132  0.249596  1
  Dy  Dy5  1  0.750000  0.499868  0.750404  1
  Te  Te6  1  0.750000  0.000289  0.749375  1
  Te  Te7  1  0.250000  0.999711  0.250625  1
  P  P8  1  0.250000  0.656339  0.583882  1
  P  P9  1  0.750000  0.343661  0.416118  1
  P  P10  1  0.750000  0.656912  0.083267  1
  P  P11  1  0.250000  0.343088  0.916733  1
