# generated using pymatgen
data_YbTh3(Ge5Os3)2
_symmetry_space_group_name_H-M   'P 1'
_cell_length_a   8.46418160
_cell_length_b   8.43557472
_cell_length_c   6.02157056
_cell_angle_alpha   70.50826534
_cell_angle_beta   70.76890831
_cell_angle_gamma   94.59627414
_symmetry_Int_Tables_number   1
_chemical_formula_structural   YbTh3(Ge5Os3)2
_chemical_formula_sum   'Yb1 Th3 Ge10 Os6'
_cell_volume   373.86071540
_cell_formula_units_Z   1
loop_
 _symmetry_equiv_pos_site_id
 _symmetry_equiv_pos_as_xyz
  1  'x, y, z'
loop_
 _atom_site_type_symbol
 _atom_site_label
 _atom_site_symmetry_multiplicity
 _atom_site_fract_x
 _atom_site_fract_y
 _atom_site_fract_z
 _atom_site_occupancy
  Yb  Yb0  1  0.869450  0.594030  0.763501  1
  Th  Th1  1  0.401962  0.128522  0.739838  1
  Th  Th2  1  0.128907  0.407008  0.238122  1
  Th  Th3  1  0.596764  0.868863  0.261656  1
  Ge  Ge4  1  0.074631  0.263750  0.826296  1
  Ge  Ge5  1  0.746624  0.917591  0.672614  1
  Ge  Ge6  1  0.924019  0.736182  0.175935  1
  Ge  Ge7  1  0.257738  0.074643  0.328880  1
  Ge  Ge8  1  0.197080  0.787422  0.756512  1
  Ge  Ge9  1  0.794256  0.207129  0.248917  1
  Ge  Ge10  1  0.518544  0.492231  0.746706  1
  Ge  Ge11  1  0.490239  0.512561  0.245186  1
  Ge  Ge12  1  0.774623  0.230691  0.749344  1
  Ge  Ge13  1  0.221877  0.773387  0.254291  1
  Os  Os14  1  0.259736  0.546950  0.630455  1
  Os  Os15  1  0.453565  0.750248  0.864333  1
  Os  Os16  1  0.741675  0.450557  0.370395  1
  Os  Os17  1  0.544696  0.251358  0.135081  1
  Os  Os18  1  0.006766  0.000062  0.747223  1
  Os  Os19  1  0.996850  0.006816  0.244719  1
