# generated using pymatgen
data_Ba4Y2Sc5VO16
_symmetry_space_group_name_H-M   'P 1'
_cell_length_a   5.72719050
_cell_length_b   5.72791581
_cell_length_c   12.97230644
_cell_angle_alpha   77.25126886
_cell_angle_beta   77.25259140
_cell_angle_gamma   90.01845175
_symmetry_Int_Tables_number   1
_chemical_formula_structural   Ba4Y2Sc5VO16
_chemical_formula_sum   'Ba4 Y2 Sc5 V1 O16'
_cell_volume   404.29557334
_cell_formula_units_Z   1
loop_
 _symmetry_equiv_pos_site_id
 _symmetry_equiv_pos_as_xyz
  1  'x, y, z'
loop_
 _atom_site_type_symbol
 _atom_site_label
 _atom_site_symmetry_multiplicity
 _atom_site_fract_x
 _atom_site_fract_y
 _atom_site_fract_z
 _atom_site_occupancy
  Ba  Ba0  1  0.421766  0.921765  0.156460  1
  Ba  Ba1  1  0.921766  0.421782  0.156455  1
  Ba  Ba2  1  0.078347  0.578333  0.843316  1
  Ba  Ba3  1  0.578340  0.078342  0.843311  1
  Y  Y4  1  0.250000  0.749974  0.500026  1
  Y  Y5  1  0.749969  0.249993  0.500043  1
  Sc  Sc6  1  0.500058  0.500050  0.999903  1
  Sc  Sc7  1  0.830295  0.830281  0.339470  1
  Sc  Sc8  1  0.329660  0.329654  0.340708  1
  Sc  Sc9  1  0.670317  0.670324  0.659338  1
  Sc  Sc10  1  0.169687  0.169694  0.660585  1
  V  V11  1  0.000041  0.000042  0.999913  1
  O  O12  1  0.246171  0.246175  0.999937  1
  O  O13  1  0.753893  0.753891  0.999922  1
  O  O14  1  0.246146  0.753909  0.999923  1
  O  O15  1  0.753926  0.246162  0.999926  1
  O  O16  1  0.409006  0.408998  0.181983  1
  O  O17  1  0.909406  0.909403  0.181153  1
  O  O18  1  0.590984  0.590989  0.818030  1
  O  O19  1  0.090566  0.090580  0.818879  1
  O  O20  1  0.556349  0.056266  0.387369  1
  O  O21  1  0.056275  0.556337  0.387367  1
  O  O22  1  0.056181  0.056160  0.387559  1
  O  O23  1  0.556261  0.556258  0.387553  1
  O  O24  1  0.943623  0.443561  0.612832  1
  O  O25  1  0.443567  0.943646  0.612833  1
  O  O26  1  0.443649  0.443670  0.612609  1
  O  O27  1  0.943755  0.943760  0.612602  1
