# generated using pymatgen
data_Tb3Y6Lu7(CdNi)4
_symmetry_space_group_name_H-M   'P 1'
_cell_length_a   9.49093856
_cell_length_b   9.49066643
_cell_length_c   9.49066700
_cell_angle_alpha   59.99999452
_cell_angle_beta   60.00094300
_cell_angle_gamma   60.00093980
_symmetry_Int_Tables_number   1
_chemical_formula_structural   Tb3Y6Lu7(CdNi)4
_chemical_formula_sum   'Tb3 Y6 Lu7 Cd4 Ni4'
_cell_volume   604.49647214
_cell_formula_units_Z   1
loop_
 _symmetry_equiv_pos_site_id
 _symmetry_equiv_pos_as_xyz
  1  'x, y, z'
loop_
 _atom_site_type_symbol
 _atom_site_label
 _atom_site_symmetry_multiplicity
 _atom_site_fract_x
 _atom_site_fract_y
 _atom_site_fract_z
 _atom_site_occupancy
  Tb  Tb0  1  0.598386  0.599452  0.599452  1
  Tb  Tb1  1  0.598386  0.599452  0.202711  1
  Tb  Tb2  1  0.598386  0.202711  0.599452  1
  Y  Y3  1  0.187069  0.812748  0.812748  1
  Y  Y4  1  0.813174  0.186877  0.186877  1
  Y  Y5  1  0.813174  0.186877  0.813071  1
  Y  Y6  1  0.187069  0.812748  0.187436  1
  Y  Y7  1  0.813174  0.813071  0.186877  1
  Y  Y8  1  0.187069  0.187436  0.812748  1
  Lu  Lu9  1  0.203987  0.598671  0.598671  1
  Lu  Lu10  1  0.064775  0.435718  0.435718  1
  Lu  Lu11  1  0.435511  0.064688  0.064688  1
  Lu  Lu12  1  0.435511  0.064688  0.435113  1
  Lu  Lu13  1  0.064775  0.435718  0.063790  1
  Lu  Lu14  1  0.435511  0.435113  0.064688  1
  Lu  Lu15  1  0.064775  0.063790  0.435718  1
  Cd  Cd16  1  0.832033  0.830500  0.830500  1
  Cd  Cd17  1  0.832033  0.830500  0.506965  1
  Cd  Cd18  1  0.832033  0.506965  0.830500  1
  Cd  Cd19  1  0.506630  0.831123  0.831123  1
  Ni  Ni20  1  0.389747  0.392359  0.392359  1
  Ni  Ni21  1  0.389747  0.392359  0.825535  1
  Ni  Ni22  1  0.389747  0.825535  0.392359  1
  Ni  Ni23  1  0.827299  0.390900  0.390900  1
