# generated using pymatgen
data_Tb6Y3HoRu4
_symmetry_space_group_name_H-M   'P 1'
_cell_length_a   6.40207007
_cell_length_b   7.29465863
_cell_length_c   8.52903198
_cell_angle_alpha   96.68469517
_cell_angle_beta   112.06777799
_cell_angle_gamma   89.86278944
_symmetry_Int_Tables_number   1
_chemical_formula_structural   Tb6Y3HoRu4
_chemical_formula_sum   'Tb6 Y3 Ho1 Ru4'
_cell_volume   366.25377759
_cell_formula_units_Z   1
loop_
 _symmetry_equiv_pos_site_id
 _symmetry_equiv_pos_as_xyz
  1  'x, y, z'
loop_
 _atom_site_type_symbol
 _atom_site_label
 _atom_site_symmetry_multiplicity
 _atom_site_fract_x
 _atom_site_fract_y
 _atom_site_fract_z
 _atom_site_occupancy
  Tb  Tb0  1  0.206330  0.414830  0.186359  1
  Tb  Tb1  1  0.640516  0.814473  0.433808  1
  Tb  Tb2  1  0.206815  0.685527  0.566423  1
  Tb  Tb3  1  0.359952  0.185679  0.566648  1
  Tb  Tb4  1  0.793467  0.314212  0.433309  1
  Tb  Tb5  1  0.422112  0.749856  0.999933  1
  Y  Y6  1  0.978594  0.916132  0.185973  1
  Y  Y7  1  0.793161  0.583994  0.813695  1
  Y  Y8  1  0.020680  0.084884  0.814004  1
  Ho  Ho9  1  0.576917  0.250124  0.000065  1
  Ru  Ru10  1  0.824081  0.574407  0.220186  1
  Ru  Ru11  1  0.602909  0.925704  0.779580  1
  Ru  Ru12  1  0.177139  0.424218  0.779358  1
  Ru  Ru13  1  0.397327  0.075960  0.220659  1
