# generated using pymatgen
data_Ho12TlZn(CoCu)2
_symmetry_space_group_name_H-M   'P 1'
_cell_length_a   8.38079693
_cell_length_b   8.38079735
_cell_length_c   8.38079718
_cell_angle_alpha   112.69170771
_cell_angle_beta   109.65627302
_cell_angle_gamma   106.13198569
_symmetry_Int_Tables_number   1
_chemical_formula_structural   Ho12TlZn(CoCu)2
_chemical_formula_sum   'Ho12 Tl1 Zn1 Co2 Cu2'
_cell_volume   451.65815018
_cell_formula_units_Z   1
loop_
 _symmetry_equiv_pos_site_id
 _symmetry_equiv_pos_as_xyz
  1  'x, y, z'
loop_
 _atom_site_type_symbol
 _atom_site_label
 _atom_site_symmetry_multiplicity
 _atom_site_fract_x
 _atom_site_fract_y
 _atom_site_fract_z
 _atom_site_occupancy
  Ho  Ho0  1  0.430892  0.235402  0.195491  1
  Ho  Ho1  1  0.569108  0.764598  0.804509  1
  Ho  Ho2  1  0.039911  0.235402  0.804509  1
  Ho  Ho3  1  0.960089  0.764598  0.195491  1
  Ho  Ho4  1  0.180042  0.287559  0.467599  1
  Ho  Ho5  1  0.819958  0.712441  0.532401  1
  Ho  Ho6  1  0.180042  0.712441  0.892484  1
  Ho  Ho7  1  0.819958  0.287559  0.107516  1
  Ho  Ho8  1  0.311072  0.620440  0.309369  1
  Ho  Ho9  1  0.688928  0.379560  0.690631  1
  Ho  Ho10  1  0.311072  0.001701  0.690631  1
  Ho  Ho11  1  0.688928  0.998299  0.309369  1
  Tl  Tl12  1  0.500000  0.500000  0.000000  1
  Zn  Zn13  1  0.000000  0.000000  0.000000  1
  Co  Co14  1  0.112618  0.612618  0.500000  1
  Co  Co15  1  0.887382  0.387382  0.500000  1
  Cu  Cu16  1  0.354060  0.000000  0.354060  1
  Cu  Cu17  1  0.645940  0.000000  0.645940  1
