# generated using pymatgen
data_Er6Sc4(InPb)3
_symmetry_space_group_name_H-M   'P 1'
_cell_length_a   8.83353400
_cell_length_b   8.83353413
_cell_length_c   6.33336600
_cell_angle_alpha   90.00000000
_cell_angle_beta   90.00000000
_cell_angle_gamma   119.99999951
_symmetry_Int_Tables_number   1
_chemical_formula_structural   Er6Sc4(InPb)3
_chemical_formula_sum   'Er6 Sc4 In3 Pb3'
_cell_volume   427.99056629
_cell_formula_units_Z   1
loop_
 _symmetry_equiv_pos_site_id
 _symmetry_equiv_pos_as_xyz
  1  'x, y, z'
loop_
 _atom_site_type_symbol
 _atom_site_label
 _atom_site_symmetry_multiplicity
 _atom_site_fract_x
 _atom_site_fract_y
 _atom_site_fract_z
 _atom_site_occupancy
  Er  Er0  1  0.764840  0.764840  0.750000  1
  Er  Er1  1  0.235160  0.000000  0.750000  1
  Er  Er2  1  0.000000  0.235160  0.750000  1
  Er  Er3  1  0.236046  0.236046  0.250000  1
  Er  Er4  1  0.763954  0.000000  0.250000  1
  Er  Er5  1  0.000000  0.763954  0.250000  1
  Sc  Sc6  1  0.666667  0.333333  0.006795  1
  Sc  Sc7  1  0.333333  0.666667  0.006795  1
  Sc  Sc8  1  0.333333  0.666667  0.493205  1
  Sc  Sc9  1  0.666667  0.333333  0.493205  1
  In  In10  1  0.596284  0.596284  0.250000  1
  In  In11  1  0.403716  0.000000  0.250000  1
  In  In12  1  0.000000  0.403716  0.250000  1
  Pb  Pb13  1  0.404090  0.404090  0.750000  1
  Pb  Pb14  1  0.595910  0.000000  0.750000  1
  Pb  Pb15  1  0.000000  0.595910  0.750000  1
