# generated using pymatgen
data_LiZr6Zn22C
_symmetry_space_group_name_H-M   'P 1'
_cell_length_a   8.69071022
_cell_length_b   8.69062274
_cell_length_c   8.69019600
_cell_angle_alpha   60.00102281
_cell_angle_beta   59.99905279
_cell_angle_gamma   60.00069242
_symmetry_Int_Tables_number   1
_chemical_formula_structural   LiZr6Zn22C
_chemical_formula_sum   'Li1 Zr6 Zn22 C1'
_cell_volume   464.11249582
_cell_formula_units_Z   1
loop_
 _symmetry_equiv_pos_site_id
 _symmetry_equiv_pos_as_xyz
  1  'x, y, z'
loop_
 _atom_site_type_symbol
 _atom_site_label
 _atom_site_symmetry_multiplicity
 _atom_site_fract_x
 _atom_site_fract_y
 _atom_site_fract_z
 _atom_site_occupancy
  Li  Li0  1  0.000000  0.000000  0.000000  1
  Zr  Zr1  1  0.691004  0.309014  0.308972  1
  Zr  Zr2  1  0.308996  0.690986  0.691028  1
  Zr  Zr3  1  0.308978  0.691018  0.308956  1
  Zr  Zr4  1  0.691022  0.308982  0.691044  1
  Zr  Zr5  1  0.308956  0.308977  0.691040  1
  Zr  Zr6  1  0.691044  0.691023  0.308960  1
  Zn  Zn7  1  0.118623  0.118638  0.118631  1
  Zn  Zn8  1  0.881377  0.881362  0.881369  1
  Zn  Zn9  1  0.118633  0.118624  0.644114  1
  Zn  Zn10  1  0.118637  0.644106  0.118622  1
  Zn  Zn11  1  0.881367  0.881376  0.355886  1
  Zn  Zn12  1  0.881363  0.355894  0.881378  1
  Zn  Zn13  1  0.644111  0.118635  0.118631  1
  Zn  Zn14  1  0.355889  0.881365  0.881369  1
  Zn  Zn15  1  0.500000  0.000000  0.000000  1
  Zn  Zn16  1  0.000000  0.500000  0.500000  1
  Zn  Zn17  1  0.000000  0.500000  0.000000  1
  Zn  Zn18  1  0.500000  0.000000  0.500000  1
  Zn  Zn19  1  0.000000  0.000000  0.500000  1
  Zn  Zn20  1  0.500000  0.500000  0.000000  1
  Zn  Zn21  1  0.330384  0.330415  0.330403  1
  Zn  Zn22  1  0.669616  0.669585  0.669597  1
  Zn  Zn23  1  0.330407  0.330391  0.008799  1
  Zn  Zn24  1  0.330411  0.008796  0.330384  1
  Zn  Zn25  1  0.669593  0.669609  0.991201  1
  Zn  Zn26  1  0.669589  0.991204  0.669616  1
  Zn  Zn27  1  0.008797  0.330411  0.330403  1
  Zn  Zn28  1  0.991203  0.669589  0.669597  1
  C  C29  1  0.500000  0.500000  0.500000  1
