# generated using pymatgen
data_K3Rb3Ho2F12
_symmetry_space_group_name_H-M   'P 1'
_cell_length_a   6.74028495
_cell_length_b   6.52245165
_cell_length_c   11.33109562
_cell_angle_alpha   55.20911124
_cell_angle_beta   89.99567045
_cell_angle_gamma   89.92546988
_symmetry_Int_Tables_number   1
_chemical_formula_structural   K3Rb3Ho2F12
_chemical_formula_sum   'K3 Rb3 Ho2 F12'
_cell_volume   409.10104572
_cell_formula_units_Z   1
loop_
 _symmetry_equiv_pos_site_id
 _symmetry_equiv_pos_as_xyz
  1  'x, y, z'
loop_
 _atom_site_type_symbol
 _atom_site_label
 _atom_site_symmetry_multiplicity
 _atom_site_fract_x
 _atom_site_fract_y
 _atom_site_fract_z
 _atom_site_occupancy
  K  K0  1  0.499298  0.497480  0.002450  1
  K  K1  1  0.998886  0.501159  0.498474  1
  K  K2  1  0.450524  0.732861  0.255538  1
  Rb  Rb3  1  0.049073  0.732159  0.752351  1
  Rb  Rb4  1  0.951737  0.264791  0.247818  1
  Rb  Rb5  1  0.546883  0.266485  0.747983  1
  Ho  Ho6  1  0.499727  0.001902  0.498118  1
  Ho  Ho7  1  0.999712  0.998316  0.001537  1
  F  F8  1  0.766595  0.771213  0.557755  1
  F  F9  1  0.236256  0.237926  0.438218  1
  F  F10  1  0.263809  0.233213  0.940019  1
  F  F11  1  0.730408  0.768655  0.065589  1
  F  F12  1  0.456936  0.874073  0.721386  1
  F  F13  1  0.543534  0.112527  0.277951  1
  F  F14  1  0.955703  0.124524  0.778483  1
  F  F15  1  0.056263  0.872472  0.222887  1
  F  F16  1  0.319264  0.687911  0.541906  1
  F  F17  1  0.674869  0.323499  0.449857  1
  F  F18  1  0.820756  0.314041  0.958055  1
  F  F19  1  0.179767  0.684791  0.043623  1
