# generated using pymatgen
data_Y5(Hg2Ir)2
_symmetry_space_group_name_H-M   'P 1'
_cell_length_a   3.71823300
_cell_length_b   7.93367400
_cell_length_c   17.92642500
_cell_angle_alpha   90.00000000
_cell_angle_beta   90.00000000
_cell_angle_gamma   90.00000000
_symmetry_Int_Tables_number   1
_chemical_formula_structural   Y5(Hg2Ir)2
_chemical_formula_sum   'Y10 Hg8 Ir4'
_cell_volume   528.81606540
_cell_formula_units_Z   2
loop_
 _symmetry_equiv_pos_site_id
 _symmetry_equiv_pos_as_xyz
  1  'x, y, z'
loop_
 _atom_site_type_symbol
 _atom_site_label
 _atom_site_symmetry_multiplicity
 _atom_site_fract_x
 _atom_site_fract_y
 _atom_site_fract_z
 _atom_site_occupancy
  Y  Y0  1  0.500000  0.240003  0.782253  1
  Y  Y1  1  0.500000  0.759997  0.217747  1
  Y  Y2  1  0.500000  0.259997  0.282253  1
  Y  Y3  1  0.500000  0.740003  0.717747  1
  Y  Y4  1  0.500000  0.108657  0.589552  1
  Y  Y5  1  0.500000  0.891343  0.410448  1
  Y  Y6  1  0.500000  0.391343  0.089552  1
  Y  Y7  1  0.500000  0.608657  0.910448  1
  Y  Y8  1  0.500000  0.000000  0.000000  1
  Y  Y9  1  0.500000  0.500000  0.500000  1
  Hg  Hg10  1  0.000000  0.081963  0.143906  1
  Hg  Hg11  1  0.000000  0.918037  0.856094  1
  Hg  Hg12  1  0.000000  0.418037  0.643906  1
  Hg  Hg13  1  0.000000  0.581963  0.356094  1
  Hg  Hg14  1  0.000000  0.210206  0.438769  1
  Hg  Hg15  1  0.000000  0.789794  0.561231  1
  Hg  Hg16  1  0.000000  0.289794  0.938769  1
  Hg  Hg17  1  0.000000  0.710206  0.061231  1
  Ir  Ir18  1  0.000000  0.020928  0.698911  1
  Ir  Ir19  1  0.000000  0.979072  0.301089  1
  Ir  Ir20  1  0.000000  0.479072  0.198911  1
  Ir  Ir21  1  0.000000  0.520928  0.801089  1
