# generated using pymatgen
data_Sr4MgTi3H20
_symmetry_space_group_name_H-M   'P 1'
_cell_length_a   12.47338274
_cell_length_b   5.20923900
_cell_length_c   4.56637875
_cell_angle_alpha   89.99976512
_cell_angle_beta   89.82637730
_cell_angle_gamma   90.00079723
_symmetry_Int_Tables_number   1
_chemical_formula_structural   Sr4MgTi3H20
_chemical_formula_sum   'Sr4 Mg1 Ti3 H20'
_cell_volume   296.70746151
_cell_formula_units_Z   1
loop_
 _symmetry_equiv_pos_site_id
 _symmetry_equiv_pos_as_xyz
  1  'x, y, z'
loop_
 _atom_site_type_symbol
 _atom_site_label
 _atom_site_symmetry_multiplicity
 _atom_site_fract_x
 _atom_site_fract_y
 _atom_site_fract_z
 _atom_site_occupancy
  Sr  Sr0  1  0.897133  0.000035  0.010836  1
  Sr  Sr1  1  0.098298  0.500035  0.495295  1
  Sr  Sr2  1  0.596790  0.999993  0.517175  1
  Sr  Sr3  1  0.401367  0.499972  0.980482  1
  Mg  Mg4  1  0.173383  0.000023  0.001444  1
  Ti  Ti5  1  0.799993  0.500007  0.501866  1
  Ti  Ti6  1  0.311402  0.999968  0.501216  1
  Ti  Ti7  1  0.695719  0.500009  0.002490  1
  H  H8  1  0.580667  0.732714  0.006870  1
  H  H9  1  0.580670  0.267279  0.006845  1
  H  H10  1  0.844671  0.500022  0.069567  1
  H  H11  1  0.261216  0.246394  0.256273  1
  H  H12  1  0.741662  0.244163  0.262417  1
  H  H13  1  0.261209  0.753526  0.256251  1
  H  H14  1  0.741660  0.755858  0.262409  1
  H  H15  1  0.162301  0.999970  0.483890  1
  H  H16  1  0.421427  0.762361  0.474327  1
  H  H17  1  0.421421  0.237567  0.474302  1
  H  H18  1  0.916286  0.266684  0.504901  1
  H  H19  1  0.916281  0.733373  0.504878  1
  H  H20  1  0.649917  0.500002  0.574285  1
  H  H21  1  0.253546  0.755437  0.734544  1
  H  H22  1  0.753284  0.755649  0.761085  1
  H  H23  1  0.253553  0.244507  0.734490  1
  H  H24  1  0.753285  0.244376  0.761079  1
  H  H25  1  0.381574  0.999973  0.862804  1
  H  H26  1  0.065654  0.256573  0.999007  1
  H  H27  1  0.065636  0.743521  0.998973  1
