# generated using pymatgen
data_Er4Co5Si10Ir
_symmetry_space_group_name_H-M   'P 1'
_cell_length_a   5.56370907
_cell_length_b   7.89169892
_cell_length_c   7.89169875
_cell_angle_alpha   74.95646712
_cell_angle_beta   69.35945928
_cell_angle_gamma   69.35945667
_symmetry_Int_Tables_number   1
_chemical_formula_structural   Er4Co5Si10Ir
_chemical_formula_sum   'Er4 Co5 Si10 Ir1'
_cell_volume   299.80267974
_cell_formula_units_Z   1
loop_
 _symmetry_equiv_pos_site_id
 _symmetry_equiv_pos_as_xyz
  1  'x, y, z'
loop_
 _atom_site_type_symbol
 _atom_site_label
 _atom_site_symmetry_multiplicity
 _atom_site_fract_x
 _atom_site_fract_y
 _atom_site_fract_z
 _atom_site_occupancy
  Er  Er0  1  0.372519  0.866553  0.400604  1
  Er  Er1  1  0.639676  0.133447  0.599396  1
  Er  Er2  1  0.860324  0.400604  0.866553  1
  Er  Er3  1  0.127481  0.599396  0.133447  1
  Co  Co4  1  0.250000  0.000000  0.000000  1
  Co  Co5  1  0.141230  0.253309  0.471955  1
  Co  Co6  1  0.866495  0.746691  0.528045  1
  Co  Co7  1  0.633505  0.471955  0.253309  1
  Co  Co8  1  0.358770  0.528045  0.746691  1
  Si  Si9  1  0.750000  0.500000  0.500000  1
  Si  Si10  1  0.250000  0.500000  0.500000  1
  Si  Si11  1  0.520080  0.229920  0.229920  1
  Si  Si12  1  0.979920  0.770080  0.770080  1
  Si  Si13  1  0.480975  0.769025  0.769025  1
  Si  Si14  1  0.019025  0.230975  0.230975  1
  Si  Si15  1  0.118708  0.057470  0.733480  1
  Si  Si16  1  0.909658  0.942530  0.266520  1
  Si  Si17  1  0.590342  0.733480  0.057470  1
  Si  Si18  1  0.381292  0.266520  0.942530  1
  Ir  Ir19  1  0.750000  0.000000  0.000000  1
