# generated using pymatgen
data_Na20TaAl2VAs12
_symmetry_space_group_name_H-M   'P 1'
_cell_length_a   7.52372885
_cell_length_b   8.35543841
_cell_length_c   15.87086041
_cell_angle_alpha   58.97985928
_cell_angle_beta   89.99951239
_cell_angle_gamma   90.05087213
_symmetry_Int_Tables_number   1
_chemical_formula_structural   Na20TaAl2VAs12
_chemical_formula_sum   'Na20 Ta1 Al2 V1 As12'
_cell_volume   855.02033309
_cell_formula_units_Z   1
loop_
 _symmetry_equiv_pos_site_id
 _symmetry_equiv_pos_as_xyz
  1  'x, y, z'
loop_
 _atom_site_type_symbol
 _atom_site_label
 _atom_site_symmetry_multiplicity
 _atom_site_fract_x
 _atom_site_fract_y
 _atom_site_fract_z
 _atom_site_occupancy
  Na  Na0  1  0.739210  0.941735  0.246221  1
  Na  Na1  1  0.261899  0.942247  0.744756  1
  Na  Na2  1  0.770252  0.054057  0.757934  1
  Na  Na3  1  0.228210  0.054580  0.260683  1
  Na  Na4  1  0.267613  0.244758  0.420097  1
  Na  Na5  1  0.733897  0.247101  0.918663  1
  Na  Na6  1  0.218517  0.753282  0.579338  1
  Na  Na7  1  0.782016  0.749496  0.079758  1
  Na  Na8  1  0.088380  0.345196  0.582685  1
  Na  Na9  1  0.911620  0.346524  0.082823  1
  Na  Na10  1  0.406175  0.654142  0.419964  1
  Na  Na11  1  0.595429  0.655372  0.917957  1
  Na  Na12  1  0.596292  0.333645  0.243967  1
  Na  Na13  1  0.405027  0.336902  0.741868  1
  Na  Na14  1  0.907608  0.666058  0.758910  1
  Na  Na15  1  0.091539  0.664035  0.260090  1
  Na  Na16  1  0.769701  0.418133  0.409500  1
  Na  Na17  1  0.228788  0.423271  0.907601  1
  Na  Na18  1  0.740518  0.582734  0.589543  1
  Na  Na19  1  0.258920  0.579220  0.089848  1
  Ta  Ta20  1  0.384516  0.988970  0.078546  1
  Al  Al21  1  0.886903  0.013249  0.417361  1
  Al  Al22  1  0.111266  0.013422  0.915966  1
  V  V23  1  0.616276  0.988929  0.578247  1
  As  As24  1  0.982893  0.317658  0.271881  1
  As  As25  1  0.017773  0.318458  0.771337  1
  As  As26  1  0.522320  0.702417  0.719952  1
  As  As27  1  0.481654  0.690628  0.226061  1
  As  As28  1  0.936666  0.020509  0.573632  1
  As  As29  1  0.051897  0.020676  0.073220  1
  As  As30  1  0.545546  0.977974  0.433353  1
  As  As31  1  0.457081  0.978719  0.927537  1
  As  As32  1  0.003071  0.727107  0.421240  1
  As  As33  1  0.996766  0.726657  0.921049  1
  As  As34  1  0.495164  0.255192  0.579344  1
  As  As35  1  0.508596  0.266942  0.079068  1
