# generated using pymatgen
data_Ce5Dy3(Ni2Sn)4
_symmetry_space_group_name_H-M   'P 1'
_cell_length_a   7.47457000
_cell_length_b   7.47456986
_cell_length_c   7.35796100
_cell_angle_alpha   90.00000000
_cell_angle_beta   90.00000000
_cell_angle_gamma   90.75379397
_symmetry_Int_Tables_number   1
_chemical_formula_structural   Ce5Dy3(Ni2Sn)4
_chemical_formula_sum   'Ce5 Dy3 Ni8 Sn4'
_cell_volume   411.04778687
_cell_formula_units_Z   1
loop_
 _symmetry_equiv_pos_site_id
 _symmetry_equiv_pos_as_xyz
  1  'x, y, z'
loop_
 _atom_site_type_symbol
 _atom_site_label
 _atom_site_symmetry_multiplicity
 _atom_site_fract_x
 _atom_site_fract_y
 _atom_site_fract_z
 _atom_site_occupancy
  Ce  Ce0  1  0.180436  0.180436  0.000000  1
  Ce  Ce1  1  0.673409  0.327599  0.000000  1
  Ce  Ce2  1  0.826643  0.826643  0.500000  1
  Ce  Ce3  1  0.170896  0.170896  0.500000  1
  Ce  Ce4  1  0.327599  0.673409  0.000000  1
  Dy  Dy5  1  0.676125  0.320227  0.500000  1
  Dy  Dy6  1  0.320227  0.676125  0.500000  1
  Dy  Dy7  1  0.819964  0.819964  0.000000  1
  Ni  Ni8  1  0.373292  0.373292  0.254597  1
  Ni  Ni9  1  0.881695  0.126745  0.766403  1
  Ni  Ni10  1  0.126745  0.881695  0.766403  1
  Ni  Ni11  1  0.621658  0.621658  0.264013  1
  Ni  Ni12  1  0.126745  0.881695  0.233597  1
  Ni  Ni13  1  0.881695  0.126745  0.233597  1
  Ni  Ni14  1  0.373292  0.373292  0.745403  1
  Ni  Ni15  1  0.621658  0.621658  0.735987  1
  Sn  Sn16  1  0.501954  0.997006  0.252961  1
  Sn  Sn17  1  0.501954  0.997006  0.747039  1
  Sn  Sn18  1  0.997006  0.501954  0.252961  1
  Sn  Sn19  1  0.997006  0.501954  0.747039  1
