# generated using pymatgen
data_Lu3In3Ag2Pd
_symmetry_space_group_name_H-M   'P 1'
_cell_length_a   7.92656700
_cell_length_b   7.92656778
_cell_length_c   3.66110000
_cell_angle_alpha   90.00000000
_cell_angle_beta   90.00000000
_cell_angle_gamma   120.00000814
_symmetry_Int_Tables_number   1
_chemical_formula_structural   Lu3In3Ag2Pd
_chemical_formula_sum   'Lu3 In3 Ag2 Pd1'
_cell_volume   199.21062594
_cell_formula_units_Z   1
loop_
 _symmetry_equiv_pos_site_id
 _symmetry_equiv_pos_as_xyz
  1  'x, y, z'
loop_
 _atom_site_type_symbol
 _atom_site_label
 _atom_site_symmetry_multiplicity
 _atom_site_fract_x
 _atom_site_fract_y
 _atom_site_fract_z
 _atom_site_occupancy
  Lu  Lu0  1  0.979439  0.390114  0.500000  1
  Lu  Lu1  1  0.609886  0.589325  0.500000  1
  Lu  Lu2  1  0.410675  0.020561  0.500000  1
  In  In3  1  0.005924  0.729505  0.000000  1
  In  In4  1  0.270495  0.276419  0.000000  1
  In  In5  1  0.723581  0.994076  0.000000  1
  Ag  Ag6  1  0.333333  0.666667  0.000000  1
  Ag  Ag7  1  0.000000  0.000000  0.500000  1
  Pd  Pd8  1  0.666667  0.333333  0.000000  1
