# generated using pymatgen
data_Ho3Sc2(In2Au)2
_symmetry_space_group_name_H-M   'P 1'
_cell_length_a   3.60018000
_cell_length_b   8.03933600
_cell_length_c   18.01455200
_cell_angle_alpha   90.00000000
_cell_angle_beta   90.00000000
_cell_angle_gamma   90.00000000
_symmetry_Int_Tables_number   1
_chemical_formula_structural   Ho3Sc2(In2Au)2
_chemical_formula_sum   'Ho6 Sc4 In8 Au4'
_cell_volume   521.39619961
_cell_formula_units_Z   2
loop_
 _symmetry_equiv_pos_site_id
 _symmetry_equiv_pos_as_xyz
  1  'x, y, z'
loop_
 _atom_site_type_symbol
 _atom_site_label
 _atom_site_symmetry_multiplicity
 _atom_site_fract_x
 _atom_site_fract_y
 _atom_site_fract_z
 _atom_site_occupancy
  Ho  Ho0  1  0.000000  0.237463  0.213385  1
  Ho  Ho1  1  0.000000  0.762537  0.786615  1
  Ho  Ho2  1  0.000000  0.262537  0.713385  1
  Ho  Ho3  1  0.000000  0.737463  0.286615  1
  Ho  Ho4  1  0.000000  0.000000  0.000000  1
  Ho  Ho5  1  0.000000  0.500000  0.500000  1
  Sc  Sc6  1  0.000000  0.121603  0.419743  1
  Sc  Sc7  1  0.000000  0.878397  0.580257  1
  Sc  Sc8  1  0.000000  0.378397  0.919743  1
  Sc  Sc9  1  0.000000  0.621603  0.080257  1
  In  In10  1  0.500000  0.412475  0.352771  1
  In  In11  1  0.500000  0.587525  0.647229  1
  In  In12  1  0.500000  0.087525  0.852771  1
  In  In13  1  0.500000  0.912475  0.147229  1
  In  In14  1  0.500000  0.305274  0.059392  1
  In  In15  1  0.500000  0.694726  0.940608  1
  In  In16  1  0.500000  0.194726  0.559392  1
  In  In17  1  0.500000  0.805274  0.440608  1
  Au  Au18  1  0.500000  0.032811  0.306623  1
  Au  Au19  1  0.500000  0.967189  0.693377  1
  Au  Au20  1  0.500000  0.467189  0.806623  1
  Au  Au21  1  0.500000  0.532811  0.193377  1
