# generated using pymatgen
data_K7TaP4
_symmetry_space_group_name_H-M   'P 1'
_cell_length_a   8.20486700
_cell_length_b   9.01900300
_cell_length_c   10.10509600
_cell_angle_alpha   90.00000000
_cell_angle_beta   90.00000000
_cell_angle_gamma   90.00000000
_symmetry_Int_Tables_number   1
_chemical_formula_structural   K7TaP4
_chemical_formula_sum   'K14 Ta2 P8'
_cell_volume   747.77427546
_cell_formula_units_Z   2
loop_
 _symmetry_equiv_pos_site_id
 _symmetry_equiv_pos_as_xyz
  1  'x, y, z'
loop_
 _atom_site_type_symbol
 _atom_site_label
 _atom_site_symmetry_multiplicity
 _atom_site_fract_x
 _atom_site_fract_y
 _atom_site_fract_z
 _atom_site_occupancy
  K  K0  1  0.709028  0.833976  0.716792  1
  K  K1  1  0.209028  0.166024  0.783208  1
  K  K2  1  0.209028  0.166024  0.216792  1
  K  K3  1  0.709028  0.833976  0.283208  1
  K  K4  1  0.872393  0.465723  0.711127  1
  K  K5  1  0.372393  0.534277  0.788873  1
  K  K6  1  0.372393  0.534277  0.211127  1
  K  K7  1  0.872393  0.465723  0.288873  1
  K  K8  1  0.161148  0.661595  0.500000  1
  K  K9  1  0.661148  0.338405  0.000000  1
  K  K10  1  0.877006  0.035891  0.000000  1
  K  K11  1  0.377006  0.964109  0.500000  1
  K  K12  1  0.391365  0.893251  0.000000  1
  K  K13  1  0.891365  0.106749  0.500000  1
  Ta  Ta14  1  0.998984  0.673180  0.000000  1
  Ta  Ta15  1  0.498984  0.326820  0.500000  1
  P  P16  1  0.705004  0.682020  0.000000  1
  P  P17  1  0.205004  0.317980  0.500000  1
  P  P18  1  0.092560  0.804667  0.800806  1
  P  P19  1  0.592560  0.195333  0.699194  1
  P  P20  1  0.592560  0.195333  0.300806  1
  P  P21  1  0.092560  0.804667  0.199194  1
  P  P22  1  0.576883  0.586930  0.500000  1
  P  P23  1  0.076883  0.413070  0.000000  1
