# generated using pymatgen
data_Sn14PdRu5
_symmetry_space_group_name_H-M   'P 1'
_cell_length_a   8.23467732
_cell_length_b   8.23467783
_cell_length_c   8.23467764
_cell_angle_alpha   109.63525152
_cell_angle_beta   109.14365452
_cell_angle_gamma   109.63525688
_symmetry_Int_Tables_number   1
_chemical_formula_structural   Sn14PdRu5
_chemical_formula_sum   'Sn14 Pd1 Ru5'
_cell_volume   429.84041111
_cell_formula_units_Z   1
loop_
 _symmetry_equiv_pos_site_id
 _symmetry_equiv_pos_as_xyz
  1  'x, y, z'
loop_
 _atom_site_type_symbol
 _atom_site_label
 _atom_site_symmetry_multiplicity
 _atom_site_fract_x
 _atom_site_fract_y
 _atom_site_fract_z
 _atom_site_occupancy
  Sn  Sn0  1  0.252746  0.745306  0.507439  1
  Sn  Sn1  1  0.762133  0.254694  0.507439  1
  Sn  Sn2  1  0.749845  0.500000  0.249845  1
  Sn  Sn3  1  0.249845  0.500000  0.749845  1
  Sn  Sn4  1  0.507439  0.745306  0.252746  1
  Sn  Sn5  1  0.507439  0.254694  0.762133  1
  Sn  Sn6  1  0.993210  0.000000  0.323342  1
  Sn  Sn7  1  0.675496  0.000000  0.999613  1
  Sn  Sn8  1  0.993210  0.669868  0.993210  1
  Sn  Sn9  1  0.323342  0.330132  0.323342  1
  Sn  Sn10  1  0.999613  0.324117  0.999613  1
  Sn  Sn11  1  0.675496  0.675883  0.675496  1
  Sn  Sn12  1  0.323342  0.000000  0.993210  1
  Sn  Sn13  1  0.999613  0.000000  0.675496  1
  Pd  Pd14  1  0.342083  0.000000  0.342083  1
  Ru  Ru15  1  0.998970  0.344222  0.343192  1
  Ru  Ru16  1  0.998970  0.655778  0.654748  1
  Ru  Ru17  1  0.343192  0.344222  0.998970  1
  Ru  Ru18  1  0.654748  0.655778  0.998970  1
  Ru  Ru19  1  0.649267  0.000000  0.649267  1
