# generated using pymatgen
data_Tm3Si3Pd2
_symmetry_space_group_name_H-M   'P 1'
_cell_length_a   4.24981800
_cell_length_b   5.58348436
_cell_length_c   13.94601400
_cell_angle_alpha   90.00000000
_cell_angle_beta   90.00000000
_cell_angle_gamma   67.63097960
_symmetry_Int_Tables_number   1
_chemical_formula_structural   Tm3Si3Pd2
_chemical_formula_sum   'Tm6 Si6 Pd4'
_cell_volume   306.02082669
_cell_formula_units_Z   2
loop_
 _symmetry_equiv_pos_site_id
 _symmetry_equiv_pos_as_xyz
  1  'x, y, z'
loop_
 _atom_site_type_symbol
 _atom_site_label
 _atom_site_symmetry_multiplicity
 _atom_site_fract_x
 _atom_site_fract_y
 _atom_site_fract_z
 _atom_site_occupancy
  Tm  Tm0  1  0.414315  0.171370  0.111393  1
  Tm  Tm1  1  0.136565  0.726871  0.250000  1
  Tm  Tm2  1  0.414315  0.171370  0.388607  1
  Tm  Tm3  1  0.585685  0.828631  0.611393  1
  Tm  Tm4  1  0.863436  0.273130  0.750000  1
  Tm  Tm5  1  0.585685  0.828631  0.888607  1
  Si  Si6  1  0.106139  0.787723  0.038639  1
  Si  Si7  1  0.841056  0.317889  0.250000  1
  Si  Si8  1  0.106139  0.787723  0.461362  1
  Si  Si9  1  0.893861  0.212278  0.538638  1
  Si  Si10  1  0.158945  0.682110  0.750000  1
  Si  Si11  1  0.893861  0.212278  0.961362  1
  Pd  Pd12  1  0.704583  0.590835  0.095412  1
  Pd  Pd13  1  0.704583  0.590835  0.404588  1
  Pd  Pd14  1  0.295417  0.409166  0.595412  1
  Pd  Pd15  1  0.295417  0.409166  0.904588  1
