# generated using pymatgen
data_NdDyB6Ru
_symmetry_space_group_name_H-M   'P 1'
_cell_length_a   3.72457400
_cell_length_b   9.23777600
_cell_length_c   11.65752100
_cell_angle_alpha   90.00000000
_cell_angle_beta   90.00000000
_cell_angle_gamma   90.00000000
_symmetry_Int_Tables_number   1
_chemical_formula_structural   NdDyB6Ru
_chemical_formula_sum   'Nd4 Dy4 B24 Ru4'
_cell_volume   401.09776398
_cell_formula_units_Z   4
loop_
 _symmetry_equiv_pos_site_id
 _symmetry_equiv_pos_as_xyz
  1  'x, y, z'
loop_
 _atom_site_type_symbol
 _atom_site_label
 _atom_site_symmetry_multiplicity
 _atom_site_fract_x
 _atom_site_fract_y
 _atom_site_fract_z
 _atom_site_occupancy
  Nd  Nd0  1  0.000000  0.323415  0.414227  1
  Nd  Nd1  1  0.000000  0.676585  0.585773  1
  Nd  Nd2  1  0.000000  0.823415  0.085773  1
  Nd  Nd3  1  0.000000  0.176585  0.914227  1
  Dy  Dy4  1  0.000000  0.944041  0.371689  1
  Dy  Dy5  1  0.000000  0.055959  0.628311  1
  Dy  Dy6  1  0.000000  0.444041  0.128311  1
  Dy  Dy7  1  0.000000  0.555959  0.871689  1
  B  B8  1  0.500000  0.556339  0.430458  1
  B  B9  1  0.500000  0.443661  0.569542  1
  B  B10  1  0.500000  0.056339  0.069542  1
  B  B11  1  0.500000  0.943661  0.930458  1
  B  B12  1  0.500000  0.749192  0.417635  1
  B  B13  1  0.500000  0.250808  0.582365  1
  B  B14  1  0.500000  0.249192  0.082365  1
  B  B15  1  0.500000  0.750808  0.917635  1
  B  B16  1  0.500000  0.790268  0.266996  1
  B  B17  1  0.500000  0.209732  0.733004  1
  B  B18  1  0.500000  0.290268  0.233004  1
  B  B19  1  0.500000  0.709732  0.766996  1
  B  B20  1  0.500000  0.631445  0.185469  1
  B  B21  1  0.500000  0.368555  0.814531  1
  B  B22  1  0.500000  0.131445  0.314531  1
  B  B23  1  0.500000  0.868555  0.685469  1
  B  B24  1  0.500000  0.986546  0.213872  1
  B  B25  1  0.500000  0.013454  0.786128  1
  B  B26  1  0.500000  0.486546  0.286128  1
  B  B27  1  0.500000  0.513454  0.713872  1
  B  B28  1  0.500000  0.603798  0.028461  1
  B  B29  1  0.500000  0.396202  0.971539  1
  B  B30  1  0.500000  0.103798  0.471539  1
  B  B31  1  0.500000  0.896202  0.528461  1
  Ru  Ru32  1  0.000000  0.639387  0.319775  1
  Ru  Ru33  1  0.000000  0.360613  0.680225  1
  Ru  Ru34  1  0.000000  0.139387  0.180225  1
  Ru  Ru35  1  0.000000  0.860613  0.819775  1
