# generated using pymatgen
data_Tm5Lu7InFe3Bi
_symmetry_space_group_name_H-M   'P 1'
_cell_length_a   8.23770534
_cell_length_b   8.23318621
_cell_length_c   8.23770604
_cell_angle_alpha   108.64596303
_cell_angle_beta   108.21608388
_cell_angle_gamma   111.59578656
_symmetry_Int_Tables_number   1
_chemical_formula_structural   Tm5Lu7InFe3Bi
_chemical_formula_sum   'Tm5 Lu7 In1 Fe3 Bi1'
_cell_volume   429.51954982
_cell_formula_units_Z   1
loop_
 _symmetry_equiv_pos_site_id
 _symmetry_equiv_pos_as_xyz
  1  'x, y, z'
loop_
 _atom_site_type_symbol
 _atom_site_label
 _atom_site_symmetry_multiplicity
 _atom_site_fract_x
 _atom_site_fract_y
 _atom_site_fract_z
 _atom_site_occupancy
  Tm  Tm0  1  0.312613  0.302888  0.615645  1
  Tm  Tm1  1  0.687767  0.697227  0.384571  1
  Tm  Tm2  1  0.687243  0.302888  0.990275  1
  Tm  Tm3  1  0.312656  0.697227  0.009460  1
  Tm  Tm4  1  0.193808  0.425232  0.231424  1
  Lu  Lu5  1  0.806240  0.575234  0.768994  1
  Lu  Lu6  1  0.193713  0.962674  0.768961  1
  Lu  Lu7  1  0.954658  0.190397  0.763852  1
  Lu  Lu8  1  0.806067  0.037081  0.231013  1
  Lu  Lu9  1  0.045009  0.809497  0.235691  1
  Lu  Lu10  1  0.426545  0.190397  0.235737  1
  Lu  Lu11  1  0.573806  0.809497  0.764490  1
  In  In12  1  0.500016  0.000005  0.499989  1
  Fe  Fe13  1  0.383242  0.383053  0.999811  1
  Fe  Fe14  1  0.617017  0.617037  0.000021  1
  Fe  Fe15  1  0.999823  0.999604  0.999780  1
  Bi  Bi16  1  0.999778  0.500062  0.500284  1
