# generated using pymatgen
data_RbSrEr2CuSe5
_symmetry_space_group_name_H-M   'P 1'
_cell_length_a   7.69458072
_cell_length_b   7.69458089
_cell_length_c   18.01097300
_cell_angle_alpha   90.00000000
_cell_angle_beta   90.00000000
_cell_angle_gamma   148.64704846
_symmetry_Int_Tables_number   1
_chemical_formula_structural   RbSrEr2CuSe5
_chemical_formula_sum   'Rb2 Sr2 Er4 Cu2 Se10'
_cell_volume   554.84040228
_cell_formula_units_Z   2
loop_
 _symmetry_equiv_pos_site_id
 _symmetry_equiv_pos_as_xyz
  1  'x, y, z'
loop_
 _atom_site_type_symbol
 _atom_site_label
 _atom_site_symmetry_multiplicity
 _atom_site_fract_x
 _atom_site_fract_y
 _atom_site_fract_z
 _atom_site_occupancy
  Rb  Rb0  1  0.523331  0.476669  0.250000  1
  Rb  Rb1  1  0.476669  0.523331  0.750000  1
  Sr  Sr2  1  0.000000  0.000000  0.000000  1
  Sr  Sr3  1  0.000000  0.000000  0.500000  1
  Er  Er4  1  0.729255  0.270745  0.603804  1
  Er  Er5  1  0.270745  0.729255  0.396196  1
  Er  Er6  1  0.270745  0.729255  0.103804  1
  Er  Er7  1  0.729255  0.270745  0.896196  1
  Cu  Cu8  1  0.795000  0.205000  0.250000  1
  Cu  Cu9  1  0.205000  0.795000  0.750000  1
  Se  Se10  1  0.649128  0.350872  0.048211  1
  Se  Se11  1  0.350872  0.649128  0.951789  1
  Se  Se12  1  0.350872  0.649128  0.548211  1
  Se  Se13  1  0.649128  0.350872  0.451789  1
  Se  Se14  1  0.891515  0.108485  0.139898  1
  Se  Se15  1  0.108485  0.891515  0.860102  1
  Se  Se16  1  0.108485  0.891515  0.639898  1
  Se  Se17  1  0.891515  0.108485  0.360102  1
  Se  Se18  1  0.202302  0.797698  0.250000  1
  Se  Se19  1  0.797698  0.202302  0.750000  1
