# generated using pymatgen
data_CsSn3RhO8
_symmetry_space_group_name_H-M   'P 1'
_cell_length_a   6.53266330
_cell_length_b   7.81948536
_cell_length_c   7.63159375
_cell_angle_alpha   92.94881828
_cell_angle_beta   77.57812565
_cell_angle_gamma   102.05984024
_symmetry_Int_Tables_number   1
_chemical_formula_structural   CsSn3RhO8
_chemical_formula_sum   'Cs2 Sn6 Rh2 O16'
_cell_volume   372.30060002
_cell_formula_units_Z   2
loop_
 _symmetry_equiv_pos_site_id
 _symmetry_equiv_pos_as_xyz
  1  'x, y, z'
loop_
 _atom_site_type_symbol
 _atom_site_label
 _atom_site_symmetry_multiplicity
 _atom_site_fract_x
 _atom_site_fract_y
 _atom_site_fract_z
 _atom_site_occupancy
  Cs  Cs0  1  0.253903  0.994131  0.988748  1
  Cs  Cs1  1  0.753932  0.994106  0.988604  1
  Sn  Sn2  1  0.174327  0.174581  0.483762  1
  Sn  Sn3  1  0.674326  0.174586  0.483750  1
  Sn  Sn4  1  0.919453  0.493684  0.809217  1
  Sn  Sn5  1  0.419453  0.493678  0.809216  1
  Sn  Sn6  1  0.579680  0.520982  0.195182  1
  Sn  Sn7  1  0.079682  0.520979  0.195177  1
  Rh  Rh8  1  0.327789  0.821722  0.514038  1
  Rh  Rh9  1  0.827786  0.821722  0.514040  1
  O  O10  1  0.229154  0.624346  0.703212  1
  O  O11  1  0.729151  0.624346  0.703212  1
  O  O12  1  0.268714  0.373762  0.294398  1
  O  O13  1  0.768717  0.373768  0.294399  1
  O  O14  1  0.916030  0.286890  0.626082  1
  O  O15  1  0.416035  0.286895  0.626074  1
  O  O16  1  0.581135  0.709257  0.387163  1
  O  O17  1  0.081134  0.709253  0.387165  1
  O  O18  1  0.924232  0.043676  0.353997  1
  O  O19  1  0.424231  0.043675  0.353994  1
  O  O20  1  0.578112  0.945080  0.637262  1
  O  O21  1  0.078116  0.945077  0.637264  1
  O  O22  1  0.394906  0.642495  0.055808  1
  O  O23  1  0.894906  0.642496  0.055808  1
  O  O24  1  0.102549  0.369404  0.951212  1
  O  O25  1  0.602549  0.369406  0.951214  1
