# generated using pymatgen
data_Er3Tm3Th2(MgRh)2
_symmetry_space_group_name_H-M   'P 1'
_cell_length_a   9.70585166
_cell_length_b   9.70585198
_cell_length_c   9.70585300
_cell_angle_alpha   59.99999994
_cell_angle_beta   59.99999883
_cell_angle_gamma   60.00000034
_symmetry_Int_Tables_number   1
_chemical_formula_structural   Er3Tm3Th2(MgRh)2
_chemical_formula_sum   'Er6 Tm6 Th4 Mg4 Rh4'
_cell_volume   646.52604049
_cell_formula_units_Z   2
loop_
 _symmetry_equiv_pos_site_id
 _symmetry_equiv_pos_as_xyz
  1  'x, y, z'
loop_
 _atom_site_type_symbol
 _atom_site_label
 _atom_site_symmetry_multiplicity
 _atom_site_fract_x
 _atom_site_fract_y
 _atom_site_fract_z
 _atom_site_occupancy
  Er  Er0  1  0.933427  0.566573  0.566573  1
  Er  Er1  1  0.566573  0.933427  0.933427  1
  Er  Er2  1  0.566573  0.933427  0.566573  1
  Er  Er3  1  0.933427  0.566573  0.933427  1
  Er  Er4  1  0.566573  0.566573  0.933427  1
  Er  Er5  1  0.933427  0.933427  0.566573  1
  Tm  Tm6  1  0.813552  0.186448  0.186448  1
  Tm  Tm7  1  0.186448  0.813552  0.813552  1
  Tm  Tm8  1  0.186448  0.813552  0.186448  1
  Tm  Tm9  1  0.813552  0.186448  0.813552  1
  Tm  Tm10  1  0.186448  0.186448  0.813552  1
  Tm  Tm11  1  0.813552  0.813552  0.186448  1
  Th  Th12  1  0.349154  0.349154  0.349154  1
  Th  Th13  1  0.349154  0.349154  0.952537  1
  Th  Th14  1  0.349154  0.952537  0.349154  1
  Th  Th15  1  0.952537  0.349154  0.349154  1
  Mg  Mg16  1  0.580831  0.580831  0.580831  1
  Mg  Mg17  1  0.580831  0.580831  0.257504  1
  Mg  Mg18  1  0.580831  0.257504  0.580831  1
  Mg  Mg19  1  0.257504  0.580831  0.580831  1
  Rh  Rh20  1  0.143376  0.143376  0.143376  1
  Rh  Rh21  1  0.143376  0.143376  0.569871  1
  Rh  Rh22  1  0.143376  0.569871  0.143376  1
  Rh  Rh23  1  0.569871  0.143376  0.143376  1
