# generated using pymatgen
data_YbHo3Al18FePd5
_symmetry_space_group_name_H-M   'P 1'
_cell_length_a   7.61028786
_cell_length_b   7.60808105
_cell_length_c   9.45066946
_cell_angle_alpha   90.07106334
_cell_angle_beta   90.06056647
_cell_angle_gamma   119.71828971
_symmetry_Int_Tables_number   1
_chemical_formula_structural   YbHo3Al18FePd5
_chemical_formula_sum   'Yb1 Ho3 Al18 Fe1 Pd5'
_cell_volume   475.21936218
_cell_formula_units_Z   1
loop_
 _symmetry_equiv_pos_site_id
 _symmetry_equiv_pos_as_xyz
  1  'x, y, z'
loop_
 _atom_site_type_symbol
 _atom_site_label
 _atom_site_symmetry_multiplicity
 _atom_site_fract_x
 _atom_site_fract_y
 _atom_site_fract_z
 _atom_site_occupancy
  Yb  Yb0  1  0.993867  0.666793  0.249301  1
  Ho  Ho1  1  0.005700  0.333723  0.751136  1
  Ho  Ho2  1  0.668366  0.994878  0.248942  1
  Ho  Ho3  1  0.331014  0.003878  0.751079  1
  Al  Al4  1  0.120815  0.122364  0.241078  1
  Al  Al5  1  0.879284  0.879352  0.758326  1
  Al  Al6  1  0.998471  0.324164  0.072775  1
  Al  Al7  1  0.001315  0.676532  0.928107  1
  Al  Al8  1  0.998117  0.665885  0.577948  1
  Al  Al9  1  0.333859  0.000746  0.422017  1
  Al  Al10  1  0.001585  0.333877  0.421309  1
  Al  Al11  1  0.666101  0.998971  0.579198  1
  Al  Al12  1  0.676511  0.002577  0.926382  1
  Al  Al13  1  0.322354  0.997327  0.073047  1
  Al  Al14  1  0.333456  0.333155  0.558769  1
  Al  Al15  1  0.665526  0.665917  0.443243  1
  Al  Al16  1  0.678904  0.679143  0.050363  1
  Al  Al17  1  0.322207  0.322281  0.948110  1
  Al  Al18  1  0.343570  0.546523  0.247879  1
  Al  Al19  1  0.660203  0.453817  0.751929  1
  Al  Al20  1  0.543284  0.337250  0.248328  1
  Al  Al21  1  0.456248  0.659833  0.751742  1
  Fe  Fe22  1  0.000149  0.002034  0.998627  1
  Pd  Pd23  1  0.671568  0.327258  0.999703  1
  Pd  Pd24  1  0.328106  0.672564  0.998803  1
  Pd  Pd25  1  0.327205  0.671849  0.500875  1
  Pd  Pd26  1  0.672150  0.327011  0.500425  1
  Pd  Pd27  1  0.000066  0.000300  0.500557  1
