# generated using pymatgen
data_Er12Tm8Sn7Pb9
_symmetry_space_group_name_H-M   'P 1'
_cell_length_a   8.08664106
_cell_length_b   8.13839603
_cell_length_c   15.43799400
_cell_angle_alpha   89.99981938
_cell_angle_beta   90.00072507
_cell_angle_gamma   90.01173862
_symmetry_Int_Tables_number   1
_chemical_formula_structural   Er12Tm8Sn7Pb9
_chemical_formula_sum   'Er12 Tm8 Sn7 Pb9'
_cell_volume   1016.00967798
_cell_formula_units_Z   1
loop_
 _symmetry_equiv_pos_site_id
 _symmetry_equiv_pos_as_xyz
  1  'x, y, z'
loop_
 _atom_site_type_symbol
 _atom_site_label
 _atom_site_symmetry_multiplicity
 _atom_site_fract_x
 _atom_site_fract_y
 _atom_site_fract_z
 _atom_site_occupancy
  Er  Er0  1  0.619847  0.161118  0.122855  1
  Er  Er1  1  0.119665  0.337375  0.376984  1
  Er  Er2  1  0.380147  0.838507  0.623362  1
  Er  Er3  1  0.880439  0.661039  0.876524  1
  Er  Er4  1  0.537930  0.324874  0.895849  1
  Er  Er5  1  0.038418  0.174553  0.604377  1
  Er  Er6  1  0.464723  0.675163  0.397130  1
  Er  Er7  1  0.959914  0.827097  0.101587  1
  Er  Er8  1  0.464713  0.675130  0.102849  1
  Er  Er9  1  0.959903  0.827113  0.398424  1
  Er  Er10  1  0.537937  0.324900  0.604145  1
  Er  Er11  1  0.038423  0.174524  0.895643  1
  Tm  Tm12  1  0.380139  0.838537  0.876614  1
  Tm  Tm13  1  0.880427  0.661008  0.623502  1
  Tm  Tm14  1  0.619853  0.161095  0.377128  1
  Tm  Tm15  1  0.119677  0.337403  0.123017  1
  Tm  Tm16  1  0.210966  0.503547  0.749999  1
  Tm  Tm17  1  0.710913  0.996326  0.749998  1
  Tm  Tm18  1  0.787311  0.494739  0.250004  1
  Tm  Tm19  1  0.291247  0.006634  0.250000  1
  Sn  Sn20  1  0.575614  0.622914  0.750013  1
  Sn  Sn21  1  0.075896  0.876422  0.749990  1
  Sn  Sn22  1  0.424967  0.376185  0.250013  1
  Sn  Sn23  1  0.924083  0.122003  0.249989  1
  Sn  Sn24  1  0.346056  0.149379  0.750018  1
  Sn  Sn25  1  0.845981  0.350866  0.749981  1
  Sn  Sn26  1  0.655129  0.850344  0.250017  1
  Pb  Pb27  1  0.280255  0.031737  0.040894  1
  Pb  Pb28  1  0.781525  0.467440  0.459207  1
  Pb  Pb29  1  0.718452  0.968467  0.541953  1
  Pb  Pb30  1  0.218987  0.531437  0.958795  1
  Pb  Pb31  1  0.718365  0.968471  0.957992  1
  Pb  Pb32  1  0.218892  0.531428  0.541259  1
  Pb  Pb33  1  0.280355  0.031728  0.459053  1
  Pb  Pb34  1  0.781612  0.467440  0.040853  1
  Pb  Pb35  1  0.151236  0.653055  0.249983  1
