# generated using pymatgen
data_Sr15Y5Bi16
_symmetry_space_group_name_H-M   'P 1'
_cell_length_a   8.72394868
_cell_length_b   8.82701307
_cell_length_c   16.83357300
_cell_angle_alpha   90.04807205
_cell_angle_beta   90.26694281
_cell_angle_gamma   89.79758443
_symmetry_Int_Tables_number   1
_chemical_formula_structural   Sr15Y5Bi16
_chemical_formula_sum   'Sr15 Y5 Bi16'
_cell_volume   1296.27041140
_cell_formula_units_Z   1
loop_
 _symmetry_equiv_pos_site_id
 _symmetry_equiv_pos_as_xyz
  1  'x, y, z'
loop_
 _atom_site_type_symbol
 _atom_site_label
 _atom_site_symmetry_multiplicity
 _atom_site_fract_x
 _atom_site_fract_y
 _atom_site_fract_z
 _atom_site_occupancy
  Sr  Sr0  1  0.395689  0.843610  0.384987  1
  Sr  Sr1  1  0.616531  0.151977  0.887547  1
  Sr  Sr2  1  0.106273  0.345302  0.611621  1
  Sr  Sr3  1  0.109810  0.348032  0.886112  1
  Sr  Sr4  1  0.605538  0.156919  0.612529  1
  Sr  Sr5  1  0.387823  0.848178  0.113384  1
  Sr  Sr6  1  0.894972  0.655219  0.387808  1
  Sr  Sr7  1  0.066633  0.163221  0.103265  1
  Sr  Sr8  1  0.576292  0.339689  0.391975  1
  Sr  Sr9  1  0.431688  0.666122  0.896198  1
  Sr  Sr10  1  0.925243  0.840689  0.607079  1
  Sr  Sr11  1  0.939882  0.832273  0.898914  1
  Sr  Sr12  1  0.424543  0.661591  0.607140  1
  Sr  Sr13  1  0.558862  0.333420  0.104122  1
  Sr  Sr14  1  0.076788  0.160503  0.389842  1
  Y  Y15  1  0.884308  0.648425  0.118927  1
  Y  Y16  1  0.733914  0.998477  0.249555  1
  Y  Y17  1  0.232353  0.499494  0.249509  1
  Y  Y18  1  0.765257  0.500921  0.750125  1
  Y  Y19  1  0.266771  0.002049  0.750257  1
  Bi  Bi20  1  0.080383  0.849653  0.244688  1
  Bi  Bi21  1  0.591298  0.641069  0.245167  1
  Bi  Bi22  1  0.414625  0.360168  0.751619  1
  Bi  Bi23  1  0.913824  0.144274  0.750689  1
  Bi  Bi24  1  0.878349  0.353221  0.245710  1
  Bi  Bi25  1  0.380251  0.151483  0.249097  1
  Bi  Bi26  1  0.622799  0.849290  0.751447  1
  Bi  Bi27  1  0.121393  0.651470  0.750750  1
  Bi  Bi28  1  0.766315  0.489157  0.954355  1
  Bi  Bi29  1  0.261469  0.007644  0.556194  1
  Bi  Bi30  1  0.741675  0.968598  0.058120  1
  Bi  Bi31  1  0.240902  0.507029  0.441311  1
  Bi  Bi32  1  0.215706  0.523205  0.057434  1
  Bi  Bi33  1  0.741054  0.994213  0.441250  1
  Bi  Bi34  1  0.270200  0.018938  0.943746  1
  Bi  Bi35  1  0.760586  0.494480  0.557526  1
