# generated using pymatgen
data_TiNb3(SeI)4
_symmetry_space_group_name_H-M   'P 1'
_cell_length_a   7.85133828
_cell_length_b   7.85133873
_cell_length_c   7.85133829
_cell_angle_alpha   58.39939948
_cell_angle_beta   58.39940028
_cell_angle_gamma   58.39939904
_symmetry_Int_Tables_number   1
_chemical_formula_structural   TiNb3(SeI)4
_chemical_formula_sum   'Ti1 Nb3 Se4 I4'
_cell_volume   329.69065945
_cell_formula_units_Z   1
loop_
 _symmetry_equiv_pos_site_id
 _symmetry_equiv_pos_as_xyz
  1  'x, y, z'
loop_
 _atom_site_type_symbol
 _atom_site_label
 _atom_site_symmetry_multiplicity
 _atom_site_fract_x
 _atom_site_fract_y
 _atom_site_fract_z
 _atom_site_occupancy
  Ti  Ti0  1  0.394964  0.394964  0.394964  1
  Nb  Nb1  1  0.408647  0.789367  0.408647  1
  Nb  Nb2  1  0.789367  0.408647  0.408647  1
  Nb  Nb3  1  0.408647  0.408647  0.789367  1
  Se  Se4  1  0.622406  0.117731  0.622406  1
  Se  Se5  1  0.622406  0.622406  0.117731  1
  Se  Se6  1  0.117731  0.622406  0.622406  1
  Se  Se7  1  0.634408  0.634408  0.634408  1
  I  I8  1  0.130875  0.130875  0.130875  1
  I  I9  1  0.619035  0.125757  0.125757  1
  I  I10  1  0.125757  0.619035  0.125757  1
  I  I11  1  0.125757  0.125757  0.619035  1
