# generated using pymatgen
data_Er8Ti8Nb3Si16Mo
_symmetry_space_group_name_H-M   'P 1'
_cell_length_a   7.01149118
_cell_length_b   7.01149123
_cell_length_c   12.88672356
_cell_angle_alpha   90.02473674
_cell_angle_beta   89.97526231
_cell_angle_gamma   89.97427600
_symmetry_Int_Tables_number   1
_chemical_formula_structural   Er8Ti8Nb3Si16Mo
_chemical_formula_sum   'Er8 Ti8 Nb3 Si16 Mo1'
_cell_volume   633.52415033
_cell_formula_units_Z   1
loop_
 _symmetry_equiv_pos_site_id
 _symmetry_equiv_pos_as_xyz
  1  'x, y, z'
loop_
 _atom_site_type_symbol
 _atom_site_label
 _atom_site_symmetry_multiplicity
 _atom_site_fract_x
 _atom_site_fract_y
 _atom_site_fract_z
 _atom_site_occupancy
  Er  Er0  1  0.341141  0.001916  0.466946  1
  Er  Er1  1  0.498266  0.841032  0.717556  1
  Er  Er2  1  0.500534  0.159448  0.215823  1
  Er  Er3  1  0.841032  0.498266  0.282444  1
  Er  Er4  1  0.159448  0.500534  0.784177  1
  Er  Er5  1  0.658297  0.999547  0.967183  1
  Er  Er6  1  0.001916  0.341141  0.533054  1
  Er  Er7  1  0.999547  0.658297  0.032817  1
  Ti  Ti8  1  0.152393  0.008573  0.875486  1
  Ti  Ti9  1  0.490965  0.652049  0.124423  1
  Ti  Ti10  1  0.508369  0.348588  0.625767  1
  Ti  Ti11  1  0.652049  0.490965  0.875577  1
  Ti  Ti12  1  0.348588  0.508369  0.374233  1
  Ti  Ti13  1  0.848285  0.991658  0.374624  1
  Ti  Ti14  1  0.008573  0.152393  0.124514  1
  Ti  Ti15  1  0.991658  0.848285  0.625376  1
  Nb  Nb16  1  0.173486  0.826944  0.249271  1
  Nb  Nb17  1  0.826944  0.173486  0.750729  1
  Nb  Nb18  1  0.673150  0.673150  0.500000  1
  Si  Si19  1  0.204225  0.130981  0.683845  1
  Si  Si20  1  0.369684  0.702099  0.933879  1
  Si  Si21  1  0.630911  0.295797  0.433565  1
  Si  Si22  1  0.702099  0.369684  0.066121  1
  Si  Si23  1  0.295797  0.630911  0.566435  1
  Si  Si24  1  0.796079  0.869317  0.183252  1
  Si  Si25  1  0.130981  0.204225  0.316155  1
  Si  Si26  1  0.869317  0.796079  0.816748  1
  Si  Si27  1  0.291763  0.954243  0.063167  1
  Si  Si28  1  0.547017  0.792708  0.313508  1
  Si  Si29  1  0.451446  0.208234  0.815607  1
  Si  Si30  1  0.792708  0.547017  0.686492  1
  Si  Si31  1  0.208234  0.451446  0.184393  1
  Si  Si32  1  0.707346  0.047247  0.564031  1
  Si  Si33  1  0.954243  0.291763  0.936833  1
  Si  Si34  1  0.047247  0.707346  0.435969  1
  Mo  Mo35  1  0.326259  0.326259  0.000000  1
