# generated using pymatgen
data_TaTi3(SiRh5)2
_symmetry_space_group_name_H-M   'P 1'
_cell_length_a   3.96293600
_cell_length_b   5.43860269
_cell_length_c   10.58190840
_cell_angle_alpha   90.44908416
_cell_angle_beta   90.00000000
_cell_angle_gamma   90.00000000
_symmetry_Int_Tables_number   1
_chemical_formula_structural   TaTi3(SiRh5)2
_chemical_formula_sum   'Ta1 Ti3 Si2 Rh10'
_cell_volume   228.06311379
_cell_formula_units_Z   1
loop_
 _symmetry_equiv_pos_site_id
 _symmetry_equiv_pos_as_xyz
  1  'x, y, z'
loop_
 _atom_site_type_symbol
 _atom_site_label
 _atom_site_symmetry_multiplicity
 _atom_site_fract_x
 _atom_site_fract_y
 _atom_site_fract_z
 _atom_site_occupancy
  Ta  Ta0  1  0.500000  0.326926  0.141294  1
  Ti  Ti1  1  0.500000  0.675649  0.855310  1
  Ti  Ti2  1  0.500000  0.826972  0.362538  1
  Ti  Ti3  1  0.500000  0.173551  0.641479  1
  Si  Si4  1  0.000000  0.996358  0.997753  1
  Si  Si5  1  0.000000  0.500239  0.501050  1
  Rh  Rh6  1  0.000000  0.998727  0.500612  1
  Rh  Rh7  1  0.000000  0.504849  0.997567  1
  Rh  Rh8  1  0.000000  0.074645  0.241143  1
  Rh  Rh9  1  0.000000  0.921311  0.761289  1
  Rh  Rh10  1  0.000000  0.577356  0.261083  1
  Rh  Rh11  1  0.000000  0.420642  0.738228  1
  Rh  Rh12  1  0.500000  0.314892  0.396474  1
  Rh  Rh13  1  0.500000  0.685432  0.604463  1
  Rh  Rh14  1  0.500000  0.816050  0.103968  1
  Rh  Rh15  1  0.500000  0.186402  0.895748  1
