# generated using pymatgen
data_HfZr11(UPt10)2
_symmetry_space_group_name_H-M   'P 1'
_cell_length_a   8.26564832
_cell_length_b   8.26564864
_cell_length_c   9.76109750
_cell_angle_alpha   90.04291275
_cell_angle_beta   90.04291792
_cell_angle_gamma   107.27710161
_symmetry_Int_Tables_number   1
_chemical_formula_structural   HfZr11(UPt10)2
_chemical_formula_sum   'Hf1 Zr11 U2 Pt20'
_cell_volume   636.79664865
_cell_formula_units_Z   1
loop_
 _symmetry_equiv_pos_site_id
 _symmetry_equiv_pos_as_xyz
  1  'x, y, z'
loop_
 _atom_site_type_symbol
 _atom_site_label
 _atom_site_symmetry_multiplicity
 _atom_site_fract_x
 _atom_site_fract_y
 _atom_site_fract_z
 _atom_site_occupancy
  Hf  Hf0  1  0.000000  0.000000  0.000000  1
  Zr  Zr1  1  0.810875  0.189125  0.500000  1
  Zr  Zr2  1  0.189125  0.810875  0.500000  1
  Zr  Zr3  1  0.500000  0.500000  0.500000  1
  Zr  Zr4  1  0.001014  0.500191  0.253974  1
  Zr  Zr5  1  0.998986  0.499809  0.746026  1
  Zr  Zr6  1  0.499809  0.998986  0.746026  1
  Zr  Zr7  1  0.500191  0.001014  0.253974  1
  Zr  Zr8  1  0.310028  0.310028  0.190409  1
  Zr  Zr9  1  0.689972  0.689972  0.809591  1
  Zr  Zr10  1  0.181937  0.181937  0.681606  1
  Zr  Zr11  1  0.818063  0.818063  0.318394  1
  U  U12  1  0.689561  0.310439  0.000000  1
  U  U13  1  0.310439  0.689561  0.000000  1
  Pt  Pt14  1  0.851261  0.141315  0.206539  1
  Pt  Pt15  1  0.148739  0.858685  0.793461  1
  Pt  Pt16  1  0.648408  0.353881  0.709534  1
  Pt  Pt17  1  0.646119  0.351592  0.290466  1
  Pt  Pt18  1  0.351592  0.646119  0.290466  1
  Pt  Pt19  1  0.353881  0.648408  0.709534  1
  Pt  Pt20  1  0.858685  0.148739  0.793461  1
  Pt  Pt21  1  0.141315  0.851261  0.206539  1
  Pt  Pt22  1  0.936702  0.646005  0.997580  1
  Pt  Pt23  1  0.063298  0.353995  0.002420  1
  Pt  Pt24  1  0.562342  0.853041  0.498827  1
  Pt  Pt25  1  0.146959  0.437658  0.501173  1
  Pt  Pt26  1  0.437658  0.146959  0.501173  1
  Pt  Pt27  1  0.853041  0.562342  0.498827  1
  Pt  Pt28  1  0.353995  0.063298  0.002420  1
  Pt  Pt29  1  0.646005  0.936702  0.997580  1
  Pt  Pt30  1  0.106013  0.106013  0.394792  1
  Pt  Pt31  1  0.893987  0.893987  0.605208  1
  Pt  Pt32  1  0.393072  0.393072  0.892212  1
  Pt  Pt33  1  0.606928  0.606928  0.107788  1
