# generated using pymatgen
data_Hf18TiZnCuRe7
_symmetry_space_group_name_H-M   'P 1'
_cell_length_a   8.64827142
_cell_length_b   8.64427346
_cell_length_c   8.52983005
_cell_angle_alpha   90.00032911
_cell_angle_beta   90.01025383
_cell_angle_gamma   119.98129515
_symmetry_Int_Tables_number   1
_chemical_formula_structural   Hf18TiZnCuRe7
_chemical_formula_sum   'Hf18 Ti1 Zn1 Cu1 Re7'
_cell_volume   552.34526377
_cell_formula_units_Z   1
loop_
 _symmetry_equiv_pos_site_id
 _symmetry_equiv_pos_as_xyz
  1  'x, y, z'
loop_
 _atom_site_type_symbol
 _atom_site_label
 _atom_site_symmetry_multiplicity
 _atom_site_fract_x
 _atom_site_fract_y
 _atom_site_fract_z
 _atom_site_occupancy
  Hf  Hf0  1  0.193962  0.806052  0.449742  1
  Hf  Hf1  1  0.193966  0.387908  0.449748  1
  Hf  Hf2  1  0.612106  0.806047  0.449747  1
  Hf  Hf3  1  0.803727  0.196289  0.553296  1
  Hf  Hf4  1  0.803728  0.607427  0.553288  1
  Hf  Hf5  1  0.392570  0.196279  0.553266  1
  Hf  Hf6  1  0.804708  0.195317  0.944661  1
  Hf  Hf7  1  0.804707  0.609383  0.944658  1
  Hf  Hf8  1  0.390611  0.195303  0.944686  1
  Hf  Hf9  1  0.192225  0.807797  0.051660  1
  Hf  Hf10  1  0.192226  0.384428  0.051655  1
  Hf  Hf11  1  0.615596  0.807796  0.051655  1
  Hf  Hf12  1  0.541090  0.458913  0.248525  1
  Hf  Hf13  1  0.541092  0.082168  0.248523  1
  Hf  Hf14  1  0.917851  0.458919  0.248524  1
  Hf  Hf15  1  0.458851  0.541160  0.751858  1
  Hf  Hf16  1  0.458857  0.917690  0.751859  1
  Hf  Hf17  1  0.082318  0.541154  0.751857  1
  Ti  Ti18  1  0.000018  0.000001  0.500482  1
  Zn  Zn19  1  0.333398  0.666689  0.248766  1
  Cu  Cu20  1  0.666218  0.333202  0.750531  1
  Re  Re21  1  0.888632  0.111438  0.251900  1
  Re  Re22  1  0.888616  0.777176  0.251874  1
  Re  Re23  1  0.222852  0.111432  0.251898  1
  Re  Re24  1  0.111407  0.888621  0.748308  1
  Re  Re25  1  0.111400  0.222781  0.748322  1
  Re  Re26  1  0.777258  0.888623  0.748306  1
  Re  Re27  1  0.000012  0.000006  0.000405  1
