# generated using pymatgen
data_FeCu2RhO4
_symmetry_space_group_name_H-M   'P 1'
_cell_length_a   3.09795900
_cell_length_b   6.02845288
_cell_length_c   5.31774645
_cell_angle_alpha   73.45764407
_cell_angle_beta   90.00000000
_cell_angle_gamma   90.00000000
_symmetry_Int_Tables_number   1
_chemical_formula_structural   FeCu2RhO4
_chemical_formula_sum   'Fe1 Cu2 Rh1 O4'
_cell_volume   95.20305791
_cell_formula_units_Z   1
loop_
 _symmetry_equiv_pos_site_id
 _symmetry_equiv_pos_as_xyz
  1  'x, y, z'
loop_
 _atom_site_type_symbol
 _atom_site_label
 _atom_site_symmetry_multiplicity
 _atom_site_fract_x
 _atom_site_fract_y
 _atom_site_fract_z
 _atom_site_occupancy
  Fe  Fe0  1  0.000000  0.500000  0.500000  1
  Cu  Cu1  1  0.500000  0.000000  0.500000  1
  Cu  Cu2  1  0.000000  0.000000  0.000000  1
  Rh  Rh3  1  0.500000  0.500000  0.000000  1
  O  O4  1  0.500000  0.680862  0.601253  1
  O  O5  1  0.000000  0.680840  0.109776  1
  O  O6  1  0.500000  0.319138  0.398747  1
  O  O7  1  0.000000  0.319160  0.890224  1
