# generated using pymatgen
data_La2Nd2As7Ir8
_symmetry_space_group_name_H-M   'P 1'
_cell_length_a   4.15057400
_cell_length_b   13.27901825
_cell_length_c   13.67440417
_cell_angle_alpha   81.83036726
_cell_angle_beta   90.00000000
_cell_angle_gamma   90.00000000
_symmetry_Int_Tables_number   1
_chemical_formula_structural   La2Nd2As7Ir8
_chemical_formula_sum   'La4 Nd4 As14 Ir16'
_cell_volume   746.02377537
_cell_formula_units_Z   2
loop_
 _symmetry_equiv_pos_site_id
 _symmetry_equiv_pos_as_xyz
  1  'x, y, z'
loop_
 _atom_site_type_symbol
 _atom_site_label
 _atom_site_symmetry_multiplicity
 _atom_site_fract_x
 _atom_site_fract_y
 _atom_site_fract_z
 _atom_site_occupancy
  La  La0  1  0.250000  0.100640  0.793195  1
  La  La1  1  0.750000  0.899360  0.206805  1
  La  La2  1  0.250000  0.287390  0.104023  1
  La  La3  1  0.750000  0.712610  0.895977  1
  Nd  Nd4  1  0.250000  0.519395  0.293477  1
  Nd  Nd5  1  0.750000  0.480605  0.706523  1
  Nd  Nd6  1  0.250000  0.208594  0.438194  1
  Nd  Nd7  1  0.750000  0.791406  0.561806  1
  As  As8  1  0.250000  0.058435  0.099223  1
  As  As9  1  0.750000  0.941565  0.900777  1
  As  As10  1  0.250000  0.312667  0.687047  1
  As  As11  1  0.750000  0.687333  0.312953  1
  As  As12  1  0.250000  0.607116  0.566945  1
  As  As13  1  0.750000  0.392884  0.433055  1
  As  As14  1  0.250000  0.848109  0.719583  1
  As  As15  1  0.750000  0.151891  0.280417  1
  As  As16  1  0.750000  0.255945  0.917648  1
  As  As17  1  0.250000  0.744055  0.082352  1
  As  As18  1  0.750000  0.096086  0.586547  1
  As  As19  1  0.250000  0.903914  0.413453  1
  As  As20  1  0.750000  0.471982  0.128404  1
  As  As21  1  0.250000  0.528018  0.871596  1
  Ir  Ir22  1  0.250000  0.988743  0.573783  1
  Ir  Ir23  1  0.750000  0.011257  0.426217  1
  Ir  Ir24  1  0.250000  0.665210  0.732982  1
  Ir  Ir25  1  0.750000  0.334790  0.267018  1
  Ir  Ir26  1  0.250000  0.554927  0.046519  1
  Ir  Ir27  1  0.750000  0.445073  0.953481  1
  Ir  Ir28  1  0.250000  0.053737  0.279023  1
  Ir  Ir29  1  0.750000  0.946263  0.720977  1
  Ir  Ir30  1  0.250000  0.425590  0.525348  1
  Ir  Ir31  1  0.750000  0.574410  0.474652  1
  Ir  Ir32  1  0.250000  0.919887  0.997814  1
  Ir  Ir33  1  0.750000  0.080113  0.002186  1
  Ir  Ir34  1  0.250000  0.721445  0.402047  1
  Ir  Ir35  1  0.750000  0.278555  0.597953  1
  Ir  Ir36  1  0.250000  0.343994  0.860218  1
  Ir  Ir37  1  0.750000  0.656006  0.139782  1
