# generated using pymatgen
data_Tb8Tm10Sc2Si15As
_symmetry_space_group_name_H-M   'P 1'
_cell_length_a   7.37407604
_cell_length_b   7.58436398
_cell_length_c   14.41977242
_cell_angle_alpha   89.93520591
_cell_angle_beta   87.19598583
_cell_angle_gamma   90.17400284
_symmetry_Int_Tables_number   1
_chemical_formula_structural   Tb8Tm10Sc2Si15As
_chemical_formula_sum   'Tb8 Tm10 Sc2 Si15 As1'
_cell_volume   805.49442448
_cell_formula_units_Z   1
loop_
 _symmetry_equiv_pos_site_id
 _symmetry_equiv_pos_as_xyz
  1  'x, y, z'
loop_
 _atom_site_type_symbol
 _atom_site_label
 _atom_site_symmetry_multiplicity
 _atom_site_fract_x
 _atom_site_fract_y
 _atom_site_fract_z
 _atom_site_occupancy
  Tb  Tb0  1  0.022588  0.181884  0.100246  1
  Tb  Tb1  1  0.977806  0.819561  0.899570  1
  Tb  Tb2  1  0.480478  0.682331  0.900198  1
  Tb  Tb3  1  0.994658  0.820715  0.597761  1
  Tb  Tb4  1  0.520207  0.318111  0.100004  1
  Tb  Tb5  1  0.003307  0.177933  0.401668  1
  Tb  Tb6  1  0.502109  0.315990  0.400697  1
  Tb  Tb7  1  0.503023  0.682557  0.598862  1
  Tm  Tm8  1  0.165501  0.505563  0.748509  1
  Tm  Tm9  1  0.834082  0.494775  0.254806  1
  Tm  Tm10  1  0.349173  0.165294  0.623268  1
  Tm  Tm11  1  0.652051  0.832781  0.376975  1
  Tm  Tm12  1  0.153191  0.669113  0.379275  1
  Tm  Tm13  1  0.674162  0.825349  0.123724  1
  Tm  Tm14  1  0.844248  0.331032  0.620841  1
  Tm  Tm15  1  0.325543  0.174444  0.875658  1
  Tm  Tm16  1  0.824530  0.322305  0.875910  1
  Tm  Tm17  1  0.174697  0.677976  0.123588  1
  Sc  Sc18  1  0.333053  0.006053  0.253337  1
  Sc  Sc19  1  0.667773  0.993651  0.746828  1
  Si  Si20  1  0.034288  0.108380  0.750359  1
  Si  Si21  1  0.965609  0.892578  0.248623  1
  Si  Si22  1  0.459176  0.610695  0.248543  1
  Si  Si23  1  0.539329  0.389626  0.750807  1
  Si  Si24  1  0.289174  0.869725  0.750975  1
  Si  Si25  1  0.712390  0.128724  0.248441  1
  Si  Si26  1  0.216596  0.367182  0.249383  1
  Si  Si27  1  0.784850  0.633691  0.750535  1
  Si  Si28  1  0.799269  0.537384  0.457609  1
  Si  Si29  1  0.310440  0.964535  0.457092  1
  Si  Si30  1  0.850776  0.531248  0.040280  1
  Si  Si31  1  0.689194  0.035253  0.543505  1
  Si  Si32  1  0.148439  0.469720  0.959157  1
  Si  Si33  1  0.646831  0.028971  0.957036  1
  Si  Si34  1  0.352525  0.971937  0.042756  1
  As  As35  1  0.198932  0.462932  0.543173  1
