# generated using pymatgen
data_LaTm6Sn23Os6
_symmetry_space_group_name_H-M   'P 1'
_cell_length_a   9.82680900
_cell_length_b   9.82680991
_cell_length_c   10.09730900
_cell_angle_alpha   90.00000000
_cell_angle_beta   90.00000000
_cell_angle_gamma   120.00000029
_symmetry_Int_Tables_number   1
_chemical_formula_structural   LaTm6Sn23Os6
_chemical_formula_sum   'La1 Tm6 Sn23 Os6'
_cell_volume   844.42551530
_cell_formula_units_Z   1
loop_
 _symmetry_equiv_pos_site_id
 _symmetry_equiv_pos_as_xyz
  1  'x, y, z'
loop_
 _atom_site_type_symbol
 _atom_site_label
 _atom_site_symmetry_multiplicity
 _atom_site_fract_x
 _atom_site_fract_y
 _atom_site_fract_z
 _atom_site_occupancy
  La  La0  1  0.000000  0.000000  0.000000  1
  Tm  Tm1  1  0.025750  0.512875  0.301238  1
  Tm  Tm2  1  0.487125  0.974250  0.301238  1
  Tm  Tm3  1  0.487125  0.512875  0.301238  1
  Tm  Tm4  1  0.974250  0.487125  0.698762  1
  Tm  Tm5  1  0.512875  0.025750  0.698762  1
  Tm  Tm6  1  0.512875  0.487125  0.698762  1
  Sn  Sn7  1  0.000000  0.000000  0.500000  1
  Sn  Sn8  1  0.118846  0.881154  0.278542  1
  Sn  Sn9  1  0.762306  0.881154  0.278542  1
  Sn  Sn10  1  0.118846  0.237694  0.278542  1
  Sn  Sn11  1  0.881154  0.118846  0.721458  1
  Sn  Sn12  1  0.237694  0.118846  0.721458  1
  Sn  Sn13  1  0.881154  0.762306  0.721458  1
  Sn  Sn14  1  0.351139  0.000000  0.000000  1
  Sn  Sn15  1  0.648861  0.648861  0.000000  1
  Sn  Sn16  1  0.000000  0.351139  0.000000  1
  Sn  Sn17  1  0.351139  0.351139  0.000000  1
  Sn  Sn18  1  0.000000  0.648861  0.000000  1
  Sn  Sn19  1  0.648861  0.000000  0.000000  1
  Sn  Sn20  1  0.778963  0.557926  0.464477  1
  Sn  Sn21  1  0.778963  0.221037  0.464477  1
  Sn  Sn22  1  0.442074  0.221037  0.464477  1
  Sn  Sn23  1  0.221037  0.442074  0.535523  1
  Sn  Sn24  1  0.221037  0.778963  0.535523  1
  Sn  Sn25  1  0.557926  0.778963  0.535523  1
  Sn  Sn26  1  0.666667  0.333333  0.173544  1
  Sn  Sn27  1  0.333333  0.666667  0.826456  1
  Sn  Sn28  1  0.666667  0.333333  0.866334  1
  Sn  Sn29  1  0.333333  0.666667  0.133666  1
  Os  Os30  1  0.171542  0.828458  0.796271  1
  Os  Os31  1  0.656916  0.828458  0.796271  1
  Os  Os32  1  0.171542  0.343084  0.796271  1
  Os  Os33  1  0.828458  0.171542  0.203729  1
  Os  Os34  1  0.343084  0.171542  0.203729  1
  Os  Os35  1  0.828458  0.656916  0.203729  1
