# generated using pymatgen
data_SrCe(Si2Rh3)2
_symmetry_space_group_name_H-M   'P 1'
_cell_length_a   6.72245689
_cell_length_b   6.72245633
_cell_length_c   6.72245630
_cell_angle_alpha   130.37242716
_cell_angle_beta   115.17759035
_cell_angle_gamma   85.80342039
_symmetry_Int_Tables_number   1
_chemical_formula_structural   SrCe(Si2Rh3)2
_chemical_formula_sum   'Sr1 Ce1 Si4 Rh6'
_cell_volume   200.23116798
_cell_formula_units_Z   1
loop_
 _symmetry_equiv_pos_site_id
 _symmetry_equiv_pos_as_xyz
  1  'x, y, z'
loop_
 _atom_site_type_symbol
 _atom_site_label
 _atom_site_symmetry_multiplicity
 _atom_site_fract_x
 _atom_site_fract_y
 _atom_site_fract_z
 _atom_site_occupancy
  Sr  Sr0  1  0.250000  0.970056  0.720056  1
  Ce  Ce1  1  0.750000  0.049374  0.299374  1
  Si  Si2  1  0.079626  0.279000  0.199374  1
  Si  Si3  1  0.923537  0.728024  0.804486  1
  Si  Si4  1  0.420374  0.619748  0.199374  1
  Si  Si5  1  0.576463  0.380949  0.804486  1
  Rh  Rh6  1  0.505639  0.495274  0.500912  1
  Rh  Rh7  1  0.994361  0.495274  0.989635  1
  Rh  Rh8  1  0.286836  0.998401  0.279587  1
  Rh  Rh9  1  0.718814  0.998401  0.711565  1
  Rh  Rh10  1  0.213164  0.492751  0.711565  1
  Rh  Rh11  1  0.781186  0.492751  0.279587  1
