# generated using pymatgen
data_ErFe2(PRu)3
_symmetry_space_group_name_H-M   'P 1'
_cell_length_a   3.79194800
_cell_length_b   10.55399800
_cell_length_c   12.14639200
_cell_angle_alpha   90.00000000
_cell_angle_beta   90.00000000
_cell_angle_gamma   90.00000000
_symmetry_Int_Tables_number   1
_chemical_formula_structural   ErFe2(PRu)3
_chemical_formula_sum   'Er4 Fe8 P12 Ru12'
_cell_volume   486.10117811
_cell_formula_units_Z   4
loop_
 _symmetry_equiv_pos_site_id
 _symmetry_equiv_pos_as_xyz
  1  'x, y, z'
loop_
 _atom_site_type_symbol
 _atom_site_label
 _atom_site_symmetry_multiplicity
 _atom_site_fract_x
 _atom_site_fract_y
 _atom_site_fract_z
 _atom_site_occupancy
  Er  Er0  1  0.250000  0.582383  0.708265  1
  Er  Er1  1  0.250000  0.917617  0.208265  1
  Er  Er2  1  0.750000  0.417617  0.291735  1
  Er  Er3  1  0.750000  0.082383  0.791735  1
  Fe  Fe4  1  0.250000  0.882614  0.698220  1
  Fe  Fe5  1  0.250000  0.617386  0.198220  1
  Fe  Fe6  1  0.750000  0.117386  0.301780  1
  Fe  Fe7  1  0.750000  0.382614  0.801780  1
  Fe  Fe8  1  0.250000  0.463228  0.935054  1
  Fe  Fe9  1  0.250000  0.036772  0.435054  1
  Fe  Fe10  1  0.750000  0.536772  0.064946  1
  Fe  Fe11  1  0.750000  0.963228  0.564946  1
  P  P12  1  0.250000  0.430751  0.112617  1
  P  P13  1  0.250000  0.069249  0.612617  1
  P  P14  1  0.750000  0.569249  0.887383  1
  P  P15  1  0.750000  0.930751  0.387383  1
  P  P16  1  0.250000  0.272316  0.868940  1
  P  P17  1  0.250000  0.227684  0.368940  1
  P  P18  1  0.750000  0.727684  0.131060  1
  P  P19  1  0.750000  0.772316  0.631060  1
  P  P20  1  0.250000  0.603342  0.387638  1
  P  P21  1  0.250000  0.896658  0.887638  1
  P  P22  1  0.750000  0.396658  0.612362  1
  P  P23  1  0.750000  0.103342  0.112362  1
  Ru  Ru24  1  0.250000  0.703867  0.988822  1
  Ru  Ru25  1  0.250000  0.796133  0.488822  1
  Ru  Ru26  1  0.750000  0.296133  0.011178  1
  Ru  Ru27  1  0.750000  0.203867  0.511178  1
  Ru  Ru28  1  0.250000  0.405080  0.484240  1
  Ru  Ru29  1  0.250000  0.094921  0.984240  1
  Ru  Ru30  1  0.750000  0.594920  0.515760  1
  Ru  Ru31  1  0.750000  0.905080  0.015760  1
  Ru  Ru32  1  0.250000  0.226470  0.178269  1
  Ru  Ru33  1  0.250000  0.273530  0.678269  1
  Ru  Ru34  1  0.750000  0.773530  0.821731  1
  Ru  Ru35  1  0.750000  0.726470  0.321731  1
