# generated using pymatgen
data_Ba4Y2IrWO12
_symmetry_space_group_name_H-M   'P 1'
_cell_length_a   5.98889634
_cell_length_b   5.98867602
_cell_length_c   8.52032526
_cell_angle_alpha   89.99149462
_cell_angle_beta   90.00575821
_cell_angle_gamma   89.99964746
_symmetry_Int_Tables_number   1
_chemical_formula_structural   Ba4Y2IrWO12
_chemical_formula_sum   'Ba4 Y2 Ir1 W1 O12'
_cell_volume   305.58623081
_cell_formula_units_Z   1
loop_
 _symmetry_equiv_pos_site_id
 _symmetry_equiv_pos_as_xyz
  1  'x, y, z'
loop_
 _atom_site_type_symbol
 _atom_site_label
 _atom_site_symmetry_multiplicity
 _atom_site_fract_x
 _atom_site_fract_y
 _atom_site_fract_z
 _atom_site_occupancy
  Ba  Ba0  1  0.999967  0.000270  0.263394  1
  Ba  Ba1  1  0.499991  0.500179  0.263379  1
  Ba  Ba2  1  0.500008  0.499821  0.736621  1
  Ba  Ba3  1  0.000032  0.999730  0.736606  1
  Y  Y4  1  0.000000  0.500000  0.000000  1
  Y  Y5  1  0.500000  0.000000  0.500000  1
  Ir  Ir6  1  0.000000  0.499998  0.500000  1
  W  W7  1  0.500000  0.000000  0.000000  1
  O  O8  1  0.733266  0.771558  0.001436  1
  O  O9  1  0.728425  0.233275  0.001736  1
  O  O10  1  0.496978  0.999573  0.230679  1
  O  O11  1  0.003041  0.499483  0.257972  1
  O  O12  1  0.763250  0.741081  0.498465  1
  O  O13  1  0.758924  0.263239  0.498672  1
  O  O14  1  0.241075  0.736762  0.501328  1
  O  O15  1  0.236750  0.258920  0.501535  1
  O  O16  1  0.996958  0.500517  0.742028  1
  O  O17  1  0.503022  0.000428  0.769321  1
  O  O18  1  0.271576  0.766725  0.998264  1
  O  O19  1  0.266735  0.228442  0.998564  1
