# generated using pymatgen
data_SrPr(PtO2)4
_symmetry_space_group_name_H-M   'P 1'
_cell_length_a   6.73966270
_cell_length_b   6.74044929
_cell_length_c   6.74097230
_cell_angle_alpha   126.86595417
_cell_angle_beta   126.86147479
_cell_angle_gamma   78.48162746
_symmetry_Int_Tables_number   1
_chemical_formula_structural   SrPr(PtO2)4
_chemical_formula_sum   'Sr1 Pr1 Pt4 O8'
_cell_volume   189.78039826
_cell_formula_units_Z   1
loop_
 _symmetry_equiv_pos_site_id
 _symmetry_equiv_pos_as_xyz
  1  'x, y, z'
loop_
 _atom_site_type_symbol
 _atom_site_label
 _atom_site_symmetry_multiplicity
 _atom_site_fract_x
 _atom_site_fract_y
 _atom_site_fract_z
 _atom_site_occupancy
  Sr  Sr0  1  0.000024  0.000044  0.000087  1
  Pr  Pr1  1  0.749966  0.249965  0.499910  1
  Pt  Pt2  1  0.873867  0.628888  0.253662  1
  Pt  Pt3  1  0.379811  0.126138  0.755052  1
  Pt  Pt4  1  0.371094  0.624768  0.244955  1
  Pt  Pt5  1  0.375223  0.620201  0.746330  1
  O  O6  1  0.369528  0.992314  0.949822  1
  O  O7  1  0.693721  0.838551  0.438556  1
  O  O8  1  0.744988  0.306255  0.144977  1
  O  O9  1  0.580148  0.630511  0.622691  1
  O  O10  1  0.161415  0.600084  0.855248  1
  O  O11  1  0.007647  0.957393  0.377084  1
  O  O12  1  0.042655  0.419862  0.050458  1
  O  O13  1  0.399912  0.255025  0.561169  1
