# generated using pymatgen
data_Tb8Er2IrRh5
_symmetry_space_group_name_H-M   'P 1'
_cell_length_a   10.92596600
_cell_length_b   10.92646100
_cell_length_c   6.37439900
_cell_angle_alpha   90.00000000
_cell_angle_beta   90.00302557
_cell_angle_gamma   90.00000000
_symmetry_Int_Tables_number   1
_chemical_formula_structural   Tb8Er2IrRh5
_chemical_formula_sum   'Tb16 Er4 Ir2 Rh10'
_cell_volume   760.98940214
_cell_formula_units_Z   2
loop_
 _symmetry_equiv_pos_site_id
 _symmetry_equiv_pos_as_xyz
  1  'x, y, z'
loop_
 _atom_site_type_symbol
 _atom_site_label
 _atom_site_symmetry_multiplicity
 _atom_site_fract_x
 _atom_site_fract_y
 _atom_site_fract_z
 _atom_site_occupancy
  Tb  Tb0  1  0.290590  0.089753  0.379251  1
  Tb  Tb1  1  0.290590  0.910247  0.879251  1
  Tb  Tb2  1  0.709589  0.088038  0.878886  1
  Tb  Tb3  1  0.709589  0.911962  0.378886  1
  Tb  Tb4  1  0.586782  0.789594  0.879202  1
  Tb  Tb5  1  0.586782  0.210406  0.379202  1
  Tb  Tb6  1  0.411197  0.789946  0.379823  1
  Tb  Tb7  1  0.411197  0.210054  0.879823  1
  Tb  Tb8  1  0.210898  0.412865  0.620171  1
  Tb  Tb9  1  0.210898  0.587135  0.120171  1
  Tb  Tb10  1  0.790465  0.411532  0.120769  1
  Tb  Tb11  1  0.790465  0.588468  0.620769  1
  Tb  Tb12  1  0.912082  0.709782  0.120846  1
  Tb  Tb13  1  0.912082  0.290218  0.620846  1
  Tb  Tb14  1  0.090007  0.709216  0.621148  1
  Tb  Tb15  1  0.090007  0.290784  0.121148  1
  Er  Er16  1  0.999966  0.999676  0.499998  1
  Er  Er17  1  0.999966  0.000324  0.999998  1
  Er  Er18  1  0.499681  0.499685  0.999989  1
  Er  Er19  1  0.499681  0.500315  0.499989  1
  Ir  Ir20  1  0.347772  0.346965  0.250098  1
  Ir  Ir21  1  0.347772  0.653035  0.750098  1
  Rh  Rh22  1  0.847342  0.151897  0.250343  1
  Rh  Rh23  1  0.847342  0.848103  0.750343  1
  Rh  Rh24  1  0.151120  0.151804  0.749459  1
  Rh  Rh25  1  0.151120  0.848196  0.249459  1
  Rh  Rh26  1  0.653284  0.347781  0.750027  1
  Rh  Rh27  1  0.653284  0.652219  0.250027  1
  Rh  Rh28  1  0.500769  0.999533  0.124486  1
  Rh  Rh29  1  0.500769  0.000467  0.624486  1
  Rh  Rh30  1  0.998457  0.499800  0.875503  1
  Rh  Rh31  1  0.998457  0.500200  0.375503  1
