# generated using pymatgen
data_Zr5Sc3(InNi2)4
_symmetry_space_group_name_H-M   'P 1'
_cell_length_a   7.20924435
_cell_length_b   7.20924435
_cell_length_c   6.61554200
_cell_angle_alpha   90.00000000
_cell_angle_beta   90.00000000
_cell_angle_gamma   89.88960861
_symmetry_Int_Tables_number   1
_chemical_formula_structural   Zr5Sc3(InNi2)4
_chemical_formula_sum   'Zr5 Sc3 In4 Ni8'
_cell_volume   343.83027595
_cell_formula_units_Z   1
loop_
 _symmetry_equiv_pos_site_id
 _symmetry_equiv_pos_as_xyz
  1  'x, y, z'
loop_
 _atom_site_type_symbol
 _atom_site_label
 _atom_site_symmetry_multiplicity
 _atom_site_fract_x
 _atom_site_fract_y
 _atom_site_fract_z
 _atom_site_occupancy
  Zr  Zr0  1  0.825852  0.825014  0.000000  1
  Zr  Zr1  1  0.675310  0.324690  0.500000  1
  Zr  Zr2  1  0.174986  0.174148  0.000000  1
  Zr  Zr3  1  0.661343  0.338657  0.000000  1
  Zr  Zr4  1  0.324929  0.675071  0.500000  1
  Sc  Sc5  1  0.337045  0.662955  0.000000  1
  Sc  Sc6  1  0.161991  0.161711  0.500000  1
  Sc  Sc7  1  0.838289  0.838009  0.500000  1
  In  In8  1  0.499169  0.998655  0.749371  1
  In  In9  1  0.499169  0.998655  0.250629  1
  In  In10  1  0.001345  0.500831  0.250629  1
  In  In11  1  0.001345  0.500831  0.749371  1
  Ni  Ni12  1  0.123588  0.876412  0.233046  1
  Ni  Ni13  1  0.123588  0.876412  0.766954  1
  Ni  Ni14  1  0.624227  0.623473  0.733684  1
  Ni  Ni15  1  0.875271  0.124729  0.766945  1
  Ni  Ni16  1  0.376527  0.375773  0.266316  1
  Ni  Ni17  1  0.624227  0.623473  0.266316  1
  Ni  Ni18  1  0.875271  0.124729  0.233055  1
  Ni  Ni19  1  0.376527  0.375773  0.733684  1
