# generated using pymatgen
data_Y3Al2ZnSi2Pd
_symmetry_space_group_name_H-M   'P 1'
_cell_length_a   6.88169599
_cell_length_b   6.88169846
_cell_length_c   4.26943700
_cell_angle_alpha   90.00000000
_cell_angle_beta   90.00000000
_cell_angle_gamma   119.64367573
_symmetry_Int_Tables_number   1
_chemical_formula_structural   Y3Al2ZnSi2Pd
_chemical_formula_sum   'Y3 Al2 Zn1 Si2 Pd1'
_cell_volume   175.72783250
_cell_formula_units_Z   1
loop_
 _symmetry_equiv_pos_site_id
 _symmetry_equiv_pos_as_xyz
  1  'x, y, z'
loop_
 _atom_site_type_symbol
 _atom_site_label
 _atom_site_symmetry_multiplicity
 _atom_site_fract_x
 _atom_site_fract_y
 _atom_site_fract_z
 _atom_site_occupancy
  Y  Y0  1  0.424237  0.424237  0.500000  1
  Y  Y1  1  0.998445  0.581220  0.500000  1
  Y  Y2  1  0.581220  0.998445  0.500000  1
  Al  Al3  1  0.235322  0.000694  0.000000  1
  Al  Al4  1  0.000694  0.235322  0.000000  1
  Zn  Zn5  1  0.754943  0.754943  0.000000  1
  Si  Si6  1  0.665544  0.329242  0.000000  1
  Si  Si7  1  0.329242  0.665544  0.000000  1
  Pd  Pd8  1  0.010354  0.010354  0.500000  1
