# generated using pymatgen
data_DyCd(CuRh)2
_symmetry_space_group_name_H-M   'P 1'
_cell_length_a   5.16302599
_cell_length_b   5.41436769
_cell_length_c   5.16302600
_cell_angle_alpha   58.37613421
_cell_angle_beta   58.19730320
_cell_angle_gamma   58.37614045
_symmetry_Int_Tables_number   1
_chemical_formula_structural   DyCd(CuRh)2
_chemical_formula_sum   'Dy1 Cd1 Cu2 Rh2'
_cell_volume   98.12167951
_cell_formula_units_Z   1
loop_
 _symmetry_equiv_pos_site_id
 _symmetry_equiv_pos_as_xyz
  1  'x, y, z'
loop_
 _atom_site_type_symbol
 _atom_site_label
 _atom_site_symmetry_multiplicity
 _atom_site_fract_x
 _atom_site_fract_y
 _atom_site_fract_z
 _atom_site_occupancy
  Dy  Dy0  1  0.748008  0.751992  0.748008  1
  Cd  Cd1  1  0.997011  0.002989  0.997011  1
  Cu  Cu2  1  0.876026  0.372846  0.378281  1
  Cu  Cu3  1  0.378281  0.372846  0.876026  1
  Rh  Rh4  1  0.375336  0.876149  0.375336  1
  Rh  Rh5  1  0.375336  0.373179  0.375336  1
