# generated using pymatgen
data_Ho14Er5TmBi12
_symmetry_space_group_name_H-M   'P 1'
_cell_length_a   8.22272401
_cell_length_b   9.48351500
_cell_length_c   11.99512201
_cell_angle_alpha   89.99959934
_cell_angle_beta   89.99494379
_cell_angle_gamma   89.99829806
_symmetry_Int_Tables_number   1
_chemical_formula_structural   Ho14Er5TmBi12
_chemical_formula_sum   'Ho14 Er5 Tm1 Bi12'
_cell_volume   935.38352679
_cell_formula_units_Z   1
loop_
 _symmetry_equiv_pos_site_id
 _symmetry_equiv_pos_as_xyz
  1  'x, y, z'
loop_
 _atom_site_type_symbol
 _atom_site_label
 _atom_site_symmetry_multiplicity
 _atom_site_fract_x
 _atom_site_fract_y
 _atom_site_fract_z
 _atom_site_occupancy
  Ho  Ho0  1  0.353538  0.750015  0.216394  1
  Ho  Ho1  1  0.853547  0.749969  0.283593  1
  Ho  Ho2  1  0.646591  0.249924  0.783573  1
  Ho  Ho3  1  0.146540  0.250025  0.716397  1
  Ho  Ho4  1  0.691915  0.935641  0.058984  1
  Ho  Ho5  1  0.191905  0.564375  0.441017  1
  Ho  Ho6  1  0.476843  0.249906  0.488954  1
  Ho  Ho7  1  0.976784  0.250064  0.011054  1
  Ho  Ho8  1  0.523547  0.750101  0.511166  1
  Ho  Ho9  1  0.023530  0.749891  0.988831  1
  Ho  Ho10  1  0.314395  0.250005  0.217995  1
  Ho  Ho11  1  0.814400  0.249978  0.282020  1
  Ho  Ho12  1  0.685655  0.749928  0.781946  1
  Ho  Ho13  1  0.185669  0.750067  0.718059  1
  Er  Er14  1  0.691869  0.564666  0.059018  1
  Er  Er15  1  0.191876  0.935322  0.440983  1
  Er  Er16  1  0.308128  0.064801  0.941004  1
  Er  Er17  1  0.808113  0.435163  0.558992  1
  Er  Er18  1  0.308020  0.435229  0.940968  1
  Tm  Tm19  1  0.807995  0.064899  0.559042  1
  Bi  Bi20  1  0.405302  0.749801  0.957394  1
  Bi  Bi21  1  0.905271  0.750313  0.542616  1
  Bi  Bi22  1  0.594387  0.250597  0.042419  1
  Bi  Bi23  1  0.094347  0.249363  0.457592  1
  Bi  Bi24  1  0.566044  0.996138  0.325716  1
  Bi  Bi25  1  0.066048  0.503852  0.174298  1
  Bi  Bi26  1  0.433833  0.496132  0.674394  1
  Bi  Bi27  1  0.933822  0.003858  0.825586  1
  Bi  Bi28  1  0.433859  0.003893  0.674313  1
  Bi  Bi29  1  0.933839  0.496093  0.825673  1
  Bi  Bi30  1  0.566200  0.503855  0.325642  1
  Bi  Bi31  1  0.066186  0.996135  0.174365  1
