# generated using pymatgen
data_Eu8ErPt6
_symmetry_space_group_name_H-M   'P 1'
_cell_length_a   7.85979716
_cell_length_b   7.85979616
_cell_length_c   7.85979661
_cell_angle_alpha   69.82357347
_cell_angle_beta   69.82358423
_cell_angle_gamma   69.82358424
_symmetry_Int_Tables_number   1
_chemical_formula_structural   Eu8ErPt6
_chemical_formula_sum   'Eu8 Er1 Pt6'
_cell_volume   413.47984127
_cell_formula_units_Z   1
loop_
 _symmetry_equiv_pos_site_id
 _symmetry_equiv_pos_as_xyz
  1  'x, y, z'
loop_
 _atom_site_type_symbol
 _atom_site_label
 _atom_site_symmetry_multiplicity
 _atom_site_fract_x
 _atom_site_fract_y
 _atom_site_fract_z
 _atom_site_occupancy
  Eu  Eu0  1  0.002617  0.002617  0.002617  1
  Eu  Eu1  1  0.198718  0.198718  0.198718  1
  Eu  Eu2  1  0.333498  0.603447  0.844929  1
  Eu  Eu3  1  0.844929  0.333498  0.603447  1
  Eu  Eu4  1  0.603447  0.844929  0.333498  1
  Eu  Eu5  1  0.666905  0.398421  0.151834  1
  Eu  Eu6  1  0.151834  0.666905  0.398421  1
  Eu  Eu7  1  0.398421  0.151834  0.666905  1
  Er  Er8  1  0.806917  0.806917  0.806917  1
  Pt  Pt9  1  0.149433  0.951329  0.597460  1
  Pt  Pt10  1  0.597460  0.149433  0.951329  1
  Pt  Pt11  1  0.951329  0.597460  0.149433  1
  Pt  Pt12  1  0.831578  0.036228  0.426685  1
  Pt  Pt13  1  0.426685  0.831578  0.036228  1
  Pt  Pt14  1  0.036228  0.426685  0.831578  1
