# generated using pymatgen
data_Pr3Dy5CdInIr2
_symmetry_space_group_name_H-M   'P 1'
_cell_length_a   9.78325994
_cell_length_b   9.78325991
_cell_length_c   9.74011700
_cell_angle_alpha   60.14577382
_cell_angle_beta   60.14577391
_cell_angle_gamma   60.27230231
_symmetry_Int_Tables_number   1
_chemical_formula_structural   Pr3Dy5CdInIr2
_chemical_formula_sum   'Pr6 Dy10 Cd2 In2 Ir4'
_cell_volume   662.00227951
_cell_formula_units_Z   2
loop_
 _symmetry_equiv_pos_site_id
 _symmetry_equiv_pos_as_xyz
  1  'x, y, z'
loop_
 _atom_site_type_symbol
 _atom_site_label
 _atom_site_symmetry_multiplicity
 _atom_site_fract_x
 _atom_site_fract_y
 _atom_site_fract_z
 _atom_site_occupancy
  Pr  Pr0  1  0.943598  0.558173  0.557943  1
  Pr  Pr1  1  0.558173  0.943598  0.940286  1
  Pr  Pr2  1  0.558173  0.943598  0.557943  1
  Pr  Pr3  1  0.943598  0.558173  0.940286  1
  Pr  Pr4  1  0.558477  0.558477  0.941523  1
  Pr  Pr5  1  0.942054  0.942054  0.557946  1
  Dy  Dy6  1  0.347288  0.347288  0.345886  1
  Dy  Dy7  1  0.347288  0.347288  0.959537  1
  Dy  Dy8  1  0.348348  0.957676  0.346987  1
  Dy  Dy9  1  0.957676  0.348348  0.346987  1
  Dy  Dy10  1  0.810790  0.187523  0.189298  1
  Dy  Dy11  1  0.187523  0.810790  0.812389  1
  Dy  Dy12  1  0.187523  0.810790  0.189298  1
  Dy  Dy13  1  0.810790  0.187523  0.812389  1
  Dy  Dy14  1  0.186256  0.186256  0.813744  1
  Dy  Dy15  1  0.809794  0.809794  0.190206  1
  Cd  Cd16  1  0.578122  0.262519  0.579679  1
  Cd  Cd17  1  0.262519  0.578122  0.579679  1
  In  In18  1  0.579631  0.579631  0.580699  1
  In  In19  1  0.579631  0.579631  0.260038  1
  Ir  Ir20  1  0.141714  0.141714  0.140540  1
  Ir  Ir21  1  0.141714  0.141714  0.576031  1
  Ir  Ir22  1  0.142047  0.577268  0.140343  1
  Ir  Ir23  1  0.577268  0.142047  0.140343  1
