# generated using pymatgen
data_U6Co11B4Ir3
_symmetry_space_group_name_H-M   'P 1'
_cell_length_a   5.03003700
_cell_length_b   5.06686437
_cell_length_c   14.26086733
_cell_angle_alpha   90.35132736
_cell_angle_beta   90.00000000
_cell_angle_gamma   119.75985066
_symmetry_Int_Tables_number   1
_chemical_formula_structural   U6Co11B4Ir3
_chemical_formula_sum   'U6 Co11 B4 Ir3'
_cell_volume   315.51649549
_cell_formula_units_Z   1
loop_
 _symmetry_equiv_pos_site_id
 _symmetry_equiv_pos_as_xyz
  1  'x, y, z'
loop_
 _atom_site_type_symbol
 _atom_site_label
 _atom_site_symmetry_multiplicity
 _atom_site_fract_x
 _atom_site_fract_y
 _atom_site_fract_z
 _atom_site_occupancy
  U  U0  1  0.332564  0.665130  0.255055  1
  U  U1  1  0.666936  0.333871  0.748169  1
  U  U2  1  0.332193  0.664387  0.028241  1
  U  U3  1  0.667229  0.334457  0.531186  1
  U  U4  1  0.667133  0.334266  0.963774  1
  U  U5  1  0.332012  0.664026  0.472778  1
  Co  Co6  1  0.165576  0.833917  0.650542  1
  Co  Co7  1  0.668341  0.833917  0.650542  1
  Co  Co8  1  0.329539  0.162619  0.151087  1
  Co  Co9  1  0.833081  0.162619  0.151087  1
  Co  Co10  1  0.166377  0.332754  0.845541  1
  Co  Co11  1  0.165954  0.836323  0.847005  1
  Co  Co12  1  0.164870  0.329742  0.651133  1
  Co  Co13  1  0.670368  0.836323  0.847005  1
  Co  Co14  1  0.331159  0.165488  0.353401  1
  Co  Co15  1  0.835050  0.670099  0.350894  1
  Co  Co16  1  0.834330  0.165488  0.353401  1
  B  B17  1  0.006371  0.012741  0.253380  1
  B  B18  1  0.999493  0.998986  0.748643  1
  B  B19  1  0.334136  0.668274  0.748679  1
  B  B20  1  0.659271  0.318540  0.253918  1
  Ir  Ir21  1  0.007457  0.014913  0.995479  1
  Ir  Ir22  1  0.998707  0.997414  0.501558  1
  Ir  Ir23  1  0.831855  0.663708  0.147504  1
