# generated using pymatgen
data_Er(Ga3Pd)3
_symmetry_space_group_name_H-M   'P 1'
_cell_length_a   10.47917046
_cell_length_b   10.47917054
_cell_length_c   10.47917209
_cell_angle_alpha   42.29099711
_cell_angle_beta   42.29100234
_cell_angle_gamma   42.29100310
_symmetry_Int_Tables_number   1
_chemical_formula_structural   Er(Ga3Pd)3
_chemical_formula_sum   'Er2 Ga18 Pd6'
_cell_volume   471.59946772
_cell_formula_units_Z   2
loop_
 _symmetry_equiv_pos_site_id
 _symmetry_equiv_pos_as_xyz
  1  'x, y, z'
loop_
 _atom_site_type_symbol
 _atom_site_label
 _atom_site_symmetry_multiplicity
 _atom_site_fract_x
 _atom_site_fract_y
 _atom_site_fract_z
 _atom_site_occupancy
  Er  Er0  1  0.166848  0.166848  0.166848  1
  Er  Er1  1  0.833152  0.833152  0.833152  1
  Ga  Ga2  1  0.108968  0.437654  0.768113  1
  Ga  Ga3  1  0.437654  0.768113  0.108968  1
  Ga  Ga4  1  0.562346  0.891032  0.231887  1
  Ga  Ga5  1  0.950839  0.950839  0.950839  1
  Ga  Ga6  1  0.049161  0.049161  0.049161  1
  Ga  Ga7  1  0.295419  0.704581  0.500000  1
  Ga  Ga8  1  0.891032  0.231887  0.562346  1
  Ga  Ga9  1  0.384548  0.384548  0.384548  1
  Ga  Ga10  1  0.500000  0.295419  0.704581  1
  Ga  Ga11  1  0.231887  0.562346  0.891032  1
  Ga  Ga12  1  0.715329  0.715329  0.715329  1
  Ga  Ga13  1  0.615452  0.615452  0.615452  1
  Ga  Ga14  1  0.334661  0.000000  0.665339  1
  Ga  Ga15  1  0.704581  0.500000  0.295419  1
  Ga  Ga16  1  0.665339  0.334661  0.000000  1
  Ga  Ga17  1  0.284671  0.284671  0.284671  1
  Ga  Ga18  1  0.000000  0.665339  0.334661  1
  Ga  Ga19  1  0.768113  0.108968  0.437654  1
  Pd  Pd20  1  0.419231  0.077310  0.760528  1
  Pd  Pd21  1  0.580769  0.239472  0.922690  1
  Pd  Pd22  1  0.077310  0.760528  0.419231  1
  Pd  Pd23  1  0.760528  0.419231  0.077310  1
  Pd  Pd24  1  0.922690  0.580769  0.239472  1
  Pd  Pd25  1  0.239472  0.922690  0.580769  1
