# generated using pymatgen
data_Dy12Zn9Ga3C4
_symmetry_space_group_name_H-M   'P 1'
_cell_length_a   9.16901669
_cell_length_b   9.19039701
_cell_length_c   9.16901600
_cell_angle_alpha   60.07692140
_cell_angle_beta   59.99999526
_cell_angle_gamma   60.07692920
_symmetry_Int_Tables_number   1
_chemical_formula_structural   Dy12Zn9Ga3C4
_chemical_formula_sum   'Dy12 Zn9 Ga3 C4'
_cell_volume   546.97659172
_cell_formula_units_Z   1
loop_
 _symmetry_equiv_pos_site_id
 _symmetry_equiv_pos_as_xyz
  1  'x, y, z'
loop_
 _atom_site_type_symbol
 _atom_site_label
 _atom_site_symmetry_multiplicity
 _atom_site_fract_x
 _atom_site_fract_y
 _atom_site_fract_z
 _atom_site_occupancy
  Dy  Dy0  1  0.447078  0.446858  0.053032  1
  Dy  Dy1  1  0.053032  0.446858  0.053032  1
  Dy  Dy2  1  0.446531  0.053359  0.053579  1
  Dy  Dy3  1  0.053579  0.053359  0.446531  1
  Dy  Dy4  1  0.446531  0.053359  0.446531  1
  Dy  Dy5  1  0.053032  0.446858  0.447078  1
  Dy  Dy6  1  0.802922  0.803142  0.196968  1
  Dy  Dy7  1  0.196968  0.803142  0.196968  1
  Dy  Dy8  1  0.803469  0.196641  0.196421  1
  Dy  Dy9  1  0.196421  0.196641  0.803469  1
  Dy  Dy10  1  0.803469  0.196641  0.803469  1
  Dy  Dy11  1  0.196968  0.803142  0.802922  1
  Zn  Zn12  1  0.825662  0.830211  0.518466  1
  Zn  Zn13  1  0.827458  0.517628  0.827458  1
  Zn  Zn14  1  0.518466  0.830211  0.825662  1
  Zn  Zn15  1  0.825662  0.830211  0.825662  1
  Zn  Zn16  1  0.424338  0.419789  0.731534  1
  Zn  Zn17  1  0.422542  0.732372  0.422542  1
  Zn  Zn18  1  0.731534  0.419789  0.424338  1
  Zn  Zn19  1  0.424338  0.419789  0.424338  1
  Zn  Zn20  1  0.625000  0.125000  0.625000  1
  Ga  Ga21  1  0.625000  0.625000  0.125000  1
  Ga  Ga22  1  0.125000  0.625000  0.625000  1
  Ga  Ga23  1  0.625000  0.625000  0.625000  1
  C  C24  1  0.125000  0.125000  0.625000  1
  C  C25  1  0.125000  0.625000  0.125000  1
  C  C26  1  0.625000  0.125000  0.125000  1
  C  C27  1  0.125000  0.125000  0.125000  1
