# generated using pymatgen
data_Ba4Sr2La2Al4O15
_symmetry_space_group_name_H-M   'P 1'
_cell_length_a   11.65213892
_cell_length_b   11.65213949
_cell_length_c   7.01573375
_cell_angle_alpha   89.78236396
_cell_angle_beta   89.78236276
_cell_angle_gamma   119.90701054
_symmetry_Int_Tables_number   1
_chemical_formula_structural   Ba4Sr2La2Al4O15
_chemical_formula_sum   'Ba8 Sr4 La4 Al8 O30'
_cell_volume   825.67425730
_cell_formula_units_Z   2
loop_
 _symmetry_equiv_pos_site_id
 _symmetry_equiv_pos_as_xyz
  1  'x, y, z'
loop_
 _atom_site_type_symbol
 _atom_site_label
 _atom_site_symmetry_multiplicity
 _atom_site_fract_x
 _atom_site_fract_y
 _atom_site_fract_z
 _atom_site_occupancy
  Ba  Ba0  1  0.666982  0.329784  0.976557  1
  Ba  Ba1  1  0.329784  0.666982  0.476557  1
  Ba  Ba2  1  0.341136  0.166479  0.667519  1
  Ba  Ba3  1  0.833453  0.661299  0.660906  1
  Ba  Ba4  1  0.827852  0.170071  0.663131  1
  Ba  Ba5  1  0.661299  0.833453  0.160906  1
  Ba  Ba6  1  0.166479  0.341136  0.167519  1
  Ba  Ba7  1  0.170071  0.827852  0.163131  1
  Sr  Sr8  1  0.000080  0.000548  0.471549  1
  Sr  Sr9  1  0.000548  0.000080  0.971549  1
  Sr  Sr10  1  0.960460  0.480478  0.331845  1
  Sr  Sr11  1  0.480478  0.960460  0.831845  1
  La  La12  1  0.520124  0.040779  0.331349  1
  La  La13  1  0.519528  0.479659  0.333620  1
  La  La14  1  0.040779  0.520124  0.831349  1
  La  La15  1  0.479659  0.519528  0.833620  1
  Al  Al16  1  0.355296  0.179146  0.162569  1
  Al  Al17  1  0.820052  0.639893  0.159916  1
  Al  Al18  1  0.822392  0.180815  0.161161  1
  Al  Al19  1  0.639893  0.820052  0.659916  1
  Al  Al20  1  0.179146  0.355296  0.662569  1
  Al  Al21  1  0.180815  0.822392  0.661161  1
  Al  Al22  1  0.671100  0.337356  0.519802  1
  Al  Al23  1  0.337356  0.671100  0.019802  1
  O  O24  1  0.604529  0.675024  0.529469  1
  O  O25  1  0.072197  0.392852  0.534244  1
  O  O26  1  0.321334  0.929744  0.519841  1
  O  O27  1  0.325010  0.393289  0.530127  1
  O  O28  1  0.607553  0.927654  0.519944  1
  O  O29  1  0.071327  0.679251  0.532900  1
  O  O30  1  0.393289  0.325010  0.030127  1
  O  O31  1  0.927654  0.607553  0.019944  1
  O  O32  1  0.679251  0.071327  0.032900  1
  O  O33  1  0.675024  0.604529  0.029469  1
  O  O34  1  0.392852  0.072197  0.034244  1
  O  O35  1  0.929744  0.321334  0.019841  1
  O  O36  1  0.826944  0.415079  0.659516  1
  O  O37  1  0.587146  0.175766  0.645547  1
  O  O38  1  0.586027  0.416101  0.652397  1
  O  O39  1  0.175766  0.587146  0.145547  1
  O  O40  1  0.415079  0.826944  0.159516  1
  O  O41  1  0.416101  0.586027  0.152397  1
  O  O42  1  0.490318  0.248405  0.334156  1
  O  O43  1  0.748039  0.502900  0.333267  1
  O  O44  1  0.751105  0.247214  0.331681  1
  O  O45  1  0.502900  0.748039  0.833267  1
  O  O46  1  0.248405  0.490318  0.834156  1
  O  O47  1  0.247214  0.751105  0.831681  1
  O  O48  1  0.804856  0.901300  0.746989  1
  O  O49  1  0.097827  0.189063  0.744569  1
  O  O50  1  0.099444  0.906765  0.747221  1
  O  O51  1  0.189063  0.097827  0.244569  1
  O  O52  1  0.901300  0.804856  0.246989  1
  O  O53  1  0.906765  0.099444  0.247221  1
