# generated using pymatgen
data_Lu8B24OsRuW2
_symmetry_space_group_name_H-M   'P 1'
_cell_length_a   3.57410700
_cell_length_b   9.11325457
_cell_length_c   11.48073550
_cell_angle_alpha   90.01712372
_cell_angle_beta   90.00000000
_cell_angle_gamma   90.00000000
_symmetry_Int_Tables_number   1
_chemical_formula_structural   Lu8B24OsRuW2
_chemical_formula_sum   'Lu8 B24 Os1 Ru1 W2'
_cell_volume   373.94759477
_cell_formula_units_Z   1
loop_
 _symmetry_equiv_pos_site_id
 _symmetry_equiv_pos_as_xyz
  1  'x, y, z'
loop_
 _atom_site_type_symbol
 _atom_site_label
 _atom_site_symmetry_multiplicity
 _atom_site_fract_x
 _atom_site_fract_y
 _atom_site_fract_z
 _atom_site_occupancy
  Lu  Lu0  1  0.000000  0.320556  0.413350  1
  Lu  Lu1  1  0.000000  0.678617  0.585587  1
  Lu  Lu2  1  0.000000  0.821452  0.085103  1
  Lu  Lu3  1  0.000000  0.179356  0.913263  1
  Lu  Lu4  1  0.000000  0.940851  0.372275  1
  Lu  Lu5  1  0.000000  0.054000  0.628558  1
  Lu  Lu6  1  0.000000  0.446469  0.128984  1
  Lu  Lu7  1  0.000000  0.558522  0.872342  1
  B  B8  1  0.500000  0.554222  0.432598  1
  B  B9  1  0.500000  0.449566  0.563210  1
  B  B10  1  0.500000  0.050324  0.063212  1
  B  B11  1  0.500000  0.945478  0.932539  1
  B  B12  1  0.500000  0.748665  0.419911  1
  B  B13  1  0.500000  0.246762  0.577639  1
  B  B14  1  0.500000  0.253452  0.077394  1
  B  B15  1  0.500000  0.751015  0.919586  1
  B  B16  1  0.500000  0.791113  0.265773  1
  B  B17  1  0.500000  0.204006  0.737332  1
  B  B18  1  0.500000  0.296183  0.237161  1
  B  B19  1  0.500000  0.708616  0.765596  1
  B  B20  1  0.500000  0.631724  0.184946  1
  B  B21  1  0.500000  0.369995  0.818147  1
  B  B22  1  0.500000  0.130184  0.318149  1
  B  B23  1  0.500000  0.868620  0.685037  1
  B  B24  1  0.500000  0.975952  0.212605  1
  B  B25  1  0.500000  0.017113  0.787646  1
  B  B26  1  0.500000  0.483115  0.287635  1
  B  B27  1  0.500000  0.523826  0.712617  1
  B  B28  1  0.500000  0.604197  0.028881  1
  B  B29  1  0.500000  0.400712  0.972367  1
  B  B30  1  0.500000  0.099496  0.472222  1
  B  B31  1  0.500000  0.895867  0.528886  1
  Os  Os32  1  0.000000  0.861071  0.820448  1
  Ru  Ru33  1  0.000000  0.639032  0.320580  1
  W  W34  1  0.000000  0.361793  0.679342  1
  W  W35  1  0.000000  0.138079  0.179082  1
