# generated using pymatgen
data_Ta5Nb2B8OsRu5
_symmetry_space_group_name_H-M   'P 1'
_cell_length_a   9.60456710
_cell_length_b   9.61121130
_cell_length_c   3.12456000
_cell_angle_alpha   90.00000000
_cell_angle_beta   90.00000000
_cell_angle_gamma   120.06257118
_symmetry_Int_Tables_number   1
_chemical_formula_structural   Ta5Nb2B8OsRu5
_chemical_formula_sum   'Ta5 Nb2 B8 Os1 Ru5'
_cell_volume   249.63257048
_cell_formula_units_Z   1
loop_
 _symmetry_equiv_pos_site_id
 _symmetry_equiv_pos_as_xyz
  1  'x, y, z'
loop_
 _atom_site_type_symbol
 _atom_site_label
 _atom_site_symmetry_multiplicity
 _atom_site_fract_x
 _atom_site_fract_y
 _atom_site_fract_z
 _atom_site_occupancy
  Ta  Ta0  1  0.362454  0.087307  0.000000  1
  Ta  Ta1  1  0.912977  0.275044  0.000000  1
  Ta  Ta2  1  0.276283  0.363099  0.000000  1
  Ta  Ta3  1  0.637820  0.913151  0.000000  1
  Ta  Ta4  1  0.084814  0.723833  0.000000  1
  Nb  Nb5  1  0.000743  0.000331  0.000000  1
  Nb  Nb6  1  0.725035  0.638902  0.000000  1
  B  B7  1  0.666626  0.333027  0.000000  1
  B  B8  1  0.333740  0.667613  0.000000  1
  B  B9  1  0.154228  0.933892  0.500000  1
  B  B10  1  0.064911  0.218096  0.500000  1
  B  B11  1  0.782149  0.847496  0.500000  1
  B  B12  1  0.847014  0.065633  0.500000  1
  B  B13  1  0.935760  0.782684  0.500000  1
  B  B14  1  0.219839  0.154993  0.500000  1
  Os  Os15  1  0.359995  0.845935  0.500000  1
  Ru  Ru16  1  0.152756  0.511863  0.500000  1
  Ru  Ru17  1  0.484839  0.638844  0.500000  1
  Ru  Ru18  1  0.638424  0.153192  0.500000  1
  Ru  Ru19  1  0.846378  0.484711  0.500000  1
  Ru  Ru20  1  0.513217  0.360355  0.500000  1
