# generated using pymatgen
data_YTm2Ir7Rh2
_symmetry_space_group_name_H-M   'P 1'
_cell_length_a   5.29702600
_cell_length_b   5.29702680
_cell_length_c   17.44908000
_cell_angle_alpha   90.00000000
_cell_angle_beta   90.00000000
_cell_angle_gamma   119.99999503
_symmetry_Int_Tables_number   1
_chemical_formula_structural   YTm2Ir7Rh2
_chemical_formula_sum   'Y2 Tm4 Ir14 Rh4'
_cell_volume   424.00156717
_cell_formula_units_Z   2
loop_
 _symmetry_equiv_pos_site_id
 _symmetry_equiv_pos_as_xyz
  1  'x, y, z'
loop_
 _atom_site_type_symbol
 _atom_site_label
 _atom_site_symmetry_multiplicity
 _atom_site_fract_x
 _atom_site_fract_y
 _atom_site_fract_z
 _atom_site_occupancy
  Y  Y0  1  0.333333  0.666667  0.750000  1
  Y  Y1  1  0.666667  0.333333  0.250000  1
  Tm  Tm2  1  0.333333  0.666667  0.959001  1
  Tm  Tm3  1  0.666667  0.333333  0.040999  1
  Tm  Tm4  1  0.666667  0.333333  0.459001  1
  Tm  Tm5  1  0.333333  0.666667  0.540999  1
  Ir  Ir6  1  0.167758  0.832242  0.374805  1
  Ir  Ir7  1  0.167758  0.335515  0.374805  1
  Ir  Ir8  1  0.664485  0.832242  0.374805  1
  Ir  Ir9  1  0.832242  0.167758  0.625195  1
  Ir  Ir10  1  0.832242  0.664485  0.625195  1
  Ir  Ir11  1  0.335515  0.167758  0.625195  1
  Ir  Ir12  1  0.832242  0.167758  0.874805  1
  Ir  Ir13  1  0.832242  0.664485  0.874805  1
  Ir  Ir14  1  0.335515  0.167758  0.874805  1
  Ir  Ir15  1  0.167758  0.832242  0.125195  1
  Ir  Ir16  1  0.167758  0.335515  0.125195  1
  Ir  Ir17  1  0.664485  0.832242  0.125195  1
  Ir  Ir18  1  0.000000  0.000000  0.500000  1
  Ir  Ir19  1  0.000000  0.000000  0.000000  1
  Rh  Rh20  1  0.333333  0.666667  0.250000  1
  Rh  Rh21  1  0.666667  0.333333  0.750000  1
  Rh  Rh22  1  0.000000  0.000000  0.250000  1
  Rh  Rh23  1  0.000000  0.000000  0.750000  1
