# generated using pymatgen
data_La10Nd6Cd4Ru3Pt
_symmetry_space_group_name_H-M   'P 1'
_cell_length_a   10.02376679
_cell_length_b   10.05268619
_cell_length_c   10.05268600
_cell_angle_alpha   59.99999405
_cell_angle_beta   59.90451025
_cell_angle_gamma   59.90450807
_symmetry_Int_Tables_number   1
_chemical_formula_structural   La10Nd6Cd4Ru3Pt
_chemical_formula_sum   'La10 Nd6 Cd4 Ru3 Pt1'
_cell_volume   715.24006394
_cell_formula_units_Z   1
loop_
 _symmetry_equiv_pos_site_id
 _symmetry_equiv_pos_as_xyz
  1  'x, y, z'
loop_
 _atom_site_type_symbol
 _atom_site_label
 _atom_site_symmetry_multiplicity
 _atom_site_fract_x
 _atom_site_fract_y
 _atom_site_fract_z
 _atom_site_occupancy
  La  La0  1  0.343522  0.350353  0.350353  1
  La  La1  1  0.343522  0.350353  0.955772  1
  La  La2  1  0.343522  0.955772  0.350353  1
  La  La3  1  0.960788  0.346404  0.346404  1
  La  La4  1  0.816961  0.190524  0.190524  1
  La  La5  1  0.189583  0.811059  0.811059  1
  La  La6  1  0.189583  0.811059  0.188298  1
  La  La7  1  0.816961  0.190524  0.801991  1
  La  La8  1  0.189583  0.188298  0.811059  1
  La  La9  1  0.816961  0.801991  0.190524  1
  Nd  Nd10  1  0.935366  0.564266  0.564266  1
  Nd  Nd11  1  0.561513  0.936302  0.936302  1
  Nd  Nd12  1  0.561513  0.936302  0.565883  1
  Nd  Nd13  1  0.935366  0.564266  0.936101  1
  Nd  Nd14  1  0.561513  0.565883  0.936302  1
  Nd  Nd15  1  0.935366  0.936101  0.564266  1
  Cd  Cd16  1  0.580494  0.580350  0.580350  1
  Cd  Cd17  1  0.580494  0.580350  0.258806  1
  Cd  Cd18  1  0.580494  0.258806  0.580350  1
  Cd  Cd19  1  0.259135  0.580289  0.580289  1
  Ru  Ru20  1  0.140163  0.137260  0.137260  1
  Ru  Ru21  1  0.140163  0.137260  0.585317  1
  Ru  Ru22  1  0.140163  0.585317  0.137260  1
  Pt  Pt23  1  0.577266  0.140911  0.140911  1
