# generated using pymatgen
data_Hf14Cu15NiAu4
_symmetry_space_group_name_H-M   'P 1'
_cell_length_a   7.90502459
_cell_length_b   7.88429041
_cell_length_c   9.40971142
_cell_angle_alpha   90.03098502
_cell_angle_beta   90.00489457
_cell_angle_gamma   106.74884021
_symmetry_Int_Tables_number   1
_chemical_formula_structural   Hf14Cu15NiAu4
_chemical_formula_sum   'Hf14 Cu15 Ni1 Au4'
_cell_volume   561.58546627
_cell_formula_units_Z   1
loop_
 _symmetry_equiv_pos_site_id
 _symmetry_equiv_pos_as_xyz
  1  'x, y, z'
loop_
 _atom_site_type_symbol
 _atom_site_label
 _atom_site_symmetry_multiplicity
 _atom_site_fract_x
 _atom_site_fract_y
 _atom_site_fract_z
 _atom_site_occupancy
  Hf  Hf0  1  0.696443  0.302721  0.003706  1
  Hf  Hf1  1  0.305547  0.693985  0.000092  1
  Hf  Hf2  1  0.806791  0.193328  0.494346  1
  Hf  Hf3  1  0.193518  0.806113  0.499394  1
  Hf  Hf4  1  0.998194  0.002550  0.004152  1
  Hf  Hf5  1  0.500224  0.500144  0.500735  1
  Hf  Hf6  1  0.006767  0.502619  0.249685  1
  Hf  Hf7  1  0.990389  0.491129  0.749593  1
  Hf  Hf8  1  0.491084  0.991958  0.749673  1
  Hf  Hf9  1  0.512272  0.010480  0.249402  1
  Hf  Hf10  1  0.315440  0.314975  0.186476  1
  Hf  Hf11  1  0.685682  0.685125  0.813280  1
  Hf  Hf12  1  0.185748  0.185990  0.687217  1
  Hf  Hf13  1  0.816449  0.821049  0.309659  1
  Cu  Cu14  1  0.137555  0.840411  0.799112  1
  Cu  Cu15  1  0.639150  0.339937  0.701654  1
  Cu  Cu16  1  0.658953  0.363282  0.298296  1
  Cu  Cu17  1  0.361341  0.660006  0.297745  1
  Cu  Cu18  1  0.339750  0.638651  0.701978  1
  Cu  Cu19  1  0.840189  0.138217  0.797190  1
  Cu  Cu20  1  0.161025  0.860176  0.202711  1
  Cu  Cu21  1  0.948533  0.649599  0.004562  1
  Cu  Cu22  1  0.052486  0.351251  0.995174  1
  Cu  Cu23  1  0.550789  0.849866  0.505099  1
  Cu  Cu24  1  0.149836  0.448789  0.496244  1
  Cu  Cu25  1  0.448888  0.148873  0.495839  1
  Cu  Cu26  1  0.850681  0.552317  0.504057  1
  Cu  Cu27  1  0.349756  0.051428  0.995695  1
  Cu  Cu28  1  0.648667  0.946959  0.003054  1
  Ni  Ni29  1  0.853754  0.156886  0.204186  1
  Au  Au30  1  0.113979  0.112469  0.390617  1
  Au  Au31  1  0.888484  0.888765  0.608874  1
  Au  Au32  1  0.389752  0.388543  0.890851  1
  Au  Au33  1  0.611885  0.611411  0.109652  1
