# generated using pymatgen
data_H5F7
_symmetry_space_group_name_H-M   'P 1'
_cell_length_a   5.78937290
_cell_length_b   4.34049629
_cell_length_c   5.66642777
_cell_angle_alpha   100.72799441
_cell_angle_beta   85.03720088
_cell_angle_gamma   111.61214651
_symmetry_Int_Tables_number   1
_chemical_formula_structural   H5F7
_chemical_formula_sum   'H5 F7'
_cell_volume   130.04114717
_cell_formula_units_Z   1
loop_
 _symmetry_equiv_pos_site_id
 _symmetry_equiv_pos_as_xyz
  1  'x, y, z'
loop_
 _atom_site_type_symbol
 _atom_site_label
 _atom_site_symmetry_multiplicity
 _atom_site_fract_x
 _atom_site_fract_y
 _atom_site_fract_z
 _atom_site_occupancy
  H  H0  1  0.276033  0.966188  0.901925  1
  H  H1  1  0.375978  0.875699  0.536351  1
  H  H2  1  0.275865  0.772879  0.198992  1
  H  H3  1  0.884086  0.098677  0.728264  1
  H  H4  1  0.829770  0.571442  0.738485  1
  F  F5  1  0.403108  0.043926  0.691514  1
  F  F6  1  0.182012  0.923188  0.058345  1
  F  F7  1  0.969471  0.337489  0.713117  1
  F  F8  1  0.670237  0.411069  0.223990  1
  F  F9  1  0.832427  0.225641  0.208037  1
  F  F10  1  0.751071  0.739545  0.745182  1
  F  F11  1  0.343453  0.676765  0.315042  1
