# generated using pymatgen
data_DyHo3(Lu3Sn4)2
_symmetry_space_group_name_H-M   'P 1'
_cell_length_a   7.95339400
_cell_length_b   8.08377705
_cell_length_c   15.26924000
_cell_angle_alpha   89.99389036
_cell_angle_beta   90.00000000
_cell_angle_gamma   90.00000000
_symmetry_Int_Tables_number   1
_chemical_formula_structural   DyHo3(Lu3Sn4)2
_chemical_formula_sum   'Dy2 Ho6 Lu12 Sn16'
_cell_volume   981.71232445
_cell_formula_units_Z   2
loop_
 _symmetry_equiv_pos_site_id
 _symmetry_equiv_pos_as_xyz
  1  'x, y, z'
loop_
 _atom_site_type_symbol
 _atom_site_label
 _atom_site_symmetry_multiplicity
 _atom_site_fract_x
 _atom_site_fract_y
 _atom_site_fract_z
 _atom_site_occupancy
  Dy  Dy0  1  0.521769  0.320805  0.596873  1
  Dy  Dy1  1  0.021769  0.179195  0.903127  1
  Ho  Ho2  1  0.521811  0.320947  0.903127  1
  Ho  Ho3  1  0.021811  0.179053  0.596873  1
  Ho  Ho4  1  0.478221  0.679177  0.403138  1
  Ho  Ho5  1  0.978221  0.820823  0.096862  1
  Ho  Ho6  1  0.478205  0.679120  0.096841  1
  Ho  Ho7  1  0.978205  0.820880  0.403159  1
  Lu  Lu8  1  0.367068  0.836902  0.876940  1
  Lu  Lu9  1  0.867068  0.663098  0.623060  1
  Lu  Lu10  1  0.632853  0.163138  0.377009  1
  Lu  Lu11  1  0.132853  0.336862  0.122991  1
  Lu  Lu12  1  0.632956  0.163193  0.123015  1
  Lu  Lu13  1  0.132956  0.336807  0.376985  1
  Lu  Lu14  1  0.367140  0.836861  0.623030  1
  Lu  Lu15  1  0.867140  0.663139  0.876970  1
  Lu  Lu16  1  0.197504  0.504783  0.749994  1
  Lu  Lu17  1  0.697504  0.995217  0.750006  1
  Lu  Lu18  1  0.802456  0.495192  0.249995  1
  Lu  Lu19  1  0.302456  0.004808  0.250005  1
  Sn  Sn20  1  0.295131  0.037905  0.041564  1
  Sn  Sn21  1  0.795131  0.462095  0.458436  1
  Sn  Sn22  1  0.705572  0.961710  0.541457  1
  Sn  Sn23  1  0.205572  0.538290  0.958543  1
  Sn  Sn24  1  0.704857  0.961747  0.958646  1
  Sn  Sn25  1  0.204857  0.538253  0.541354  1
  Sn  Sn26  1  0.294542  0.037894  0.458561  1
  Sn  Sn27  1  0.794542  0.462106  0.041439  1
  Sn  Sn28  1  0.563528  0.621042  0.750020  1
  Sn  Sn29  1  0.063528  0.878958  0.749980  1
  Sn  Sn30  1  0.436401  0.378980  0.249974  1
  Sn  Sn31  1  0.936401  0.121020  0.250026  1
  Sn  Sn32  1  0.331050  0.148876  0.750118  1
  Sn  Sn33  1  0.831050  0.351124  0.749882  1
  Sn  Sn34  1  0.668936  0.851064  0.249998  1
  Sn  Sn35  1  0.168936  0.648936  0.250002  1
