# generated using pymatgen
data_Y2Ga4Pt3
_symmetry_space_group_name_H-M   'P 1'
_cell_length_a   6.62476900
_cell_length_b   6.62476995
_cell_length_c   4.18695500
_cell_angle_alpha   90.00000000
_cell_angle_beta   90.00000000
_cell_angle_gamma   114.45923868
_symmetry_Int_Tables_number   1
_chemical_formula_structural   Y2Ga4Pt3
_chemical_formula_sum   'Y2 Ga4 Pt3'
_cell_volume   167.26436023
_cell_formula_units_Z   1
loop_
 _symmetry_equiv_pos_site_id
 _symmetry_equiv_pos_as_xyz
  1  'x, y, z'
loop_
 _atom_site_type_symbol
 _atom_site_label
 _atom_site_symmetry_multiplicity
 _atom_site_fract_x
 _atom_site_fract_y
 _atom_site_fract_z
 _atom_site_occupancy
  Y  Y0  1  0.425493  0.005389  0.500000  1
  Y  Y1  1  0.005389  0.425493  0.500000  1
  Ga  Ga2  1  0.598906  0.598906  0.500000  1
  Ga  Ga3  1  0.750991  0.019970  0.000000  1
  Ga  Ga4  1  0.019970  0.750991  0.000000  1
  Ga  Ga5  1  0.215836  0.215836  0.000000  1
  Pt  Pt6  1  0.369329  0.646066  0.000000  1
  Pt  Pt7  1  0.646066  0.369329  0.000000  1
  Pt  Pt8  1  0.968018  0.968018  0.500000  1
