# generated using pymatgen
data_Ce6Al24FeOs7
_symmetry_space_group_name_H-M   'P 1'
_cell_length_a   8.89088300
_cell_length_b   8.89088278
_cell_length_c   9.50565100
_cell_angle_alpha   90.00000000
_cell_angle_beta   90.00000000
_cell_angle_gamma   120.00000453
_symmetry_Int_Tables_number   1
_chemical_formula_structural   Ce6Al24FeOs7
_chemical_formula_sum   'Ce6 Al24 Fe1 Os7'
_cell_volume   650.73213909
_cell_formula_units_Z   1
loop_
 _symmetry_equiv_pos_site_id
 _symmetry_equiv_pos_as_xyz
  1  'x, y, z'
loop_
 _atom_site_type_symbol
 _atom_site_label
 _atom_site_symmetry_multiplicity
 _atom_site_fract_x
 _atom_site_fract_y
 _atom_site_fract_z
 _atom_site_occupancy
  Ce  Ce0  1  0.194046  0.388092  0.250535  1
  Ce  Ce1  1  0.805954  0.611908  0.749465  1
  Ce  Ce2  1  0.611908  0.805954  0.250535  1
  Ce  Ce3  1  0.388092  0.194046  0.749465  1
  Ce  Ce4  1  0.194046  0.805954  0.250535  1
  Ce  Ce5  1  0.805954  0.194046  0.749465  1
  Al  Al6  1  0.333333  0.666667  0.006623  1
  Al  Al7  1  0.666667  0.333333  0.993377  1
  Al  Al8  1  0.666667  0.333333  0.509450  1
  Al  Al9  1  0.333333  0.666667  0.490550  1
  Al  Al10  1  0.161806  0.323611  0.577667  1
  Al  Al11  1  0.838194  0.676389  0.422333  1
  Al  Al12  1  0.676389  0.838194  0.577667  1
  Al  Al13  1  0.840808  0.681617  0.076689  1
  Al  Al14  1  0.323611  0.161806  0.422333  1
  Al  Al15  1  0.159192  0.318383  0.923311  1
  Al  Al16  1  0.161806  0.838194  0.577667  1
  Al  Al17  1  0.318383  0.159192  0.076689  1
  Al  Al18  1  0.838194  0.161806  0.422333  1
  Al  Al19  1  0.681617  0.840808  0.923311  1
  Al  Al20  1  0.840808  0.159192  0.076689  1
  Al  Al21  1  0.159192  0.840808  0.923311  1
  Al  Al22  1  0.561999  0.123996  0.249856  1
  Al  Al23  1  0.438001  0.876004  0.750144  1
  Al  Al24  1  0.876004  0.438001  0.249856  1
  Al  Al25  1  0.123996  0.561999  0.750144  1
  Al  Al26  1  0.561999  0.438001  0.249856  1
  Al  Al27  1  0.438001  0.561999  0.750144  1
  Al  Al28  1  0.000000  0.000000  0.242862  1
  Al  Al29  1  0.000000  0.000000  0.757138  1
  Fe  Fe30  1  0.000000  0.000000  0.000000  1
  Os  Os31  1  0.500000  0.000000  0.000000  1
  Os  Os32  1  0.000000  0.500000  0.000000  1
  Os  Os33  1  0.500000  0.000000  0.500000  1
  Os  Os34  1  0.500000  0.500000  0.000000  1
  Os  Os35  1  0.000000  0.500000  0.500000  1
  Os  Os36  1  0.500000  0.500000  0.500000  1
  Os  Os37  1  0.000000  0.000000  0.500000  1
