# generated using pymatgen
data_TiMn(Cu3Te4)2
_symmetry_space_group_name_H-M   'P 1'
_cell_length_a   5.94990900
_cell_length_b   8.36532000
_cell_length_c   8.36532000
_cell_angle_alpha   90.00000000
_cell_angle_beta   90.00000000
_cell_angle_gamma   90.00000000
_symmetry_Int_Tables_number   1
_chemical_formula_structural   TiMn(Cu3Te4)2
_chemical_formula_sum   'Ti1 Mn1 Cu6 Te8'
_cell_volume   416.36617523
_cell_formula_units_Z   1
loop_
 _symmetry_equiv_pos_site_id
 _symmetry_equiv_pos_as_xyz
  1  'x, y, z'
loop_
 _atom_site_type_symbol
 _atom_site_label
 _atom_site_symmetry_multiplicity
 _atom_site_fract_x
 _atom_site_fract_y
 _atom_site_fract_z
 _atom_site_occupancy
  Ti  Ti0  1  0.000000  0.500000  0.500000  1
  Mn  Mn1  1  0.000000  0.000000  0.000000  1
  Cu  Cu2  1  0.000000  0.252707  0.252707  1
  Cu  Cu3  1  0.000000  0.747293  0.747293  1
  Cu  Cu4  1  0.000000  0.252707  0.747293  1
  Cu  Cu5  1  0.000000  0.747293  0.252707  1
  Cu  Cu6  1  0.500000  0.000000  0.000000  1
  Cu  Cu7  1  0.500000  0.500000  0.500000  1
  Te  Te8  1  0.738753  0.500000  0.759584  1
  Te  Te9  1  0.752677  0.000000  0.247310  1
  Te  Te10  1  0.738753  0.500000  0.240416  1
  Te  Te11  1  0.752677  0.000000  0.752690  1
  Te  Te12  1  0.247323  0.752690  0.000000  1
  Te  Te13  1  0.261247  0.240416  0.500000  1
  Te  Te14  1  0.247323  0.247310  0.000000  1
  Te  Te15  1  0.261247  0.759584  0.500000  1
