# generated using pymatgen
data_Li4YbP12Ir16Ru3
_symmetry_space_group_name_H-M   'P 1'
_cell_length_a   12.54646920
_cell_length_b   12.54646981
_cell_length_c   3.92147800
_cell_angle_alpha   90.00000000
_cell_angle_beta   90.00000000
_cell_angle_gamma   120.02237064
_symmetry_Int_Tables_number   1
_chemical_formula_structural   Li4YbP12Ir16Ru3
_chemical_formula_sum   'Li4 Yb1 P12 Ir16 Ru3'
_cell_volume   534.47271830
_cell_formula_units_Z   1
loop_
 _symmetry_equiv_pos_site_id
 _symmetry_equiv_pos_as_xyz
  1  'x, y, z'
loop_
 _atom_site_type_symbol
 _atom_site_label
 _atom_site_symmetry_multiplicity
 _atom_site_fract_x
 _atom_site_fract_y
 _atom_site_fract_z
 _atom_site_occupancy
  Li  Li0  1  0.334203  0.665975  0.000000  1
  Li  Li1  1  0.665975  0.334203  0.000000  1
  Li  Li2  1  0.823901  0.998593  0.500000  1
  Li  Li3  1  0.998593  0.823901  0.500000  1
  Yb  Yb4  1  0.176525  0.176525  0.500000  1
  P  P5  1  0.175825  0.995321  0.000000  1
  P  P6  1  0.995321  0.175825  0.000000  1
  P  P7  1  0.819565  0.819565  0.000000  1
  P  P8  1  0.172571  0.487056  0.500000  1
  P  P9  1  0.513635  0.686644  0.500000  1
  P  P10  1  0.315643  0.827462  0.500000  1
  P  P11  1  0.686644  0.513635  0.500000  1
  P  P12  1  0.827462  0.315643  0.500000  1
  P  P13  1  0.487056  0.172571  0.500000  1
  P  P14  1  0.638496  0.000677  0.000000  1
  P  P15  1  0.000677  0.638496  0.000000  1
  P  P16  1  0.362668  0.362668  0.000000  1
  Ir  Ir17  1  0.358406  0.489898  0.500000  1
  Ir  Ir18  1  0.512427  0.871172  0.500000  1
  Ir  Ir19  1  0.132805  0.642304  0.500000  1
  Ir  Ir20  1  0.871172  0.512427  0.500000  1
  Ir  Ir21  1  0.642304  0.132805  0.500000  1
  Ir  Ir22  1  0.489898  0.358406  0.500000  1
  Ir  Ir23  1  0.180484  0.375343  0.000000  1
  Ir  Ir24  1  0.622310  0.804539  0.000000  1
  Ir  Ir25  1  0.195567  0.817821  0.000000  1
  Ir  Ir26  1  0.804539  0.622310  0.000000  1
  Ir  Ir27  1  0.817821  0.195567  0.000000  1
  Ir  Ir28  1  0.375343  0.180484  0.000000  1
  Ir  Ir29  1  0.289529  0.999714  0.500000  1
  Ir  Ir30  1  0.999714  0.289529  0.500000  1
  Ir  Ir31  1  0.711250  0.711250  0.500000  1
  Ir  Ir32  1  0.997927  0.997927  0.000000  1
  Ru  Ru33  1  0.456851  0.002618  0.000000  1
  Ru  Ru34  1  0.002618  0.456851  0.000000  1
  Ru  Ru35  1  0.544280  0.544280  0.000000  1
