# generated using pymatgen
data_Tm16Al4NiRh3
_symmetry_space_group_name_H-M   'P 1'
_cell_length_a   9.36842296
_cell_length_b   9.36842289
_cell_length_c   9.39300325
_cell_angle_alpha   60.08652433
_cell_angle_beta   60.08652575
_cell_angle_gamma   60.00000149
_symmetry_Int_Tables_number   1
_chemical_formula_structural   Tm16Al4NiRh3
_chemical_formula_sum   'Tm16 Al4 Ni1 Rh3'
_cell_volume   583.69933827
_cell_formula_units_Z   1
loop_
 _symmetry_equiv_pos_site_id
 _symmetry_equiv_pos_as_xyz
  1  'x, y, z'
loop_
 _atom_site_type_symbol
 _atom_site_label
 _atom_site_symmetry_multiplicity
 _atom_site_fract_x
 _atom_site_fract_y
 _atom_site_fract_z
 _atom_site_occupancy
  Tm  Tm0  1  0.064935  0.064935  0.435280  1
  Tm  Tm1  1  0.434850  0.064935  0.435280  1
  Tm  Tm2  1  0.063240  0.437398  0.061964  1
  Tm  Tm3  1  0.056411  0.649762  0.644067  1
  Tm  Tm4  1  0.437398  0.437398  0.061964  1
  Tm  Tm5  1  0.649762  0.056411  0.644067  1
  Tm  Tm6  1  0.190319  0.808468  0.192745  1
  Tm  Tm7  1  0.192553  0.192553  0.808052  1
  Tm  Tm8  1  0.808468  0.808468  0.192745  1
  Tm  Tm9  1  0.437398  0.063240  0.061964  1
  Tm  Tm10  1  0.808468  0.190319  0.192745  1
  Tm  Tm11  1  0.064935  0.434850  0.435280  1
  Tm  Tm12  1  0.806842  0.192553  0.808052  1
  Tm  Tm13  1  0.192553  0.806842  0.808052  1
  Tm  Tm14  1  0.645434  0.645434  0.063700  1
  Tm  Tm15  1  0.649762  0.649762  0.644067  1
  Al  Al16  1  0.420821  0.420821  0.423877  1
  Al  Al17  1  0.734480  0.420821  0.423877  1
  Al  Al18  1  0.420821  0.734480  0.423877  1
  Al  Al19  1  0.421993  0.421993  0.734021  1
  Ni  Ni20  1  0.857844  0.857844  0.426468  1
  Rh  Rh21  1  0.854993  0.854993  0.859287  1
  Rh  Rh22  1  0.430728  0.854993  0.859287  1
  Rh  Rh23  1  0.854993  0.430728  0.859287  1
