# generated using pymatgen
data_Ce2HoTm(AlIr)4
_symmetry_space_group_name_H-M   'P 1'
_cell_length_a   6.82600054
_cell_length_b   4.29983700
_cell_length_c   7.92290979
_cell_angle_alpha   90.00000000
_cell_angle_beta   90.07698789
_cell_angle_gamma   90.00000000
_symmetry_Int_Tables_number   1
_chemical_formula_structural   Ce2HoTm(AlIr)4
_chemical_formula_sum   'Ce2 Ho1 Tm1 Al4 Ir4'
_cell_volume   232.54265667
_cell_formula_units_Z   1
loop_
 _symmetry_equiv_pos_site_id
 _symmetry_equiv_pos_as_xyz
  1  'x, y, z'
loop_
 _atom_site_type_symbol
 _atom_site_label
 _atom_site_symmetry_multiplicity
 _atom_site_fract_x
 _atom_site_fract_y
 _atom_site_fract_z
 _atom_site_occupancy
  Ce  Ce0  1  0.033354  0.750000  0.822025  1
  Ce  Ce1  1  0.532873  0.750000  0.677487  1
  Ho  Ho2  1  0.964941  0.250000  0.184861  1
  Tm  Tm3  1  0.464623  0.250000  0.315520  1
  Al  Al4  1  0.863068  0.250000  0.556396  1
  Al  Al5  1  0.363554  0.250000  0.943774  1
  Al  Al6  1  0.138657  0.750000  0.433487  1
  Al  Al7  1  0.637912  0.750000  0.066753  1
  Ir  Ir8  1  0.738188  0.250000  0.876971  1
  Ir  Ir9  1  0.238582  0.250000  0.622233  1
  Ir  Ir10  1  0.263105  0.750000  0.116811  1
  Ir  Ir11  1  0.761145  0.750000  0.383684  1
