# generated using pymatgen
data_Dy19CdIr12
_symmetry_space_group_name_H-M   'P 1'
_cell_length_a   10.88522700
_cell_length_b   10.88522700
_cell_length_c   6.32599600
_cell_angle_alpha   90.00000000
_cell_angle_beta   90.00000000
_cell_angle_gamma   90.00000000
_symmetry_Int_Tables_number   1
_chemical_formula_structural   Dy19CdIr12
_chemical_formula_sum   'Dy19 Cd1 Ir12'
_cell_volume   749.55566949
_cell_formula_units_Z   1
loop_
 _symmetry_equiv_pos_site_id
 _symmetry_equiv_pos_as_xyz
  1  'x, y, z'
loop_
 _atom_site_type_symbol
 _atom_site_label
 _atom_site_symmetry_multiplicity
 _atom_site_fract_x
 _atom_site_fract_y
 _atom_site_fract_z
 _atom_site_occupancy
  Dy  Dy0  1  0.282228  0.083844  0.380172  1
  Dy  Dy1  1  0.291713  0.911470  0.879300  1
  Dy  Dy2  1  0.708287  0.088530  0.879300  1
  Dy  Dy3  1  0.717772  0.916156  0.380172  1
  Dy  Dy4  1  0.588602  0.792168  0.881958  1
  Dy  Dy5  1  0.587325  0.207553  0.378272  1
  Dy  Dy6  1  0.412675  0.792447  0.378272  1
  Dy  Dy7  1  0.411398  0.207832  0.881958  1
  Dy  Dy8  1  0.207553  0.412675  0.621728  1
  Dy  Dy9  1  0.207832  0.588602  0.118042  1
  Dy  Dy10  1  0.792168  0.411398  0.118042  1
  Dy  Dy11  1  0.792447  0.587325  0.621728  1
  Dy  Dy12  1  0.911470  0.708287  0.120700  1
  Dy  Dy13  1  0.916156  0.282228  0.619828  1
  Dy  Dy14  1  0.083844  0.717772  0.619828  1
  Dy  Dy15  1  0.088530  0.291713  0.120700  1
  Dy  Dy16  1  0.000000  0.000000  0.000000  1
  Dy  Dy17  1  0.500000  0.500000  0.000000  1
  Dy  Dy18  1  0.500000  0.500000  0.500000  1
  Cd  Cd19  1  0.000000  0.000000  0.500000  1
  Ir  Ir20  1  0.843663  0.157818  0.241259  1
  Ir  Ir21  1  0.842182  0.843663  0.758741  1
  Ir  Ir22  1  0.157818  0.156337  0.758741  1
  Ir  Ir23  1  0.156337  0.842182  0.241259  1
  Ir  Ir24  1  0.655142  0.346236  0.746533  1
  Ir  Ir25  1  0.653764  0.655142  0.253467  1
  Ir  Ir26  1  0.346236  0.344858  0.253467  1
  Ir  Ir27  1  0.344858  0.653764  0.746533  1
  Ir  Ir28  1  0.500000  0.000000  0.125445  1
  Ir  Ir29  1  0.500000  0.000000  0.619798  1
  Ir  Ir30  1  0.000000  0.500000  0.874555  1
  Ir  Ir31  1  0.000000  0.500000  0.380202  1
