# generated using pymatgen
data_TbGaNi3Sn
_symmetry_space_group_name_H-M   'P 1'
_cell_length_a   9.17292600
_cell_length_b   9.17292555
_cell_length_c   4.07695000
_cell_angle_alpha   90.00000000
_cell_angle_beta   90.00000000
_cell_angle_gamma   119.99999441
_symmetry_Int_Tables_number   1
_chemical_formula_structural   TbGaNi3Sn
_chemical_formula_sum   'Tb3 Ga3 Ni9 Sn3'
_cell_volume   297.08573568
_cell_formula_units_Z   3
loop_
 _symmetry_equiv_pos_site_id
 _symmetry_equiv_pos_as_xyz
  1  'x, y, z'
loop_
 _atom_site_type_symbol
 _atom_site_label
 _atom_site_symmetry_multiplicity
 _atom_site_fract_x
 _atom_site_fract_y
 _atom_site_fract_z
 _atom_site_occupancy
  Tb  Tb0  1  0.666667  0.333333  0.500000  1
  Tb  Tb1  1  0.333333  0.666667  0.500000  1
  Tb  Tb2  1  0.000000  0.000000  0.000000  1
  Ga  Ga3  1  0.742248  0.742248  0.500000  1
  Ga  Ga4  1  0.257752  0.000000  0.500000  1
  Ga  Ga5  1  0.000000  0.257752  0.500000  1
  Ni  Ni6  1  0.840188  0.207940  0.000000  1
  Ni  Ni7  1  0.792060  0.632248  0.000000  1
  Ni  Ni8  1  0.367752  0.159812  0.000000  1
  Ni  Ni9  1  0.207940  0.840188  0.000000  1
  Ni  Ni10  1  0.632248  0.792060  0.000000  1
  Ni  Ni11  1  0.159812  0.367752  0.000000  1
  Ni  Ni12  1  0.279232  0.279232  0.500000  1
  Ni  Ni13  1  0.720768  0.000000  0.500000  1
  Ni  Ni14  1  0.000000  0.720768  0.500000  1
  Sn  Sn15  1  0.468436  0.468436  0.000000  1
  Sn  Sn16  1  0.531564  0.000000  0.000000  1
  Sn  Sn17  1  0.000000  0.531564  0.000000  1
