# generated using pymatgen
data_CeZr(PBr9)2
_symmetry_space_group_name_H-M   'P 1'
_cell_length_a   8.25383696
_cell_length_b   11.05295098
_cell_length_c   10.66137917
_cell_angle_alpha   103.64053598
_cell_angle_beta   98.00253735
_cell_angle_gamma   88.42257293
_symmetry_Int_Tables_number   1
_chemical_formula_structural   CeZr(PBr9)2
_chemical_formula_sum   'Ce1 Zr1 P2 Br18'
_cell_volume   935.97745035
_cell_formula_units_Z   1
loop_
 _symmetry_equiv_pos_site_id
 _symmetry_equiv_pos_as_xyz
  1  'x, y, z'
loop_
 _atom_site_type_symbol
 _atom_site_label
 _atom_site_symmetry_multiplicity
 _atom_site_fract_x
 _atom_site_fract_y
 _atom_site_fract_z
 _atom_site_occupancy
  Ce  Ce0  1  0.399247  0.346017  0.348461  1
  Zr  Zr1  1  0.605400  0.662571  0.657227  1
  P  P2  1  0.065565  0.193354  0.784965  1
  P  P3  1  0.932955  0.804570  0.211660  1
  Br  Br4  1  0.904512  0.733191  0.722035  1
  Br  Br5  1  0.818131  0.657404  0.047894  1
  Br  Br6  1  0.350343  0.513900  0.182507  1
  Br  Br7  1  0.647748  0.495305  0.808711  1
  Br  Br8  1  0.466059  0.184632  0.505132  1
  Br  Br9  1  0.534355  0.798810  0.494034  1
  Br  Br10  1  0.078951  0.270108  0.285077  1
  Br  Br11  1  0.476547  0.815461  0.839528  1
  Br  Br12  1  0.529009  0.177206  0.152207  1
  Br  Br13  1  0.303777  0.539726  0.562673  1
  Br  Br14  1  0.162306  0.864395  0.165695  1
  Br  Br15  1  0.708865  0.473056  0.459996  1
  Br  Br16  1  0.015305  0.249777  0.601814  1
  Br  Br17  1  0.984323  0.744451  0.392919  1
  Br  Br18  1  0.229132  0.033418  0.764268  1
  Br  Br19  1  0.768646  0.964432  0.232292  1
  Br  Br20  1  0.837680  0.136381  0.835235  1
  Br  Br21  1  0.181144  0.341835  0.945671  1
