# generated using pymatgen
data_Yb4YMn2Nb(Ni4As3)4
_symmetry_space_group_name_H-M   'P 1'
_cell_length_a   12.67791000
_cell_length_b   12.68201523
_cell_length_c   3.89922100
_cell_angle_alpha   90.00000000
_cell_angle_beta   90.00000000
_cell_angle_gamma   120.01071789
_symmetry_Int_Tables_number   1
_chemical_formula_structural   Yb4YMn2Nb(Ni4As3)4
_chemical_formula_sum   'Yb4 Y1 Mn2 Nb1 Ni16 As12'
_cell_volume   542.87207576
_cell_formula_units_Z   1
loop_
 _symmetry_equiv_pos_site_id
 _symmetry_equiv_pos_as_xyz
  1  'x, y, z'
loop_
 _atom_site_type_symbol
 _atom_site_label
 _atom_site_symmetry_multiplicity
 _atom_site_fract_x
 _atom_site_fract_y
 _atom_site_fract_z
 _atom_site_occupancy
  Yb  Yb0  1  0.187871  0.189016  0.500000  1
  Yb  Yb1  1  0.812129  0.001145  0.500000  1
  Yb  Yb2  1  0.334012  0.667337  0.000000  1
  Yb  Yb3  1  0.665988  0.333323  0.000000  1
  Y  Y4  1  0.000000  0.812953  0.500000  1
  Mn  Mn5  1  0.561843  0.563546  0.000000  1
  Mn  Mn6  1  0.438157  0.001705  0.000000  1
  Nb  Nb7  1  0.000000  0.435354  0.000000  1
  Ni  Ni8  1  0.719182  0.718327  0.500000  1
  Ni  Ni9  1  0.280818  0.999144  0.500000  1
  Ni  Ni10  1  0.000000  0.278621  0.500000  1
  Ni  Ni11  1  0.183844  0.376238  0.000000  1
  Ni  Ni12  1  0.620696  0.804331  0.000000  1
  Ni  Ni13  1  0.197503  0.817687  0.000000  1
  Ni  Ni14  1  0.802497  0.620184  0.000000  1
  Ni  Ni15  1  0.816156  0.192395  0.000000  1
  Ni  Ni16  1  0.379304  0.183635  0.000000  1
  Ni  Ni17  1  0.362828  0.485223  0.500000  1
  Ni  Ni18  1  0.517209  0.877745  0.500000  1
  Ni  Ni19  1  0.124131  0.640888  0.500000  1
  Ni  Ni20  1  0.875869  0.516757  0.500000  1
  Ni  Ni21  1  0.637172  0.122394  0.500000  1
  Ni  Ni22  1  0.482791  0.360536  0.500000  1
  Ni  Ni23  1  0.000000  0.999112  0.000000  1
  As  As24  1  0.820928  0.821957  0.000000  1
  As  As25  1  0.179072  0.001031  0.000000  1
  As  As26  1  0.000000  0.177424  0.000000  1
  As  As27  1  0.170263  0.480029  0.500000  1
  As  As28  1  0.521326  0.689663  0.500000  1
  As  As29  1  0.312808  0.832331  0.500000  1
  As  As30  1  0.687192  0.519522  0.500000  1
  As  As31  1  0.829737  0.309767  0.500000  1
  As  As32  1  0.478674  0.168336  0.500000  1
  As  As33  1  0.366231  0.365328  0.000000  1
  As  As34  1  0.633769  0.999096  0.000000  1
  As  As35  1  0.000000  0.637919  0.000000  1
