# generated using pymatgen
data_Er4Tm3(LuPb2)3
_symmetry_space_group_name_H-M   'P 1'
_cell_length_a   6.50278800
_cell_length_b   8.94794434
_cell_length_c   8.95045418
_cell_angle_alpha   119.99063002
_cell_angle_beta   89.99965756
_cell_angle_gamma   90.00049194
_symmetry_Int_Tables_number   1
_chemical_formula_structural   Er4Tm3(LuPb2)3
_chemical_formula_sum   'Er4 Tm3 Lu3 Pb6'
_cell_volume   451.06546030
_cell_formula_units_Z   1
loop_
 _symmetry_equiv_pos_site_id
 _symmetry_equiv_pos_as_xyz
  1  'x, y, z'
loop_
 _atom_site_type_symbol
 _atom_site_label
 _atom_site_symmetry_multiplicity
 _atom_site_fract_x
 _atom_site_fract_y
 _atom_site_fract_z
 _atom_site_occupancy
  Er  Er0  1  0.750103  0.236771  0.000042  1
  Er  Er1  1  0.750045  0.762953  0.762705  1
  Er  Er2  1  0.750047  0.000172  0.237232  1
  Er  Er3  1  0.249945  0.763245  0.000029  1
  Tm  Tm4  1  0.249937  0.236885  0.236818  1
  Tm  Tm5  1  0.249934  0.999983  0.763150  1
  Tm  Tm6  1  0.499874  0.333358  0.666727  1
  Lu  Lu7  1  0.499886  0.666644  0.333283  1
  Lu  Lu8  1  0.000110  0.666662  0.333266  1
  Lu  Lu9  1  0.000120  0.333399  0.666740  1
  Pb  Pb10  1  0.750205  0.604628  0.000187  1
  Pb  Pb11  1  0.750197  0.395685  0.395571  1
  Pb  Pb12  1  0.750211  0.999768  0.604272  1
  Pb  Pb13  1  0.249791  0.394299  0.000160  1
  Pb  Pb14  1  0.249804  0.605080  0.604239  1
  Pb  Pb15  1  0.249792  0.000469  0.395579  1
