# generated using pymatgen
data_LiSc(CO3)2
_symmetry_space_group_name_H-M   'P 1'
_cell_length_a   5.89161344
_cell_length_b   5.89161315
_cell_length_c   5.89161206
_cell_angle_alpha   47.85391654
_cell_angle_beta   47.85391861
_cell_angle_gamma   47.85391093
_symmetry_Int_Tables_number   1
_chemical_formula_structural   LiSc(CO3)2
_chemical_formula_sum   'Li1 Sc1 C2 O6'
_cell_volume   102.95931279
_cell_formula_units_Z   1
loop_
 _symmetry_equiv_pos_site_id
 _symmetry_equiv_pos_as_xyz
  1  'x, y, z'
loop_
 _atom_site_type_symbol
 _atom_site_label
 _atom_site_symmetry_multiplicity
 _atom_site_fract_x
 _atom_site_fract_y
 _atom_site_fract_z
 _atom_site_occupancy
  Li  Li0  1  0.000000  0.000000  0.000000  1
  Sc  Sc1  1  0.500000  0.500000  0.500000  1
  C  C2  1  0.752539  0.752539  0.752539  1
  C  C3  1  0.247461  0.247461  0.247461  1
  O  O4  1  0.970273  0.258892  0.512760  1
  O  O5  1  0.487240  0.029727  0.741108  1
  O  O6  1  0.741108  0.487240  0.029727  1
  O  O7  1  0.258892  0.512760  0.970273  1
  O  O8  1  0.512760  0.970273  0.258892  1
  O  O9  1  0.029727  0.741108  0.487240  1
