# generated using pymatgen
data_DyLuU(AlRu)3
_symmetry_space_group_name_H-M   'P 1'
_cell_length_a   6.79679047
_cell_length_b   6.82228459
_cell_length_c   4.04176100
_cell_angle_alpha   90.00000000
_cell_angle_beta   90.00000000
_cell_angle_gamma   116.36391887
_symmetry_Int_Tables_number   1
_chemical_formula_structural   DyLuU(AlRu)3
_chemical_formula_sum   'Dy1 Lu1 U1 Al3 Ru3'
_cell_volume   167.92226118
_cell_formula_units_Z   1
loop_
 _symmetry_equiv_pos_site_id
 _symmetry_equiv_pos_as_xyz
  1  'x, y, z'
loop_
 _atom_site_type_symbol
 _atom_site_label
 _atom_site_symmetry_multiplicity
 _atom_site_fract_x
 _atom_site_fract_y
 _atom_site_fract_z
 _atom_site_occupancy
  Dy  Dy0  1  0.007281  0.419014  0.500000  1
  Lu  Lu1  1  0.416987  0.008220  0.500000  1
  U  U2  1  0.605512  0.606399  0.500000  1
  Al  Al3  1  0.750773  0.023244  0.000000  1
  Al  Al4  1  0.025107  0.754716  0.000000  1
  Al  Al5  1  0.211001  0.208505  0.000000  1
  Ru  Ru6  1  0.378207  0.639516  0.000000  1
  Ru  Ru7  1  0.638404  0.376185  0.000000  1
  Ru  Ru8  1  0.966728  0.964203  0.500000  1
