# generated using pymatgen
data_La6Cd23Se
_symmetry_space_group_name_H-M   'P 1'
_cell_length_a   10.18396080
_cell_length_b   10.18396038
_cell_length_c   10.18396100
_cell_angle_alpha   60.00000125
_cell_angle_beta   60.00000261
_cell_angle_gamma   60.00000225
_symmetry_Int_Tables_number   1
_chemical_formula_structural   La6Cd23Se
_chemical_formula_sum   'La6 Cd23 Se1'
_cell_volume   746.85306935
_cell_formula_units_Z   1
loop_
 _symmetry_equiv_pos_site_id
 _symmetry_equiv_pos_as_xyz
  1  'x, y, z'
loop_
 _atom_site_type_symbol
 _atom_site_label
 _atom_site_symmetry_multiplicity
 _atom_site_fract_x
 _atom_site_fract_y
 _atom_site_fract_z
 _atom_site_occupancy
  La  La0  1  0.789008  0.789008  0.210992  1
  La  La1  1  0.210992  0.789008  0.210992  1
  La  La2  1  0.789008  0.210992  0.210992  1
  La  La3  1  0.210992  0.210992  0.789008  1
  La  La4  1  0.789008  0.210992  0.789008  1
  La  La5  1  0.210992  0.789008  0.789008  1
  Cd  Cd6  1  0.831398  0.831398  0.505809  1
  Cd  Cd7  1  0.831398  0.505809  0.831398  1
  Cd  Cd8  1  0.505809  0.831398  0.831398  1
  Cd  Cd9  1  0.831398  0.831398  0.831398  1
  Cd  Cd10  1  0.168602  0.168602  0.494191  1
  Cd  Cd11  1  0.168602  0.494191  0.168602  1
  Cd  Cd12  1  0.494191  0.168602  0.168602  1
  Cd  Cd13  1  0.168602  0.168602  0.168602  1
  Cd  Cd14  1  0.621405  0.621405  0.135783  1
  Cd  Cd15  1  0.621405  0.135783  0.621405  1
  Cd  Cd16  1  0.135783  0.621405  0.621405  1
  Cd  Cd17  1  0.621405  0.621405  0.621405  1
  Cd  Cd18  1  0.378595  0.378595  0.864217  1
  Cd  Cd19  1  0.378595  0.864217  0.378595  1
  Cd  Cd20  1  0.864217  0.378595  0.378595  1
  Cd  Cd21  1  0.378595  0.378595  0.378595  1
  Cd  Cd22  1  0.000000  0.000000  0.500000  1
  Cd  Cd23  1  0.500000  0.000000  0.500000  1
  Cd  Cd24  1  0.000000  0.500000  0.500000  1
  Cd  Cd25  1  0.500000  0.500000  0.000000  1
  Cd  Cd26  1  0.000000  0.500000  0.000000  1
  Cd  Cd27  1  0.500000  0.000000  0.000000  1
  Cd  Cd28  1  0.500000  0.500000  0.500000  1
  Se  Se29  1  0.000000  0.000000  0.000000  1
