# generated using pymatgen
data_Er4Zr3VF28
_symmetry_space_group_name_H-M   'P 1'
_cell_length_a   5.62091805
_cell_length_b   8.96631904
_cell_length_c   12.06484953
_cell_angle_alpha   62.94479784
_cell_angle_beta   90.03919382
_cell_angle_gamma   89.96673331
_symmetry_Int_Tables_number   1
_chemical_formula_structural   Er4Zr3VF28
_chemical_formula_sum   'Er4 Zr3 V1 F28'
_cell_volume   541.51496547
_cell_formula_units_Z   1
loop_
 _symmetry_equiv_pos_site_id
 _symmetry_equiv_pos_as_xyz
  1  'x, y, z'
loop_
 _atom_site_type_symbol
 _atom_site_label
 _atom_site_symmetry_multiplicity
 _atom_site_fract_x
 _atom_site_fract_y
 _atom_site_fract_z
 _atom_site_occupancy
  Er  Er0  1  0.757370  0.817313  0.765794  1
  Er  Er1  1  0.257190  0.186924  0.727331  1
  Er  Er2  1  0.243763  0.186692  0.240966  1
  Er  Er3  1  0.744001  0.818122  0.265219  1
  Zr  Zr4  1  0.757428  0.273024  0.956963  1
  Zr  Zr5  1  0.255897  0.726400  0.542227  1
  Zr  Zr6  1  0.244720  0.726613  0.044205  1
  V  V7  1  0.741326  0.274010  0.455326  1
  F  F8  1  0.457691  0.707067  0.915158  1
  F  F9  1  0.938729  0.289640  0.577698  1
  F  F10  1  0.543497  0.290516  0.086284  1
  F  F11  1  0.041104  0.707703  0.414514  1
  F  F12  1  0.456384  0.272361  0.545180  1
  F  F13  1  0.937172  0.727935  0.950968  1
  F  F14  1  0.562828  0.723031  0.451382  1
  F  F15  1  0.061964  0.270648  0.051764  1
  F  F16  1  0.781878  0.527796  0.859130  1
  F  F17  1  0.273836  0.472205  0.638322  1
  F  F18  1  0.217520  0.472510  0.143279  1
  F  F19  1  0.723735  0.504072  0.366993  1
  F  F20  1  0.757946  0.019023  0.059080  1
  F  F21  1  0.258690  0.979434  0.443112  1
  F  F22  1  0.242402  0.978761  0.939534  1
  F  F23  1  0.743831  0.044007  0.546298  1
  F  F24  1  0.969150  0.735882  0.643048  1
  F  F25  1  0.473435  0.269269  0.852403  1
  F  F26  1  0.013853  0.269568  0.362913  1
  F  F27  1  0.529028  0.726203  0.149433  1
  F  F28  1  0.040309  0.746460  0.177306  1
  F  F29  1  0.547109  0.253259  0.331397  1
  F  F30  1  0.962380  0.251668  0.823307  1
  F  F31  1  0.463118  0.751580  0.673426  1
  F  F32  1  0.422778  0.972228  0.235821  1
  F  F33  1  0.924544  0.028444  0.267752  1
  F  F34  1  0.576211  0.028233  0.766081  1
  F  F35  1  0.077180  0.971398  0.730388  1
