# generated using pymatgen
data_NaEu(ZnAu)2
_symmetry_space_group_name_H-M   'P 1'
_cell_length_a   4.59129300
_cell_length_b   7.45546500
_cell_length_c   7.85020600
_cell_angle_alpha   90.00036691
_cell_angle_beta   90.00000000
_cell_angle_gamma   90.00000000
_symmetry_Int_Tables_number   1
_chemical_formula_structural   NaEu(ZnAu)2
_chemical_formula_sum   'Na2 Eu2 Zn4 Au4'
_cell_volume   268.71431191
_cell_formula_units_Z   2
loop_
 _symmetry_equiv_pos_site_id
 _symmetry_equiv_pos_as_xyz
  1  'x, y, z'
loop_
 _atom_site_type_symbol
 _atom_site_label
 _atom_site_symmetry_multiplicity
 _atom_site_fract_x
 _atom_site_fract_y
 _atom_site_fract_z
 _atom_site_occupancy
  Na  Na0  1  0.250000  0.004002  0.299734  1
  Na  Na1  1  0.250000  0.504003  0.200273  1
  Eu  Eu2  1  0.750000  0.995107  0.690492  1
  Eu  Eu3  1  0.750000  0.495107  0.809510  1
  Zn  Zn4  1  0.250000  0.675621  0.571443  1
  Zn  Zn5  1  0.250000  0.175619  0.928553  1
  Zn  Zn6  1  0.750000  0.327574  0.411105  1
  Zn  Zn7  1  0.750000  0.827578  0.088896  1
  Au  Au8  1  0.250000  0.295449  0.593055  1
  Au  Au9  1  0.250000  0.795480  0.906932  1
  Au  Au10  1  0.750000  0.702239  0.403964  1
  Au  Au11  1  0.750000  0.202220  0.096043  1
