# generated using pymatgen
data_Ho16CdHg3IrRh3
_symmetry_space_group_name_H-M   'P 1'
_cell_length_a   9.56979835
_cell_length_b   9.56050596
_cell_length_c   9.58157694
_cell_angle_alpha   60.01527874
_cell_angle_beta   60.04065611
_cell_angle_gamma   59.96784329
_symmetry_Int_Tables_number   1
_chemical_formula_structural   Ho16CdHg3IrRh3
_chemical_formula_sum   'Ho16 Cd1 Hg3 Ir1 Rh3'
_cell_volume   619.98806405
_cell_formula_units_Z   1
loop_
 _symmetry_equiv_pos_site_id
 _symmetry_equiv_pos_as_xyz
  1  'x, y, z'
loop_
 _atom_site_type_symbol
 _atom_site_label
 _atom_site_symmetry_multiplicity
 _atom_site_fract_x
 _atom_site_fract_y
 _atom_site_fract_z
 _atom_site_occupancy
  Ho  Ho0  1  0.936325  0.937108  0.562817  1
  Ho  Ho1  1  0.562434  0.563285  0.936654  1
  Ho  Ho2  1  0.688980  0.690089  0.310703  1
  Ho  Ho3  1  0.148804  0.555201  0.147192  1
  Ho  Ho4  1  0.688095  0.311960  0.689729  1
  Ho  Ho5  1  0.150602  0.148934  0.149249  1
  Ho  Ho6  1  0.551214  0.148934  0.149249  1
  Ho  Ho7  1  0.688864  0.311746  0.310526  1
  Ho  Ho8  1  0.149594  0.147875  0.552937  1
  Ho  Ho9  1  0.310229  0.690089  0.310703  1
  Ho  Ho10  1  0.310367  0.689396  0.689870  1
  Ho  Ho11  1  0.936547  0.564359  0.562547  1
  Ho  Ho12  1  0.937627  0.563285  0.936654  1
  Ho  Ho13  1  0.563750  0.937108  0.562817  1
  Ho  Ho14  1  0.562599  0.938411  0.936390  1
  Ho  Ho15  1  0.310214  0.311960  0.689729  1
  Cd  Cd16  1  0.919539  0.241416  0.919507  1
  Hg  Hg17  1  0.914354  0.916146  0.255145  1
  Hg  Hg18  1  0.254288  0.916402  0.914552  1
  Hg  Hg19  1  0.914757  0.916402  0.914552  1
  Ir  Ir20  1  0.357542  0.357125  0.927790  1
  Rh  Rh21  1  0.357659  0.927735  0.356947  1
  Rh  Rh22  1  0.927937  0.357518  0.356868  1
  Rh  Rh23  1  0.357676  0.357518  0.356868  1
