# generated using pymatgen
data_SmEr3(Si4Tc3)2
_symmetry_space_group_name_H-M   'P 1'
_cell_length_a   6.79332804
_cell_length_b   6.78421973
_cell_length_c   6.78077716
_cell_angle_alpha   69.77484995
_cell_angle_beta   90.07469361
_cell_angle_gamma   89.78113305
_symmetry_Int_Tables_number   1
_chemical_formula_structural   SmEr3(Si4Tc3)2
_chemical_formula_sum   'Sm1 Er3 Si8 Tc6'
_cell_volume   293.23645352
_cell_formula_units_Z   1
loop_
 _symmetry_equiv_pos_site_id
 _symmetry_equiv_pos_as_xyz
  1  'x, y, z'
loop_
 _atom_site_type_symbol
 _atom_site_label
 _atom_site_symmetry_multiplicity
 _atom_site_fract_x
 _atom_site_fract_y
 _atom_site_fract_z
 _atom_site_occupancy
  Sm  Sm0  1  0.665778  0.442444  0.189399  1
  Er  Er1  1  0.168154  0.056963  0.808573  1
  Er  Er2  1  0.331523  0.557491  0.807970  1
  Er  Er3  1  0.832299  0.942096  0.192105  1
  Si  Si4  1  0.448069  0.120879  0.101145  1
  Si  Si5  1  0.950075  0.377196  0.895179  1
  Si  Si6  1  0.550729  0.879419  0.895589  1
  Si  Si7  1  0.054077  0.622988  0.102178  1
  Si  Si8  1  0.859772  0.129862  0.514210  1
  Si  Si9  1  0.355966  0.368418  0.488796  1
  Si  Si10  1  0.141407  0.868267  0.488498  1
  Si  Si11  1  0.641750  0.633040  0.515877  1
  Tc  Tc12  1  0.498882  0.997263  0.501656  1
  Tc  Tc13  1  0.001558  0.500075  0.501173  1
  Tc  Tc14  1  0.150617  0.241327  0.238919  1
  Tc  Tc15  1  0.649897  0.257191  0.758853  1
  Tc  Tc16  1  0.851868  0.759413  0.760134  1
  Tc  Tc17  1  0.347578  0.745666  0.239745  1
