# generated using pymatgen
data_Yb3Dy2Er(Si3Ru)8
_symmetry_space_group_name_H-M   'P 1'
_cell_length_a   10.15434014
_cell_length_b   10.15433986
_cell_length_c   8.13718701
_cell_angle_alpha   89.99235512
_cell_angle_beta   89.99235322
_cell_angle_gamma   132.72781809
_symmetry_Int_Tables_number   1
_chemical_formula_structural   Yb3Dy2Er(Si3Ru)8
_chemical_formula_sum   'Yb3 Dy2 Er1 Si24 Ru8'
_cell_volume   616.33932547
_cell_formula_units_Z   1
loop_
 _symmetry_equiv_pos_site_id
 _symmetry_equiv_pos_as_xyz
  1  'x, y, z'
loop_
 _atom_site_type_symbol
 _atom_site_label
 _atom_site_symmetry_multiplicity
 _atom_site_fract_x
 _atom_site_fract_y
 _atom_site_fract_z
 _atom_site_occupancy
  Yb  Yb0  1  0.498574  0.998711  0.250179  1
  Yb  Yb1  1  0.001289  0.501426  0.749821  1
  Yb  Yb2  1  0.499986  0.500014  0.500000  1
  Dy  Dy3  1  0.501632  0.001537  0.749811  1
  Dy  Dy4  1  0.998463  0.498368  0.250189  1
  Er  Er5  1  0.000035  0.999965  0.000000  1
  Si  Si6  1  0.388908  0.154966  0.004560  1
  Si  Si7  1  0.653490  0.886880  0.494297  1
  Si  Si8  1  0.113120  0.346510  0.505703  1
  Si  Si9  1  0.845034  0.611092  0.995440  1
  Si  Si10  1  0.611377  0.844898  0.994065  1
  Si  Si11  1  0.346287  0.113508  0.506730  1
  Si  Si12  1  0.886492  0.653713  0.493270  1
  Si  Si13  1  0.155102  0.388623  0.005935  1
  Si  Si14  1  0.609892  0.376706  0.229855  1
  Si  Si15  1  0.876267  0.109923  0.271396  1
  Si  Si16  1  0.890077  0.123733  0.728604  1
  Si  Si17  1  0.623294  0.390108  0.770145  1
  Si  Si18  1  0.390461  0.623453  0.770405  1
  Si  Si19  1  0.124187  0.890489  0.728439  1
  Si  Si20  1  0.705525  0.294475  0.000000  1
  Si  Si21  1  0.794681  0.205319  0.500000  1
  Si  Si22  1  0.294891  0.705109  0.000000  1
  Si  Si23  1  0.204879  0.795121  0.500000  1
  Si  Si24  1  0.164830  0.171258  0.334111  1
  Si  Si25  1  0.669033  0.662529  0.168218  1
  Si  Si26  1  0.337471  0.330967  0.831782  1
  Si  Si27  1  0.828742  0.835170  0.665889  1
  Si  Si28  1  0.376547  0.609539  0.229595  1
  Si  Si29  1  0.109511  0.875813  0.271561  1
  Ru  Ru30  1  0.627296  0.628548  0.874876  1
  Ru  Ru31  1  0.125718  0.124585  0.627587  1
  Ru  Ru32  1  0.875415  0.874282  0.372413  1
  Ru  Ru33  1  0.371452  0.372704  0.125124  1
  Ru  Ru34  1  0.329162  0.670838  0.500000  1
  Ru  Ru35  1  0.169843  0.830157  0.000000  1
  Ru  Ru36  1  0.670126  0.329874  0.500000  1
  Ru  Ru37  1  0.830911  0.169089  0.000000  1
