# generated using pymatgen
data_YSc(InAu)2
_symmetry_space_group_name_H-M   'P 1'
_cell_length_a   7.87112000
_cell_length_b   7.87112061
_cell_length_c   7.57338300
_cell_angle_alpha   90.00000000
_cell_angle_beta   90.00000000
_cell_angle_gamma   120.00000585
_symmetry_Int_Tables_number   1
_chemical_formula_structural   YSc(InAu)2
_chemical_formula_sum   'Y3 Sc3 In6 Au6'
_cell_volume   406.34379011
_cell_formula_units_Z   3
loop_
 _symmetry_equiv_pos_site_id
 _symmetry_equiv_pos_as_xyz
  1  'x, y, z'
loop_
 _atom_site_type_symbol
 _atom_site_label
 _atom_site_symmetry_multiplicity
 _atom_site_fract_x
 _atom_site_fract_y
 _atom_site_fract_z
 _atom_site_occupancy
  Y  Y0  1  0.400691  0.998816  0.750000  1
  Y  Y1  1  0.598126  0.599309  0.750000  1
  Y  Y2  1  0.001184  0.401874  0.750000  1
  Sc  Sc3  1  0.394704  0.002060  0.250000  1
  Sc  Sc4  1  0.607356  0.605296  0.250000  1
  Sc  Sc5  1  0.997940  0.392644  0.250000  1
  In  In6  1  0.268882  0.269681  0.009006  1
  In  In7  1  0.000799  0.731118  0.009006  1
  In  In8  1  0.000799  0.731118  0.490994  1
  In  In9  1  0.730319  0.999201  0.490994  1
  In  In10  1  0.268882  0.269681  0.490994  1
  In  In11  1  0.730319  0.999201  0.009006  1
  Au  Au12  1  0.000000  0.000000  0.750000  1
  Au  Au13  1  0.000000  0.000000  0.250000  1
  Au  Au14  1  0.666667  0.333333  0.025186  1
  Au  Au15  1  0.333333  0.666667  0.468504  1
  Au  Au16  1  0.333333  0.666667  0.031496  1
  Au  Au17  1  0.666667  0.333333  0.474814  1
