# generated using pymatgen
data_Er3Sc(Si5Os3)2
_symmetry_space_group_name_H-M   'P 1'
_cell_length_a   8.18776718
_cell_length_b   8.25465437
_cell_length_c   8.25465440
_cell_angle_alpha   140.18952637
_cell_angle_beta   108.62047822
_cell_angle_gamma   85.09115684
_symmetry_Int_Tables_number   1
_chemical_formula_structural   Er3Sc(Si5Os3)2
_chemical_formula_sum   'Er3 Sc1 Si10 Os6'
_cell_volume   326.56651692
_cell_formula_units_Z   1
loop_
 _symmetry_equiv_pos_site_id
 _symmetry_equiv_pos_as_xyz
  1  'x, y, z'
loop_
 _atom_site_type_symbol
 _atom_site_label
 _atom_site_symmetry_multiplicity
 _atom_site_fract_x
 _atom_site_fract_y
 _atom_site_fract_z
 _atom_site_occupancy
  Er  Er0  1  0.088664  0.860239  0.228425  1
  Er  Er1  1  0.628636  0.365730  0.262906  1
  Er  Er2  1  0.369227  0.632644  0.736583  1
  Sc  Sc3  1  0.916741  0.143108  0.773633  1
  Si  Si4  1  0.997587  0.751037  0.749205  1
  Si  Si5  1  0.997587  0.248382  0.246550  1
  Si  Si6  1  0.715043  0.470781  0.773471  1
  Si  Si7  1  0.284692  0.058836  0.758260  1
  Si  Si8  1  0.284692  0.526432  0.225856  1
  Si  Si9  1  0.715043  0.941572  0.244262  1
  Si  Si10  1  0.226996  0.400727  0.826268  1
  Si  Si11  1  0.584349  0.914706  0.669645  1
  Si  Si12  1  0.421933  0.089615  0.332316  1
  Si  Si13  1  0.772989  0.598554  0.174437  1
  Os  Os14  1  0.752928  0.854530  0.898400  1
  Os  Os15  1  0.500052  0.251354  0.751781  1
  Os  Os16  1  0.935753  0.348606  0.587147  1
  Os  Os17  1  0.063419  0.650971  0.412448  1
  Os  Os18  1  0.243617  0.143903  0.099711  1
  Os  Os19  1  0.500052  0.748271  0.248698  1
