# generated using pymatgen
data_Tb5TaVO12
_symmetry_space_group_name_H-M   'P 1'
_cell_length_a   6.86028409
_cell_length_b   6.86028401
_cell_length_c   7.38589321
_cell_angle_alpha   74.32514199
_cell_angle_beta   74.32514140
_cell_angle_gamma   51.22571460
_symmetry_Int_Tables_number   1
_chemical_formula_structural   Tb5TaVO12
_chemical_formula_sum   'Tb5 Ta1 V1 O12'
_cell_volume   258.55012961
_cell_formula_units_Z   1
loop_
 _symmetry_equiv_pos_site_id
 _symmetry_equiv_pos_as_xyz
  1  'x, y, z'
loop_
 _atom_site_type_symbol
 _atom_site_label
 _atom_site_symmetry_multiplicity
 _atom_site_fract_x
 _atom_site_fract_y
 _atom_site_fract_z
 _atom_site_occupancy
  Tb  Tb0  1  0.307665  0.298769  0.360766  1
  Tb  Tb1  1  0.701231  0.692335  0.639234  1
  Tb  Tb2  1  0.311587  0.305282  0.828655  1
  Tb  Tb3  1  0.694718  0.688413  0.171345  1
  Tb  Tb4  1  0.998623  0.001377  0.500000  1
  Ta  Ta5  1  0.227124  0.772876  0.000000  1
  V  V6  1  0.743894  0.256106  0.000000  1
  O  O7  1  0.899546  0.415974  0.919482  1
  O  O8  1  0.434207  0.898323  0.917639  1
  O  O9  1  0.101677  0.565793  0.082361  1
  O  O10  1  0.584026  0.100454  0.080518  1
  O  O11  1  0.099139  0.592478  0.576682  1
  O  O12  1  0.598862  0.093747  0.574363  1
  O  O13  1  0.906253  0.401138  0.425637  1
  O  O14  1  0.407522  0.900861  0.423318  1
  O  O15  1  0.997743  0.003252  0.812581  1
  O  O16  1  0.996748  0.002257  0.187419  1
  O  O17  1  0.494194  0.504760  0.815626  1
  O  O18  1  0.495240  0.505806  0.184374  1
