# generated using pymatgen
data_Yb6MnCo(P3Rh4)4
_symmetry_space_group_name_H-M   'P 1'
_cell_length_a   3.89106500
_cell_length_b   11.17325200
_cell_length_c   12.60273800
_cell_angle_alpha   90.00000000
_cell_angle_beta   90.00000000
_cell_angle_gamma   90.00000000
_symmetry_Int_Tables_number   1
_chemical_formula_structural   Yb6MnCo(P3Rh4)4
_chemical_formula_sum   'Yb6 Mn1 Co1 P12 Rh16'
_cell_volume   547.91474427
_cell_formula_units_Z   1
loop_
 _symmetry_equiv_pos_site_id
 _symmetry_equiv_pos_as_xyz
  1  'x, y, z'
loop_
 _atom_site_type_symbol
 _atom_site_label
 _atom_site_symmetry_multiplicity
 _atom_site_fract_x
 _atom_site_fract_y
 _atom_site_fract_z
 _atom_site_occupancy
  Yb  Yb0  1  0.000000  0.500000  0.524389  1
  Yb  Yb1  1  0.500000  0.000000  0.474814  1
  Yb  Yb2  1  0.500000  0.819797  0.203667  1
  Yb  Yb3  1  0.500000  0.180203  0.203667  1
  Yb  Yb4  1  0.000000  0.677351  0.797940  1
  Yb  Yb5  1  0.000000  0.322649  0.797940  1
  Mn  Mn6  1  0.000000  0.500000  0.988622  1
  Co  Co7  1  0.500000  0.000000  0.014194  1
  P  P8  1  0.500000  0.500000  0.885007  1
  P  P9  1  0.000000  0.000000  0.117572  1
  P  P10  1  0.500000  0.500000  0.343719  1
  P  P11  1  0.000000  0.000000  0.654021  1
  P  P12  1  0.500000  0.310718  0.620266  1
  P  P13  1  0.500000  0.689282  0.620266  1
  P  P14  1  0.000000  0.189864  0.380537  1
  P  P15  1  0.000000  0.810136  0.380537  1
  P  P16  1  0.500000  0.851249  0.896217  1
  P  P17  1  0.500000  0.148751  0.896217  1
  P  P18  1  0.000000  0.649585  0.102164  1
  P  P19  1  0.000000  0.350415  0.102164  1
  Rh  Rh20  1  0.500000  0.500000  0.158599  1
  Rh  Rh21  1  0.000000  0.000000  0.838174  1
  Rh  Rh22  1  0.500000  0.500000  0.697771  1
  Rh  Rh23  1  0.000000  0.000000  0.300680  1
  Rh  Rh24  1  0.500000  0.330705  0.991539  1
  Rh  Rh25  1  0.500000  0.669295  0.991539  1
  Rh  Rh26  1  0.000000  0.163227  0.008641  1
  Rh  Rh27  1  0.000000  0.836773  0.008641  1
  Rh  Rh28  1  0.500000  0.297241  0.430606  1
  Rh  Rh29  1  0.500000  0.702759  0.430606  1
  Rh  Rh30  1  0.000000  0.204473  0.569630  1
  Rh  Rh31  1  0.000000  0.795527  0.569630  1
  Rh  Rh32  1  0.500000  0.873773  0.712607  1
  Rh  Rh33  1  0.500000  0.126227  0.712607  1
  Rh  Rh34  1  0.000000  0.626044  0.287407  1
  Rh  Rh35  1  0.000000  0.373956  0.287407  1
