# generated using pymatgen
data_Ce5Tc3
_symmetry_space_group_name_H-M   'P 1'
_cell_length_a   8.01562100
_cell_length_b   8.01562039
_cell_length_c   6.64728500
_cell_angle_alpha   90.00000000
_cell_angle_beta   90.00000000
_cell_angle_gamma   119.99999838
_symmetry_Int_Tables_number   1
_chemical_formula_structural   Ce5Tc3
_chemical_formula_sum   'Ce10 Tc6'
_cell_volume   369.87012498
_cell_formula_units_Z   2
loop_
 _symmetry_equiv_pos_site_id
 _symmetry_equiv_pos_as_xyz
  1  'x, y, z'
loop_
 _atom_site_type_symbol
 _atom_site_label
 _atom_site_symmetry_multiplicity
 _atom_site_fract_x
 _atom_site_fract_y
 _atom_site_fract_z
 _atom_site_occupancy
  Ce  Ce0  1  0.666667  0.333333  0.000000  1
  Ce  Ce1  1  0.333333  0.666667  0.000000  1
  Ce  Ce2  1  0.333333  0.666667  0.500000  1
  Ce  Ce3  1  0.666667  0.333333  0.500000  1
  Ce  Ce4  1  0.762978  0.762978  0.750000  1
  Ce  Ce5  1  0.237022  0.000000  0.750000  1
  Ce  Ce6  1  0.000000  0.237022  0.750000  1
  Ce  Ce7  1  0.237022  0.237022  0.250000  1
  Ce  Ce8  1  0.762978  0.000000  0.250000  1
  Ce  Ce9  1  0.000000  0.762978  0.250000  1
  Tc  Tc10  1  0.373156  0.373156  0.750000  1
  Tc  Tc11  1  0.626844  0.000000  0.750000  1
  Tc  Tc12  1  0.000000  0.626844  0.750000  1
  Tc  Tc13  1  0.626844  0.626844  0.250000  1
  Tc  Tc14  1  0.373156  0.000000  0.250000  1
  Tc  Tc15  1  0.000000  0.373156  0.250000  1
