# generated using pymatgen
data_Mg2Ta3SiOs6
_symmetry_space_group_name_H-M   'P 1'
_cell_length_a   4.43060900
_cell_length_b   6.25312100
_cell_length_c   13.24421300
_cell_angle_alpha   89.99974627
_cell_angle_beta   89.99848856
_cell_angle_gamma   90.00095494
_symmetry_Int_Tables_number   1
_chemical_formula_structural   Mg2Ta3SiOs6
_chemical_formula_sum   'Mg4 Ta6 Si2 Os12'
_cell_volume   366.93269819
_cell_formula_units_Z   2
loop_
 _symmetry_equiv_pos_site_id
 _symmetry_equiv_pos_as_xyz
  1  'x, y, z'
loop_
 _atom_site_type_symbol
 _atom_site_label
 _atom_site_symmetry_multiplicity
 _atom_site_fract_x
 _atom_site_fract_y
 _atom_site_fract_z
 _atom_site_occupancy
  Mg  Mg0  1  0.999841  0.999970  0.331701  1
  Mg  Mg1  1  0.499994  0.500029  0.499251  1
  Mg  Mg2  1  0.000166  0.999972  0.667435  1
  Mg  Mg3  1  0.500137  0.500030  0.834945  1
  Ta  Ta4  1  0.000014  0.500040  0.997838  1
  Ta  Ta5  1  0.499842  0.999959  0.168855  1
  Ta  Ta6  1  0.999853  0.500034  0.335135  1
  Ta  Ta7  1  0.500000  0.999979  0.499843  1
  Ta  Ta8  1  0.000146  0.500022  0.666820  1
  Ta  Ta9  1  0.500155  0.999967  0.831518  1
  Si  Si10  1  0.999988  0.999974  0.000114  1
  Si  Si11  1  0.499832  0.500026  0.166548  1
  Os  Os12  1  0.499910  0.247411  0.004657  1
  Os  Os13  1  0.500080  0.752572  0.004657  1
  Os  Os14  1  0.999951  0.252564  0.161989  1
  Os  Os15  1  0.999785  0.747454  0.161988  1
  Os  Os16  1  0.499799  0.255993  0.327137  1
  Os  Os17  1  0.499903  0.744000  0.327126  1
  Os  Os18  1  0.000001  0.249321  0.498772  1
  Os  Os19  1  0.000001  0.750664  0.498768  1
  Os  Os20  1  0.500155  0.250671  0.667903  1
  Os  Os21  1  0.500165  0.749342  0.667907  1
  Os  Os22  1  0.000197  0.243989  0.839540  1
  Os  Os23  1  0.000086  0.756018  0.839551  1
