# generated using pymatgen
data_Cs4NaFeS4
_symmetry_space_group_name_H-M   'P 1'
_cell_length_a   8.57927318
_cell_length_b   8.57927277
_cell_length_c   8.57927299
_cell_angle_alpha   132.94658815
_cell_angle_beta   129.16972347
_cell_angle_gamma   71.76374158
_symmetry_Int_Tables_number   1
_chemical_formula_structural   Cs4NaFeS4
_chemical_formula_sum   'Cs4 Na1 Fe1 S4'
_cell_volume   350.60359534
_cell_formula_units_Z   1
loop_
 _symmetry_equiv_pos_site_id
 _symmetry_equiv_pos_as_xyz
  1  'x, y, z'
loop_
 _atom_site_type_symbol
 _atom_site_label
 _atom_site_symmetry_multiplicity
 _atom_site_fract_x
 _atom_site_fract_y
 _atom_site_fract_z
 _atom_site_occupancy
  Cs  Cs0  1  0.518838  0.861736  0.675314  1
  Cs  Cs1  1  0.481162  0.156476  0.342898  1
  Cs  Cs2  1  0.813578  0.638264  0.157102  1
  Cs  Cs3  1  0.186422  0.343524  0.824686  1
  Na  Na4  1  0.000000  0.250000  0.250000  1
  Fe  Fe5  1  0.000000  0.750000  0.750000  1
  S  S6  1  0.079097  0.856690  0.127947  1
  S  S7  1  0.728742  0.451150  0.372053  1
  S  S8  1  0.920903  0.048850  0.777593  1
  S  S9  1  0.271259  0.643310  0.722407  1
