# generated using pymatgen
data_Sm4CoSi12Ni19
_symmetry_space_group_name_H-M   'P 1'
_cell_length_a   3.82537700
_cell_length_b   6.60533951
_cell_length_c   18.86632203
_cell_angle_alpha   89.93114191
_cell_angle_beta   90.00000000
_cell_angle_gamma   90.00000000
_symmetry_Int_Tables_number   1
_chemical_formula_structural   Sm4CoSi12Ni19
_chemical_formula_sum   'Sm4 Co1 Si12 Ni19'
_cell_volume   476.71225560
_cell_formula_units_Z   1
loop_
 _symmetry_equiv_pos_site_id
 _symmetry_equiv_pos_as_xyz
  1  'x, y, z'
loop_
 _atom_site_type_symbol
 _atom_site_label
 _atom_site_symmetry_multiplicity
 _atom_site_fract_x
 _atom_site_fract_y
 _atom_site_fract_z
 _atom_site_occupancy
  Sm  Sm0  1  0.250000  0.874340  0.356522  1
  Sm  Sm1  1  0.750000  0.124504  0.643724  1
  Sm  Sm2  1  0.750000  0.376400  0.143763  1
  Sm  Sm3  1  0.250000  0.625040  0.856489  1
  Co  Co4  1  0.250000  0.064213  0.205506  1
  Si  Si5  1  0.250000  0.076835  0.086248  1
  Si  Si6  1  0.750000  0.927328  0.913307  1
  Si  Si7  1  0.750000  0.572875  0.413797  1
  Si  Si8  1  0.250000  0.426650  0.586844  1
  Si  Si9  1  0.250000  0.660941  0.073649  1
  Si  Si10  1  0.750000  0.344194  0.927596  1
  Si  Si11  1  0.750000  0.158945  0.426709  1
  Si  Si12  1  0.250000  0.841865  0.572465  1
  Si  Si13  1  0.250000  0.373801  0.262116  1
  Si  Si14  1  0.750000  0.618168  0.736166  1
  Si  Si15  1  0.750000  0.880875  0.236832  1
  Si  Si16  1  0.250000  0.118044  0.764006  1
  Ni  Ni17  1  0.750000  0.927521  0.792439  1
  Ni  Ni18  1  0.750000  0.569045  0.293267  1
  Ni  Ni19  1  0.250000  0.427713  0.707977  1
  Ni  Ni20  1  0.250000  0.610916  0.483549  1
  Ni  Ni21  1  0.750000  0.387609  0.516541  1
  Ni  Ni22  1  0.750000  0.113094  0.015924  1
  Ni  Ni23  1  0.250000  0.889397  0.983704  1
  Ni  Ni24  1  0.250000  0.684799  0.199821  1
  Ni  Ni25  1  0.750000  0.311732  0.801413  1
  Ni  Ni26  1  0.750000  0.186214  0.300028  1
  Ni  Ni27  1  0.250000  0.811906  0.698659  1
  Ni  Ni28  1  0.250000  0.354301  0.383291  1
  Ni  Ni29  1  0.750000  0.646714  0.615221  1
  Ni  Ni30  1  0.750000  0.860906  0.117018  1
  Ni  Ni31  1  0.250000  0.147193  0.884857  1
  Ni  Ni32  1  0.250000  0.365802  0.005623  1
  Ni  Ni33  1  0.750000  0.639230  0.995583  1
  Ni  Ni34  1  0.750000  0.864055  0.494511  1
  Ni  Ni35  1  0.250000  0.136833  0.504839  1
