# generated using pymatgen
data_Li12Dy3Ho9(WO6)8
_symmetry_space_group_name_H-M   'P 1'
_cell_length_a   10.66537912
_cell_length_b   10.66142333
_cell_length_c   10.66142309
_cell_angle_alpha   109.46370547
_cell_angle_beta   109.47873690
_cell_angle_gamma   109.47873360
_symmetry_Int_Tables_number   1
_chemical_formula_structural   Li12Dy3Ho9(WO6)8
_chemical_formula_sum   'Li12 Dy3 Ho9 W8 O48'
_cell_volume   933.13501394
_cell_formula_units_Z   1
loop_
 _symmetry_equiv_pos_site_id
 _symmetry_equiv_pos_as_xyz
  1  'x, y, z'
loop_
 _atom_site_type_symbol
 _atom_site_label
 _atom_site_symmetry_multiplicity
 _atom_site_fract_x
 _atom_site_fract_y
 _atom_site_fract_z
 _atom_site_occupancy
  Li  Li0  1  0.250128  0.375270  0.125276  1
  Li  Li1  1  0.875149  0.250006  0.125277  1
  Li  Li2  1  0.374987  0.124997  0.250130  1
  Li  Li3  1  0.875144  0.625133  0.250130  1
  Li  Li4  1  0.624855  0.749869  0.374865  1
  Li  Li5  1  0.750010  0.124997  0.374865  1
  Li  Li6  1  0.249872  0.874724  0.624730  1
  Li  Li7  1  0.374858  0.250006  0.624730  1
  Li  Li8  1  0.125142  0.375270  0.749994  1
  Li  Li9  1  0.624852  0.874725  0.749994  1
  Li  Li10  1  0.749990  0.625134  0.875003  1
  Li  Li11  1  0.125014  0.749869  0.875003  1
  Dy  Dy12  1  0.874895  0.124895  0.749788  1
  Dy  Dy13  1  0.250001  0.124895  0.875106  1
  Dy  Dy14  1  0.625106  0.250212  0.875106  1
  Ho  Ho15  1  0.750000  0.874967  0.125032  1
  Ho  Ho16  1  0.375034  0.750065  0.125033  1
  Ho  Ho17  1  0.124967  0.874968  0.249936  1
  Ho  Ho18  1  0.625160  0.375159  0.250318  1
  Ho  Ho19  1  0.250000  0.625031  0.374970  1
  Ho  Ho20  1  0.124970  0.249939  0.374970  1
  Ho  Ho21  1  0.749999  0.375160  0.624841  1
  Ho  Ho22  1  0.874841  0.749683  0.624842  1
  Ho  Ho23  1  0.375029  0.625030  0.750061  1
  W  W24  1  0.999792  0.999657  0.000184  1
  W  W25  1  0.500208  0.999816  0.000343  1
  W  W26  1  0.500134  0.500526  0.000343  1
  W  W27  1  0.000392  0.500527  0.000184  1
  W  W28  1  0.999865  0.999657  0.499473  1
  W  W29  1  0.499608  0.999816  0.499473  1
  W  W30  1  0.499896  0.500000  0.500000  1
  W  W31  1  0.000104  0.500001  0.500001  1
  O  O32  1  0.119785  0.702374  0.028481  1
  O  O33  1  0.908696  0.826109  0.028481  1
  O  O34  1  0.673891  0.201663  0.083131  1
  O  O35  1  0.409241  0.381469  0.083132  1
  O  O36  1  0.673714  0.472363  0.091766  1
  O  O37  1  0.418052  0.119404  0.091767  1
  O  O38  1  0.917445  0.091160  0.119549  1
  O  O39  1  0.202103  0.528388  0.119549  1
  O  O40  1  0.582588  0.702372  0.173892  1
  O  O41  1  0.591304  0.971521  0.173892  1
  O  O42  1  0.028270  0.619648  0.202038  1
  O  O43  1  0.173770  0.082392  0.202040  1
  O  O44  1  0.380216  0.971519  0.297626  1
  O  O45  1  0.917412  0.826108  0.297628  1
  O  O46  1  0.028205  0.408735  0.326299  1
  O  O47  1  0.298095  0.417564  0.326299  1
  O  O48  1  0.908622  0.082391  0.380353  1
  O  O49  1  0.471730  0.797961  0.380353  1
  O  O50  1  0.880561  0.582364  0.408684  1
  O  O51  1  0.528123  0.326319  0.408684  1
  O  O52  1  0.619438  0.591316  0.417635  1
  O  O53  1  0.798197  0.326319  0.417636  1
  O  O54  1  0.297896  0.880451  0.471610  1
  O  O55  1  0.173715  0.091161  0.471612  1
  O  O56  1  0.826285  0.908232  0.527636  1
  O  O57  1  0.701351  0.119405  0.527638  1
  O  O58  1  0.380531  0.408734  0.582435  1
  O  O59  1  0.201904  0.673700  0.582436  1
  O  O60  1  0.471795  0.673700  0.591264  1
  O  O61  1  0.119469  0.417565  0.591265  1
  O  O62  1  0.090760  0.916868  0.618531  1
  O  O63  1  0.527773  0.201664  0.618531  1
  O  O64  1  0.701802  0.582364  0.673680  1
  O  O65  1  0.971878  0.591316  0.673681  1
  O  O66  1  0.618547  0.027362  0.701065  1
  O  O67  1  0.082519  0.173704  0.701065  1
  O  O68  1  0.826108  0.916868  0.798335  1
  O  O69  1  0.972228  0.381468  0.798336  1
  O  O70  1  0.408814  0.027361  0.826296  1
  O  O71  1  0.417481  0.298935  0.826297  1
  O  O72  1  0.081947  0.908233  0.880595  1
  O  O73  1  0.798648  0.472363  0.880597  1
  O  O74  1  0.326286  0.528390  0.908840  1
  O  O75  1  0.582554  0.880452  0.908840  1
  O  O76  1  0.326229  0.797961  0.917609  1
  O  O77  1  0.591378  0.619647  0.917609  1
  O  O78  1  0.091186  0.173704  0.972638  1
  O  O79  1  0.881453  0.298936  0.972638  1
