# generated using pymatgen
data_BaLa(Bi2Rh)2
_symmetry_space_group_name_H-M   'P 1'
_cell_length_a   9.86118724
_cell_length_b   9.86118692
_cell_length_c   9.88074100
_cell_angle_alpha   90.00000000
_cell_angle_beta   90.00000000
_cell_angle_gamma   151.45428110
_symmetry_Int_Tables_number   1
_chemical_formula_structural   BaLa(Bi2Rh)2
_chemical_formula_sum   'Ba2 La2 Bi8 Rh4'
_cell_volume   459.14352044
_cell_formula_units_Z   2
loop_
 _symmetry_equiv_pos_site_id
 _symmetry_equiv_pos_as_xyz
  1  'x, y, z'
loop_
 _atom_site_type_symbol
 _atom_site_label
 _atom_site_symmetry_multiplicity
 _atom_site_fract_x
 _atom_site_fract_y
 _atom_site_fract_z
 _atom_site_occupancy
  Ba  Ba0  1  0.500000  0.500000  0.500000  1
  Ba  Ba1  1  0.500000  0.500000  0.000000  1
  La  La2  1  0.295140  0.704860  0.250000  1
  La  La3  1  0.704860  0.295140  0.750000  1
  Bi  Bi4  1  0.913486  0.086514  0.750000  1
  Bi  Bi5  1  0.916704  0.083296  0.250000  1
  Bi  Bi6  1  0.086514  0.913486  0.250000  1
  Bi  Bi7  1  0.083296  0.916704  0.750000  1
  Bi  Bi8  1  0.701400  0.298600  0.413280  1
  Bi  Bi9  1  0.298600  0.701400  0.586720  1
  Bi  Bi10  1  0.298600  0.701400  0.913280  1
  Bi  Bi11  1  0.701400  0.298600  0.086720  1
  Rh  Rh12  1  0.157065  0.842935  0.502104  1
  Rh  Rh13  1  0.842935  0.157065  0.002104  1
  Rh  Rh14  1  0.157065  0.842935  0.997896  1
  Rh  Rh15  1  0.842935  0.157065  0.497896  1
