# generated using pymatgen
data_TbDy7(Si4W3)4
_symmetry_space_group_name_H-M   'P 1'
_cell_length_a   6.78939979
_cell_length_b   6.95031909
_cell_length_c   12.92519545
_cell_angle_alpha   89.98549424
_cell_angle_beta   90.00153258
_cell_angle_gamma   90.00017595
_symmetry_Int_Tables_number   1
_chemical_formula_structural   TbDy7(Si4W3)4
_chemical_formula_sum   'Tb1 Dy7 Si16 W12'
_cell_volume   609.92049972
_cell_formula_units_Z   1
loop_
 _symmetry_equiv_pos_site_id
 _symmetry_equiv_pos_as_xyz
  1  'x, y, z'
loop_
 _atom_site_type_symbol
 _atom_site_label
 _atom_site_symmetry_multiplicity
 _atom_site_fract_x
 _atom_site_fract_y
 _atom_site_fract_z
 _atom_site_occupancy
  Tb  Tb0  1  0.995582  0.832349  0.593126  1
  Dy  Dy1  1  0.495409  0.667529  0.593397  1
  Dy  Dy2  1  0.995667  0.832475  0.906579  1
  Dy  Dy3  1  0.504665  0.332387  0.093535  1
  Dy  Dy4  1  0.004511  0.167686  0.406558  1
  Dy  Dy5  1  0.504491  0.332576  0.406641  1
  Dy  Dy6  1  0.004437  0.167716  0.093492  1
  Dy  Dy7  1  0.495453  0.667576  0.906546  1
  Si  Si8  1  0.661360  0.957510  0.452955  1
  Si  Si9  1  0.161689  0.542561  0.047016  1
  Si  Si10  1  0.338690  0.042699  0.952961  1
  Si  Si11  1  0.838192  0.456875  0.546923  1
  Si  Si12  1  0.338720  0.042694  0.546863  1
  Si  Si13  1  0.838477  0.457522  0.952986  1
  Si  Si14  1  0.661506  0.957289  0.047081  1
  Si  Si15  1  0.161596  0.542555  0.452872  1
  Si  Si16  1  0.463470  0.370118  0.750120  1
  Si  Si17  1  0.963614  0.129755  0.749903  1
  Si  Si18  1  0.536416  0.629866  0.249956  1
  Si  Si19  1  0.036399  0.870413  0.250119  1
  Si  Si20  1  0.696683  0.867021  0.750077  1
  Si  Si21  1  0.196798  0.632515  0.750011  1
  Si  Si22  1  0.303222  0.133073  0.250057  1
  Si  Si23  1  0.803160  0.367269  0.250120  1
  W  W24  1  0.667392  0.163629  0.625831  1
  W  W25  1  0.167578  0.336277  0.874294  1
  W  W26  1  0.332087  0.836617  0.125614  1
  W  W27  1  0.832033  0.663447  0.374323  1
  W  W28  1  0.332325  0.836441  0.374209  1
  W  W29  1  0.832464  0.663619  0.125796  1
  W  W30  1  0.668074  0.163467  0.874469  1
  W  W31  1  0.167841  0.336495  0.625546  1
  W  W32  1  0.833768  0.498975  0.749961  1
  W  W33  1  0.333961  0.000801  0.749913  1
  W  W34  1  0.166116  0.500908  0.250026  1
  W  W35  1  0.666154  0.999294  0.250126  1
