# generated using pymatgen
data_DyU(TlCl3)4
_symmetry_space_group_name_H-M   'P 1'
_cell_length_a   7.30422100
_cell_length_b   7.30422100
_cell_length_c   10.87096700
_cell_angle_alpha   90.00000000
_cell_angle_beta   90.00000000
_cell_angle_gamma   90.00000000
_symmetry_Int_Tables_number   1
_chemical_formula_structural   DyU(TlCl3)4
_chemical_formula_sum   'Dy1 U1 Tl4 Cl12'
_cell_volume   579.98396585
_cell_formula_units_Z   1
loop_
 _symmetry_equiv_pos_site_id
 _symmetry_equiv_pos_as_xyz
  1  'x, y, z'
loop_
 _atom_site_type_symbol
 _atom_site_label
 _atom_site_symmetry_multiplicity
 _atom_site_fract_x
 _atom_site_fract_y
 _atom_site_fract_z
 _atom_site_occupancy
  Dy  Dy0  1  0.000000  0.000000  0.000000  1
  U  U1  1  0.500000  0.500000  0.500000  1
  Tl  Tl2  1  0.500000  0.000000  0.799922  1
  Tl  Tl3  1  0.500000  0.000000  0.200078  1
  Tl  Tl4  1  0.000000  0.500000  0.200078  1
  Tl  Tl5  1  0.000000  0.500000  0.799922  1
  Cl  Cl6  1  0.744715  0.254174  0.000000  1
  Cl  Cl7  1  0.255285  0.745826  0.000000  1
  Cl  Cl8  1  0.500000  0.500000  0.264646  1
  Cl  Cl9  1  0.317244  0.206734  0.500000  1
  Cl  Cl10  1  0.254174  0.255285  0.000000  1
  Cl  Cl11  1  0.793266  0.317244  0.500000  1
  Cl  Cl12  1  0.000000  0.000000  0.240657  1
  Cl  Cl13  1  0.682756  0.793266  0.500000  1
  Cl  Cl14  1  0.206734  0.682756  0.500000  1
  Cl  Cl15  1  0.500000  0.500000  0.735354  1
  Cl  Cl16  1  0.745826  0.744715  0.000000  1
  Cl  Cl17  1  0.000000  0.000000  0.759343  1
