# generated using pymatgen
data_La2TbCBr5
_symmetry_space_group_name_H-M   'P 1'
_cell_length_a   7.61173308
_cell_length_b   9.31573070
_cell_length_c   9.32017687
_cell_angle_alpha   107.83916976
_cell_angle_beta   95.63625373
_cell_angle_gamma   104.86763927
_symmetry_Int_Tables_number   1
_chemical_formula_structural   La2TbCBr5
_chemical_formula_sum   'La4 Tb2 C2 Br10'
_cell_volume   596.71175397
_cell_formula_units_Z   2
loop_
 _symmetry_equiv_pos_site_id
 _symmetry_equiv_pos_as_xyz
  1  'x, y, z'
loop_
 _atom_site_type_symbol
 _atom_site_label
 _atom_site_symmetry_multiplicity
 _atom_site_fract_x
 _atom_site_fract_y
 _atom_site_fract_z
 _atom_site_occupancy
  La  La0  1  0.883182  0.956533  0.235566  1
  La  La1  1  0.116818  0.043467  0.764434  1
  La  La2  1  0.030392  0.718720  0.914540  1
  La  La3  1  0.969608  0.281280  0.085460  1
  Tb  Tb4  1  0.623718  0.862207  0.815246  1
  Tb  Tb5  1  0.376282  0.137793  0.184754  1
  C  C6  1  0.909149  0.968944  0.957168  1
  C  C7  1  0.090851  0.031056  0.042832  1
  Br  Br8  1  0.741494  0.914322  0.547817  1
  Br  Br9  1  0.258506  0.085678  0.452183  1
  Br  Br10  1  0.457921  0.825662  0.082616  1
  Br  Br11  1  0.542079  0.174338  0.917384  1
  Br  Br12  1  0.785389  0.259681  0.353048  1
  Br  Br13  1  0.214611  0.740319  0.646952  1
  Br  Br14  1  0.907971  0.627270  0.180005  1
  Br  Br15  1  0.092029  0.372730  0.819995  1
  Br  Br16  1  0.649478  0.554665  0.727253  1
  Br  Br17  1  0.350522  0.445335  0.272747  1
