# generated using pymatgen
data_Ac5Nd5Ir8
_symmetry_space_group_name_H-M   'P 1'
_cell_length_a   7.78165400
_cell_length_b   7.88244758
_cell_length_c   15.38904712
_cell_angle_alpha   89.99387019
_cell_angle_beta   90.00000000
_cell_angle_gamma   90.00000000
_symmetry_Int_Tables_number   1
_chemical_formula_structural   Ac5Nd5Ir8
_chemical_formula_sum   'Ac10 Nd10 Ir16'
_cell_volume   943.94074914
_cell_formula_units_Z   2
loop_
 _symmetry_equiv_pos_site_id
 _symmetry_equiv_pos_as_xyz
  1  'x, y, z'
loop_
 _atom_site_type_symbol
 _atom_site_label
 _atom_site_symmetry_multiplicity
 _atom_site_fract_x
 _atom_site_fract_y
 _atom_site_fract_z
 _atom_site_occupancy
  Ac  Ac0  1  0.505253  0.818782  0.908060  1
  Ac  Ac1  1  0.005253  0.681218  0.591940  1
  Ac  Ac2  1  0.495773  0.180930  0.404778  1
  Ac  Ac3  1  0.995773  0.319070  0.095222  1
  Ac  Ac4  1  0.492964  0.179923  0.097999  1
  Ac  Ac5  1  0.992964  0.320077  0.402001  1
  Ac  Ac6  1  0.507585  0.816581  0.592836  1
  Ac  Ac7  1  0.007585  0.683419  0.907164  1
  Ac  Ac8  1  0.650505  0.327591  0.879930  1
  Ac  Ac9  1  0.150505  0.172409  0.620070  1
  Nd  Nd10  1  0.350125  0.673011  0.376059  1
  Nd  Nd11  1  0.850125  0.826989  0.123941  1
  Nd  Nd12  1  0.348255  0.673234  0.123293  1
  Nd  Nd13  1  0.848255  0.826766  0.376707  1
  Nd  Nd14  1  0.651360  0.327957  0.623088  1
  Nd  Nd15  1  0.151360  0.172043  0.876912  1
  Nd  Nd16  1  0.316564  0.511703  0.749796  1
  Nd  Nd17  1  0.816564  0.988297  0.750204  1
  Nd  Nd18  1  0.680482  0.495621  0.249301  1
  Nd  Nd19  1  0.180482  0.004379  0.250699  1
  Ir  Ir20  1  0.176718  0.966560  0.042330  1
  Ir  Ir21  1  0.676718  0.533440  0.457670  1
  Ir  Ir22  1  0.816952  0.034843  0.539347  1
  Ir  Ir23  1  0.316952  0.465157  0.960653  1
  Ir  Ir24  1  0.832090  0.027595  0.959483  1
  Ir  Ir25  1  0.332090  0.472405  0.540517  1
  Ir  Ir26  1  0.175391  0.963799  0.454374  1
  Ir  Ir27  1  0.675391  0.536201  0.045626  1
  Ir  Ir28  1  0.698927  0.634679  0.749023  1
  Ir  Ir29  1  0.198927  0.865321  0.750977  1
  Ir  Ir30  1  0.299355  0.368781  0.250077  1
  Ir  Ir31  1  0.799355  0.131219  0.249923  1
  Ir  Ir32  1  0.447452  0.099055  0.750184  1
  Ir  Ir33  1  0.947452  0.400945  0.749816  1
  Ir  Ir34  1  0.554249  0.894669  0.250364  1
  Ir  Ir35  1  0.054249  0.605331  0.249636  1
