# generated using pymatgen
data_AlH5S
_symmetry_space_group_name_H-M   'P 1'
_cell_length_a   3.60590311
_cell_length_b   3.60287904
_cell_length_c   10.21673620
_cell_angle_alpha   88.57370841
_cell_angle_beta   82.56440716
_cell_angle_gamma   60.02191665
_symmetry_Int_Tables_number   1
_chemical_formula_structural   AlH5S
_chemical_formula_sum   'Al1 H5 S1'
_cell_volume   113.88562207
_cell_formula_units_Z   1
loop_
 _symmetry_equiv_pos_site_id
 _symmetry_equiv_pos_as_xyz
  1  'x, y, z'
loop_
 _atom_site_type_symbol
 _atom_site_label
 _atom_site_symmetry_multiplicity
 _atom_site_fract_x
 _atom_site_fract_y
 _atom_site_fract_z
 _atom_site_occupancy
  Al  Al0  1  0.457745  0.443110  0.510208  1
  H  H1  1  0.570879  0.089462  0.923911  1
  H  H2  1  0.095520  0.807362  0.110994  1
  H  H3  1  0.942644  0.933337  0.170990  1
  H  H4  1  0.368502  0.133600  0.897463  1
  H  H5  1  0.526642  0.421283  0.354360  1
  S  S6  1  0.079953  0.125150  0.610100  1
