# generated using pymatgen
data_HoNbP7Ru12
_symmetry_space_group_name_H-M   'P 1'
_cell_length_a   9.38769500
_cell_length_b   9.38769394
_cell_length_c   3.89768300
_cell_angle_alpha   90.00000000
_cell_angle_beta   90.00000000
_cell_angle_gamma   119.99999315
_symmetry_Int_Tables_number   1
_chemical_formula_structural   HoNbP7Ru12
_chemical_formula_sum   'Ho1 Nb1 P7 Ru12'
_cell_volume   297.47814876
_cell_formula_units_Z   1
loop_
 _symmetry_equiv_pos_site_id
 _symmetry_equiv_pos_as_xyz
  1  'x, y, z'
loop_
 _atom_site_type_symbol
 _atom_site_label
 _atom_site_symmetry_multiplicity
 _atom_site_fract_x
 _atom_site_fract_y
 _atom_site_fract_z
 _atom_site_occupancy
  Ho  Ho0  1  0.333333  0.666667  0.000000  1
  Nb  Nb1  1  0.666667  0.333333  0.500000  1
  P  P2  1  0.597751  0.718744  0.500000  1
  P  P3  1  0.000000  0.000000  0.000000  1
  P  P4  1  0.281256  0.879007  0.500000  1
  P  P5  1  0.120993  0.402249  0.500000  1
  P  P6  1  0.886299  0.574602  0.000000  1
  P  P7  1  0.425398  0.311697  0.000000  1
  P  P8  1  0.688303  0.113701  0.000000  1
  Ru  Ru9  1  0.558049  0.956339  0.500000  1
  Ru  Ru10  1  0.398290  0.441951  0.500000  1
  Ru  Ru11  1  0.912882  0.124185  0.500000  1
  Ru  Ru12  1  0.211303  0.087118  0.500000  1
  Ru  Ru13  1  0.875815  0.788697  0.500000  1
  Ru  Ru14  1  0.725493  0.887712  0.000000  1
  Ru  Ru15  1  0.112288  0.837780  0.000000  1
  Ru  Ru16  1  0.162220  0.274507  0.000000  1
  Ru  Ru17  1  0.431342  0.077942  0.000000  1
  Ru  Ru18  1  0.922058  0.353401  0.000000  1
  Ru  Ru19  1  0.646599  0.568658  0.000000  1
  Ru  Ru20  1  0.043661  0.601710  0.500000  1
