# generated using pymatgen
data_Lu4(Pd3Au)3
_symmetry_space_group_name_H-M   'P 1'
_cell_length_a   7.13170151
_cell_length_b   7.13170218
_cell_length_c   7.13170091
_cell_angle_alpha   108.40335438
_cell_angle_beta   108.40336478
_cell_angle_gamma   111.62872934
_symmetry_Int_Tables_number   1
_chemical_formula_structural   Lu4(Pd3Au)3
_chemical_formula_sum   'Lu4 Pd9 Au3'
_cell_volume   278.92891083
_cell_formula_units_Z   1
loop_
 _symmetry_equiv_pos_site_id
 _symmetry_equiv_pos_as_xyz
  1  'x, y, z'
loop_
 _atom_site_type_symbol
 _atom_site_label
 _atom_site_symmetry_multiplicity
 _atom_site_fract_x
 _atom_site_fract_y
 _atom_site_fract_z
 _atom_site_occupancy
  Lu  Lu0  1  0.245615  0.245615  0.491230  1
  Lu  Lu1  1  0.754385  0.754385  0.508770  1
  Lu  Lu2  1  0.245615  0.754385  0.000000  1
  Lu  Lu3  1  0.754385  0.245615  0.000000  1
  Pd  Pd4  1  0.500857  0.251885  0.248971  1
  Pd  Pd5  1  0.499143  0.748115  0.751029  1
  Pd  Pd6  1  0.002914  0.251885  0.751029  1
  Pd  Pd7  1  0.251885  0.002914  0.751029  1
  Pd  Pd8  1  0.997086  0.748115  0.248971  1
  Pd  Pd9  1  0.748115  0.997086  0.248971  1
  Pd  Pd10  1  0.251885  0.500857  0.248971  1
  Pd  Pd11  1  0.748115  0.499143  0.751029  1
  Pd  Pd12  1  0.000000  0.000000  0.000000  1
  Au  Au13  1  0.500000  0.000000  0.500000  1
  Au  Au14  1  0.000000  0.500000  0.500000  1
  Au  Au15  1  0.500000  0.500000  0.000000  1
