# generated using pymatgen
data_Er16MgIn3(IrPd)2
_symmetry_space_group_name_H-M   'P 1'
_cell_length_a   9.58066164
_cell_length_b   9.60294006
_cell_length_c   9.60294098
_cell_angle_alpha   60.30062453
_cell_angle_beta   60.35469991
_cell_angle_gamma   60.35469363
_symmetry_Int_Tables_number   1
_chemical_formula_structural   Er16MgIn3(IrPd)2
_chemical_formula_sum   'Er16 Mg1 In3 Ir2 Pd2'
_cell_volume   629.48320064
_cell_formula_units_Z   1
loop_
 _symmetry_equiv_pos_site_id
 _symmetry_equiv_pos_as_xyz
  1  'x, y, z'
loop_
 _atom_site_type_symbol
 _atom_site_label
 _atom_site_symmetry_multiplicity
 _atom_site_fract_x
 _atom_site_fract_y
 _atom_site_fract_z
 _atom_site_occupancy
  Er  Er0  1  0.060976  0.059627  0.433968  1
  Er  Er1  1  0.646953  0.057041  0.644852  1
  Er  Er2  1  0.186770  0.807273  0.194766  1
  Er  Er3  1  0.438771  0.062670  0.433939  1
  Er  Er4  1  0.186770  0.194766  0.807273  1
  Er  Er5  1  0.660075  0.651159  0.651159  1
  Er  Er6  1  0.053935  0.644212  0.644212  1
  Er  Er7  1  0.435195  0.064138  0.064138  1
  Er  Er8  1  0.646953  0.644852  0.057041  1
  Er  Er9  1  0.194085  0.807387  0.807387  1
  Er  Er10  1  0.812740  0.193919  0.809503  1
  Er  Er11  1  0.810946  0.188581  0.188581  1
  Er  Er12  1  0.812740  0.809503  0.193919  1
  Er  Er13  1  0.065621  0.432002  0.432002  1
  Er  Er14  1  0.438771  0.433939  0.062670  1
  Er  Er15  1  0.060976  0.433968  0.059627  1
  Mg  Mg16  1  0.732496  0.424075  0.424075  1
  In  In17  1  0.418762  0.417930  0.749318  1
  In  In18  1  0.418762  0.749318  0.417930  1
  In  In19  1  0.415287  0.416318  0.416318  1
  Ir  Ir20  1  0.859797  0.863478  0.426968  1
  Ir  Ir21  1  0.859797  0.426968  0.863478  1
  Pd  Pd22  1  0.855487  0.856882  0.856882  1
  Pd  Pd23  1  0.427336  0.859996  0.859996  1
