# generated using pymatgen
data_Lu2GeB2Ir4Rh
_symmetry_space_group_name_H-M   'P 1'
_cell_length_a   9.37787236
_cell_length_b   9.38497136
_cell_length_c   3.23704900
_cell_angle_alpha   90.00000000
_cell_angle_beta   90.00000000
_cell_angle_gamma   89.90299058
_symmetry_Int_Tables_number   1
_chemical_formula_structural   Lu2GeB2Ir4Rh
_chemical_formula_sum   'Lu4 Ge2 B4 Ir8 Rh2'
_cell_volume   284.89571689
_cell_formula_units_Z   2
loop_
 _symmetry_equiv_pos_site_id
 _symmetry_equiv_pos_as_xyz
  1  'x, y, z'
loop_
 _atom_site_type_symbol
 _atom_site_label
 _atom_site_symmetry_multiplicity
 _atom_site_fract_x
 _atom_site_fract_y
 _atom_site_fract_z
 _atom_site_occupancy
  Lu  Lu0  1  0.823316  0.324908  0.000000  1
  Lu  Lu1  1  0.323957  0.177180  0.000000  1
  Lu  Lu2  1  0.676043  0.822820  0.000000  1
  Lu  Lu3  1  0.176684  0.675092  0.000000  1
  Ge  Ge4  1  0.000000  0.000000  0.000000  1
  Ge  Ge5  1  0.500000  0.500000  0.000000  1
  B  B6  1  0.622282  0.121816  0.000000  1
  B  B7  1  0.118438  0.375894  0.000000  1
  B  B8  1  0.881562  0.624106  0.000000  1
  B  B9  1  0.377718  0.878184  0.000000  1
  Ir  Ir10  1  0.069996  0.218337  0.500000  1
  Ir  Ir11  1  0.216821  0.930970  0.500000  1
  Ir  Ir12  1  0.783179  0.069030  0.500000  1
  Ir  Ir13  1  0.930004  0.781663  0.500000  1
  Ir  Ir14  1  0.429790  0.717191  0.500000  1
  Ir  Ir15  1  0.570210  0.282809  0.500000  1
  Ir  Ir16  1  0.500000  0.000000  0.500000  1
  Ir  Ir17  1  0.000000  0.500000  0.500000  1
  Rh  Rh18  1  0.715946  0.569638  0.500000  1
  Rh  Rh19  1  0.284054  0.430362  0.500000  1
