# generated using pymatgen
data_Lu3Al2Zn9
_symmetry_space_group_name_H-M   'P 1'
_cell_length_a   8.07927907
_cell_length_b   8.07927947
_cell_length_c   8.07927800
_cell_angle_alpha   149.40987348
_cell_angle_beta   108.82191752
_cell_angle_gamma   79.42878469
_symmetry_Int_Tables_number   1
_chemical_formula_structural   Lu3Al2Zn9
_chemical_formula_sum   'Lu3 Al2 Zn9'
_cell_volume   249.11279761
_cell_formula_units_Z   1
loop_
 _symmetry_equiv_pos_site_id
 _symmetry_equiv_pos_as_xyz
  1  'x, y, z'
loop_
 _atom_site_type_symbol
 _atom_site_label
 _atom_site_symmetry_multiplicity
 _atom_site_fract_x
 _atom_site_fract_y
 _atom_site_fract_z
 _atom_site_occupancy
  Lu  Lu0  1  0.998511  0.999988  0.998513  1
  Lu  Lu1  1  0.297989  0.299168  0.998854  1
  Lu  Lu2  1  0.699676  0.700846  0.998826  1
  Al  Al3  1  0.695166  0.500112  0.195276  1
  Al  Al4  1  0.498639  0.999995  0.498636  1
  Zn  Zn5  1  0.417987  0.139973  0.278129  1
  Zn  Zn6  1  0.138161  0.860141  0.278155  1
  Zn  Zn7  1  0.708508  0.340443  0.368048  1
  Zn  Zn8  1  0.027608  0.659598  0.368065  1
  Zn  Zn9  1  0.976240  0.342247  0.633910  1
  Zn  Zn10  1  0.291672  0.657702  0.633947  1
  Zn  Zn11  1  0.859935  0.139427  0.720355  1
  Zn  Zn12  1  0.580931  0.860444  0.720374  1
  Zn  Zn13  1  0.308979  0.499918  0.808914  1
