# generated using pymatgen
data_ScBeCu4
_symmetry_space_group_name_H-M   'P 1'
_cell_length_a   4.68525781
_cell_length_b   4.68525818
_cell_length_c   4.68525791
_cell_angle_alpha   62.34942427
_cell_angle_beta   62.34942719
_cell_angle_gamma   62.34942301
_symmetry_Int_Tables_number   1
_chemical_formula_structural   ScBeCu4
_chemical_formula_sum   'Sc1 Be1 Cu4'
_cell_volume   76.53729846
_cell_formula_units_Z   1
loop_
 _symmetry_equiv_pos_site_id
 _symmetry_equiv_pos_as_xyz
  1  'x, y, z'
loop_
 _atom_site_type_symbol
 _atom_site_label
 _atom_site_symmetry_multiplicity
 _atom_site_fract_x
 _atom_site_fract_y
 _atom_site_fract_z
 _atom_site_occupancy
  Sc  Sc0  1  0.997782  0.997782  0.997782  1
  Be  Be1  1  0.379257  0.379257  0.379257  1
  Cu  Cu2  1  0.376227  0.376227  0.874233  1
  Cu  Cu3  1  0.874233  0.376227  0.376227  1
  Cu  Cu4  1  0.376227  0.874233  0.376227  1
  Cu  Cu5  1  0.746275  0.746275  0.746275  1
