# generated using pymatgen
data_Tb8Zr11Si16Ag
_symmetry_space_group_name_H-M   'P 1'
_cell_length_a   7.35600022
_cell_length_b   7.35600084
_cell_length_c   13.42681202
_cell_angle_alpha   89.84885418
_cell_angle_beta   90.15114498
_cell_angle_gamma   89.84759818
_symmetry_Int_Tables_number   1
_chemical_formula_structural   Tb8Zr11Si16Ag
_chemical_formula_sum   'Tb8 Zr11 Si16 Ag1'
_cell_volume   726.52714556
_cell_formula_units_Z   1
loop_
 _symmetry_equiv_pos_site_id
 _symmetry_equiv_pos_as_xyz
  1  'x, y, z'
loop_
 _atom_site_type_symbol
 _atom_site_label
 _atom_site_symmetry_multiplicity
 _atom_site_fract_x
 _atom_site_fract_y
 _atom_site_fract_z
 _atom_site_occupancy
  Tb  Tb0  1  0.998310  0.346853  0.209986  1
  Tb  Tb1  1  0.004478  0.653931  0.715540  1
  Tb  Tb2  1  0.153872  0.496362  0.463633  1
  Tb  Tb3  1  0.497978  0.849720  0.034275  1
  Tb  Tb4  1  0.849720  0.497978  0.965725  1
  Tb  Tb5  1  0.496362  0.153872  0.536367  1
  Tb  Tb6  1  0.346853  0.998310  0.790014  1
  Tb  Tb7  1  0.653931  0.004478  0.284460  1
  Zr  Zr8  1  0.824259  0.824259  0.500000  1
  Zr  Zr9  1  0.322810  0.677213  0.248936  1
  Zr  Zr10  1  0.677213  0.322810  0.751064  1
  Zr  Zr11  1  0.144511  0.996281  0.374349  1
  Zr  Zr12  1  0.857530  0.003594  0.878574  1
  Zr  Zr13  1  0.504406  0.645061  0.626352  1
  Zr  Zr14  1  0.356027  0.491659  0.877214  1
  Zr  Zr15  1  0.491659  0.356027  0.122786  1
  Zr  Zr16  1  0.645061  0.504406  0.373648  1
  Zr  Zr17  1  0.996281  0.144511  0.625651  1
  Zr  Zr18  1  0.003594  0.857530  0.121426  1
  Si  Si19  1  0.358841  0.294447  0.316051  1
  Si  Si20  1  0.640441  0.706170  0.819197  1
  Si  Si21  1  0.208183  0.860321  0.567830  1
  Si  Si22  1  0.132644  0.776510  0.928485  1
  Si  Si23  1  0.776510  0.132644  0.071515  1
  Si  Si24  1  0.860321  0.208183  0.432170  1
  Si  Si25  1  0.294447  0.358841  0.683949  1
  Si  Si26  1  0.706170  0.640441  0.180803  1
  Si  Si27  1  0.295351  0.054098  0.189893  1
  Si  Si28  1  0.704745  0.948579  0.688126  1
  Si  Si29  1  0.448199  0.795565  0.437069  1
  Si  Si30  1  0.209771  0.565622  0.062741  1
  Si  Si31  1  0.565622  0.209771  0.937259  1
  Si  Si32  1  0.795565  0.448199  0.562931  1
  Si  Si33  1  0.054098  0.295351  0.810107  1
  Si  Si34  1  0.948579  0.704745  0.311874  1
  Ag  Ag35  1  0.175656  0.175656  0.000000  1
