# generated using pymatgen
data_Ho7Sn23(IrRu2)2
_symmetry_space_group_name_H-M   'P 1'
_cell_length_a   9.84389444
_cell_length_b   9.84899709
_cell_length_c   10.10869100
_cell_angle_alpha   89.99999633
_cell_angle_beta   89.99833340
_cell_angle_gamma   120.01714916
_symmetry_Int_Tables_number   1
_chemical_formula_structural   Ho7Sn23(IrRu2)2
_chemical_formula_sum   'Ho7 Sn23 Ir2 Ru4'
_cell_volume   848.61252111
_cell_formula_units_Z   1
loop_
 _symmetry_equiv_pos_site_id
 _symmetry_equiv_pos_as_xyz
  1  'x, y, z'
loop_
 _atom_site_type_symbol
 _atom_site_label
 _atom_site_symmetry_multiplicity
 _atom_site_fract_x
 _atom_site_fract_y
 _atom_site_fract_z
 _atom_site_occupancy
  Ho  Ho0  1  0.998638  0.999319  0.001699  1
  Ho  Ho1  1  0.516698  0.484183  0.695734  1
  Ho  Ho2  1  0.516698  0.032515  0.695734  1
  Ho  Ho3  1  0.967283  0.483641  0.695400  1
  Ho  Ho4  1  0.031563  0.515782  0.304784  1
  Ho  Ho5  1  0.484333  0.968440  0.304493  1
  Ho  Ho6  1  0.484333  0.515894  0.304493  1
  Sn  Sn7  1  0.666540  0.333269  0.179564  1
  Sn  Sn8  1  0.666561  0.333280  0.872763  1
  Sn  Sn9  1  0.333521  0.666761  0.126658  1
  Sn  Sn10  1  0.351396  0.349983  0.001324  1
  Sn  Sn11  1  0.998539  0.648680  0.001243  1
  Sn  Sn12  1  0.650751  0.999762  0.000184  1
  Sn  Sn13  1  0.650751  0.650989  0.000184  1
  Sn  Sn14  1  0.335327  0.667664  0.822495  1
  Sn  Sn15  1  0.439737  0.219870  0.460847  1
  Sn  Sn16  1  0.219904  0.779890  0.537712  1
  Sn  Sn17  1  0.219904  0.440013  0.537712  1
  Sn  Sn18  1  0.560183  0.780090  0.538698  1
  Sn  Sn19  1  0.117629  0.881736  0.273533  1
  Sn  Sn20  1  0.780517  0.560522  0.460762  1
  Sn  Sn21  1  0.780517  0.219997  0.460762  1
  Sn  Sn22  1  0.351396  0.001413  0.001324  1
  Sn  Sn23  1  0.117629  0.235892  0.273533  1
  Sn  Sn24  1  0.764140  0.882069  0.273862  1
  Sn  Sn25  1  0.237123  0.118562  0.722639  1
  Sn  Sn26  1  0.880175  0.762951  0.724759  1
  Sn  Sn27  1  0.880175  0.117225  0.724759  1
  Sn  Sn28  1  0.000078  0.000039  0.500439  1
  Sn  Sn29  1  0.998539  0.349858  0.001243  1
  Ir  Ir30  1  0.170148  0.829057  0.799384  1
  Ir  Ir31  1  0.170148  0.341090  0.799384  1
  Ru  Ru32  1  0.660133  0.830066  0.799249  1
  Ru  Ru33  1  0.338696  0.169348  0.201292  1
  Ru  Ru34  1  0.830147  0.660644  0.200676  1
  Ru  Ru35  1  0.830147  0.169503  0.200676  1
