# generated using pymatgen
data_Tm11ScTc4
_symmetry_space_group_name_H-M   'P 1'
_cell_length_a   7.33486769
_cell_length_b   8.97571300
_cell_length_c   6.13467707
_cell_angle_alpha   90.00000000
_cell_angle_beta   89.28540719
_cell_angle_gamma   90.00000000
_symmetry_Int_Tables_number   1
_chemical_formula_structural   Tm11ScTc4
_chemical_formula_sum   'Tm11 Sc1 Tc4'
_cell_volume   403.84914656
_cell_formula_units_Z   1
loop_
 _symmetry_equiv_pos_site_id
 _symmetry_equiv_pos_as_xyz
  1  'x, y, z'
loop_
 _atom_site_type_symbol
 _atom_site_label
 _atom_site_symmetry_multiplicity
 _atom_site_fract_x
 _atom_site_fract_y
 _atom_site_fract_z
 _atom_site_occupancy
  Tm  Tm0  1  0.679547  0.060754  0.344685  1
  Tm  Tm1  1  0.172274  0.440011  0.158442  1
  Tm  Tm2  1  0.322311  0.563710  0.652837  1
  Tm  Tm3  1  0.826520  0.936395  0.840896  1
  Tm  Tm4  1  0.322311  0.936290  0.652837  1
  Tm  Tm5  1  0.826520  0.563605  0.840896  1
  Tm  Tm6  1  0.679547  0.439246  0.344685  1
  Tm  Tm7  1  0.172274  0.059989  0.158442  1
  Tm  Tm8  1  0.538039  0.250000  0.875502  1
  Tm  Tm9  1  0.040773  0.250000  0.626055  1
  Tm  Tm10  1  0.461401  0.750000  0.125657  1
  Sc  Sc11  1  0.954027  0.750000  0.370750  1
  Tc  Tc12  1  0.882791  0.250000  0.041844  1
  Tc  Tc13  1  0.384778  0.250000  0.455192  1
  Tc  Tc14  1  0.114564  0.750000  0.971579  1
  Tc  Tc15  1  0.622322  0.750000  0.539701  1
