# generated using pymatgen
data_Ba4NiRh5N4
_symmetry_space_group_name_H-M   'P 1'
_cell_length_a   6.51373497
_cell_length_b   6.51373544
_cell_length_c   7.53626736
_cell_angle_alpha   90.86423708
_cell_angle_beta   89.13576241
_cell_angle_gamma   107.80869673
_symmetry_Int_Tables_number   1
_chemical_formula_structural   Ba4NiRh5N4
_chemical_formula_sum   'Ba4 Ni1 Rh5 N4'
_cell_volume   304.37965673
_cell_formula_units_Z   1
loop_
 _symmetry_equiv_pos_site_id
 _symmetry_equiv_pos_as_xyz
  1  'x, y, z'
loop_
 _atom_site_type_symbol
 _atom_site_label
 _atom_site_symmetry_multiplicity
 _atom_site_fract_x
 _atom_site_fract_y
 _atom_site_fract_z
 _atom_site_occupancy
  Ba  Ba0  1  0.668018  0.324805  0.412054  1
  Ba  Ba1  1  0.324805  0.668018  0.587946  1
  Ba  Ba2  1  0.823390  0.170266  0.903880  1
  Ba  Ba3  1  0.170266  0.823390  0.096120  1
  Ni  Ni4  1  0.526900  0.526900  0.000000  1
  Rh  Rh5  1  0.180657  0.322340  0.240292  1
  Rh  Rh6  1  0.322340  0.180657  0.759708  1
  Rh  Rh7  1  0.821806  0.680837  0.754791  1
  Rh  Rh8  1  0.680837  0.821806  0.245209  1
  Rh  Rh9  1  0.018562  0.018562  0.500000  1
  N  N10  1  0.927807  0.073483  0.255448  1
  N  N11  1  0.073483  0.927807  0.744552  1
  N  N12  1  0.566775  0.435356  0.771751  1
  N  N13  1  0.435356  0.566775  0.228249  1
