# generated using pymatgen
data_Tb3Dy5Hf10Zr2Si15Ge
_symmetry_space_group_name_H-M   'P 1'
_cell_length_a   7.29251700
_cell_length_b   7.29211767
_cell_length_c   13.40386000
_cell_angle_alpha   89.99125491
_cell_angle_beta   90.00106852
_cell_angle_gamma   89.97705708
_symmetry_Int_Tables_number   1
_chemical_formula_structural   Tb3Dy5Hf10Zr2Si15Ge
_chemical_formula_sum   'Tb3 Dy5 Hf10 Zr2 Si15 Ge1'
_cell_volume   712.78895497
_cell_formula_units_Z   1
loop_
 _symmetry_equiv_pos_site_id
 _symmetry_equiv_pos_as_xyz
  1  'x, y, z'
loop_
 _atom_site_type_symbol
 _atom_site_label
 _atom_site_symmetry_multiplicity
 _atom_site_fract_x
 _atom_site_fract_y
 _atom_site_fract_z
 _atom_site_occupancy
  Tb  Tb0  1  0.496590  0.155448  0.535625  1
  Tb  Tb1  1  0.343811  0.995877  0.785122  1
  Tb  Tb2  1  0.657004  0.003008  0.284699  1
  Dy  Dy3  1  0.995202  0.344303  0.214411  1
  Dy  Dy4  1  0.003635  0.655896  0.715058  1
  Dy  Dy5  1  0.154587  0.497606  0.465640  1
  Dy  Dy6  1  0.503750  0.843936  0.034937  1
  Dy  Dy7  1  0.844416  0.503774  0.964968  1
  Hf  Hf8  1  0.325103  0.677091  0.249472  1
  Hf  Hf9  1  0.674976  0.325370  0.750027  1
  Hf  Hf10  1  0.147512  0.993645  0.374442  1
  Hf  Hf11  1  0.851349  0.004321  0.874667  1
  Hf  Hf12  1  0.504279  0.649231  0.624332  1
  Hf  Hf13  1  0.350811  0.495845  0.875774  1
  Hf  Hf14  1  0.495826  0.351071  0.123162  1
  Hf  Hf15  1  0.651637  0.506020  0.376155  1
  Hf  Hf16  1  0.995456  0.148792  0.625556  1
  Hf  Hf17  1  0.003992  0.851037  0.125341  1
  Zr  Zr18  1  0.174378  0.174496  0.000012  1
  Zr  Zr19  1  0.825671  0.825430  0.500031  1
  Si  Si20  1  0.637546  0.704764  0.817197  1
  Si  Si21  1  0.205930  0.862532  0.567228  1
  Si  Si22  1  0.136865  0.793491  0.932852  1
  Si  Si23  1  0.793760  0.137249  0.067257  1
  Si  Si24  1  0.863390  0.206498  0.432763  1
  Si  Si25  1  0.294850  0.363370  0.682950  1
  Si  Si26  1  0.704826  0.636837  0.182688  1
  Si  Si27  1  0.295278  0.045870  0.184933  1
  Si  Si28  1  0.704656  0.951195  0.686587  1
  Si  Si29  1  0.449637  0.794424  0.435465  1
  Si  Si30  1  0.204941  0.549934  0.064607  1
  Si  Si31  1  0.550359  0.205112  0.935498  1
  Si  Si32  1  0.795176  0.450157  0.564561  1
  Si  Si33  1  0.048162  0.296135  0.813504  1
  Si  Si34  1  0.951858  0.703574  0.313402  1
  Ge  Ge35  1  0.362780  0.296661  0.319073  1
