# generated using pymatgen
data_LaTb2In3Ag2Ir
_symmetry_space_group_name_H-M   'P 1'
_cell_length_a   7.93143093
_cell_length_b   7.87966226
_cell_length_c   3.98480700
_cell_angle_alpha   90.00000000
_cell_angle_beta   90.00000000
_cell_angle_gamma   119.80203888
_symmetry_Int_Tables_number   1
_chemical_formula_structural   LaTb2In3Ag2Ir
_chemical_formula_sum   'La1 Tb2 In3 Ag2 Ir1'
_cell_volume   216.10257727
_cell_formula_units_Z   1
loop_
 _symmetry_equiv_pos_site_id
 _symmetry_equiv_pos_as_xyz
  1  'x, y, z'
loop_
 _atom_site_type_symbol
 _atom_site_label
 _atom_site_symmetry_multiplicity
 _atom_site_fract_x
 _atom_site_fract_y
 _atom_site_fract_z
 _atom_site_occupancy
  La  La0  1  0.026232  0.423263  0.000000  1
  Tb  Tb1  1  0.577830  0.608609  0.000000  1
  Tb  Tb2  1  0.394882  0.969700  0.000000  1
  In  In3  1  0.995466  0.739946  0.500000  1
  In  In4  1  0.271513  0.259315  0.500000  1
  In  In5  1  0.733953  0.999906  0.500000  1
  Ag  Ag6  1  0.000199  0.998449  0.000000  1
  Ag  Ag7  1  0.661702  0.331608  0.500000  1
  Ir  Ir8  1  0.338222  0.669206  0.500000  1
