# generated using pymatgen
data_Dy17Er3(SnPb7)2
_symmetry_space_group_name_H-M   'P 1'
_cell_length_a   8.18184300
_cell_length_b   8.25442031
_cell_length_c   15.62724800
_cell_angle_alpha   90.00000000
_cell_angle_beta   90.00000000
_cell_angle_gamma   90.01381060
_symmetry_Int_Tables_number   1
_chemical_formula_structural   Dy17Er3(SnPb7)2
_chemical_formula_sum   'Dy17 Er3 Sn2 Pb14'
_cell_volume   1055.40758885
_cell_formula_units_Z   1
loop_
 _symmetry_equiv_pos_site_id
 _symmetry_equiv_pos_as_xyz
  1  'x, y, z'
loop_
 _atom_site_type_symbol
 _atom_site_label
 _atom_site_symmetry_multiplicity
 _atom_site_fract_x
 _atom_site_fract_y
 _atom_site_fract_z
 _atom_site_occupancy
  Dy  Dy0  1  0.378130  0.839307  0.877101  1
  Dy  Dy1  1  0.877746  0.660961  0.622842  1
  Dy  Dy2  1  0.622292  0.158765  0.379553  1
  Dy  Dy3  1  0.122251  0.341205  0.120639  1
  Dy  Dy4  1  0.622292  0.158765  0.120447  1
  Dy  Dy5  1  0.122251  0.341205  0.379361  1
  Dy  Dy6  1  0.378130  0.839307  0.622899  1
  Dy  Dy7  1  0.877746  0.660961  0.877158  1
  Dy  Dy8  1  0.535581  0.326353  0.898729  1
  Dy  Dy9  1  0.035354  0.173343  0.601272  1
  Dy  Dy10  1  0.464527  0.676202  0.400417  1
  Dy  Dy11  1  0.964526  0.823820  0.099367  1
  Dy  Dy12  1  0.464527  0.676202  0.099583  1
  Dy  Dy13  1  0.964526  0.823820  0.400633  1
  Dy  Dy14  1  0.535581  0.326353  0.601271  1
  Dy  Dy15  1  0.035354  0.173343  0.898728  1
  Dy  Dy16  1  0.210715  0.507165  0.750000  1
  Er  Er17  1  0.710887  0.992518  0.750000  1
  Er  Er18  1  0.790735  0.495527  0.250000  1
  Er  Er19  1  0.290794  0.004401  0.250000  1
  Sn  Sn20  1  0.574733  0.624459  0.750000  1
  Sn  Sn21  1  0.073756  0.876257  0.750000  1
  Pb  Pb22  1  0.281712  0.032831  0.042384  1
  Pb  Pb23  1  0.781873  0.467224  0.457587  1
  Pb  Pb24  1  0.717456  0.966598  0.543139  1
  Pb  Pb25  1  0.217744  0.533710  0.957384  1
  Pb  Pb26  1  0.717456  0.966598  0.956861  1
  Pb  Pb27  1  0.217744  0.533710  0.542616  1
  Pb  Pb28  1  0.281712  0.032831  0.457616  1
  Pb  Pb29  1  0.781873  0.467224  0.042413  1
  Pb  Pb30  1  0.427585  0.374773  0.250000  1
  Pb  Pb31  1  0.927549  0.125045  0.250000  1
  Pb  Pb32  1  0.345667  0.152129  0.750000  1
  Pb  Pb33  1  0.845218  0.346880  0.750000  1
  Pb  Pb34  1  0.652082  0.846041  0.250000  1
  Pb  Pb35  1  0.151889  0.654168  0.250000  1
