# generated using pymatgen
data_Gd3InNi3Sn2
_symmetry_space_group_name_H-M   'P 1'
_cell_length_a   7.43635722
_cell_length_b   7.43635604
_cell_length_c   3.85938400
_cell_angle_alpha   90.00000000
_cell_angle_beta   90.00000000
_cell_angle_gamma   120.10624357
_symmetry_Int_Tables_number   1
_chemical_formula_structural   Gd3InNi3Sn2
_chemical_formula_sum   'Gd3 In1 Ni3 Sn2'
_cell_volume   184.63035242
_cell_formula_units_Z   1
loop_
 _symmetry_equiv_pos_site_id
 _symmetry_equiv_pos_as_xyz
  1  'x, y, z'
loop_
 _atom_site_type_symbol
 _atom_site_label
 _atom_site_symmetry_multiplicity
 _atom_site_fract_x
 _atom_site_fract_y
 _atom_site_fract_z
 _atom_site_occupancy
  Gd  Gd0  1  0.410459  0.410459  0.500000  1
  Gd  Gd1  1  0.590657  0.997931  0.500000  1
  Gd  Gd2  1  0.997931  0.590657  0.500000  1
  In  In3  1  0.743244  0.743244  0.000000  1
  Ni  Ni4  1  0.008691  0.008691  0.500000  1
  Ni  Ni5  1  0.666344  0.329423  0.000000  1
  Ni  Ni6  1  0.329423  0.666344  0.000000  1
  Sn  Sn7  1  0.254939  0.998311  0.000000  1
  Sn  Sn8  1  0.998311  0.254939  0.000000  1
