# generated using pymatgen
data_HoBi3(As4O9)2
_symmetry_space_group_name_H-M   'P 1'
_cell_length_a   6.97175567
_cell_length_b   7.61563338
_cell_length_c   10.00971224
_cell_angle_alpha   94.79306041
_cell_angle_beta   104.32836841
_cell_angle_gamma   104.44554955
_symmetry_Int_Tables_number   1
_chemical_formula_structural   HoBi3(As4O9)2
_chemical_formula_sum   'Ho1 Bi3 As8 O18'
_cell_volume   492.63277936
_cell_formula_units_Z   1
loop_
 _symmetry_equiv_pos_site_id
 _symmetry_equiv_pos_as_xyz
  1  'x, y, z'
loop_
 _atom_site_type_symbol
 _atom_site_label
 _atom_site_symmetry_multiplicity
 _atom_site_fract_x
 _atom_site_fract_y
 _atom_site_fract_z
 _atom_site_occupancy
  Ho  Ho0  1  0.279725  0.459945  0.592283  1
  Bi  Bi1  1  0.242732  0.921016  0.620975  1
  Bi  Bi2  1  0.767385  0.082515  0.377203  1
  Bi  Bi3  1  0.708460  0.543054  0.408937  1
  As  As4  1  0.672697  0.770074  0.063820  1
  As  As5  1  0.325282  0.234887  0.930656  1
  As  As6  1  0.177895  0.756325  0.912669  1
  As  As7  1  0.821400  0.242013  0.081185  1
  As  As8  1  0.744348  0.906475  0.707420  1
  As  As9  1  0.252633  0.091167  0.295291  1
  As  As10  1  0.804625  0.345720  0.700758  1
  As  As11  1  0.188319  0.651434  0.301712  1
  O  O12  1  0.728348  0.743225  0.240052  1
  O  O13  1  0.284485  0.275460  0.758297  1
  O  O14  1  0.315090  0.985817  0.878975  1
  O  O15  1  0.679052  0.015898  0.112778  1
  O  O16  1  0.608771  0.325884  0.990831  1
  O  O17  1  0.389469  0.679182  0.013623  1
  O  O18  1  0.144182  0.660306  0.737826  1
  O  O19  1  0.869979  0.332868  0.259802  1
  O  O20  1  0.835953  0.856749  0.559095  1
  O  O21  1  0.170873  0.152894  0.445795  1
  O  O22  1  0.488353  0.762061  0.664171  1
  O  O23  1  0.511089  0.228534  0.329495  1
  O  O24  1  0.367443  0.536195  0.380987  1
  O  O25  1  0.616938  0.450457  0.619550  1
  O  O26  1  0.094354  0.658954  0.456358  1
  O  O27  1  0.916113  0.333930  0.553711  1
  O  O28  1  0.355052  0.897995  0.357589  1
  O  O29  1  0.638960  0.098968  0.648159  1
