# generated using pymatgen
data_Yb4Tc3GeO12
_symmetry_space_group_name_H-M   'P 1'
_cell_length_a   5.33870347
_cell_length_b   5.53373816
_cell_length_c   7.64981399
_cell_angle_alpha   89.76401251
_cell_angle_beta   89.99738229
_cell_angle_gamma   89.90515636
_symmetry_Int_Tables_number   1
_chemical_formula_structural   Yb4Tc3GeO12
_chemical_formula_sum   'Yb4 Tc3 Ge1 O12'
_cell_volume   225.99612963
_cell_formula_units_Z   1
loop_
 _symmetry_equiv_pos_site_id
 _symmetry_equiv_pos_as_xyz
  1  'x, y, z'
loop_
 _atom_site_type_symbol
 _atom_site_label
 _atom_site_symmetry_multiplicity
 _atom_site_fract_x
 _atom_site_fract_y
 _atom_site_fract_z
 _atom_site_occupancy
  Yb  Yb0  1  0.514206  0.561770  0.246478  1
  Yb  Yb1  1  0.984355  0.059246  0.247201  1
  Yb  Yb2  1  0.485794  0.438230  0.753522  1
  Yb  Yb3  1  0.015645  0.940754  0.752799  1
  Tc  Tc4  1  0.000000  0.500000  0.000000  1
  Tc  Tc5  1  0.500000  0.000000  0.500000  1
  Tc  Tc6  1  0.000000  0.500000  0.500000  1
  Ge  Ge7  1  0.500000  0.000000  0.000000  1
  O  O8  1  0.402428  0.971461  0.239982  1
  O  O9  1  0.092719  0.475087  0.249067  1
  O  O10  1  0.597572  0.028539  0.760018  1
  O  O11  1  0.907281  0.524913  0.750933  1
  O  O12  1  0.791959  0.804055  0.050790  1
  O  O13  1  0.693884  0.300983  0.453942  1
  O  O14  1  0.195262  0.198379  0.547398  1
  O  O15  1  0.308427  0.710611  0.949019  1
  O  O16  1  0.208041  0.195945  0.949210  1
  O  O17  1  0.306116  0.699017  0.546058  1
  O  O18  1  0.804738  0.801621  0.452602  1
  O  O19  1  0.691573  0.289389  0.050981  1
