# generated using pymatgen
data_TaTi3(NbN2)6
_symmetry_space_group_name_H-M   'P 1'
_cell_length_a   5.22214800
_cell_length_b   5.22214728
_cell_length_c   10.25510600
_cell_angle_alpha   90.00000000
_cell_angle_beta   90.00000000
_cell_angle_gamma   120.00000456
_symmetry_Int_Tables_number   1
_chemical_formula_structural   TaTi3(NbN2)6
_chemical_formula_sum   'Ta1 Ti3 Nb6 N12'
_cell_volume   242.19716627
_cell_formula_units_Z   1
loop_
 _symmetry_equiv_pos_site_id
 _symmetry_equiv_pos_as_xyz
  1  'x, y, z'
loop_
 _atom_site_type_symbol
 _atom_site_label
 _atom_site_symmetry_multiplicity
 _atom_site_fract_x
 _atom_site_fract_y
 _atom_site_fract_z
 _atom_site_occupancy
  Ta  Ta0  1  0.666667  0.333333  0.500000  1
  Ti  Ti1  1  0.666667  0.333333  0.000000  1
  Ti  Ti2  1  0.333333  0.666667  0.000000  1
  Ti  Ti3  1  0.333333  0.666667  0.500000  1
  Nb  Nb4  1  0.677661  0.678998  0.751628  1
  Nb  Nb5  1  0.321002  0.998664  0.751628  1
  Nb  Nb6  1  0.001336  0.322339  0.751628  1
  Nb  Nb7  1  0.321002  0.322339  0.248372  1
  Nb  Nb8  1  0.677661  0.998664  0.248372  1
  Nb  Nb9  1  0.001336  0.678998  0.248372  1
  N  N10  1  0.654178  0.655744  0.380058  1
  N  N11  1  0.344256  0.998434  0.380058  1
  N  N12  1  0.001566  0.345822  0.380058  1
  N  N13  1  0.344256  0.345822  0.619942  1
  N  N14  1  0.654178  0.998434  0.619942  1
  N  N15  1  0.001566  0.655744  0.619942  1
  N  N16  1  0.347867  0.347726  0.880711  1
  N  N17  1  0.652274  0.000141  0.880711  1
  N  N18  1  0.999859  0.652133  0.880711  1
  N  N19  1  0.652274  0.652133  0.119289  1
  N  N20  1  0.347867  0.000141  0.119289  1
  N  N21  1  0.999859  0.347726  0.119289  1
