# generated using pymatgen
data_Rb2Li3NiO4
_symmetry_space_group_name_H-M   'P 1'
_cell_length_a   7.95457725
_cell_length_b   7.95457771
_cell_length_c   7.95457750
_cell_angle_alpha   143.85821586
_cell_angle_beta   103.78807151
_cell_angle_gamma   87.36970225
_symmetry_Int_Tables_number   1
_chemical_formula_structural   Rb2Li3NiO4
_chemical_formula_sum   'Rb4 Li6 Ni2 O8'
_cell_volume   278.70217816
_cell_formula_units_Z   2
loop_
 _symmetry_equiv_pos_site_id
 _symmetry_equiv_pos_as_xyz
  1  'x, y, z'
loop_
 _atom_site_type_symbol
 _atom_site_label
 _atom_site_symmetry_multiplicity
 _atom_site_fract_x
 _atom_site_fract_y
 _atom_site_fract_z
 _atom_site_occupancy
  Rb  Rb0  1  0.127767  0.237816  0.365583  1
  Rb  Rb1  1  0.872233  0.762184  0.634417  1
  Rb  Rb2  1  0.627767  0.262184  0.889951  1
  Rb  Rb3  1  0.372233  0.737816  0.110049  1
  Li  Li4  1  0.492152  0.250000  0.242152  1
  Li  Li5  1  0.507848  0.750000  0.757848  1
  Li  Li6  1  0.007848  0.250000  0.757848  1
  Li  Li7  1  0.992152  0.750000  0.242152  1
  Li  Li8  1  0.250000  0.250000  0.000000  1
  Li  Li9  1  0.750000  0.750000  0.000000  1
  Ni  Ni10  1  0.250000  0.750000  0.500000  1
  Ni  Ni11  1  0.750000  0.250000  0.500000  1
  O  O12  1  0.448925  0.595516  0.384649  1
  O  O13  1  0.551075  0.404484  0.615351  1
  O  O14  1  0.210867  0.064277  0.615351  1
  O  O15  1  0.289133  0.904484  0.853410  1
  O  O16  1  0.789133  0.935723  0.384649  1
  O  O17  1  0.710867  0.095516  0.146590  1
  O  O18  1  0.051075  0.435723  0.146590  1
  O  O19  1  0.948925  0.564277  0.853410  1
