# generated using pymatgen
data_Zr6Sc5Al11Rh7
_symmetry_space_group_name_H-M   'P 1'
_cell_length_a   8.96244917
_cell_length_b   8.96244873
_cell_length_c   8.96882313
_cell_angle_alpha   60.02351008
_cell_angle_beta   60.02350837
_cell_angle_gamma   60.00000338
_symmetry_Int_Tables_number   1
_chemical_formula_structural   Zr6Sc5Al11Rh7
_chemical_formula_sum   'Zr6 Sc5 Al11 Rh7'
_cell_volume   509.59844539
_cell_formula_units_Z   1
loop_
 _symmetry_equiv_pos_site_id
 _symmetry_equiv_pos_as_xyz
  1  'x, y, z'
loop_
 _atom_site_type_symbol
 _atom_site_label
 _atom_site_symmetry_multiplicity
 _atom_site_fract_x
 _atom_site_fract_y
 _atom_site_fract_z
 _atom_site_occupancy
  Zr  Zr0  1  0.683767  0.683767  0.318543  1
  Zr  Zr1  1  0.313923  0.683767  0.318543  1
  Zr  Zr2  1  0.683767  0.313923  0.318543  1
  Zr  Zr3  1  0.320555  0.320555  0.684128  1
  Zr  Zr4  1  0.674761  0.320555  0.684128  1
  Zr  Zr5  1  0.320555  0.674761  0.684128  1
  Sc  Sc6  1  0.880702  0.880702  0.357893  1
  Sc  Sc7  1  0.875963  0.361357  0.886717  1
  Sc  Sc8  1  0.361357  0.875963  0.886717  1
  Sc  Sc9  1  0.875963  0.875963  0.886717  1
  Sc  Sc10  1  0.122360  0.122360  0.632922  1
  Al  Al11  1  0.123254  0.634836  0.118657  1
  Al  Al12  1  0.634836  0.123254  0.118657  1
  Al  Al13  1  0.123254  0.123254  0.118657  1
  Al  Al14  1  0.661495  0.661495  0.015513  1
  Al  Al15  1  0.662308  0.011839  0.663543  1
  Al  Al16  1  0.011839  0.662308  0.663543  1
  Al  Al17  1  0.662308  0.662308  0.663543  1
  Al  Al18  1  0.334512  0.334512  0.996464  1
  Al  Al19  1  0.340297  0.989649  0.329757  1
  Al  Al20  1  0.989649  0.340297  0.329757  1
  Al  Al21  1  0.340297  0.340297  0.329757  1
  Rh  Rh22  1  0.999192  0.999192  0.002423  1
  Rh  Rh23  1  0.001027  0.001027  0.496951  1
  Rh  Rh24  1  0.500996  0.001027  0.496951  1
  Rh  Rh25  1  0.001027  0.500996  0.496951  1
  Rh  Rh26  1  0.499351  0.499351  0.999966  1
  Rh  Rh27  1  0.001333  0.499351  0.999966  1
  Rh  Rh28  1  0.499351  0.001333  0.999966  1
