# generated using pymatgen
data_KRbWS4
_symmetry_space_group_name_H-M   'P 1'
_cell_length_a   7.18070900
_cell_length_b   9.60658300
_cell_length_c   12.68341000
_cell_angle_alpha   90.00000000
_cell_angle_beta   90.00000000
_cell_angle_gamma   90.00000000
_symmetry_Int_Tables_number   1
_chemical_formula_structural   KRbWS4
_chemical_formula_sum   'K4 Rb4 W4 S16'
_cell_volume   874.92796534
_cell_formula_units_Z   4
loop_
 _symmetry_equiv_pos_site_id
 _symmetry_equiv_pos_as_xyz
  1  'x, y, z'
loop_
 _atom_site_type_symbol
 _atom_site_label
 _atom_site_symmetry_multiplicity
 _atom_site_fract_x
 _atom_site_fract_y
 _atom_site_fract_z
 _atom_site_occupancy
  K  K0  1  0.750000  0.019900  0.826374  1
  K  K1  1  0.250000  0.480100  0.326374  1
  K  K2  1  0.750000  0.519900  0.673626  1
  K  K3  1  0.250000  0.980100  0.173626  1
  Rb  Rb4  1  0.750000  0.361480  0.089254  1
  Rb  Rb5  1  0.250000  0.138520  0.589254  1
  Rb  Rb6  1  0.750000  0.861480  0.410746  1
  Rb  Rb7  1  0.250000  0.638520  0.910746  1
  W  W8  1  0.750000  0.269987  0.421170  1
  W  W9  1  0.250000  0.230013  0.921170  1
  W  W10  1  0.750000  0.769987  0.078830  1
  W  W11  1  0.250000  0.730013  0.578830  1
  S  S12  1  0.750000  0.196053  0.586614  1
  S  S13  1  0.250000  0.303947  0.086614  1
  S  S14  1  0.750000  0.696053  0.913386  1
  S  S15  1  0.250000  0.803947  0.413386  1
  S  S16  1  0.750000  0.999223  0.087485  1
  S  S17  1  0.250000  0.500777  0.587485  1
  S  S18  1  0.750000  0.499223  0.412515  1
  S  S19  1  0.250000  0.000777  0.912515  1
  S  S20  1  0.998659  0.187030  0.340606  1
  S  S21  1  0.001341  0.312970  0.840606  1
  S  S22  1  0.501341  0.687030  0.159394  1
  S  S23  1  0.498659  0.812970  0.659394  1
  S  S24  1  0.001341  0.812970  0.659394  1
  S  S25  1  0.998659  0.687030  0.159394  1
  S  S26  1  0.498659  0.312970  0.840606  1
  S  S27  1  0.501341  0.187030  0.340606  1
