# generated using pymatgen
data_Tb2Er6Ga12Ir3Au
_symmetry_space_group_name_H-M   'P 1'
_cell_length_a   7.06478500
_cell_length_b   8.85351347
_cell_length_c   8.85351400
_cell_angle_alpha   119.99999451
_cell_angle_beta   90.00000000
_cell_angle_gamma   90.00000000
_symmetry_Int_Tables_number   1
_chemical_formula_structural   Tb2Er6Ga12Ir3Au
_chemical_formula_sum   'Tb2 Er6 Ga12 Ir3 Au1'
_cell_volume   479.57985939
_cell_formula_units_Z   1
loop_
 _symmetry_equiv_pos_site_id
 _symmetry_equiv_pos_as_xyz
  1  'x, y, z'
loop_
 _atom_site_type_symbol
 _atom_site_label
 _atom_site_symmetry_multiplicity
 _atom_site_fract_x
 _atom_site_fract_y
 _atom_site_fract_z
 _atom_site_occupancy
  Tb  Tb0  1  0.757465  0.000000  0.000000  1
  Tb  Tb1  1  0.251169  0.000000  0.000000  1
  Er  Er2  1  0.748201  0.471226  0.528774  1
  Er  Er3  1  0.244170  0.518410  0.481590  1
  Er  Er4  1  0.748201  0.057548  0.528774  1
  Er  Er5  1  0.244170  0.963179  0.481590  1
  Er  Er6  1  0.748201  0.471226  0.942452  1
  Er  Er7  1  0.244170  0.518410  0.036821  1
  Ga  Ga8  1  0.948380  0.829138  0.170862  1
  Ga  Ga9  1  0.046794  0.169037  0.830963  1
  Ga  Ga10  1  0.948380  0.341726  0.170862  1
  Ga  Ga11  1  0.452274  0.168826  0.831174  1
  Ga  Ga12  1  0.046794  0.661924  0.830963  1
  Ga  Ga13  1  0.548160  0.835866  0.164134  1
  Ga  Ga14  1  0.948380  0.829138  0.658274  1
  Ga  Ga15  1  0.452274  0.662347  0.831174  1
  Ga  Ga16  1  0.046794  0.169037  0.338076  1
  Ga  Ga17  1  0.548160  0.328268  0.164134  1
  Ga  Ga18  1  0.452274  0.168826  0.337653  1
  Ga  Ga19  1  0.548160  0.835866  0.671732  1
  Ir  Ir20  1  0.981588  0.666667  0.333333  1
  Ir  Ir21  1  0.032210  0.333333  0.666667  1
  Ir  Ir22  1  0.467568  0.333333  0.666667  1
  Au  Au23  1  0.546059  0.666667  0.333333  1
