# generated using pymatgen
data_PrInCuPt3
_symmetry_space_group_name_H-M   'P 1'
_cell_length_a   5.52891488
_cell_length_b   5.52891451
_cell_length_c   5.29054298
_cell_angle_alpha   58.49802787
_cell_angle_beta   58.49802659
_cell_angle_gamma   60.00000475
_symmetry_Int_Tables_number   1
_chemical_formula_structural   PrInCuPt3
_chemical_formula_sum   'Pr1 In1 Cu1 Pt3'
_cell_volume   111.69226578
_cell_formula_units_Z   1
loop_
 _symmetry_equiv_pos_site_id
 _symmetry_equiv_pos_as_xyz
  1  'x, y, z'
loop_
 _atom_site_type_symbol
 _atom_site_label
 _atom_site_symmetry_multiplicity
 _atom_site_fract_x
 _atom_site_fract_y
 _atom_site_fract_z
 _atom_site_occupancy
  Pr  Pr0  1  0.002259  0.002259  0.993222  1
  In  In1  1  0.253810  0.253810  0.238570  1
  Cu  Cu2  1  0.623529  0.623529  0.129412  1
  Pt  Pt3  1  0.622572  0.125256  0.629598  1
  Pt  Pt4  1  0.125256  0.622572  0.629598  1
  Pt  Pt5  1  0.622572  0.622572  0.629598  1
