# generated using pymatgen
data_CsTa2Cl6
_symmetry_space_group_name_H-M   'P 1'
_cell_length_a   10.98644237
_cell_length_b   10.99259855
_cell_length_c   10.99236311
_cell_angle_alpha   54.84584311
_cell_angle_beta   54.87484076
_cell_angle_gamma   54.83202757
_symmetry_Int_Tables_number   1
_chemical_formula_structural   CsTa2Cl6
_chemical_formula_sum   'Cs3 Ta6 Cl18'
_cell_volume   826.18434972
_cell_formula_units_Z   3
loop_
 _symmetry_equiv_pos_site_id
 _symmetry_equiv_pos_as_xyz
  1  'x, y, z'
loop_
 _atom_site_type_symbol
 _atom_site_label
 _atom_site_symmetry_multiplicity
 _atom_site_fract_x
 _atom_site_fract_y
 _atom_site_fract_z
 _atom_site_occupancy
  Cs  Cs0  1  0.276862  0.276869  0.276727  1
  Cs  Cs1  1  0.723138  0.723131  0.723273  1
  Cs  Cs2  1  0.000000  0.000000  0.000000  1
  Ta  Ta3  1  0.443649  0.295344  0.631693  1
  Ta  Ta4  1  0.368349  0.556356  0.704606  1
  Ta  Ta5  1  0.704859  0.368176  0.556364  1
  Ta  Ta6  1  0.631651  0.443644  0.295394  1
  Ta  Ta7  1  0.556351  0.704656  0.368307  1
  Ta  Ta8  1  0.295141  0.631824  0.443636  1
  Cl  Cl9  1  0.673094  0.107419  0.720036  1
  Cl  Cl10  1  0.719949  0.672824  0.107711  1
  Cl  Cl11  1  0.107391  0.720184  0.672789  1
  Cl  Cl12  1  0.791514  0.373755  0.045071  1
  Cl  Cl13  1  0.194371  0.414509  0.587716  1
  Cl  Cl14  1  0.626225  0.955061  0.208397  1
  Cl  Cl15  1  0.892609  0.279816  0.327211  1
  Cl  Cl16  1  0.585892  0.412135  0.805345  1
  Cl  Cl17  1  0.412307  0.805401  0.585539  1
  Cl  Cl18  1  0.955559  0.208074  0.626228  1
  Cl  Cl19  1  0.208486  0.626245  0.954929  1
  Cl  Cl20  1  0.044441  0.791926  0.373772  1
  Cl  Cl21  1  0.373775  0.044939  0.791603  1
  Cl  Cl22  1  0.280051  0.327176  0.892289  1
  Cl  Cl23  1  0.587693  0.194599  0.414461  1
  Cl  Cl24  1  0.414108  0.587865  0.194655  1
  Cl  Cl25  1  0.326906  0.892581  0.279964  1
  Cl  Cl26  1  0.805629  0.585491  0.412284  1
