# generated using pymatgen
data_Ce2CdSi2
_symmetry_space_group_name_H-M   'P 1'
_cell_length_a   7.33845701
_cell_length_b   7.33845701
_cell_length_c   4.29134700
_cell_angle_alpha   90.00000000
_cell_angle_beta   90.00000000
_cell_angle_gamma   90.00521548
_symmetry_Int_Tables_number   1
_chemical_formula_structural   Ce2CdSi2
_chemical_formula_sum   'Ce4 Cd2 Si4'
_cell_volume   231.10169984
_cell_formula_units_Z   2
loop_
 _symmetry_equiv_pos_site_id
 _symmetry_equiv_pos_as_xyz
  1  'x, y, z'
loop_
 _atom_site_type_symbol
 _atom_site_label
 _atom_site_symmetry_multiplicity
 _atom_site_fract_x
 _atom_site_fract_y
 _atom_site_fract_z
 _atom_site_occupancy
  Ce  Ce0  1  0.320840  0.179159  0.500001  1
  Ce  Ce1  1  0.820880  0.320880  0.500001  1
  Ce  Ce2  1  0.179119  0.679119  0.500001  1
  Ce  Ce3  1  0.679159  0.820840  0.500001  1
  Cd  Cd4  1  0.000000  0.000000  0.000000  1
  Cd  Cd5  1  0.500000  0.500000  0.000000  1
  Si  Si6  1  0.614483  0.114483  0.000000  1
  Si  Si7  1  0.114472  0.385528  0.000000  1
  Si  Si8  1  0.885528  0.614472  0.000000  1
  Si  Si9  1  0.385517  0.885517  0.000000  1
