# generated using pymatgen
data_Th3Sb4PdPt2
_symmetry_space_group_name_H-M   'P 1'
_cell_length_a   8.61364086
_cell_length_b   8.61538379
_cell_length_c   8.61491161
_cell_angle_alpha   109.52941056
_cell_angle_beta   109.35563981
_cell_angle_gamma   109.52344266
_symmetry_Int_Tables_number   1
_chemical_formula_structural   Th3Sb4PdPt2
_chemical_formula_sum   'Th6 Sb8 Pd2 Pt4'
_cell_volume   492.17217805
_cell_formula_units_Z   2
loop_
 _symmetry_equiv_pos_site_id
 _symmetry_equiv_pos_as_xyz
  1  'x, y, z'
loop_
 _atom_site_type_symbol
 _atom_site_label
 _atom_site_symmetry_multiplicity
 _atom_site_fract_x
 _atom_site_fract_y
 _atom_site_fract_z
 _atom_site_occupancy
  Th  Th0  1  0.374103  0.248299  0.624244  1
  Th  Th1  1  0.750759  0.875613  0.126355  1
  Th  Th2  1  0.249250  0.624415  0.373609  1
  Th  Th3  1  0.624835  0.375585  0.249194  1
  Th  Th4  1  0.875146  0.124387  0.750742  1
  Th  Th5  1  0.125804  0.751701  0.875945  1
  Sb  Sb6  1  0.002315  0.330525  0.501996  1
  Sb  Sb7  1  0.827157  0.498126  0.998114  1
  Sb  Sb8  1  0.497745  0.998230  0.827097  1
  Sb  Sb9  1  0.671790  0.669475  0.671470  1
  Sb  Sb10  1  0.172451  0.172237  0.172411  1
  Sb  Sb11  1  0.329031  0.501874  0.999988  1
  Sb  Sb12  1  0.499514  0.001770  0.328867  1
  Sb  Sb13  1  0.000214  0.827763  0.500174  1
  Pd  Pd14  1  0.750160  0.374496  0.624960  1
  Pd  Pd15  1  0.375664  0.625504  0.750465  1
  Pt  Pt16  1  0.124209  0.874838  0.249877  1
  Pt  Pt17  1  0.625614  0.750749  0.375101  1
  Pt  Pt18  1  0.874866  0.249251  0.124352  1
  Pt  Pt19  1  0.249371  0.125162  0.875039  1
