# generated using pymatgen
data_Nb12VGa8Ni3C4
_symmetry_space_group_name_H-M   'P 1'
_cell_length_a   8.29151770
_cell_length_b   8.29151137
_cell_length_c   8.29149242
_cell_angle_alpha   59.81771103
_cell_angle_beta   59.81782806
_cell_angle_gamma   59.81774710
_symmetry_Int_Tables_number   1
_chemical_formula_structural   Nb12VGa8Ni3C4
_chemical_formula_sum   'Nb12 V1 Ga8 Ni3 C4'
_cell_volume   401.40729204
_cell_formula_units_Z   1
loop_
 _symmetry_equiv_pos_site_id
 _symmetry_equiv_pos_as_xyz
  1  'x, y, z'
loop_
 _atom_site_type_symbol
 _atom_site_label
 _atom_site_symmetry_multiplicity
 _atom_site_fract_x
 _atom_site_fract_y
 _atom_site_fract_z
 _atom_site_occupancy
  Nb  Nb0  1  0.807353  0.807352  0.201392  1
  Nb  Nb1  1  0.186985  0.186995  0.812055  1
  Nb  Nb2  1  0.807353  0.201392  0.807351  1
  Nb  Nb3  1  0.186983  0.812057  0.186994  1
  Nb  Nb4  1  0.201391  0.807350  0.807351  1
  Nb  Nb5  1  0.812060  0.186985  0.186987  1
  Nb  Nb6  1  0.442647  0.442648  0.048608  1
  Nb  Nb7  1  0.063015  0.063005  0.437945  1
  Nb  Nb8  1  0.442647  0.048608  0.442649  1
  Nb  Nb9  1  0.063017  0.437943  0.063006  1
  Nb  Nb10  1  0.048609  0.442650  0.442649  1
  Nb  Nb11  1  0.437940  0.063015  0.063013  1
  V  V12  1  0.625000  0.625000  0.625000  1
  Ga  Ga13  1  0.750989  0.412316  0.412316  1
  Ga  Ga14  1  0.412326  0.750994  0.412309  1
  Ga  Ga15  1  0.412328  0.412310  0.750989  1
  Ga  Ga16  1  0.413694  0.413678  0.413677  1
  Ga  Ga17  1  0.499011  0.837684  0.837684  1
  Ga  Ga18  1  0.837674  0.499006  0.837691  1
  Ga  Ga19  1  0.837672  0.837690  0.499011  1
  Ga  Ga20  1  0.836306  0.836322  0.836323  1
  Ni  Ni21  1  0.125000  0.625000  0.625000  1
  Ni  Ni22  1  0.625000  0.125000  0.625000  1
  Ni  Ni23  1  0.625000  0.625000  0.125000  1
  C  C24  1  0.625000  0.125000  0.125000  1
  C  C25  1  0.125000  0.625000  0.125000  1
  C  C26  1  0.125000  0.125000  0.625000  1
  C  C27  1  0.125000  0.125000  0.125000  1
