# generated using pymatgen
data_Ca6InHg12Pb5
_symmetry_space_group_name_H-M   'P 1'
_cell_length_a   5.25746461
_cell_length_b   7.71814800
_cell_length_c   15.96060198
_cell_angle_alpha   90.00000000
_cell_angle_beta   90.07334767
_cell_angle_gamma   90.00000000
_symmetry_Int_Tables_number   1
_chemical_formula_structural   Ca6InHg12Pb5
_chemical_formula_sum   'Ca6 In1 Hg12 Pb5'
_cell_volume   647.64701986
_cell_formula_units_Z   1
loop_
 _symmetry_equiv_pos_site_id
 _symmetry_equiv_pos_as_xyz
  1  'x, y, z'
loop_
 _atom_site_type_symbol
 _atom_site_label
 _atom_site_symmetry_multiplicity
 _atom_site_fract_x
 _atom_site_fract_y
 _atom_site_fract_z
 _atom_site_occupancy
  Ca  Ca0  1  0.999998  0.000000  0.998480  1
  Ca  Ca1  1  0.499885  0.500000  0.165858  1
  Ca  Ca2  1  0.999833  0.000000  0.333348  1
  Ca  Ca3  1  0.499985  0.500000  0.500780  1
  Ca  Ca4  1  0.000176  0.000000  0.668182  1
  Ca  Ca5  1  0.500112  0.500000  0.833367  1
  In  In6  1  0.499953  0.000000  0.833292  1
  Hg  Hg7  1  0.500048  0.247506  0.997205  1
  Hg  Hg8  1  0.500048  0.752494  0.997205  1
  Hg  Hg9  1  0.999902  0.248900  0.167092  1
  Hg  Hg10  1  0.999902  0.751100  0.167092  1
  Hg  Hg11  1  0.499897  0.249576  0.333333  1
  Hg  Hg12  1  0.499897  0.750423  0.333333  1
  Hg  Hg13  1  0.000043  0.248927  0.499579  1
  Hg  Hg14  1  0.000043  0.751074  0.499579  1
  Hg  Hg15  1  0.500063  0.247568  0.669473  1
  Hg  Hg16  1  0.500063  0.752431  0.669473  1
  Hg  Hg17  1  0.000062  0.244434  0.833332  1
  Hg  Hg18  1  0.000062  0.755566  0.833332  1
  Pb  Pb19  1  0.999942  0.500000  0.999077  1
  Pb  Pb20  1  0.500047  0.000000  0.166326  1
  Pb  Pb21  1  0.999960  0.500000  0.333329  1
  Pb  Pb22  1  0.499971  0.000000  0.500325  1
  Pb  Pb23  1  0.000108  0.500000  0.667608  1
