# generated using pymatgen
data_Tm3Sc2In3
_symmetry_space_group_name_H-M   'P 1'
_cell_length_a   6.16983100
_cell_length_b   8.87526511
_cell_length_c   8.85682791
_cell_angle_alpha   120.06888335
_cell_angle_beta   90.00000000
_cell_angle_gamma   90.00000000
_symmetry_Int_Tables_number   1
_chemical_formula_structural   Tm3Sc2In3
_chemical_formula_sum   'Tm6 Sc4 In6'
_cell_volume   419.72184364
_cell_formula_units_Z   2
loop_
 _symmetry_equiv_pos_site_id
 _symmetry_equiv_pos_as_xyz
  1  'x, y, z'
loop_
 _atom_site_type_symbol
 _atom_site_label
 _atom_site_symmetry_multiplicity
 _atom_site_fract_x
 _atom_site_fract_y
 _atom_site_fract_z
 _atom_site_occupancy
  Tm  Tm0  1  0.750009  0.234089  0.000000  1
  Tm  Tm1  1  0.749979  0.766313  0.766707  1
  Tm  Tm2  1  0.749979  0.999606  0.233293  1
  Tm  Tm3  1  0.250009  0.765911  0.000000  1
  Tm  Tm4  1  0.249979  0.233687  0.233293  1
  Tm  Tm5  1  0.249979  0.000394  0.766707  1
  Sc  Sc6  1  0.500000  0.333090  0.666162  1
  Sc  Sc7  1  0.500000  0.666927  0.333838  1
  Sc  Sc8  1  0.000000  0.666910  0.333838  1
  Sc  Sc9  1  0.000000  0.333073  0.666162  1
  In  In10  1  0.750000  0.593560  0.000000  1
  In  In11  1  0.750016  0.406254  0.406544  1
  In  In12  1  0.750016  0.999711  0.593456  1
  In  In13  1  0.250000  0.406440  0.000000  1
  In  In14  1  0.250016  0.593746  0.593456  1
  In  In15  1  0.250016  0.000289  0.406544  1
