# generated using pymatgen
data_Nd3Cd2Pb3
_symmetry_space_group_name_H-M   'P 1'
_cell_length_a   6.72706411
_cell_length_b   6.72706378
_cell_length_c   10.58277000
_cell_angle_alpha   90.00000000
_cell_angle_beta   90.00000000
_cell_angle_gamma   103.44046939
_symmetry_Int_Tables_number   1
_chemical_formula_structural   Nd3Cd2Pb3
_chemical_formula_sum   'Nd6 Cd4 Pb6'
_cell_volume   465.78990135
_cell_formula_units_Z   2
loop_
 _symmetry_equiv_pos_site_id
 _symmetry_equiv_pos_as_xyz
  1  'x, y, z'
loop_
 _atom_site_type_symbol
 _atom_site_label
 _atom_site_symmetry_multiplicity
 _atom_site_fract_x
 _atom_site_fract_y
 _atom_site_fract_z
 _atom_site_occupancy
  Nd  Nd0  1  0.624105  0.624105  0.250000  1
  Nd  Nd1  1  0.375895  0.375895  0.750000  1
  Nd  Nd2  1  0.204054  0.795946  0.500000  1
  Nd  Nd3  1  0.204054  0.795946  0.000000  1
  Nd  Nd4  1  0.795946  0.204054  0.500000  1
  Nd  Nd5  1  0.795946  0.204054  0.000000  1
  Cd  Cd6  1  0.316294  0.316294  0.043662  1
  Cd  Cd7  1  0.683706  0.683706  0.956338  1
  Cd  Cd8  1  0.316294  0.316294  0.456338  1
  Cd  Cd9  1  0.683706  0.683706  0.543662  1
  Pb  Pb10  1  0.013647  0.013646  0.250000  1
  Pb  Pb11  1  0.986354  0.986353  0.750000  1
  Pb  Pb12  1  0.500293  0.068875  0.250000  1
  Pb  Pb13  1  0.931125  0.499707  0.750000  1
  Pb  Pb14  1  0.499707  0.931125  0.750000  1
  Pb  Pb15  1  0.068875  0.500293  0.250000  1
