# generated using pymatgen
data_Tb3Dy4(ErIn4)5
_symmetry_space_group_name_H-M   'P 1'
_cell_length_a   6.49920479
_cell_length_b   10.42261764
_cell_length_c   12.26930100
_cell_angle_alpha   90.05376865
_cell_angle_beta   89.95749014
_cell_angle_gamma   90.00586148
_symmetry_Int_Tables_number   1
_chemical_formula_structural   Tb3Dy4(ErIn4)5
_chemical_formula_sum   'Tb3 Dy4 Er5 In20'
_cell_volume   831.10622577
_cell_formula_units_Z   1
loop_
 _symmetry_equiv_pos_site_id
 _symmetry_equiv_pos_as_xyz
  1  'x, y, z'
loop_
 _atom_site_type_symbol
 _atom_site_label
 _atom_site_symmetry_multiplicity
 _atom_site_fract_x
 _atom_site_fract_y
 _atom_site_fract_z
 _atom_site_occupancy
  Tb  Tb0  1  0.390441  0.993109  0.357901  1
  Tb  Tb1  1  0.890184  0.007086  0.142045  1
  Tb  Tb2  1  0.609736  0.493043  0.641871  1
  Dy  Dy3  1  0.609607  0.006846  0.642022  1
  Dy  Dy4  1  0.109619  0.992865  0.858107  1
  Dy  Dy5  1  0.390464  0.507085  0.358043  1
  Dy  Dy6  1  0.109457  0.507033  0.858757  1
  Er  Er7  1  0.349578  0.750419  0.055468  1
  Er  Er8  1  0.149546  0.749875  0.555365  1
  Er  Er9  1  0.649943  0.250319  0.944637  1
  Er  Er10  1  0.850123  0.249597  0.444483  1
  Er  Er11  1  0.890923  0.492787  0.141335  1
  In  In12  1  0.615472  0.750044  0.504790  1
  In  In13  1  0.883963  0.748917  0.006042  1
  In  In14  1  0.384577  0.250325  0.494982  1
  In  In15  1  0.115242  0.250172  0.994636  1
  In  In16  1  0.651695  0.748991  0.244362  1
  In  In17  1  0.849041  0.749993  0.745065  1
  In  In18  1  0.348610  0.250035  0.755427  1
  In  In19  1  0.151191  0.250781  0.254996  1
  In  In20  1  0.124931  0.749671  0.283436  1
  In  In21  1  0.374664  0.749722  0.783383  1
  In  In22  1  0.875131  0.249743  0.716683  1
  In  In23  1  0.626011  0.251326  0.216302  1
  In  In24  1  0.875446  0.543046  0.400109  1
  In  In25  1  0.625184  0.956338  0.900931  1
  In  In26  1  0.124715  0.043664  0.599112  1
  In  In27  1  0.374797  0.456879  0.099209  1
  In  In28  1  0.124306  0.456546  0.599199  1
  In  In29  1  0.375284  0.043953  0.098813  1
  In  In30  1  0.875451  0.956238  0.401242  1
  In  In31  1  0.624667  0.543549  0.901252  1
