# generated using pymatgen
data_Tb11Er9(CoSb2)4
_symmetry_space_group_name_H-M   'P 1'
_cell_length_a   7.87104290
_cell_length_b   8.78354900
_cell_length_c   12.22373339
_cell_angle_alpha   90.00000000
_cell_angle_beta   89.94526519
_cell_angle_gamma   90.00000000
_symmetry_Int_Tables_number   1
_chemical_formula_structural   Tb11Er9(CoSb2)4
_chemical_formula_sum   'Tb11 Er9 Co4 Sb8'
_cell_volume   845.09586890
_cell_formula_units_Z   1
loop_
 _symmetry_equiv_pos_site_id
 _symmetry_equiv_pos_as_xyz
  1  'x, y, z'
loop_
 _atom_site_type_symbol
 _atom_site_label
 _atom_site_symmetry_multiplicity
 _atom_site_fract_x
 _atom_site_fract_y
 _atom_site_fract_z
 _atom_site_occupancy
  Tb  Tb0  1  0.653578  0.250000  0.296612  1
  Tb  Tb1  1  0.846863  0.250000  0.797112  1
  Tb  Tb2  1  0.346580  0.750000  0.703155  1
  Tb  Tb3  1  0.452675  0.750000  0.998055  1
  Tb  Tb4  1  0.953724  0.250000  0.501907  1
  Tb  Tb5  1  0.546287  0.250000  0.002511  1
  Tb  Tb6  1  0.046787  0.750000  0.497436  1
  Tb  Tb7  1  0.621400  0.750000  0.307077  1
  Tb  Tb8  1  0.121822  0.250000  0.192724  1
  Tb  Tb9  1  0.377988  0.250000  0.692981  1
  Tb  Tb10  1  0.877720  0.750000  0.806887  1
  Er  Er11  1  0.153273  0.750000  0.202482  1
  Er  Er12  1  0.823398  0.963538  0.065260  1
  Er  Er13  1  0.323022  0.035700  0.435011  1
  Er  Er14  1  0.176882  0.464511  0.935425  1
  Er  Er15  1  0.676955  0.535510  0.564889  1
  Er  Er16  1  0.176882  0.035489  0.935425  1
  Er  Er17  1  0.676955  0.964490  0.564889  1
  Er  Er18  1  0.823398  0.536462  0.065260  1
  Er  Er19  1  0.323022  0.464300  0.435011  1
  Co  Co20  1  0.435423  0.750000  0.491078  1
  Co  Co21  1  0.935041  0.250000  0.009170  1
  Co  Co22  1  0.565196  0.250000  0.508885  1
  Co  Co23  1  0.065194  0.750000  0.991462  1
  Sb  Sb24  1  0.929944  0.991149  0.326277  1
  Sb  Sb25  1  0.427657  0.007240  0.173386  1
  Sb  Sb26  1  0.071149  0.492071  0.672945  1
  Sb  Sb27  1  0.571218  0.507951  0.827040  1
  Sb  Sb28  1  0.071149  0.007929  0.672945  1
  Sb  Sb29  1  0.571218  0.992049  0.827040  1
  Sb  Sb30  1  0.929944  0.508851  0.326277  1
  Sb  Sb31  1  0.427657  0.492760  0.173386  1
