# generated using pymatgen
data_La3Zn4PtAu3
_symmetry_space_group_name_H-M   'P 1'
_cell_length_a   8.67925485
_cell_length_b   8.67925496
_cell_length_c   8.67925519
_cell_angle_alpha   151.90310252
_cell_angle_beta   127.37585320
_cell_angle_gamma   60.71242908
_symmetry_Int_Tables_number   1
_chemical_formula_structural   La3Zn4PtAu3
_chemical_formula_sum   'La3 Zn4 Pt1 Au3'
_cell_volume   242.81299651
_cell_formula_units_Z   1
loop_
 _symmetry_equiv_pos_site_id
 _symmetry_equiv_pos_as_xyz
  1  'x, y, z'
loop_
 _atom_site_type_symbol
 _atom_site_label
 _atom_site_symmetry_multiplicity
 _atom_site_fract_x
 _atom_site_fract_y
 _atom_site_fract_z
 _atom_site_occupancy
  La  La0  1  0.479673  0.000000  0.479673  1
  La  La1  1  0.879731  0.873775  0.005956  1
  La  La2  1  0.132181  0.126225  0.005956  1
  Zn  Zn3  1  0.479721  0.669600  0.810121  1
  Zn  Zn4  1  0.865320  0.672191  0.193130  1
  Zn  Zn5  1  0.140520  0.330400  0.810121  1
  Zn  Zn6  1  0.520939  0.327809  0.193130  1
  Pt  Pt7  1  0.199328  0.500000  0.699328  1
  Au  Au8  1  0.281865  0.781126  0.500739  1
  Au  Au9  1  0.719613  0.218874  0.500739  1
  Au  Au10  1  0.801107  0.500000  0.301107  1
