# generated using pymatgen
data_Ca5HoSi24OsRu7
_symmetry_space_group_name_H-M   'P 1'
_cell_length_a   10.17893365
_cell_length_b   10.18085169
_cell_length_c   8.16763558
_cell_angle_alpha   89.94139521
_cell_angle_beta   90.06584751
_cell_angle_gamma   132.69970170
_symmetry_Int_Tables_number   1
_chemical_formula_structural   Ca5HoSi24OsRu7
_chemical_formula_sum   'Ca5 Ho1 Si24 Os1 Ru7'
_cell_volume   622.04441454
_cell_formula_units_Z   1
loop_
 _symmetry_equiv_pos_site_id
 _symmetry_equiv_pos_as_xyz
  1  'x, y, z'
loop_
 _atom_site_type_symbol
 _atom_site_label
 _atom_site_symmetry_multiplicity
 _atom_site_fract_x
 _atom_site_fract_y
 _atom_site_fract_z
 _atom_site_occupancy
  Ca  Ca0  1  0.499610  0.499865  0.499862  1
  Ca  Ca1  1  0.999778  0.999658  0.000160  1
  Ca  Ca2  1  0.500974  0.000833  0.750008  1
  Ca  Ca3  1  0.999301  0.499187  0.250041  1
  Ca  Ca4  1  0.498337  0.998373  0.249838  1
  Ho  Ho5  1  0.000032  0.500161  0.749992  1
  Si  Si6  1  0.794625  0.204607  0.498880  1
  Si  Si7  1  0.294880  0.705782  0.999995  1
  Si  Si8  1  0.205889  0.794754  0.500022  1
  Si  Si9  1  0.705247  0.294735  0.000851  1
  Si  Si10  1  0.333251  0.333348  0.832545  1
  Si  Si11  1  0.664561  0.666931  0.167627  1
  Si  Si12  1  0.166945  0.164340  0.332223  1
  Si  Si13  1  0.833649  0.833207  0.667674  1
  Si  Si14  1  0.123577  0.890717  0.729861  1
  Si  Si15  1  0.109398  0.876472  0.269489  1
  Si  Si16  1  0.608347  0.375520  0.229999  1
  Si  Si17  1  0.624767  0.392694  0.771330  1
  Si  Si18  1  0.874889  0.107798  0.268755  1
  Si  Si19  1  0.893331  0.125823  0.730165  1
  Si  Si20  1  0.391072  0.623840  0.770365  1
  Si  Si21  1  0.376017  0.608834  0.230278  1
  Si  Si22  1  0.346686  0.113181  0.507580  1
  Si  Si23  1  0.887980  0.655589  0.493081  1
  Si  Si24  1  0.386218  0.152775  0.007261  1
  Si  Si25  1  0.846156  0.613189  0.990789  1
  Si  Si26  1  0.652473  0.885642  0.491628  1
  Si  Si27  1  0.113698  0.346470  0.510262  1
  Si  Si28  1  0.613478  0.847271  0.992538  1
  Si  Si29  1  0.154650  0.387603  0.006757  1
  Os  Os30  1  0.672418  0.332573  0.501976  1
  Ru  Ru31  1  0.168276  0.828756  0.998422  1
  Ru  Ru32  1  0.328770  0.668059  0.501570  1
  Ru  Ru33  1  0.832276  0.172356  0.998122  1
  Ru  Ru34  1  0.126202  0.125914  0.624860  1
  Ru  Ru35  1  0.872827  0.873741  0.375027  1
  Ru  Ru36  1  0.373296  0.372664  0.124887  1
  Ru  Ru37  1  0.626116  0.626743  0.875282  1
