# generated using pymatgen
data_Hf3Cu2Si4NiRh
_symmetry_space_group_name_H-M   'P 1'
_cell_length_a   7.52994584
_cell_length_b   7.46983822
_cell_length_c   7.46983847
_cell_angle_alpha   149.64905790
_cell_angle_beta   128.84359366
_cell_angle_gamma   60.57806863
_symmetry_Int_Tables_number   1
_chemical_formula_structural   Hf3Cu2Si4NiRh
_chemical_formula_sum   'Hf3 Cu2 Si4 Ni1 Rh1'
_cell_volume   164.01580958
_cell_formula_units_Z   1
loop_
 _symmetry_equiv_pos_site_id
 _symmetry_equiv_pos_as_xyz
  1  'x, y, z'
loop_
 _atom_site_type_symbol
 _atom_site_label
 _atom_site_symmetry_multiplicity
 _atom_site_fract_x
 _atom_site_fract_y
 _atom_site_fract_z
 _atom_site_occupancy
  Hf  Hf0  1  0.882466  0.874819  0.007647  1
  Hf  Hf1  1  0.106805  0.126266  0.980539  1
  Hf  Hf2  1  0.500734  0.997830  0.502905  1
  Cu  Cu3  1  0.139644  0.336004  0.803641  1
  Cu  Cu4  1  0.480647  0.674505  0.806142  1
  Si  Si5  1  0.806604  0.498602  0.308002  1
  Si  Si6  1  0.194111  0.505910  0.688201  1
  Si  Si7  1  0.268462  0.783014  0.485448  1
  Si  Si8  1  0.734400  0.213869  0.520532  1
  Ni  Ni9  1  0.863664  0.667567  0.196097  1
  Rh  Rh10  1  0.522463  0.321615  0.200848  1
