# generated using pymatgen
data_La4Gd8Tc3Ni
_symmetry_space_group_name_H-M   'P 1'
_cell_length_a   6.48127600
_cell_length_b   7.32249833
_cell_length_c   9.54916000
_cell_angle_alpha   90.00000000
_cell_angle_beta   90.00000000
_cell_angle_gamma   89.87180912
_symmetry_Int_Tables_number   1
_chemical_formula_structural   La4Gd8Tc3Ni
_chemical_formula_sum   'La4 Gd8 Tc3 Ni1'
_cell_volume   453.19371703
_cell_formula_units_Z   1
loop_
 _symmetry_equiv_pos_site_id
 _symmetry_equiv_pos_as_xyz
  1  'x, y, z'
loop_
 _atom_site_type_symbol
 _atom_site_label
 _atom_site_symmetry_multiplicity
 _atom_site_fract_x
 _atom_site_fract_y
 _atom_site_fract_z
 _atom_site_occupancy
  La  La0  1  0.866443  0.551800  0.250000  1
  La  La1  1  0.626182  0.047964  0.250000  1
  La  La2  1  0.135112  0.447642  0.750000  1
  La  La3  1  0.369513  0.950051  0.750000  1
  Gd  Gd4  1  0.326806  0.672592  0.069732  1
  Gd  Gd5  1  0.165092  0.176729  0.433974  1
  Gd  Gd6  1  0.664937  0.327298  0.564912  1
  Gd  Gd7  1  0.836476  0.827855  0.934723  1
  Gd  Gd8  1  0.664937  0.327298  0.935088  1
  Gd  Gd9  1  0.836476  0.827855  0.565277  1
  Gd  Gd10  1  0.326806  0.672592  0.430268  1
  Gd  Gd11  1  0.165092  0.176729  0.066026  1
  Tc  Tc12  1  0.026843  0.878011  0.250000  1
  Tc  Tc13  1  0.464705  0.377929  0.250000  1
  Tc  Tc14  1  0.965241  0.121268  0.750000  1
  Ni  Ni15  1  0.559337  0.616387  0.750000  1
