# generated using pymatgen
data_Pr6TlHg9
_symmetry_space_group_name_H-M   'P 1'
_cell_length_a   6.58235051
_cell_length_b   6.58235147
_cell_length_c   10.69516834
_cell_angle_alpha   89.31080559
_cell_angle_beta   89.31080946
_cell_angle_gamma   105.00826133
_symmetry_Int_Tables_number   1
_chemical_formula_structural   Pr6TlHg9
_chemical_formula_sum   'Pr6 Tl1 Hg9'
_cell_volume   447.49880805
_cell_formula_units_Z   1
loop_
 _symmetry_equiv_pos_site_id
 _symmetry_equiv_pos_as_xyz
  1  'x, y, z'
loop_
 _atom_site_type_symbol
 _atom_site_label
 _atom_site_symmetry_multiplicity
 _atom_site_fract_x
 _atom_site_fract_y
 _atom_site_fract_z
 _atom_site_occupancy
  Pr  Pr0  1  0.601432  0.601432  0.253553  1
  Pr  Pr1  1  0.402164  0.402164  0.746843  1
  Pr  Pr2  1  0.204946  0.796126  0.499629  1
  Pr  Pr3  1  0.197949  0.794407  0.997468  1
  Pr  Pr4  1  0.796126  0.204946  0.499629  1
  Pr  Pr5  1  0.794407  0.197949  0.997468  1
  Tl  Tl6  1  0.303776  0.303776  0.037365  1
  Hg  Hg7  1  0.998374  0.998374  0.250860  1
  Hg  Hg8  1  0.001603  0.001603  0.745817  1
  Hg  Hg9  1  0.693339  0.693339  0.964864  1
  Hg  Hg10  1  0.304504  0.304504  0.465703  1
  Hg  Hg11  1  0.700574  0.700574  0.535373  1
  Hg  Hg12  1  0.485453  0.056782  0.252674  1
  Hg  Hg13  1  0.943927  0.514643  0.750040  1
  Hg  Hg14  1  0.514643  0.943927  0.750040  1
  Hg  Hg15  1  0.056782  0.485453  0.252674  1
