# generated using pymatgen
data_Tb7Th(NiHg)2
_symmetry_space_group_name_H-M   'P 1'
_cell_length_a   9.59679797
_cell_length_b   9.59679752
_cell_length_c   9.60797100
_cell_angle_alpha   59.96146768
_cell_angle_beta   59.96146925
_cell_angle_gamma   59.98109646
_symmetry_Int_Tables_number   1
_chemical_formula_structural   Tb7Th(NiHg)2
_chemical_formula_sum   'Tb14 Th2 Ni4 Hg4'
_cell_volume   625.25068836
_cell_formula_units_Z   2
loop_
 _symmetry_equiv_pos_site_id
 _symmetry_equiv_pos_as_xyz
  1  'x, y, z'
loop_
 _atom_site_type_symbol
 _atom_site_label
 _atom_site_symmetry_multiplicity
 _atom_site_fract_x
 _atom_site_fract_y
 _atom_site_fract_z
 _atom_site_occupancy
  Tb  Tb0  1  0.350331  0.946056  0.351807  1
  Tb  Tb1  1  0.946056  0.350331  0.351807  1
  Tb  Tb2  1  0.811852  0.189870  0.188013  1
  Tb  Tb3  1  0.189870  0.811852  0.810267  1
  Tb  Tb4  1  0.189870  0.811852  0.188013  1
  Tb  Tb5  1  0.811852  0.189870  0.810267  1
  Tb  Tb6  1  0.189533  0.189533  0.810467  1
  Tb  Tb7  1  0.810742  0.810742  0.189258  1
  Tb  Tb8  1  0.937430  0.563970  0.564910  1
  Tb  Tb9  1  0.563970  0.937430  0.933689  1
  Tb  Tb10  1  0.563970  0.937430  0.564910  1
  Tb  Tb11  1  0.937430  0.563970  0.933689  1
  Tb  Tb12  1  0.563560  0.563560  0.936440  1
  Tb  Tb13  1  0.936386  0.936386  0.563614  1
  Th  Th14  1  0.345072  0.345072  0.351070  1
  Th  Th15  1  0.345072  0.345072  0.958786  1
  Ni  Ni16  1  0.143322  0.143322  0.142253  1
  Ni  Ni17  1  0.143322  0.143322  0.571103  1
  Ni  Ni18  1  0.147029  0.569641  0.141665  1
  Ni  Ni19  1  0.569641  0.147029  0.141665  1
  Hg  Hg20  1  0.586450  0.586450  0.584458  1
  Hg  Hg21  1  0.586450  0.586450  0.242640  1
  Hg  Hg22  1  0.587229  0.243560  0.584604  1
  Hg  Hg23  1  0.243560  0.587229  0.584604  1
