# generated using pymatgen
data_Na4HfZrSe6
_symmetry_space_group_name_H-M   'P 1'
_cell_length_a   6.98873544
_cell_length_b   6.98873564
_cell_length_c   7.32523906
_cell_angle_alpha   80.69258470
_cell_angle_beta   80.69258148
_cell_angle_gamma   120.05684549
_symmetry_Int_Tables_number   1
_chemical_formula_structural   Na4HfZrSe6
_chemical_formula_sum   'Na4 Hf1 Zr1 Se6'
_cell_volume   292.99389979
_cell_formula_units_Z   1
loop_
 _symmetry_equiv_pos_site_id
 _symmetry_equiv_pos_as_xyz
  1  'x, y, z'
loop_
 _atom_site_type_symbol
 _atom_site_label
 _atom_site_symmetry_multiplicity
 _atom_site_fract_x
 _atom_site_fract_y
 _atom_site_fract_z
 _atom_site_occupancy
  Na  Na0  1  0.000017  0.999983  0.000000  1
  Na  Na1  1  0.500110  0.499890  0.500000  1
  Na  Na2  1  0.842394  0.157606  0.500000  1
  Na  Na3  1  0.157403  0.842597  0.500000  1
  Hf  Hf4  1  0.331468  0.668532  0.000000  1
  Zr  Zr5  1  0.668941  0.331059  0.000000  1
  Se  Se6  1  0.561115  0.922041  0.222713  1
  Se  Se7  1  0.711544  0.714338  0.778799  1
  Se  Se8  1  0.435816  0.072428  0.776757  1
  Se  Se9  1  0.077959  0.438885  0.777287  1
  Se  Se10  1  0.927572  0.564184  0.223243  1
  Se  Se11  1  0.285662  0.288456  0.221201  1
