# generated using pymatgen
data_CeDy2(InNi)3
_symmetry_space_group_name_H-M   'P 1'
_cell_length_a   7.37973870
_cell_length_b   7.37973957
_cell_length_c   3.85629600
_cell_angle_alpha   90.00000000
_cell_angle_beta   90.00000000
_cell_angle_gamma   119.40904278
_symmetry_Int_Tables_number   1
_chemical_formula_structural   CeDy2(InNi)3
_chemical_formula_sum   'Ce1 Dy2 In3 Ni3'
_cell_volume   182.95256596
_cell_formula_units_Z   1
loop_
 _symmetry_equiv_pos_site_id
 _symmetry_equiv_pos_as_xyz
  1  'x, y, z'
loop_
 _atom_site_type_symbol
 _atom_site_label
 _atom_site_symmetry_multiplicity
 _atom_site_fract_x
 _atom_site_fract_y
 _atom_site_fract_z
 _atom_site_occupancy
  Ce  Ce0  1  0.585438  0.585438  0.500000  1
  Dy  Dy1  1  0.411408  0.001747  0.500000  1
  Dy  Dy2  1  0.001747  0.411408  0.500000  1
  In  In3  1  0.748045  0.007827  0.000000  1
  In  In4  1  0.007827  0.748045  0.000000  1
  In  In5  1  0.244054  0.244054  0.000000  1
  Ni  Ni6  1  0.345476  0.664242  0.000000  1
  Ni  Ni7  1  0.664242  0.345476  0.000000  1
  Ni  Ni8  1  0.991765  0.991765  0.500000  1
