# generated using pymatgen
data_La3Mg3Ag2Ru
_symmetry_space_group_name_H-M   'P 1'
_cell_length_a   7.76834900
_cell_length_b   7.76834911
_cell_length_c   4.32278900
_cell_angle_alpha   90.00000000
_cell_angle_beta   90.00000000
_cell_angle_gamma   119.99999526
_symmetry_Int_Tables_number   1
_chemical_formula_structural   La3Mg3Ag2Ru
_chemical_formula_sum   'La3 Mg3 Ag2 Ru1'
_cell_volume   225.91868595
_cell_formula_units_Z   1
loop_
 _symmetry_equiv_pos_site_id
 _symmetry_equiv_pos_as_xyz
  1  'x, y, z'
loop_
 _atom_site_type_symbol
 _atom_site_label
 _atom_site_symmetry_multiplicity
 _atom_site_fract_x
 _atom_site_fract_y
 _atom_site_fract_z
 _atom_site_occupancy
  La  La0  1  0.435028  0.405800  0.500000  1
  La  La1  1  0.594200  0.029228  0.500000  1
  La  La2  1  0.970772  0.564972  0.500000  1
  Mg  Mg3  1  0.759132  0.754373  0.000000  1
  Mg  Mg4  1  0.245627  0.004759  0.000000  1
  Mg  Mg5  1  0.995241  0.240868  0.000000  1
  Ag  Ag6  1  0.333333  0.666667  0.000000  1
  Ag  Ag7  1  0.000000  0.000000  0.500000  1
  Ru  Ru8  1  0.666667  0.333333  0.000000  1
