# generated using pymatgen
data_Hf8Ti12Si9Ge7
_symmetry_space_group_name_H-M   'P 1'
_cell_length_a   6.69408022
_cell_length_b   6.80288533
_cell_length_c   13.03676902
_cell_angle_alpha   89.94305547
_cell_angle_beta   89.94656218
_cell_angle_gamma   89.95639004
_symmetry_Int_Tables_number   1
_chemical_formula_structural   Hf8Ti12Si9Ge7
_chemical_formula_sum   'Hf8 Ti12 Si9 Ge7'
_cell_volume   593.68148503
_cell_formula_units_Z   1
loop_
 _symmetry_equiv_pos_site_id
 _symmetry_equiv_pos_as_xyz
  1  'x, y, z'
loop_
 _atom_site_type_symbol
 _atom_site_label
 _atom_site_symmetry_multiplicity
 _atom_site_fract_x
 _atom_site_fract_y
 _atom_site_fract_z
 _atom_site_occupancy
  Hf  Hf0  1  0.493451  0.677855  0.597789  1
  Hf  Hf1  1  0.991669  0.823245  0.901076  1
  Hf  Hf2  1  0.508677  0.323771  0.099517  1
  Hf  Hf3  1  0.004153  0.173199  0.402309  1
  Hf  Hf4  1  0.509357  0.321097  0.401343  1
  Hf  Hf5  1  0.008585  0.176763  0.099202  1
  Hf  Hf6  1  0.491224  0.676191  0.900792  1
  Hf  Hf7  1  0.989412  0.826005  0.597147  1
  Ti  Ti8  1  0.656716  0.167514  0.626882  1
  Ti  Ti9  1  0.154972  0.331431  0.871424  1
  Ti  Ti10  1  0.345809  0.830640  0.128372  1
  Ti  Ti11  1  0.843050  0.673213  0.373472  1
  Ti  Ti12  1  0.347541  0.830505  0.372056  1
  Ti  Ti13  1  0.845954  0.668981  0.128256  1
  Ti  Ti14  1  0.654119  0.169373  0.871958  1
  Ti  Ti15  1  0.154592  0.329962  0.627594  1
  Ti  Ti16  1  0.829464  0.496516  0.749798  1
  Ti  Ti17  1  0.328940  0.003893  0.749744  1
  Ti  Ti18  1  0.171267  0.503816  0.250098  1
  Ti  Ti19  1  0.670722  0.996283  0.251952  1
  Si  Si20  1  0.678341  0.960580  0.461030  1
  Si  Si21  1  0.454421  0.382257  0.749067  1
  Si  Si22  1  0.954492  0.117621  0.749982  1
  Si  Si23  1  0.546211  0.617527  0.250203  1
  Si  Si24  1  0.046264  0.881887  0.250386  1
  Si  Si25  1  0.696179  0.864108  0.749900  1
  Si  Si26  1  0.195745  0.636509  0.748871  1
  Si  Si27  1  0.302984  0.135646  0.250356  1
  Si  Si28  1  0.804588  0.364937  0.250795  1
  Ge  Ge29  1  0.184108  0.540058  0.039300  1
  Ge  Ge30  1  0.316099  0.040202  0.960686  1
  Ge  Ge31  1  0.817123  0.460173  0.539443  1
  Ge  Ge32  1  0.320421  0.039385  0.538751  1
  Ge  Ge33  1  0.816500  0.459865  0.960752  1
  Ge  Ge34  1  0.683567  0.959992  0.039698  1
  Ge  Ge35  1  0.183283  0.539000  0.459997  1
