# generated using pymatgen
data_SrTb2Dy(Pt2O7)2
_symmetry_space_group_name_H-M   'P 1'
_cell_length_a   7.34048902
_cell_length_b   7.34048999
_cell_length_c   7.33950180
_cell_angle_alpha   59.89757285
_cell_angle_beta   59.89757222
_cell_angle_gamma   59.92521981
_symmetry_Int_Tables_number   1
_chemical_formula_structural   SrTb2Dy(Pt2O7)2
_chemical_formula_sum   'Sr1 Tb2 Dy1 Pt4 O14'
_cell_volume   279.05013607
_cell_formula_units_Z   1
loop_
 _symmetry_equiv_pos_site_id
 _symmetry_equiv_pos_as_xyz
  1  'x, y, z'
loop_
 _atom_site_type_symbol
 _atom_site_label
 _atom_site_symmetry_multiplicity
 _atom_site_fract_x
 _atom_site_fract_y
 _atom_site_fract_z
 _atom_site_occupancy
  Sr  Sr0  1  0.125000  0.125000  0.125000  1
  Tb  Tb1  1  0.125000  0.625000  0.125000  1
  Tb  Tb2  1  0.625000  0.125000  0.125000  1
  Dy  Dy3  1  0.125000  0.125000  0.625000  1
  Pt  Pt4  1  0.625000  0.625000  0.625000  1
  Pt  Pt5  1  0.125000  0.625000  0.625000  1
  Pt  Pt6  1  0.625000  0.125000  0.625000  1
  Pt  Pt7  1  0.625000  0.625000  0.125000  1
  O  O8  1  0.288187  0.713233  0.712432  1
  O  O9  1  0.555071  0.957948  0.958065  1
  O  O10  1  0.713233  0.288187  0.712432  1
  O  O11  1  0.291774  0.291774  0.694720  1
  O  O12  1  0.712679  0.712679  0.288282  1
  O  O13  1  0.993591  0.993591  0.991603  1
  O  O14  1  0.292052  0.694929  0.291935  1
  O  O15  1  0.957948  0.555071  0.958065  1
  O  O16  1  0.958226  0.958226  0.555280  1
  O  O17  1  0.537321  0.537321  0.961718  1
  O  O18  1  0.256409  0.256409  0.258397  1
  O  O19  1  0.536767  0.961813  0.537568  1
  O  O20  1  0.694929  0.292052  0.291935  1
  O  O21  1  0.961813  0.536767  0.537568  1
