# generated using pymatgen
data_Ho4ErOs2
_symmetry_space_group_name_H-M   'P 1'
_cell_length_a   6.33679230
_cell_length_b   7.33262091
_cell_length_c   8.38703403
_cell_angle_alpha   96.95318155
_cell_angle_beta   112.19580161
_cell_angle_gamma   89.99999612
_symmetry_Int_Tables_number   1
_chemical_formula_structural   Ho4ErOs2
_chemical_formula_sum   'Ho8 Er2 Os4'
_cell_volume   357.73070261
_cell_formula_units_Z   2
loop_
 _symmetry_equiv_pos_site_id
 _symmetry_equiv_pos_as_xyz
  1  'x, y, z'
loop_
 _atom_site_type_symbol
 _atom_site_label
 _atom_site_symmetry_multiplicity
 _atom_site_fract_x
 _atom_site_fract_y
 _atom_site_fract_z
 _atom_site_occupancy
  Ho  Ho0  1  0.793062  0.584136  0.816148  1
  Ho  Ho1  1  0.976914  0.915864  0.183852  1
  Ho  Ho2  1  0.206938  0.415864  0.183852  1
  Ho  Ho3  1  0.023086  0.084136  0.816148  1
  Ho  Ho4  1  0.204687  0.683936  0.565034  1
  Ho  Ho5  1  0.639654  0.816064  0.434966  1
  Ho  Ho6  1  0.795313  0.316064  0.434966  1
  Ho  Ho7  1  0.360346  0.183936  0.565034  1
  Er  Er8  1  0.422067  0.750000  0.000000  1
  Er  Er9  1  0.577933  0.250000  0.000000  1
  Os  Os10  1  0.603530  0.923187  0.780836  1
  Os  Os11  1  0.822692  0.576813  0.219164  1
  Os  Os12  1  0.396470  0.076813  0.219164  1
  Os  Os13  1  0.177308  0.423187  0.780836  1
