# generated using pymatgen
data_Y8Tm2IrPt5
_symmetry_space_group_name_H-M   'P 1'
_cell_length_a   11.04885400
_cell_length_b   11.04885400
_cell_length_c   6.42530900
_cell_angle_alpha   90.00000000
_cell_angle_beta   90.00000000
_cell_angle_gamma   90.00000000
_symmetry_Int_Tables_number   1
_chemical_formula_structural   Y8Tm2IrPt5
_chemical_formula_sum   'Y16 Tm4 Ir2 Pt10'
_cell_volume   784.38356938
_cell_formula_units_Z   2
loop_
 _symmetry_equiv_pos_site_id
 _symmetry_equiv_pos_as_xyz
  1  'x, y, z'
loop_
 _atom_site_type_symbol
 _atom_site_label
 _atom_site_symmetry_multiplicity
 _atom_site_fract_x
 _atom_site_fract_y
 _atom_site_fract_z
 _atom_site_occupancy
  Y  Y0  1  0.291180  0.087681  0.376750  1
  Y  Y1  1  0.291180  0.912319  0.876750  1
  Y  Y2  1  0.708820  0.087681  0.876750  1
  Y  Y3  1  0.708820  0.912319  0.376750  1
  Y  Y4  1  0.587681  0.791180  0.876750  1
  Y  Y5  1  0.587681  0.208820  0.376750  1
  Y  Y6  1  0.412319  0.791180  0.376750  1
  Y  Y7  1  0.412319  0.208820  0.876750  1
  Y  Y8  1  0.206535  0.413212  0.623826  1
  Y  Y9  1  0.206535  0.586788  0.123826  1
  Y  Y10  1  0.793465  0.413212  0.123826  1
  Y  Y11  1  0.793465  0.586788  0.623826  1
  Y  Y12  1  0.913212  0.706535  0.123826  1
  Y  Y13  1  0.913212  0.293465  0.623826  1
  Y  Y14  1  0.086788  0.706535  0.623826  1
  Y  Y15  1  0.086788  0.293465  0.123826  1
  Tm  Tm16  1  0.000000  0.000000  0.500369  1
  Tm  Tm17  1  0.000000  0.000000  0.000369  1
  Tm  Tm18  1  0.500000  0.500000  0.000369  1
  Tm  Tm19  1  0.500000  0.500000  0.500369  1
  Ir  Ir20  1  0.000000  0.500000  0.878391  1
  Ir  Ir21  1  0.000000  0.500000  0.378391  1
  Pt  Pt22  1  0.848733  0.150015  0.250037  1
  Pt  Pt23  1  0.848733  0.849985  0.750037  1
  Pt  Pt24  1  0.151267  0.150015  0.750037  1
  Pt  Pt25  1  0.151267  0.849985  0.250037  1
  Pt  Pt26  1  0.650015  0.348733  0.750037  1
  Pt  Pt27  1  0.650015  0.651267  0.250037  1
  Pt  Pt28  1  0.349985  0.348733  0.250037  1
  Pt  Pt29  1  0.349985  0.651267  0.750037  1
  Pt  Pt30  1  0.500000  0.000000  0.118418  1
  Pt  Pt31  1  0.500000  0.000000  0.618418  1
