# generated using pymatgen
data_Tb2YbZn2Co9B4
_symmetry_space_group_name_H-M   'P 1'
_cell_length_a   5.11968538
_cell_length_b   5.11864530
_cell_length_c   9.68822300
_cell_angle_alpha   89.99998452
_cell_angle_beta   90.00006271
_cell_angle_gamma   119.95694640
_symmetry_Int_Tables_number   1
_chemical_formula_structural   Tb2YbZn2Co9B4
_chemical_formula_sum   'Tb2 Yb1 Zn2 Co9 B4'
_cell_volume   219.96891703
_cell_formula_units_Z   1
loop_
 _symmetry_equiv_pos_site_id
 _symmetry_equiv_pos_as_xyz
  1  'x, y, z'
loop_
 _atom_site_type_symbol
 _atom_site_label
 _atom_site_symmetry_multiplicity
 _atom_site_fract_x
 _atom_site_fract_y
 _atom_site_fract_z
 _atom_site_occupancy
  Tb  Tb0  1  0.999995  0.000000  0.339480  1
  Tb  Tb1  1  0.999999  0.000001  0.660271  1
  Yb  Yb2  1  0.999990  0.000000  0.000094  1
  Zn  Zn3  1  0.333327  0.666759  0.000081  1
  Zn  Zn4  1  0.666654  0.333241  0.000081  1
  Co  Co5  1  0.499997  0.000000  0.499996  1
  Co  Co6  1  0.499996  0.500001  0.500036  1
  Co  Co7  1  0.999996  0.500000  0.500038  1
  Co  Co8  1  0.499994  0.000000  0.211930  1
  Co  Co9  1  0.499993  0.500000  0.211818  1
  Co  Co10  1  0.999993  0.500000  0.211921  1
  Co  Co11  1  0.499998  0.000000  0.788151  1
  Co  Co12  1  0.499997  0.500002  0.788207  1
  Co  Co13  1  0.999995  0.499999  0.788183  1
  B  B14  1  0.333518  0.666633  0.351208  1
  B  B15  1  0.666469  0.333367  0.351208  1
  B  B16  1  0.666709  0.333449  0.648650  1
  B  B17  1  0.333282  0.666550  0.648650  1
