# generated using pymatgen
data_Ca2Al20ReIr3
_symmetry_space_group_name_H-M   'P 1'
_cell_length_a   6.89728350
_cell_length_b   6.90403796
_cell_length_c   9.19849265
_cell_angle_alpha   90.11087572
_cell_angle_beta   90.38268933
_cell_angle_gamma   96.42030705
_symmetry_Int_Tables_number   1
_chemical_formula_structural   Ca2Al20ReIr3
_chemical_formula_sum   'Ca2 Al20 Re1 Ir3'
_cell_volume   435.26557828
_cell_formula_units_Z   1
loop_
 _symmetry_equiv_pos_site_id
 _symmetry_equiv_pos_as_xyz
  1  'x, y, z'
loop_
 _atom_site_type_symbol
 _atom_site_label
 _atom_site_symmetry_multiplicity
 _atom_site_fract_x
 _atom_site_fract_y
 _atom_site_fract_z
 _atom_site_occupancy
  Ca  Ca0  1  0.872210  0.124231  0.749381  1
  Ca  Ca1  1  0.127790  0.875769  0.250619  1
  Al  Al2  1  0.620300  0.375728  0.548964  1
  Al  Al3  1  0.379700  0.624272  0.451036  1
  Al  Al4  1  0.378882  0.621018  0.050613  1
  Al  Al5  1  0.621118  0.378982  0.949387  1
  Al  Al6  1  0.221925  0.220404  0.498365  1
  Al  Al7  1  0.778075  0.779596  0.501635  1
  Al  Al8  1  0.777802  0.778365  0.000091  1
  Al  Al9  1  0.222198  0.221635  0.999909  1
  Al  Al10  1  0.841578  0.160512  0.102969  1
  Al  Al11  1  0.158422  0.839488  0.897031  1
  Al  Al12  1  0.159725  0.842130  0.599889  1
  Al  Al13  1  0.840275  0.157870  0.400111  1
  Al  Al14  1  0.856728  0.587709  0.749805  1
  Al  Al15  1  0.143272  0.412291  0.250195  1
  Al  Al16  1  0.413539  0.143570  0.749143  1
  Al  Al17  1  0.586461  0.856430  0.250857  1
  Al  Al18  1  0.222492  0.479906  0.751350  1
  Al  Al19  1  0.777508  0.520094  0.248650  1
  Al  Al20  1  0.520484  0.779114  0.746951  1
  Al  Al21  1  0.479516  0.220886  0.253049  1
  Re  Re22  1  0.500000  0.000000  0.500000  1
  Ir  Ir23  1  0.000000  0.500000  0.500000  1
  Ir  Ir24  1  0.000000  0.500000  0.000000  1
  Ir  Ir25  1  0.500000  0.000000  0.000000  1
