# generated using pymatgen
data_Rb3AlGe2O7
_symmetry_space_group_name_H-M   'P 1'
_cell_length_a   9.74379866
_cell_length_b   9.74370029
_cell_length_c   7.67830597
_cell_angle_alpha   72.89543679
_cell_angle_beta   72.89310002
_cell_angle_gamma   121.82324159
_symmetry_Int_Tables_number   1
_chemical_formula_structural   Rb3AlGe2O7
_chemical_formula_sum   'Rb6 Al2 Ge4 O14'
_cell_volume   493.17354528
_cell_formula_units_Z   2
loop_
 _symmetry_equiv_pos_site_id
 _symmetry_equiv_pos_as_xyz
  1  'x, y, z'
loop_
 _atom_site_type_symbol
 _atom_site_label
 _atom_site_symmetry_multiplicity
 _atom_site_fract_x
 _atom_site_fract_y
 _atom_site_fract_z
 _atom_site_occupancy
  Rb  Rb0  1  0.589065  0.980739  0.741071  1
  Rb  Rb1  1  0.008135  0.991883  0.750007  1
  Rb  Rb2  1  0.980740  0.589050  0.241083  1
  Rb  Rb3  1  0.991865  0.008117  0.249993  1
  Rb  Rb4  1  0.019260  0.410950  0.758917  1
  Rb  Rb5  1  0.410935  0.019261  0.258929  1
  Al  Al6  1  0.440079  0.559910  0.749971  1
  Al  Al7  1  0.559921  0.440090  0.250029  1
  Ge  Ge8  1  0.770706  0.567847  0.756414  1
  Ge  Ge9  1  0.432097  0.229199  0.743648  1
  Ge  Ge10  1  0.567903  0.770801  0.256352  1
  Ge  Ge11  1  0.229294  0.432153  0.243586  1
  O  O12  1  0.664128  0.669495  0.726980  1
  O  O13  1  0.669487  0.664149  0.227051  1
  O  O14  1  0.520716  0.270929  0.477154  1
  O  O15  1  0.330513  0.335851  0.772949  1
  O  O16  1  0.986723  0.264657  0.450857  1
  O  O17  1  0.479284  0.729071  0.522846  1
  O  O18  1  0.264686  0.986681  0.950930  1
  O  O19  1  0.270986  0.520720  0.977120  1
  O  O20  1  0.351016  0.648986  0.250021  1
  O  O21  1  0.335872  0.330505  0.273020  1
  O  O22  1  0.735314  0.013319  0.049070  1
  O  O23  1  0.648984  0.351014  0.749979  1
  O  O24  1  0.013277  0.735343  0.549143  1
  O  O25  1  0.729014  0.479280  0.022880  1
