# generated using pymatgen
data_PrZrP7Ru12
_symmetry_space_group_name_H-M   'P 1'
_cell_length_a   9.44304200
_cell_length_b   9.44304041
_cell_length_c   3.93958800
_cell_angle_alpha   90.00000000
_cell_angle_beta   90.00000000
_cell_angle_gamma   119.99999857
_symmetry_Int_Tables_number   1
_chemical_formula_structural   PrZrP7Ru12
_chemical_formula_sum   'Pr1 Zr1 P7 Ru12'
_cell_volume   304.23222473
_cell_formula_units_Z   1
loop_
 _symmetry_equiv_pos_site_id
 _symmetry_equiv_pos_as_xyz
  1  'x, y, z'
loop_
 _atom_site_type_symbol
 _atom_site_label
 _atom_site_symmetry_multiplicity
 _atom_site_fract_x
 _atom_site_fract_y
 _atom_site_fract_z
 _atom_site_occupancy
  Pr  Pr0  1  0.333333  0.666667  0.000000  1
  Zr  Zr1  1  0.666667  0.333333  0.500000  1
  P  P2  1  0.604221  0.719232  0.500000  1
  P  P3  1  0.000000  0.000000  0.000000  1
  P  P4  1  0.280768  0.884989  0.500000  1
  P  P5  1  0.115011  0.395779  0.500000  1
  P  P6  1  0.886149  0.571156  0.000000  1
  P  P7  1  0.428844  0.314994  0.000000  1
  P  P8  1  0.685006  0.113851  0.000000  1
  Ru  Ru9  1  0.560970  0.959293  0.500000  1
  Ru  Ru10  1  0.398324  0.439030  0.500000  1
  Ru  Ru11  1  0.914208  0.120559  0.500000  1
  Ru  Ru12  1  0.206350  0.085792  0.500000  1
  Ru  Ru13  1  0.879441  0.793650  0.500000  1
  Ru  Ru14  1  0.727867  0.891077  0.000000  1
  Ru  Ru15  1  0.108923  0.836789  0.000000  1
  Ru  Ru16  1  0.163211  0.272133  0.000000  1
  Ru  Ru17  1  0.425825  0.074682  0.000000  1
  Ru  Ru18  1  0.925318  0.351144  0.000000  1
  Ru  Ru19  1  0.648856  0.574175  0.000000  1
  Ru  Ru20  1  0.040707  0.601676  0.500000  1
