# generated using pymatgen
data_Tm2Cr3FeCo8P7
_symmetry_space_group_name_H-M   'P 1'
_cell_length_a   8.94010872
_cell_length_b   8.96117651
_cell_length_c   3.61166000
_cell_angle_alpha   90.00000000
_cell_angle_beta   90.00000000
_cell_angle_gamma   119.87520692
_symmetry_Int_Tables_number   1
_chemical_formula_structural   Tm2Cr3FeCo8P7
_chemical_formula_sum   'Tm2 Cr3 Fe1 Co8 P7'
_cell_volume   250.89388426
_cell_formula_units_Z   1
loop_
 _symmetry_equiv_pos_site_id
 _symmetry_equiv_pos_as_xyz
  1  'x, y, z'
loop_
 _atom_site_type_symbol
 _atom_site_label
 _atom_site_symmetry_multiplicity
 _atom_site_fract_x
 _atom_site_fract_y
 _atom_site_fract_z
 _atom_site_occupancy
  Tm  Tm0  1  0.334674  0.667703  0.000000  1
  Tm  Tm1  1  0.998844  0.999366  0.500000  1
  Cr  Cr2  1  0.762747  0.210349  0.500000  1
  Cr  Cr3  1  0.449056  0.236199  0.500000  1
  Cr  Cr4  1  0.786530  0.550146  0.500000  1
  Fe  Fe5  1  0.546570  0.489933  0.000000  1
  Co  Co6  1  0.727797  0.962031  0.000000  1
  Co  Co7  1  0.233922  0.271159  0.000000  1
  Co  Co8  1  0.037684  0.764859  0.000000  1
  Co  Co9  1  0.945274  0.453775  0.000000  1
  Co  Co10  1  0.509817  0.057245  0.000000  1
  Co  Co11  1  0.102380  0.384117  0.500000  1
  Co  Co12  1  0.281506  0.898194  0.500000  1
  Co  Co13  1  0.616391  0.719195  0.500000  1
  P  P14  1  0.962346  0.218971  0.000000  1
  P  P15  1  0.254980  0.035115  0.000000  1
  P  P16  1  0.779219  0.741871  0.000000  1
  P  P17  1  0.071278  0.623264  0.500000  1
  P  P18  1  0.552850  0.929612  0.500000  1
  P  P19  1  0.377785  0.452343  0.500000  1
  P  P20  1  0.668353  0.334549  0.000000  1
