# generated using pymatgen
data_Pr2Mo(SeO4)3
_symmetry_space_group_name_H-M   'P 1'
_cell_length_a   6.79448308
_cell_length_b   7.33807220
_cell_length_c   11.22809860
_cell_angle_alpha   85.26001245
_cell_angle_beta   73.11951425
_cell_angle_gamma   85.97719859
_symmetry_Int_Tables_number   1
_chemical_formula_structural   Pr2Mo(SeO4)3
_chemical_formula_sum   'Pr4 Mo2 Se6 O24'
_cell_volume   533.23627452
_cell_formula_units_Z   2
loop_
 _symmetry_equiv_pos_site_id
 _symmetry_equiv_pos_as_xyz
  1  'x, y, z'
loop_
 _atom_site_type_symbol
 _atom_site_label
 _atom_site_symmetry_multiplicity
 _atom_site_fract_x
 _atom_site_fract_y
 _atom_site_fract_z
 _atom_site_occupancy
  Pr  Pr0  1  0.731050  0.641451  0.510750  1
  Pr  Pr1  1  0.268950  0.358549  0.489250  1
  Pr  Pr2  1  0.203816  0.179106  0.164441  1
  Pr  Pr3  1  0.796184  0.820894  0.835559  1
  Mo  Mo4  1  0.719993  0.893360  0.209526  1
  Mo  Mo5  1  0.280007  0.106640  0.790474  1
  Se  Se6  1  0.195434  0.661883  0.217211  1
  Se  Se7  1  0.804566  0.338117  0.782789  1
  Se  Se8  1  0.657323  0.355437  0.141188  1
  Se  Se9  1  0.342677  0.644563  0.858812  1
  Se  Se10  1  0.790724  0.139952  0.489785  1
  Se  Se11  1  0.209276  0.860048  0.510215  1
  O  O12  1  0.692903  0.678783  0.298921  1
  O  O13  1  0.307097  0.321217  0.701079  1
  O  O14  1  0.720678  0.967768  0.413674  1
  O  O15  1  0.279322  0.032232  0.586326  1
  O  O16  1  0.455429  0.972989  0.236743  1
  O  O17  1  0.544571  0.027011  0.763257  1
  O  O18  1  0.817237  0.166470  0.178575  1
  O  O19  1  0.182763  0.833530  0.821425  1
  O  O20  1  0.780541  0.833223  0.052821  1
  O  O21  1  0.219459  0.166777  0.947179  1
  O  O22  1  0.051003  0.868735  0.197801  1
  O  O23  1  0.948997  0.131265  0.802199  1
  O  O24  1  0.096968  0.502291  0.152434  1
  O  O25  1  0.903032  0.497709  0.847566  1
  O  O26  1  0.085682  0.605355  0.378720  1
  O  O27  1  0.914318  0.394645  0.621280  1
  O  O28  1  0.557133  0.268236  0.037098  1
  O  O29  1  0.442867  0.731764  0.962902  1
  O  O30  1  0.431422  0.347611  0.265290  1
  O  O31  1  0.568578  0.652389  0.734710  1
  O  O32  1  0.037261  0.189065  0.393450  1
  O  O33  1  0.962739  0.810935  0.606550  1
  O  O34  1  0.646486  0.334615  0.458791  1
  O  O35  1  0.353514  0.665385  0.541209  1
