# generated using pymatgen
data_Dy2Ho3Si6P6Ir19
_symmetry_space_group_name_H-M   'P 1'
_cell_length_a   12.80295200
_cell_length_b   12.80295092
_cell_length_c   3.95141400
_cell_angle_alpha   90.00000000
_cell_angle_beta   90.00000000
_cell_angle_gamma   119.99999764
_symmetry_Int_Tables_number   1
_chemical_formula_structural   Dy2Ho3Si6P6Ir19
_chemical_formula_sum   'Dy2 Ho3 Si6 P6 Ir19'
_cell_volume   560.92316259
_cell_formula_units_Z   1
loop_
 _symmetry_equiv_pos_site_id
 _symmetry_equiv_pos_as_xyz
  1  'x, y, z'
loop_
 _atom_site_type_symbol
 _atom_site_label
 _atom_site_symmetry_multiplicity
 _atom_site_fract_x
 _atom_site_fract_y
 _atom_site_fract_z
 _atom_site_occupancy
  Dy  Dy0  1  0.333333  0.666667  0.500000  1
  Dy  Dy1  1  0.666667  0.333333  0.500000  1
  Ho  Ho2  1  0.001591  0.816083  0.000000  1
  Ho  Ho3  1  0.183917  0.185507  0.000000  1
  Ho  Ho4  1  0.814493  0.998409  0.000000  1
  Si  Si5  1  0.000732  0.636046  0.500000  1
  Si  Si6  1  0.363954  0.364687  0.500000  1
  Si  Si7  1  0.635313  0.999268  0.500000  1
  Si  Si8  1  0.519527  0.682179  0.000000  1
  Si  Si9  1  0.317821  0.837348  0.000000  1
  Si  Si10  1  0.162652  0.480473  0.000000  1
  P  P11  1  0.483726  0.177662  0.000000  1
  P  P12  1  0.693937  0.516274  0.000000  1
  P  P13  1  0.822338  0.306063  0.000000  1
  P  P14  1  0.996249  0.176206  0.500000  1
  P  P15  1  0.823794  0.820043  0.500000  1
  P  P16  1  0.179957  0.003751  0.500000  1
  Ir  Ir17  1  0.515510  0.869077  0.000000  1
  Ir  Ir18  1  0.130923  0.646435  0.000000  1
  Ir  Ir19  1  0.353565  0.484490  0.000000  1
  Ir  Ir20  1  0.494358  0.368390  0.000000  1
  Ir  Ir21  1  0.874033  0.505642  0.000000  1
  Ir  Ir22  1  0.631610  0.125967  0.000000  1
  Ir  Ir23  1  0.014694  0.457643  0.500000  1
  Ir  Ir24  1  0.542357  0.557051  0.500000  1
  Ir  Ir25  1  0.442949  0.985306  0.500000  1
  Ir  Ir26  1  0.993609  0.277600  0.000000  1
  Ir  Ir27  1  0.722400  0.716009  0.000000  1
  Ir  Ir28  1  0.283991  0.006391  0.000000  1
  Ir  Ir29  1  0.632962  0.809045  0.500000  1
  Ir  Ir30  1  0.190955  0.823918  0.500000  1
  Ir  Ir31  1  0.176082  0.367038  0.500000  1
  Ir  Ir32  1  0.381718  0.182707  0.500000  1
  Ir  Ir33  1  0.800989  0.618282  0.500000  1
  Ir  Ir34  1  0.817293  0.199011  0.500000  1
  Ir  Ir35  1  0.000000  0.000000  0.500000  1
