# generated using pymatgen
data_Hf6Ti8Ga8Ir7
_symmetry_space_group_name_H-M   'P 1'
_cell_length_a   8.82342421
_cell_length_b   8.82342485
_cell_length_c   8.82342400
_cell_angle_alpha   59.99999570
_cell_angle_beta   59.99999330
_cell_angle_gamma   59.99999794
_symmetry_Int_Tables_number   1
_chemical_formula_structural   Hf6Ti8Ga8Ir7
_chemical_formula_sum   'Hf6 Ti8 Ga8 Ir7'
_cell_volume   485.73171350
_cell_formula_units_Z   1
loop_
 _symmetry_equiv_pos_site_id
 _symmetry_equiv_pos_as_xyz
  1  'x, y, z'
loop_
 _atom_site_type_symbol
 _atom_site_label
 _atom_site_symmetry_multiplicity
 _atom_site_fract_x
 _atom_site_fract_y
 _atom_site_fract_z
 _atom_site_occupancy
  Hf  Hf0  1  0.690502  0.690502  0.309498  1
  Hf  Hf1  1  0.309498  0.690502  0.309498  1
  Hf  Hf2  1  0.690502  0.309498  0.309498  1
  Hf  Hf3  1  0.309498  0.309498  0.690502  1
  Hf  Hf4  1  0.690502  0.309498  0.690502  1
  Hf  Hf5  1  0.309498  0.690502  0.690502  1
  Ti  Ti6  1  0.877200  0.877200  0.368398  1
  Ti  Ti7  1  0.877200  0.368398  0.877200  1
  Ti  Ti8  1  0.368398  0.877200  0.877200  1
  Ti  Ti9  1  0.877200  0.877200  0.877200  1
  Ti  Ti10  1  0.122800  0.122800  0.631602  1
  Ti  Ti11  1  0.122800  0.631602  0.122800  1
  Ti  Ti12  1  0.631602  0.122800  0.122800  1
  Ti  Ti13  1  0.122800  0.122800  0.122800  1
  Ga  Ga14  1  0.657151  0.657151  0.028546  1
  Ga  Ga15  1  0.657151  0.028546  0.657151  1
  Ga  Ga16  1  0.028546  0.657151  0.657151  1
  Ga  Ga17  1  0.657151  0.657151  0.657151  1
  Ga  Ga18  1  0.342849  0.342849  0.971454  1
  Ga  Ga19  1  0.342849  0.971454  0.342849  1
  Ga  Ga20  1  0.971454  0.342849  0.342849  1
  Ga  Ga21  1  0.342849  0.342849  0.342849  1
  Ir  Ir22  1  0.000000  0.000000  0.000000  1
  Ir  Ir23  1  0.000000  0.000000  0.500000  1
  Ir  Ir24  1  0.500000  0.000000  0.500000  1
  Ir  Ir25  1  0.000000  0.500000  0.500000  1
  Ir  Ir26  1  0.500000  0.500000  0.000000  1
  Ir  Ir27  1  0.000000  0.500000  0.000000  1
  Ir  Ir28  1  0.500000  0.000000  0.000000  1
