# generated using pymatgen
data_GdEr3(WO6)2
_symmetry_space_group_name_H-M   'P 1'
_cell_length_a   5.39212000
_cell_length_b   7.69458657
_cell_length_c   11.45663200
_cell_angle_alpha   75.32669370
_cell_angle_beta   90.00000000
_cell_angle_gamma   90.00000000
_symmetry_Int_Tables_number   1
_chemical_formula_structural   GdEr3(WO6)2
_chemical_formula_sum   'Gd2 Er6 W4 O24'
_cell_volume   459.83449012
_cell_formula_units_Z   2
loop_
 _symmetry_equiv_pos_site_id
 _symmetry_equiv_pos_as_xyz
  1  'x, y, z'
loop_
 _atom_site_type_symbol
 _atom_site_label
 _atom_site_symmetry_multiplicity
 _atom_site_fract_x
 _atom_site_fract_y
 _atom_site_fract_z
 _atom_site_occupancy
  Gd  Gd0  1  0.685033  0.500000  0.250000  1
  Gd  Gd1  1  0.314967  0.500000  0.750000  1
  Er  Er2  1  0.183866  0.204578  0.422285  1
  Er  Er3  1  0.183866  0.795422  0.077715  1
  Er  Er4  1  0.816134  0.795422  0.577715  1
  Er  Er5  1  0.816134  0.204578  0.922285  1
  Er  Er6  1  0.741059  0.000000  0.250000  1
  Er  Er7  1  0.258941  0.000000  0.750000  1
  W  W8  1  0.255729  0.274456  0.115151  1
  W  W9  1  0.255729  0.725544  0.384849  1
  W  W10  1  0.744271  0.725544  0.884849  1
  W  W11  1  0.744271  0.274456  0.615151  1
  O  O12  1  0.457447  0.205798  0.273824  1
  O  O13  1  0.457447  0.794202  0.226176  1
  O  O14  1  0.542553  0.794202  0.726176  1
  O  O15  1  0.542553  0.205798  0.773824  1
  O  O16  1  0.043145  0.058878  0.104372  1
  O  O17  1  0.043145  0.941122  0.395628  1
  O  O18  1  0.956855  0.941122  0.895628  1
  O  O19  1  0.956855  0.058878  0.604372  1
  O  O20  1  0.983063  0.285281  0.229829  1
  O  O21  1  0.983063  0.714719  0.270171  1
  O  O22  1  0.016937  0.714719  0.770171  1
  O  O23  1  0.016937  0.285281  0.729829  1
  O  O24  1  0.852162  0.363224  0.452416  1
  O  O25  1  0.852162  0.636776  0.047584  1
  O  O26  1  0.147838  0.636776  0.547584  1
  O  O27  1  0.147838  0.363224  0.952416  1
  O  O28  1  0.644333  0.510004  0.613393  1
  O  O29  1  0.644333  0.489996  0.886607  1
  O  O30  1  0.355667  0.489996  0.386607  1
  O  O31  1  0.355667  0.510004  0.113393  1
  O  O32  1  0.463187  0.153635  0.569484  1
  O  O33  1  0.463187  0.846365  0.930516  1
  O  O34  1  0.536813  0.846365  0.430516  1
  O  O35  1  0.536813  0.153635  0.069484  1
