# generated using pymatgen
data_Ce2Tm7Lu(Al2Ru3)2
_symmetry_space_group_name_H-M   'P 1'
_cell_length_a   8.38684081
_cell_length_b   8.29971139
_cell_length_c   8.27025722
_cell_angle_alpha   109.95081188
_cell_angle_beta   109.40758443
_cell_angle_gamma   110.17151808
_symmetry_Int_Tables_number   1
_chemical_formula_structural   Ce2Tm7Lu(Al2Ru3)2
_chemical_formula_sum   'Ce2 Tm7 Lu1 Al4 Ru6'
_cell_volume   436.93103824
_cell_formula_units_Z   1
loop_
 _symmetry_equiv_pos_site_id
 _symmetry_equiv_pos_as_xyz
  1  'x, y, z'
loop_
 _atom_site_type_symbol
 _atom_site_label
 _atom_site_symmetry_multiplicity
 _atom_site_fract_x
 _atom_site_fract_y
 _atom_site_fract_z
 _atom_site_occupancy
  Ce  Ce0  1  0.943459  0.251505  0.194686  1
  Ce  Ce1  1  0.196122  0.941407  0.251021  1
  Tm  Tm2  1  0.319304  0.568688  0.753666  1
  Tm  Tm3  1  0.750478  0.318979  0.570162  1
  Tm  Tm4  1  0.569718  0.748072  0.315408  1
  Tm  Tm5  1  0.718291  0.502983  0.997984  1
  Tm  Tm6  1  0.998440  0.719204  0.505954  1
  Tm  Tm7  1  0.501323  0.992817  0.715925  1
  Tm  Tm8  1  0.253339  0.185603  0.930916  1
  Lu  Lu9  1  0.781729  0.785734  0.779478  1
  Al  Al10  1  0.418109  0.413558  0.410536  1
  Al  Al11  1  0.092111  0.492429  0.995529  1
  Al  Al12  1  0.997406  0.091487  0.504247  1
  Al  Al13  1  0.502602  0.008314  0.093629  1
  Ru  Ru14  1  0.866395  0.114975  0.741666  1
  Ru  Ru15  1  0.753284  0.897596  0.120833  1
  Ru  Ru16  1  0.124186  0.761559  0.902076  1
  Ru  Ru17  1  0.226945  0.595936  0.365824  1
  Ru  Ru18  1  0.360005  0.224967  0.599290  1
  Ru  Ru19  1  0.626753  0.384188  0.251172  1
