# generated using pymatgen
data_Sr9Lu11Pb16
_symmetry_space_group_name_H-M   'P 1'
_cell_length_a   8.13700102
_cell_length_b   8.65459580
_cell_length_c   16.23004500
_cell_angle_alpha   90.00000000
_cell_angle_beta   90.00000000
_cell_angle_gamma   89.93012889
_symmetry_Int_Tables_number   1
_chemical_formula_structural   Sr9Lu11Pb16
_chemical_formula_sum   'Sr9 Lu11 Pb16'
_cell_volume   1142.95876069
_cell_formula_units_Z   1
loop_
 _symmetry_equiv_pos_site_id
 _symmetry_equiv_pos_as_xyz
  1  'x, y, z'
loop_
 _atom_site_type_symbol
 _atom_site_label
 _atom_site_symmetry_multiplicity
 _atom_site_fract_x
 _atom_site_fract_y
 _atom_site_fract_z
 _atom_site_occupancy
  Sr  Sr0  1  0.495161  0.678163  0.593673  1
  Sr  Sr1  1  0.995077  0.820848  0.906335  1
  Sr  Sr2  1  0.502156  0.319593  0.090724  1
  Sr  Sr3  1  0.002739  0.181581  0.411416  1
  Sr  Sr4  1  0.502156  0.319593  0.409276  1
  Sr  Sr5  1  0.002739  0.181581  0.088584  1
  Sr  Sr6  1  0.495161  0.678163  0.906327  1
  Sr  Sr7  1  0.995077  0.820848  0.593665  1
  Sr  Sr8  1  0.674128  0.011585  0.250000  1
  Lu  Lu9  1  0.670384  0.157293  0.626329  1
  Lu  Lu10  1  0.169797  0.343639  0.874529  1
  Lu  Lu11  1  0.330353  0.839076  0.120851  1
  Lu  Lu12  1  0.832767  0.660804  0.379015  1
  Lu  Lu13  1  0.330353  0.839076  0.379149  1
  Lu  Lu14  1  0.832767  0.660804  0.120985  1
  Lu  Lu15  1  0.670384  0.157293  0.873671  1
  Lu  Lu16  1  0.169797  0.343639  0.625471  1
  Lu  Lu17  1  0.831833  0.503084  0.750000  1
  Lu  Lu18  1  0.332443  0.998100  0.750000  1
  Lu  Lu19  1  0.172671  0.495883  0.250000  1
  Pb  Pb20  1  0.672456  0.954070  0.461241  1
  Pb  Pb21  1  0.174032  0.542723  0.043766  1
  Pb  Pb22  1  0.325676  0.042866  0.953557  1
  Pb  Pb23  1  0.825757  0.456655  0.545955  1
  Pb  Pb24  1  0.325676  0.042866  0.546443  1
  Pb  Pb25  1  0.825757  0.456655  0.954045  1
  Pb  Pb26  1  0.672456  0.954070  0.038759  1
  Pb  Pb27  1  0.174032  0.542723  0.456234  1
  Pb  Pb28  1  0.472667  0.362335  0.750000  1
  Pb  Pb29  1  0.973827  0.137295  0.750000  1
  Pb  Pb30  1  0.526544  0.629940  0.250000  1
  Pb  Pb31  1  0.039214  0.851216  0.250000  1
  Pb  Pb32  1  0.695505  0.857486  0.750000  1
  Pb  Pb33  1  0.195831  0.642003  0.750000  1
  Pb  Pb34  1  0.283076  0.137365  0.250000  1
  Pb  Pb35  1  0.809552  0.379084  0.250000  1
