# generated using pymatgen
data_Nd12CoIrPd2
_symmetry_space_group_name_H-M   'P 1'
_cell_length_a   6.57766391
_cell_length_b   7.30261302
_cell_length_c   10.00543000
_cell_angle_alpha   90.00000000
_cell_angle_beta   90.00000000
_cell_angle_gamma   90.07277885
_symmetry_Int_Tables_number   1
_chemical_formula_structural   Nd12CoIrPd2
_chemical_formula_sum   'Nd12 Co1 Ir1 Pd2'
_cell_volume   480.60177878
_cell_formula_units_Z   1
loop_
 _symmetry_equiv_pos_site_id
 _symmetry_equiv_pos_as_xyz
  1  'x, y, z'
loop_
 _atom_site_type_symbol
 _atom_site_label
 _atom_site_symmetry_multiplicity
 _atom_site_fract_x
 _atom_site_fract_y
 _atom_site_fract_z
 _atom_site_occupancy
  Nd  Nd0  1  0.323899  0.685374  0.064692  1
  Nd  Nd1  1  0.162701  0.164567  0.431168  1
  Nd  Nd2  1  0.664700  0.328700  0.562620  1
  Nd  Nd3  1  0.826693  0.818648  0.938399  1
  Nd  Nd4  1  0.664700  0.328700  0.937380  1
  Nd  Nd5  1  0.826693  0.818648  0.561601  1
  Nd  Nd6  1  0.323899  0.685374  0.435308  1
  Nd  Nd7  1  0.162701  0.164567  0.068832  1
  Nd  Nd8  1  0.872596  0.545939  0.250000  1
  Nd  Nd9  1  0.649020  0.024799  0.250000  1
  Nd  Nd10  1  0.145077  0.473635  0.750000  1
  Nd  Nd11  1  0.367966  0.962526  0.750000  1
  Co  Co12  1  0.071483  0.880777  0.250000  1
  Ir  Ir13  1  0.569421  0.616654  0.750000  1
  Pd  Pd14  1  0.433397  0.386135  0.250000  1
  Pd  Pd15  1  0.935052  0.114958  0.750000  1
