# generated using pymatgen
data_CaZr(GaAu)2
_symmetry_space_group_name_H-M   'P 1'
_cell_length_a   4.50330500
_cell_length_b   4.50330342
_cell_length_c   7.06979300
_cell_angle_alpha   90.00000000
_cell_angle_beta   90.00000000
_cell_angle_gamma   120.00000423
_symmetry_Int_Tables_number   1
_chemical_formula_structural   CaZr(GaAu)2
_chemical_formula_sum   'Ca1 Zr1 Ga2 Au2'
_cell_volume   124.16519731
_cell_formula_units_Z   1
loop_
 _symmetry_equiv_pos_site_id
 _symmetry_equiv_pos_as_xyz
  1  'x, y, z'
loop_
 _atom_site_type_symbol
 _atom_site_label
 _atom_site_symmetry_multiplicity
 _atom_site_fract_x
 _atom_site_fract_y
 _atom_site_fract_z
 _atom_site_occupancy
  Ca  Ca0  1  0.000000  0.000000  0.500000  1
  Zr  Zr1  1  0.000000  0.000000  0.000000  1
  Ga  Ga2  1  0.666667  0.333333  0.197911  1
  Ga  Ga3  1  0.666667  0.333333  0.802089  1
  Au  Au4  1  0.333333  0.666667  0.772900  1
  Au  Au5  1  0.333333  0.666667  0.227100  1
