# generated using pymatgen
data_SrTbDy5CoI12
_symmetry_space_group_name_H-M   'P 1'
_cell_length_a   9.72930326
_cell_length_b   9.80479285
_cell_length_c   9.80462601
_cell_angle_alpha   106.24173173
_cell_angle_beta   106.44423623
_cell_angle_gamma   106.16856204
_symmetry_Int_Tables_number   1
_chemical_formula_structural   SrTbDy5CoI12
_chemical_formula_sum   'Sr1 Tb1 Dy5 Co1 I12'
_cell_volume   793.62913673
_cell_formula_units_Z   1
loop_
 _symmetry_equiv_pos_site_id
 _symmetry_equiv_pos_as_xyz
  1  'x, y, z'
loop_
 _atom_site_type_symbol
 _atom_site_label
 _atom_site_symmetry_multiplicity
 _atom_site_fract_x
 _atom_site_fract_y
 _atom_site_fract_z
 _atom_site_occupancy
  Sr  Sr0  1  0.500064  0.499970  0.500007  1
  Tb  Tb1  1  0.721331  0.981605  0.912058  1
  Dy  Dy2  1  0.018609  0.092632  0.292066  1
  Dy  Dy3  1  0.092239  0.291715  0.019679  1
  Dy  Dy4  1  0.277302  0.018350  0.087566  1
  Dy  Dy5  1  0.981320  0.907365  0.707937  1
  Dy  Dy6  1  0.908105  0.708333  0.980384  1
  Co  Co7  1  0.999777  0.000063  0.999962  1
  I  I8  1  0.133788  0.447899  0.367142  1
  I  I9  1  0.447705  0.365730  0.135023  1
  I  I10  1  0.367709  0.134370  0.446018  1
  I  I11  1  0.866384  0.552158  0.632839  1
  I  I12  1  0.552244  0.633021  0.864869  1
  I  I13  1  0.632312  0.865019  0.552776  1
  I  I14  1  0.677991  0.073051  0.222085  1
  I  I15  1  0.073472  0.222905  0.677286  1
  I  I16  1  0.224860  0.679396  0.074221  1
  I  I17  1  0.322027  0.927356  0.779302  1
  I  I18  1  0.926691  0.777095  0.322693  1
  I  I19  1  0.776067  0.321969  0.926087  1
