# generated using pymatgen
data_La7Y3ZnSi7O3
_symmetry_space_group_name_H-M   'P 1'
_cell_length_a   10.82211399
_cell_length_b   10.83605223
_cell_length_c   4.55836800
_cell_angle_alpha   90.00000000
_cell_angle_beta   90.00000000
_cell_angle_gamma   120.04261412
_symmetry_Int_Tables_number   1
_chemical_formula_structural   La7Y3ZnSi7O3
_chemical_formula_sum   'La7 Y3 Zn1 Si7 O3'
_cell_volume   462.73948510
_cell_formula_units_Z   1
loop_
 _symmetry_equiv_pos_site_id
 _symmetry_equiv_pos_as_xyz
  1  'x, y, z'
loop_
 _atom_site_type_symbol
 _atom_site_label
 _atom_site_symmetry_multiplicity
 _atom_site_fract_x
 _atom_site_fract_y
 _atom_site_fract_z
 _atom_site_occupancy
  La  La0  1  0.212453  0.787729  0.000000  1
  La  La1  1  0.576380  0.788439  0.000000  1
  La  La2  1  0.787547  0.575277  0.000000  1
  La  La3  1  0.000000  0.002374  0.000000  1
  La  La4  1  0.211770  0.422978  0.000000  1
  La  La5  1  0.423620  0.212061  0.000000  1
  La  La6  1  0.788230  0.211210  0.000000  1
  Y  Y7  1  0.000000  0.495981  0.500000  1
  Y  Y8  1  0.500012  0.501221  0.500000  1
  Y  Y9  1  0.499988  0.001209  0.500000  1
  Zn  Zn10  1  0.000000  0.777036  0.500000  1
  Si  Si11  1  0.000000  0.220676  0.500000  1
  Si  Si12  1  0.223243  0.222988  0.500000  1
  Si  Si13  1  0.776757  0.999745  0.500000  1
  Si  Si14  1  0.333007  0.666134  0.500000  1
  Si  Si15  1  0.223729  0.002888  0.500000  1
  Si  Si16  1  0.666993  0.333125  0.500000  1
  Si  Si17  1  0.776271  0.779160  0.500000  1
  O  O18  1  0.000000  0.499097  0.000000  1
  O  O19  1  0.499288  0.499980  0.000000  1
  O  O20  1  0.500712  0.000692  0.000000  1
