# generated using pymatgen
data_Mg3ZrAs6Ru7
_symmetry_space_group_name_H-M   'P 1'
_cell_length_a   7.09034992
_cell_length_b   7.09034993
_cell_length_c   6.94474300
_cell_angle_alpha   109.05575652
_cell_angle_beta   109.05575657
_cell_angle_gamma   109.88347013
_symmetry_Int_Tables_number   1
_chemical_formula_structural   Mg3ZrAs6Ru7
_chemical_formula_sum   'Mg3 Zr1 As6 Ru7'
_cell_volume   270.12872896
_cell_formula_units_Z   1
loop_
 _symmetry_equiv_pos_site_id
 _symmetry_equiv_pos_as_xyz
  1  'x, y, z'
loop_
 _atom_site_type_symbol
 _atom_site_label
 _atom_site_symmetry_multiplicity
 _atom_site_fract_x
 _atom_site_fract_y
 _atom_site_fract_z
 _atom_site_occupancy
  Mg  Mg0  1  0.500000  0.000000  0.000000  1
  Mg  Mg1  1  0.000000  0.500000  0.000000  1
  Mg  Mg2  1  0.500000  0.500000  0.500000  1
  Zr  Zr3  1  0.000000  0.000000  0.500000  1
  As  As4  1  0.311456  0.000000  0.307162  1
  As  As5  1  0.000000  0.311456  0.307162  1
  As  As6  1  0.000000  0.688544  0.692838  1
  As  As7  1  0.311456  0.311456  0.004294  1
  As  As8  1  0.688544  0.688544  0.995706  1
  As  As9  1  0.688544  0.000000  0.692838  1
  Ru  Ru10  1  0.749166  0.498333  0.249166  1
  Ru  Ru11  1  0.498333  0.749166  0.249166  1
  Ru  Ru12  1  0.501667  0.250834  0.750834  1
  Ru  Ru13  1  0.749166  0.250834  0.500000  1
  Ru  Ru14  1  0.250834  0.749166  0.500000  1
  Ru  Ru15  1  0.250834  0.501667  0.750834  1
  Ru  Ru16  1  0.000000  0.000000  0.000000  1
