# generated using pymatgen
data_NdNbN2
_symmetry_space_group_name_H-M   'P 1'
_cell_length_a   3.40280500
_cell_length_b   5.82654400
_cell_length_c   11.11262700
_cell_angle_alpha   90.00000000
_cell_angle_beta   90.00000000
_cell_angle_gamma   90.00000000
_symmetry_Int_Tables_number   1
_chemical_formula_structural   NdNbN2
_chemical_formula_sum   'Nd4 Nb4 N8'
_cell_volume   220.32553331
_cell_formula_units_Z   4
loop_
 _symmetry_equiv_pos_site_id
 _symmetry_equiv_pos_as_xyz
  1  'x, y, z'
loop_
 _atom_site_type_symbol
 _atom_site_label
 _atom_site_symmetry_multiplicity
 _atom_site_fract_x
 _atom_site_fract_y
 _atom_site_fract_z
 _atom_site_occupancy
  Nd  Nd0  1  0.250000  0.585052  0.860862  1
  Nd  Nd1  1  0.750000  0.414948  0.139138  1
  Nd  Nd2  1  0.750000  0.914948  0.360862  1
  Nd  Nd3  1  0.250000  0.085052  0.639138  1
  Nb  Nb4  1  0.250000  0.918046  0.107712  1
  Nb  Nb5  1  0.750000  0.081954  0.892288  1
  Nb  Nb6  1  0.750000  0.581954  0.607712  1
  Nb  Nb7  1  0.250000  0.418046  0.392288  1
  N  N8  1  0.250000  0.662098  0.247147  1
  N  N9  1  0.750000  0.337902  0.752853  1
  N  N10  1  0.750000  0.837902  0.747147  1
  N  N11  1  0.250000  0.162098  0.252853  1
  N  N12  1  0.250000  0.728420  0.512840  1
  N  N13  1  0.750000  0.271580  0.487160  1
  N  N14  1  0.750000  0.771580  0.012840  1
  N  N15  1  0.250000  0.228420  0.987160  1
