# generated using pymatgen
data_YLu(ThH5)6
_symmetry_space_group_name_H-M   'P 1'
_cell_length_a   7.80955950
_cell_length_b   7.80569137
_cell_length_c   7.76868100
_cell_angle_alpha   109.47880295
_cell_angle_beta   109.50733546
_cell_angle_gamma   109.70684225
_symmetry_Int_Tables_number   1
_chemical_formula_structural   YLu(ThH5)6
_chemical_formula_sum   'Y1 Lu1 Th6 H30'
_cell_volume   363.29181511
_cell_formula_units_Z   1
loop_
 _symmetry_equiv_pos_site_id
 _symmetry_equiv_pos_as_xyz
  1  'x, y, z'
loop_
 _atom_site_type_symbol
 _atom_site_label
 _atom_site_symmetry_multiplicity
 _atom_site_fract_x
 _atom_site_fract_y
 _atom_site_fract_z
 _atom_site_occupancy
  Y  Y0  1  0.498428  0.999443  0.084124  1
  Lu  Lu1  1  0.912558  0.913375  0.914274  1
  Th  Th2  1  0.993716  0.078961  0.494502  1
  Th  Th3  1  0.084721  0.504878  0.001065  1
  Th  Th4  1  0.998645  0.585039  0.506559  1
  Th  Th5  1  0.584424  0.505167  0.998595  1
  Th  Th6  1  0.505820  0.998255  0.588571  1
  Th  Th7  1  0.415749  0.409840  0.411187  1
  H  H8  1  0.649838  0.962701  0.368589  1
  H  H9  1  0.218151  0.316901  0.846496  1
  H  H10  1  0.187010  0.403854  0.535282  1
  H  H11  1  0.094520  0.275891  0.121621  1
  H  H12  1  0.278231  0.119473  0.091311  1
  H  H13  1  0.120726  0.091307  0.271837  1
  H  H14  1  0.472024  0.155143  0.875588  1
  H  H15  1  0.718911  0.351280  0.812591  1
  H  H16  1  0.626858  0.380069  0.250491  1
  H  H17  1  0.250287  0.623524  0.376869  1
  H  H18  1  0.750497  0.873474  0.125595  1
  H  H19  1  0.122534  0.746945  0.874370  1
  H  H20  1  0.373817  0.246945  0.622758  1
  H  H21  1  0.877286  0.128598  0.749612  1
  H  H22  1  0.781711  0.596589  0.633295  1
  H  H23  1  0.318058  0.849946  0.221835  1
  H  H24  1  0.372945  0.658486  0.966195  1
  H  H25  1  0.962598  0.367808  0.650528  1
  H  H26  1  0.538265  0.186039  0.406236  1
  H  H27  1  0.406338  0.538597  0.187303  1
  H  H28  1  0.840709  0.217283  0.311975  1
  H  H29  1  0.907182  0.694872  0.031690  1
  H  H30  1  0.812236  0.717590  0.349662  1
  H  H31  1  0.152308  0.868595  0.465479  1
  H  H32  1  0.692507  0.027789  0.907608  1
  H  H33  1  0.348580  0.817210  0.724627  1
  H  H34  1  0.871520  0.470834  0.154102  1
  H  H35  1  0.634357  0.780806  0.596495  1
  H  H36  1  0.598949  0.630737  0.779513  1
  H  H37  1  0.026988  0.905764  0.691568  1
