# generated using pymatgen
data_Ho9ErInPb5
_symmetry_space_group_name_H-M   'P 1'
_cell_length_a   9.01007101
_cell_length_b   9.00979040
_cell_length_c   6.64001700
_cell_angle_alpha   89.99992550
_cell_angle_beta   89.99898219
_cell_angle_gamma   120.05450820
_symmetry_Int_Tables_number   1
_chemical_formula_structural   Ho9ErInPb5
_chemical_formula_sum   'Ho9 Er1 In1 Pb5'
_cell_volume   466.55615321
_cell_formula_units_Z   1
loop_
 _symmetry_equiv_pos_site_id
 _symmetry_equiv_pos_as_xyz
  1  'x, y, z'
loop_
 _atom_site_type_symbol
 _atom_site_label
 _atom_site_symmetry_multiplicity
 _atom_site_fract_x
 _atom_site_fract_y
 _atom_site_fract_z
 _atom_site_occupancy
  Ho  Ho0  1  0.663855  0.333648  0.998238  1
  Ho  Ho1  1  0.333651  0.663841  0.998235  1
  Ho  Ho2  1  0.333641  0.663866  0.501758  1
  Ho  Ho3  1  0.760533  0.760484  0.749960  1
  Ho  Ho4  1  0.239152  0.004805  0.749956  1
  Ho  Ho5  1  0.004698  0.239084  0.749963  1
  Ho  Ho6  1  0.237925  0.237886  0.250038  1
  Ho  Ho7  1  0.762307  0.999620  0.250053  1
  Ho  Ho8  1  0.999541  0.762250  0.250048  1
  Er  Er9  1  0.663807  0.333669  0.501797  1
  In  In10  1  0.396538  0.396335  0.749776  1
  Pb  Pb11  1  0.606484  0.000728  0.749751  1
  Pb  Pb12  1  0.000274  0.606221  0.749743  1
  Pb  Pb13  1  0.604798  0.604539  0.250242  1
  Pb  Pb14  1  0.394454  0.998794  0.250222  1
  Pb  Pb15  1  0.998341  0.394228  0.250219  1
