# generated using pymatgen
data_Er6ZnRu3Rh2
_symmetry_space_group_name_H-M   'P 1'
_cell_length_a   4.88646000
_cell_length_b   6.79363800
_cell_length_c   14.59934900
_cell_angle_alpha   90.00003373
_cell_angle_beta   90.00079733
_cell_angle_gamma   90.00023614
_symmetry_Int_Tables_number   1
_chemical_formula_structural   Er6ZnRu3Rh2
_chemical_formula_sum   'Er12 Zn2 Ru6 Rh4'
_cell_volume   484.65225784
_cell_formula_units_Z   2
loop_
 _symmetry_equiv_pos_site_id
 _symmetry_equiv_pos_as_xyz
  1  'x, y, z'
loop_
 _atom_site_type_symbol
 _atom_site_label
 _atom_site_symmetry_multiplicity
 _atom_site_fract_x
 _atom_site_fract_y
 _atom_site_fract_z
 _atom_site_occupancy
  Er  Er0  1  0.500031  0.253958  0.997027  1
  Er  Er1  1  0.500036  0.746039  0.997026  1
  Er  Er2  1  0.999892  0.246053  0.169671  1
  Er  Er3  1  0.999895  0.753950  0.169672  1
  Er  Er4  1  0.499919  0.246331  0.336867  1
  Er  Er5  1  0.499925  0.753674  0.336867  1
  Er  Er6  1  0.999994  0.250785  0.500716  1
  Er  Er7  1  0.999996  0.749218  0.500714  1
  Er  Er8  1  0.500064  0.249221  0.665908  1
  Er  Er9  1  0.500062  0.750781  0.665908  1
  Er  Er10  1  0.000083  0.253695  0.829782  1
  Er  Er11  1  0.000080  0.746302  0.829784  1
  Zn  Zn12  1  0.000064  0.000001  0.999300  1
  Zn  Zn13  1  0.499808  0.500001  0.167318  1
  Ru  Ru14  1  0.000026  0.499999  0.002022  1
  Ru  Ru15  1  0.499922  0.000001  0.164690  1
  Ru  Ru16  1  0.999918  0.500002  0.330944  1
  Ru  Ru17  1  0.499996  0.000004  0.499263  1
  Ru  Ru18  1  0.000114  0.500004  0.667379  1
  Ru  Ru19  1  0.500103  0.999999  0.835829  1
  Rh  Rh20  1  0.999902  0.000003  0.334104  1
  Rh  Rh21  1  0.500004  0.500000  0.500481  1
  Rh  Rh22  1  0.000075  0.999996  0.666201  1
  Rh  Rh23  1  0.500088  0.499990  0.832528  1
