# generated using pymatgen
data_ErTm(GaRu)2
_symmetry_space_group_name_H-M   'P 1'
_cell_length_a   5.27206899
_cell_length_b   5.27232519
_cell_length_c   5.27232559
_cell_angle_alpha   118.22918659
_cell_angle_beta   115.39574191
_cell_angle_gamma   95.63310785
_symmetry_Int_Tables_number   1
_chemical_formula_structural   ErTm(GaRu)2
_chemical_formula_sum   'Er1 Tm1 Ga2 Ru2'
_cell_volume   107.97903262
_cell_formula_units_Z   1
loop_
 _symmetry_equiv_pos_site_id
 _symmetry_equiv_pos_as_xyz
  1  'x, y, z'
loop_
 _atom_site_type_symbol
 _atom_site_label
 _atom_site_symmetry_multiplicity
 _atom_site_fract_x
 _atom_site_fract_y
 _atom_site_fract_z
 _atom_site_occupancy
  Er  Er0  1  0.612928  0.862917  0.750011  1
  Tm  Tm1  1  0.387278  0.137283  0.249996  1
  Ga  Ga2  1  0.999978  0.500203  0.000222  1
  Ga  Ga3  1  0.999978  0.999756  0.499775  1
  Ru  Ru4  1  0.499618  0.499920  0.999697  1
  Ru  Ru5  1  0.000221  0.499921  0.500300  1
