# generated using pymatgen
data_Er7TmIn2RuRh
_symmetry_space_group_name_H-M   'P 1'
_cell_length_a   9.56231944
_cell_length_b   9.56231938
_cell_length_c   9.58109500
_cell_angle_alpha   59.93501626
_cell_angle_beta   59.93501645
_cell_angle_gamma   59.84057663
_symmetry_Int_Tables_number   1
_chemical_formula_structural   Er7TmIn2RuRh
_chemical_formula_sum   'Er14 Tm2 In4 Ru2 Rh2'
_cell_volume   618.12228877
_cell_formula_units_Z   2
loop_
 _symmetry_equiv_pos_site_id
 _symmetry_equiv_pos_as_xyz
  1  'x, y, z'
loop_
 _atom_site_type_symbol
 _atom_site_label
 _atom_site_symmetry_multiplicity
 _atom_site_fract_x
 _atom_site_fract_y
 _atom_site_fract_z
 _atom_site_occupancy
  Er  Er0  1  0.058365  0.058365  0.441635  1
  Er  Er1  1  0.442290  0.060870  0.437271  1
  Er  Er2  1  0.060870  0.442290  0.059570  1
  Er  Er3  1  0.044372  0.652167  0.651731  1
  Er  Er4  1  0.438112  0.438112  0.061888  1
  Er  Er5  1  0.652167  0.044372  0.651731  1
  Er  Er6  1  0.190056  0.809589  0.192863  1
  Er  Er7  1  0.191966  0.191966  0.808034  1
  Er  Er8  1  0.808765  0.808765  0.191235  1
  Er  Er9  1  0.442290  0.060870  0.059570  1
  Er  Er10  1  0.809589  0.190056  0.192863  1
  Er  Er11  1  0.060870  0.442290  0.437271  1
  Er  Er12  1  0.809589  0.190056  0.807492  1
  Er  Er13  1  0.190056  0.809589  0.807492  1
  Tm  Tm14  1  0.651234  0.651234  0.047296  1
  Tm  Tm15  1  0.651234  0.651234  0.650237  1
  In  In16  1  0.417486  0.417486  0.417754  1
  In  In17  1  0.750450  0.416401  0.416574  1
  In  In18  1  0.416401  0.750450  0.416574  1
  In  In19  1  0.417486  0.417486  0.747272  1
  Ru  Ru20  1  0.858065  0.858065  0.422110  1
  Ru  Ru21  1  0.858065  0.858065  0.861758  1
  Rh  Rh22  1  0.423458  0.856766  0.859888  1
  Rh  Rh23  1  0.856766  0.423458  0.859888  1
