# generated using pymatgen
data_TbPrHgIrO7
_symmetry_space_group_name_H-M   'P 1'
_cell_length_a   6.46938772
_cell_length_b   6.75795366
_cell_length_c   7.69447900
_cell_angle_alpha   90.00000000
_cell_angle_beta   90.00000000
_cell_angle_gamma   113.18436628
_symmetry_Int_Tables_number   1
_chemical_formula_structural   TbPrHgIrO7
_chemical_formula_sum   'Tb2 Pr2 Hg2 Ir2 O14'
_cell_volume   309.23443093
_cell_formula_units_Z   2
loop_
 _symmetry_equiv_pos_site_id
 _symmetry_equiv_pos_as_xyz
  1  'x, y, z'
loop_
 _atom_site_type_symbol
 _atom_site_label
 _atom_site_symmetry_multiplicity
 _atom_site_fract_x
 _atom_site_fract_y
 _atom_site_fract_z
 _atom_site_occupancy
  Tb  Tb0  1  0.952755  0.487605  0.750000  1
  Tb  Tb1  1  0.047245  0.512395  0.250000  1
  Pr  Pr2  1  0.000000  0.000000  0.000000  1
  Pr  Pr3  1  0.000000  0.000000  0.500000  1
  Hg  Hg4  1  0.483323  0.981159  0.750000  1
  Hg  Hg5  1  0.516677  0.018841  0.250000  1
  Ir  Ir6  1  0.500000  0.500000  0.000000  1
  Ir  Ir7  1  0.500000  0.500000  0.500000  1
  O  O8  1  0.599264  0.511292  0.750000  1
  O  O9  1  0.400736  0.488708  0.250000  1
  O  O10  1  0.837089  0.118507  0.750000  1
  O  O11  1  0.162911  0.881493  0.250000  1
  O  O12  1  0.129717  0.858640  0.750000  1
  O  O13  1  0.870283  0.141360  0.250000  1
  O  O14  1  0.425640  0.203028  0.000552  1
  O  O15  1  0.574360  0.796972  0.500552  1
  O  O16  1  0.168096  0.425594  0.968255  1
  O  O17  1  0.831904  0.574406  0.468255  1
  O  O18  1  0.425640  0.203028  0.499448  1
  O  O19  1  0.574360  0.796972  0.999448  1
  O  O20  1  0.831904  0.574406  0.031745  1
  O  O21  1  0.168096  0.425594  0.531745  1
