# generated using pymatgen
data_TmLuSc2(Ga3Ir)6
_symmetry_space_group_name_H-M   'P 1'
_cell_length_a   7.54188648
_cell_length_b   7.54128532
_cell_length_c   9.43251000
_cell_angle_alpha   90.00000000
_cell_angle_beta   90.00000000
_cell_angle_gamma   119.94670375
_symmetry_Int_Tables_number   1
_chemical_formula_structural   TmLuSc2(Ga3Ir)6
_chemical_formula_sum   'Tm1 Lu1 Sc2 Ga18 Ir6'
_cell_volume   464.85366167
_cell_formula_units_Z   1
loop_
 _symmetry_equiv_pos_site_id
 _symmetry_equiv_pos_as_xyz
  1  'x, y, z'
loop_
 _atom_site_type_symbol
 _atom_site_label
 _atom_site_symmetry_multiplicity
 _atom_site_fract_x
 _atom_site_fract_y
 _atom_site_fract_z
 _atom_site_occupancy
  Tm  Tm0  1  0.668630  0.997441  0.750000  1
  Lu  Lu1  1  0.996523  0.668469  0.750000  1
  Sc  Sc2  1  0.000084  0.330510  0.250000  1
  Sc  Sc3  1  0.330014  0.999472  0.250000  1
  Ga  Ga4  1  0.127756  0.128173  0.750000  1
  Ga  Ga5  1  0.877339  0.876910  0.250000  1
  Ga  Ga6  1  0.000417  0.335342  0.577601  1
  Ga  Ga7  1  0.005019  0.665730  0.413228  1
  Ga  Ga8  1  0.005019  0.665730  0.086772  1
  Ga  Ga9  1  0.333652  0.999363  0.922664  1
  Ga  Ga10  1  0.000417  0.335342  0.922399  1
  Ga  Ga11  1  0.665858  0.005096  0.087497  1
  Ga  Ga12  1  0.665858  0.005096  0.412503  1
  Ga  Ga13  1  0.333652  0.999363  0.577336  1
  Ga  Ga14  1  0.328234  0.328195  0.074584  1
  Ga  Ga15  1  0.667826  0.667427  0.938183  1
  Ga  Ga16  1  0.667826  0.667427  0.561817  1
  Ga  Ga17  1  0.328234  0.328195  0.425416  1
  Ga  Ga18  1  0.340176  0.546809  0.750000  1
  Ga  Ga19  1  0.659922  0.447887  0.250000  1
  Ga  Ga20  1  0.545592  0.338592  0.750000  1
  Ga  Ga21  1  0.448365  0.659546  0.250000  1
  Ir  Ir22  1  0.672758  0.329299  0.500138  1
  Ir  Ir23  1  0.329872  0.673092  0.500036  1
  Ir  Ir24  1  0.329872  0.673092  0.999964  1
  Ir  Ir25  1  0.672758  0.329299  0.999862  1
  Ir  Ir26  1  0.999165  0.999550  0.499698  1
  Ir  Ir27  1  0.999165  0.999550  0.000302  1
