# generated using pymatgen
data_Dy4Er8Tc3Ru
_symmetry_space_group_name_H-M   'P 1'
_cell_length_a   6.25097801
_cell_length_b   7.35617202
_cell_length_c   9.06311200
_cell_angle_alpha   90.00000000
_cell_angle_beta   90.00000000
_cell_angle_gamma   90.00693292
_symmetry_Int_Tables_number   1
_chemical_formula_structural   Dy4Er8Tc3Ru
_chemical_formula_sum   'Dy4 Er8 Tc3 Ru1'
_cell_volume   416.75151861
_cell_formula_units_Z   1
loop_
 _symmetry_equiv_pos_site_id
 _symmetry_equiv_pos_as_xyz
  1  'x, y, z'
loop_
 _atom_site_type_symbol
 _atom_site_label
 _atom_site_symmetry_multiplicity
 _atom_site_fract_x
 _atom_site_fract_y
 _atom_site_fract_z
 _atom_site_occupancy
  Dy  Dy0  1  0.873836  0.540323  0.250000  1
  Dy  Dy1  1  0.626487  0.039291  0.250000  1
  Dy  Dy2  1  0.129797  0.458815  0.750000  1
  Dy  Dy3  1  0.374309  0.958047  0.750000  1
  Er  Er4  1  0.336425  0.676648  0.062847  1
  Er  Er5  1  0.161132  0.175987  0.437960  1
  Er  Er6  1  0.661322  0.324098  0.562796  1
  Er  Er7  1  0.837999  0.823895  0.937508  1
  Er  Er8  1  0.661322  0.324098  0.937204  1
  Er  Er9  1  0.837999  0.823895  0.562492  1
  Er  Er10  1  0.336425  0.676648  0.437153  1
  Er  Er11  1  0.161132  0.175987  0.062040  1
  Tc  Tc12  1  0.041295  0.884293  0.250000  1
  Tc  Tc13  1  0.460100  0.386248  0.250000  1
  Tc  Tc14  1  0.960022  0.115672  0.750000  1
  Ru  Ru15  1  0.540397  0.616055  0.750000  1
