# generated using pymatgen
data_Sc2Be2SnRh5
_symmetry_space_group_name_H-M   'P 1'
_cell_length_a   9.57109700
_cell_length_b   9.57109700
_cell_length_c   3.19976300
_cell_angle_alpha   90.00000000
_cell_angle_beta   90.00000000
_cell_angle_gamma   90.00000000
_symmetry_Int_Tables_number   1
_chemical_formula_structural   Sc2Be2SnRh5
_chemical_formula_sum   'Sc4 Be4 Sn2 Rh10'
_cell_volume   293.11716231
_cell_formula_units_Z   2
loop_
 _symmetry_equiv_pos_site_id
 _symmetry_equiv_pos_as_xyz
  1  'x, y, z'
loop_
 _atom_site_type_symbol
 _atom_site_label
 _atom_site_symmetry_multiplicity
 _atom_site_fract_x
 _atom_site_fract_y
 _atom_site_fract_z
 _atom_site_occupancy
  Sc  Sc0  1  0.825174  0.325174  0.000000  1
  Sc  Sc1  1  0.325174  0.174826  0.000000  1
  Sc  Sc2  1  0.674826  0.825174  0.000000  1
  Sc  Sc3  1  0.174826  0.674826  0.000000  1
  Be  Be4  1  0.620955  0.120955  0.000000  1
  Be  Be5  1  0.120955  0.379045  0.000000  1
  Be  Be6  1  0.879045  0.620955  0.000000  1
  Be  Be7  1  0.379045  0.879045  0.000000  1
  Sn  Sn8  1  0.000000  0.000000  0.000000  1
  Sn  Sn9  1  0.500000  0.500000  0.000000  1
  Rh  Rh10  1  0.071481  0.215469  0.500000  1
  Rh  Rh11  1  0.215469  0.928519  0.500000  1
  Rh  Rh12  1  0.784531  0.071481  0.500000  1
  Rh  Rh13  1  0.928519  0.784531  0.500000  1
  Rh  Rh14  1  0.428519  0.715469  0.500000  1
  Rh  Rh15  1  0.571481  0.284531  0.500000  1
  Rh  Rh16  1  0.715469  0.571481  0.500000  1
  Rh  Rh17  1  0.284531  0.428519  0.500000  1
  Rh  Rh18  1  0.500000  0.000000  0.500000  1
  Rh  Rh19  1  0.000000  0.500000  0.500000  1
