# generated using pymatgen
data_La3Nd3IrI10
_symmetry_space_group_name_H-M   'P 1'
_cell_length_a   8.07593308
_cell_length_b   10.03836357
_cell_length_c   10.17231244
_cell_angle_alpha   107.52974095
_cell_angle_beta   105.45840407
_cell_angle_gamma   96.37715435
_symmetry_Int_Tables_number   1
_chemical_formula_structural   La3Nd3IrI10
_chemical_formula_sum   'La3 Nd3 Ir1 I10'
_cell_volume   741.30709985
_cell_formula_units_Z   1
loop_
 _symmetry_equiv_pos_site_id
 _symmetry_equiv_pos_as_xyz
  1  'x, y, z'
loop_
 _atom_site_type_symbol
 _atom_site_label
 _atom_site_symmetry_multiplicity
 _atom_site_fract_x
 _atom_site_fract_y
 _atom_site_fract_z
 _atom_site_occupancy
  La  La0  1  0.970644  0.091216  0.295877  1
  La  La1  1  0.115042  0.763694  0.041243  1
  La  La2  1  0.883806  0.235815  0.958936  1
  Nd  Nd3  1  0.644693  0.828818  0.869393  1
  Nd  Nd4  1  0.355220  0.170838  0.128163  1
  Nd  Nd5  1  0.029398  0.909936  0.709557  1
  Ir  Ir6  1  0.999893  0.000058  0.000583  1
  I  I7  1  0.646600  0.729268  0.547791  1
  I  I8  1  0.360705  0.272899  0.451840  1
  I  I9  1  0.216336  0.651428  0.738898  1
  I  I10  1  0.780375  0.351904  0.258844  1
  I  I11  1  0.450095  0.088529  0.818843  1
  I  I12  1  0.546851  0.909526  0.178179  1
  I  I13  1  0.261585  0.460491  0.087378  1
  I  I14  1  0.737246  0.539257  0.911458  1
  I  I15  1  0.085652  0.817600  0.371583  1
  I  I16  1  0.915858  0.178725  0.631433  1
