# generated using pymatgen
data_Pr6Ho2Sc12Si15Os
_symmetry_space_group_name_H-M   'P 1'
_cell_length_a   7.21292717
_cell_length_b   7.55591784
_cell_length_c   14.16314393
_cell_angle_alpha   89.75253738
_cell_angle_beta   90.08581363
_cell_angle_gamma   90.24488797
_symmetry_Int_Tables_number   1
_chemical_formula_structural   Pr6Ho2Sc12Si15Os
_chemical_formula_sum   'Pr6 Ho2 Sc12 Si15 Os1'
_cell_volume   771.88028729
_cell_formula_units_Z   1
loop_
 _symmetry_equiv_pos_site_id
 _symmetry_equiv_pos_as_xyz
  1  'x, y, z'
loop_
 _atom_site_type_symbol
 _atom_site_label
 _atom_site_symmetry_multiplicity
 _atom_site_fract_x
 _atom_site_fract_y
 _atom_site_fract_z
 _atom_site_occupancy
  Pr  Pr0  1  0.011109  0.176755  0.098441  1
  Pr  Pr1  1  0.990362  0.829085  0.900671  1
  Pr  Pr2  1  0.488304  0.671960  0.904201  1
  Pr  Pr3  1  0.990536  0.827627  0.595523  1
  Pr  Pr4  1  0.510910  0.328067  0.095735  1
  Pr  Pr5  1  0.012021  0.177191  0.404322  1
  Ho  Ho6  1  0.510510  0.323533  0.403624  1
  Ho  Ho7  1  0.487419  0.677405  0.597141  1
  Sc  Sc8  1  0.153317  0.489640  0.748860  1
  Sc  Sc9  1  0.839835  0.498081  0.251410  1
  Sc  Sc10  1  0.339606  0.002755  0.251624  1
  Sc  Sc11  1  0.668432  0.002217  0.748527  1
  Sc  Sc12  1  0.319580  0.172932  0.626566  1
  Sc  Sc13  1  0.670558  0.824702  0.374327  1
  Sc  Sc14  1  0.173572  0.675464  0.375463  1
  Sc  Sc15  1  0.671528  0.827673  0.128198  1
  Sc  Sc16  1  0.835796  0.318705  0.626648  1
  Sc  Sc17  1  0.318674  0.170848  0.870971  1
  Sc  Sc18  1  0.835600  0.319101  0.870935  1
  Sc  Sc19  1  0.173583  0.676917  0.127096  1
  Si  Si20  1  0.968943  0.874874  0.251574  1
  Si  Si21  1  0.470067  0.617679  0.252462  1
  Si  Si22  1  0.528458  0.385704  0.747141  1
  Si  Si23  1  0.290568  0.876166  0.747043  1
  Si  Si24  1  0.707937  0.125052  0.252663  1
  Si  Si25  1  0.216048  0.378240  0.253048  1
  Si  Si26  1  0.776058  0.619414  0.746380  1
  Si  Si27  1  0.161665  0.469512  0.537970  1
  Si  Si28  1  0.842569  0.535507  0.460803  1
  Si  Si29  1  0.352094  0.964167  0.459739  1
  Si  Si30  1  0.850977  0.539839  0.039253  1
  Si  Si31  1  0.648808  0.035243  0.538322  1
  Si  Si32  1  0.152788  0.466806  0.962761  1
  Si  Si33  1  0.650308  0.035640  0.961475  1
  Si  Si34  1  0.350003  0.963817  0.040418  1
  Os  Os35  1  0.031455  0.121681  0.748664  1
