# generated using pymatgen
data_CaTh2ZrSb5
_symmetry_space_group_name_H-M   'P 1'
_cell_length_a   9.33524900
_cell_length_b   9.50813825
_cell_length_c   6.42329200
_cell_angle_alpha   90.00000000
_cell_angle_beta   90.00000000
_cell_angle_gamma   119.40029909
_symmetry_Int_Tables_number   1
_chemical_formula_structural   CaTh2ZrSb5
_chemical_formula_sum   'Ca2 Th4 Zr2 Sb10'
_cell_volume   496.70957724
_cell_formula_units_Z   2
loop_
 _symmetry_equiv_pos_site_id
 _symmetry_equiv_pos_as_xyz
  1  'x, y, z'
loop_
 _atom_site_type_symbol
 _atom_site_label
 _atom_site_symmetry_multiplicity
 _atom_site_fract_x
 _atom_site_fract_y
 _atom_site_fract_z
 _atom_site_occupancy
  Ca  Ca0  1  0.612320  0.000000  0.250000  1
  Ca  Ca1  1  0.387680  0.000000  0.750000  1
  Th  Th2  1  0.007479  0.622852  0.250000  1
  Th  Th3  1  0.992521  0.377148  0.750000  1
  Th  Th4  1  0.384628  0.377148  0.250000  1
  Th  Th5  1  0.615372  0.622852  0.750000  1
  Zr  Zr6  1  0.000000  0.000000  0.000000  1
  Zr  Zr7  1  0.000000  0.000000  0.500000  1
  Sb  Sb8  1  0.266405  0.000000  0.250000  1
  Sb  Sb9  1  0.733595  0.000000  0.750000  1
  Sb  Sb10  1  0.997005  0.264013  0.250000  1
  Sb  Sb11  1  0.002995  0.735987  0.750000  1
  Sb  Sb12  1  0.732992  0.735987  0.250000  1
  Sb  Sb13  1  0.267008  0.264013  0.750000  1
  Sb  Sb14  1  0.327205  0.654409  0.000000  1
  Sb  Sb15  1  0.672795  0.345591  0.000000  1
  Sb  Sb16  1  0.672795  0.345591  0.500000  1
  Sb  Sb17  1  0.327205  0.654409  0.500000  1
