# generated using pymatgen
data_Y2Co5NiP4
_symmetry_space_group_name_H-M   'P 1'
_cell_length_a   10.50617100
_cell_length_b   3.72831800
_cell_length_c   12.22719500
_cell_angle_alpha   90.00000000
_cell_angle_beta   90.00000000
_cell_angle_gamma   90.00000000
_symmetry_Int_Tables_number   1
_chemical_formula_structural   Y2Co5NiP4
_chemical_formula_sum   'Y6 Co15 Ni3 P12'
_cell_volume   478.94346427
_cell_formula_units_Z   3
loop_
 _symmetry_equiv_pos_site_id
 _symmetry_equiv_pos_as_xyz
  1  'x, y, z'
loop_
 _atom_site_type_symbol
 _atom_site_label
 _atom_site_symmetry_multiplicity
 _atom_site_fract_x
 _atom_site_fract_y
 _atom_site_fract_z
 _atom_site_occupancy
  Y  Y0  1  0.065862  0.750001  0.205294  1
  Y  Y1  1  0.434139  0.750001  0.205294  1
  Y  Y2  1  0.250000  0.750001  0.479997  1
  Y  Y3  1  0.750000  0.250000  0.521360  1
  Y  Y4  1  0.564681  0.250000  0.794061  1
  Y  Y5  1  0.935319  0.250000  0.794061  1
  Co  Co6  1  0.084040  0.250000  0.004343  1
  Co  Co7  1  0.415961  0.250000  0.004343  1
  Co  Co8  1  0.250000  0.750001  0.013461  1
  Co  Co9  1  0.629518  0.250000  0.289699  1
  Co  Co10  1  0.870481  0.250000  0.289699  1
  Co  Co11  1  0.548466  0.750001  0.430170  1
  Co  Co12  1  0.951534  0.750001  0.430170  1
  Co  Co13  1  0.048542  0.250000  0.569572  1
  Co  Co14  1  0.451458  0.250000  0.569572  1
  Co  Co15  1  0.129634  0.750001  0.710596  1
  Co  Co16  1  0.370367  0.750001  0.710596  1
  Co  Co17  1  0.250000  0.250000  0.840556  1
  Co  Co18  1  0.750000  0.250000  0.984690  1
  Co  Co19  1  0.583435  0.750001  0.995376  1
  Co  Co20  1  0.916564  0.750001  0.995376  1
  Ni  Ni21  1  0.750000  0.750001  0.161582  1
  Ni  Ni22  1  0.250000  0.250000  0.296813  1
  Ni  Ni23  1  0.750000  0.750001  0.703278  1
  P  P24  1  0.596612  0.250000  0.105165  1
  P  P25  1  0.903388  0.250000  0.105165  1
  P  P26  1  0.250000  0.250000  0.116504  1
  P  P27  1  0.750000  0.750001  0.345847  1
  P  P28  1  0.060123  0.250000  0.384679  1
  P  P29  1  0.439878  0.250000  0.384679  1
  P  P30  1  0.559213  0.750001  0.615322  1
  P  P31  1  0.940787  0.750001  0.615322  1
  P  P32  1  0.250000  0.250000  0.656659  1
  P  P33  1  0.750000  0.750001  0.883225  1
  P  P34  1  0.097538  0.750001  0.893737  1
  P  P35  1  0.402462  0.750001  0.893737  1
