# generated using pymatgen
data_DyTh3(Ga3Ir)6
_symmetry_space_group_name_H-M   'P 1'
_cell_length_a   7.68157400
_cell_length_b   7.69204796
_cell_length_c   9.46486100
_cell_angle_alpha   90.00000000
_cell_angle_beta   90.00000000
_cell_angle_gamma   119.74987866
_symmetry_Int_Tables_number   1
_chemical_formula_structural   DyTh3(Ga3Ir)6
_chemical_formula_sum   'Dy1 Th3 Ga18 Ir6'
_cell_volume   485.54127717
_cell_formula_units_Z   1
loop_
 _symmetry_equiv_pos_site_id
 _symmetry_equiv_pos_as_xyz
  1  'x, y, z'
loop_
 _atom_site_type_symbol
 _atom_site_label
 _atom_site_symmetry_multiplicity
 _atom_site_fract_x
 _atom_site_fract_y
 _atom_site_fract_z
 _atom_site_occupancy
  Dy  Dy0  1  0.328304  0.004755  0.750000  1
  Th  Th1  1  0.996676  0.670458  0.250000  1
  Th  Th2  1  0.002207  0.329696  0.750000  1
  Th  Th3  1  0.669896  0.995735  0.250000  1
  Ga  Ga4  1  0.136683  0.133080  0.250000  1
  Ga  Ga5  1  0.869380  0.868151  0.750000  1
  Ga  Ga6  1  0.004781  0.335487  0.079869  1
  Ga  Ga7  1  0.002307  0.670543  0.916821  1
  Ga  Ga8  1  0.002307  0.670543  0.583179  1
  Ga  Ga9  1  0.335383  0.003372  0.426657  1
  Ga  Ga10  1  0.004781  0.335487  0.420131  1
  Ga  Ga11  1  0.658399  0.996837  0.583097  1
  Ga  Ga12  1  0.658399  0.996837  0.916903  1
  Ga  Ga13  1  0.335383  0.003372  0.073343  1
  Ga  Ga14  1  0.335374  0.330845  0.564347  1
  Ga  Ga15  1  0.663796  0.663583  0.442630  1
  Ga  Ga16  1  0.663796  0.663583  0.057370  1
  Ga  Ga17  1  0.335374  0.330845  0.935653  1
  Ga  Ga18  1  0.343053  0.543722  0.250000  1
  Ga  Ga19  1  0.655577  0.450392  0.750000  1
  Ga  Ga20  1  0.543752  0.338978  0.250000  1
  Ga  Ga21  1  0.454346  0.661675  0.750000  1
  Ir  Ir22  1  0.675595  0.329937  0.000384  1
  Ir  Ir23  1  0.327042  0.670680  0.000445  1
  Ir  Ir24  1  0.327042  0.670680  0.499555  1
  Ir  Ir25  1  0.675595  0.329937  0.499616  1
  Ir  Ir26  1  0.997387  0.000399  0.000576  1
  Ir  Ir27  1  0.997387  0.000399  0.499424  1
