# generated using pymatgen
data_Rb(HfTe2)2
_symmetry_space_group_name_H-M   'P 1'
_cell_length_a   6.96871300
_cell_length_b   8.07537900
_cell_length_c   18.48898100
_cell_angle_alpha   90.00000000
_cell_angle_beta   90.00000000
_cell_angle_gamma   90.00000000
_symmetry_Int_Tables_number   1
_chemical_formula_structural   Rb(HfTe2)2
_chemical_formula_sum   'Rb4 Hf8 Te16'
_cell_volume   1040.46738021
_cell_formula_units_Z   4
loop_
 _symmetry_equiv_pos_site_id
 _symmetry_equiv_pos_as_xyz
  1  'x, y, z'
loop_
 _atom_site_type_symbol
 _atom_site_label
 _atom_site_symmetry_multiplicity
 _atom_site_fract_x
 _atom_site_fract_y
 _atom_site_fract_z
 _atom_site_occupancy
  Rb  Rb0  1  0.348064  0.000000  0.000000  1
  Rb  Rb1  1  0.651936  0.500000  0.500000  1
  Rb  Rb2  1  0.031325  0.000000  0.500000  1
  Rb  Rb3  1  0.968675  0.500000  0.000000  1
  Hf  Hf4  1  0.000855  0.000000  0.249732  1
  Hf  Hf5  1  0.000855  0.000000  0.750268  1
  Hf  Hf6  1  0.999145  0.500000  0.250268  1
  Hf  Hf7  1  0.999145  0.500000  0.749732  1
  Hf  Hf8  1  0.500000  0.250000  0.250000  1
  Hf  Hf9  1  0.500000  0.750000  0.750000  1
  Hf  Hf10  1  0.500000  0.750000  0.250000  1
  Hf  Hf11  1  0.500000  0.250000  0.750000  1
  Te  Te12  1  0.834314  0.249157  0.344897  1
  Te  Te13  1  0.834314  0.750843  0.655103  1
  Te  Te14  1  0.165686  0.749157  0.155103  1
  Te  Te15  1  0.165686  0.250843  0.844897  1
  Te  Te16  1  0.165686  0.250843  0.155103  1
  Te  Te17  1  0.165686  0.749157  0.844897  1
  Te  Te18  1  0.834314  0.750843  0.344897  1
  Te  Te19  1  0.834314  0.249157  0.655103  1
  Te  Te20  1  0.669333  0.000000  0.155597  1
  Te  Te21  1  0.669333  0.000000  0.844403  1
  Te  Te22  1  0.330667  0.500000  0.344403  1
  Te  Te23  1  0.330667  0.500000  0.655597  1
  Te  Te24  1  0.337097  0.000000  0.343793  1
  Te  Te25  1  0.337097  0.000000  0.656207  1
  Te  Te26  1  0.662903  0.500000  0.156207  1
  Te  Te27  1  0.662903  0.500000  0.843793  1
