# generated using pymatgen
data_NdTh2Al3CoNi2
_symmetry_space_group_name_H-M   'P 1'
_cell_length_a   7.02251715
_cell_length_b   7.10955972
_cell_length_c   4.00918000
_cell_angle_alpha   90.00000000
_cell_angle_beta   90.00000000
_cell_angle_gamma   119.75903099
_symmetry_Int_Tables_number   1
_chemical_formula_structural   NdTh2Al3CoNi2
_chemical_formula_sum   'Nd1 Th2 Al3 Co1 Ni2'
_cell_volume   173.76852991
_cell_formula_units_Z   1
loop_
 _symmetry_equiv_pos_site_id
 _symmetry_equiv_pos_as_xyz
  1  'x, y, z'
loop_
 _atom_site_type_symbol
 _atom_site_label
 _atom_site_symmetry_multiplicity
 _atom_site_fract_x
 _atom_site_fract_y
 _atom_site_fract_z
 _atom_site_occupancy
  Nd  Nd0  1  0.418903  0.998888  0.500000  1
  Th  Th1  1  0.008232  0.428081  0.500000  1
  Th  Th2  1  0.574541  0.578835  0.500000  1
  Al  Al3  1  0.004153  0.776853  0.000000  1
  Al  Al4  1  0.226662  0.225711  0.000000  1
  Al  Al5  1  0.765634  0.999497  0.000000  1
  Co  Co6  1  0.328487  0.638032  0.000000  1
  Ni  Ni7  1  0.684471  0.354932  0.000000  1
  Ni  Ni8  1  0.988918  0.999171  0.500000  1
