# generated using pymatgen
data_Dy4Y8Zn(InFe)2
_symmetry_space_group_name_H-M   'P 1'
_cell_length_a   8.42287581
_cell_length_b   8.42286056
_cell_length_c   8.42287527
_cell_angle_alpha   109.76013474
_cell_angle_beta   109.76030630
_cell_angle_gamma   108.89483040
_symmetry_Int_Tables_number   1
_chemical_formula_structural   Dy4Y8Zn(InFe)2
_chemical_formula_sum   'Dy4 Y8 Zn1 In2 Fe2'
_cell_volume   459.96538427
_cell_formula_units_Z   1
loop_
 _symmetry_equiv_pos_site_id
 _symmetry_equiv_pos_as_xyz
  1  'x, y, z'
loop_
 _atom_site_type_symbol
 _atom_site_label
 _atom_site_symmetry_multiplicity
 _atom_site_fract_x
 _atom_site_fract_y
 _atom_site_fract_z
 _atom_site_occupancy
  Dy  Dy0  1  0.306133  0.306138  0.612270  1
  Dy  Dy1  1  0.693867  0.693862  0.387730  1
  Dy  Dy2  1  0.306132  0.693862  0.999996  1
  Dy  Dy3  1  0.693868  0.306138  0.000004  1
  Y  Y4  1  0.445637  0.201425  0.244210  1
  Y  Y5  1  0.554363  0.798575  0.755790  1
  Y  Y6  1  0.957216  0.201425  0.755788  1
  Y  Y7  1  0.201438  0.957236  0.755797  1
  Y  Y8  1  0.042784  0.798575  0.244212  1
  Y  Y9  1  0.798562  0.042764  0.244203  1
  Y  Y10  1  0.201447  0.445654  0.244207  1
  Y  Y11  1  0.798553  0.554346  0.755793  1
  Zn  Zn12  1  0.000000  0.000000  0.000000  1
  In  In13  1  0.500000  0.000000  0.500000  1
  In  In14  1  0.000000  0.500000  0.500000  1
  Fe  Fe15  1  0.388378  0.388377  0.000000  1
  Fe  Fe16  1  0.611622  0.611623  0.000000  1
