# generated using pymatgen
data_Yb2InRu4PbO14
_symmetry_space_group_name_H-M   'P 1'
_cell_length_a   7.17322035
_cell_length_b   7.23902912
_cell_length_c   7.23902857
_cell_angle_alpha   60.86529005
_cell_angle_beta   60.41613111
_cell_angle_gamma   60.41613791
_symmetry_Int_Tables_number   1
_chemical_formula_structural   Yb2InRu4PbO14
_chemical_formula_sum   'Yb2 In1 Ru4 Pb1 O14'
_cell_volume   269.18975012
_cell_formula_units_Z   1
loop_
 _symmetry_equiv_pos_site_id
 _symmetry_equiv_pos_as_xyz
  1  'x, y, z'
loop_
 _atom_site_type_symbol
 _atom_site_label
 _atom_site_symmetry_multiplicity
 _atom_site_fract_x
 _atom_site_fract_y
 _atom_site_fract_z
 _atom_site_occupancy
  Yb  Yb0  1  0.125000  0.125000  0.625000  1
  Yb  Yb1  1  0.125000  0.625000  0.125000  1
  In  In2  1  0.125000  0.125000  0.125000  1
  Ru  Ru3  1  0.625000  0.625000  0.625000  1
  Ru  Ru4  1  0.125000  0.625000  0.625000  1
  Ru  Ru5  1  0.625000  0.625000  0.125000  1
  Ru  Ru6  1  0.625000  0.125000  0.625000  1
  Pb  Pb7  1  0.625000  0.125000  0.125000  1
  O  O8  1  0.024164  0.003155  0.003155  1
  O  O9  1  0.225836  0.246845  0.246845  1
  O  O10  1  0.304362  0.303972  0.691795  1
  O  O11  1  0.551692  0.546587  0.950230  1
  O  O12  1  0.698308  0.299770  0.703413  1
  O  O13  1  0.709930  0.295203  0.295203  1
  O  O14  1  0.300535  0.700822  0.700822  1
  O  O15  1  0.304362  0.691795  0.303972  1
  O  O16  1  0.698308  0.703413  0.299770  1
  O  O17  1  0.949465  0.549178  0.549178  1
  O  O18  1  0.540070  0.954797  0.954797  1
  O  O19  1  0.945638  0.946028  0.558205  1
  O  O20  1  0.945638  0.558205  0.946028  1
  O  O21  1  0.551692  0.950230  0.546587  1
