# generated using pymatgen
data_Fe21(B3W)2
_symmetry_space_group_name_H-M   'P 1'
_cell_length_a   7.51304144
_cell_length_b   7.51296346
_cell_length_c   7.51309000
_cell_angle_alpha   59.99599806
_cell_angle_beta   59.99723569
_cell_angle_gamma   59.99421591
_symmetry_Int_Tables_number   1
_chemical_formula_structural   Fe21(B3W)2
_chemical_formula_sum   'Fe21 B6 W2'
_cell_volume   299.83992337
_cell_formula_units_Z   1
loop_
 _symmetry_equiv_pos_site_id
 _symmetry_equiv_pos_as_xyz
  1  'x, y, z'
loop_
 _atom_site_type_symbol
 _atom_site_label
 _atom_site_symmetry_multiplicity
 _atom_site_fract_x
 _atom_site_fract_y
 _atom_site_fract_z
 _atom_site_occupancy
  Fe  Fe0  1  0.000000  0.000000  0.000000  1
  Fe  Fe1  1  0.617592  0.617666  0.147052  1
  Fe  Fe2  1  0.617710  0.147004  0.617628  1
  Fe  Fe3  1  0.147037  0.617735  0.617582  1
  Fe  Fe4  1  0.617651  0.617686  0.617684  1
  Fe  Fe5  1  0.382408  0.382334  0.852948  1
  Fe  Fe6  1  0.382290  0.852996  0.382372  1
  Fe  Fe7  1  0.852963  0.382265  0.382418  1
  Fe  Fe8  1  0.382349  0.382314  0.382316  1
  Fe  Fe9  1  0.000014  0.999984  0.342301  1
  Fe  Fe10  1  0.657791  0.000024  0.342233  1
  Fe  Fe11  1  0.000015  0.657827  0.342239  1
  Fe  Fe12  1  0.657733  0.342222  0.000008  1
  Fe  Fe13  1  0.999995  0.342130  0.000062  1
  Fe  Fe14  1  0.999985  0.342173  0.657761  1
  Fe  Fe15  1  0.342267  0.657778  0.999992  1
  Fe  Fe16  1  0.342209  0.999976  0.657767  1
  Fe  Fe17  1  0.342205  0.999958  0.000058  1
  Fe  Fe18  1  0.999986  0.000016  0.657699  1
  Fe  Fe19  1  0.000005  0.657870  0.999938  1
  Fe  Fe20  1  0.657795  0.000042  0.999942  1
  B  B21  1  0.724173  0.724231  0.275835  1
  B  B22  1  0.275747  0.724244  0.275768  1
  B  B23  1  0.724203  0.275730  0.275809  1
  B  B24  1  0.275827  0.275769  0.724165  1
  B  B25  1  0.724253  0.275756  0.724232  1
  B  B26  1  0.275797  0.724270  0.724191  1
  W  W27  1  0.749970  0.749989  0.749974  1
  W  W28  1  0.250030  0.250011  0.250026  1
