# generated using pymatgen
data_Ho9ErIr5Pt
_symmetry_space_group_name_H-M   'P 1'
_cell_length_a   10.88496617
_cell_length_b   10.88884800
_cell_length_c   6.32035500
_cell_angle_alpha   90.00000000
_cell_angle_beta   89.94948346
_cell_angle_gamma   90.00000000
_symmetry_Int_Tables_number   1
_chemical_formula_structural   Ho9ErIr5Pt
_chemical_formula_sum   'Ho18 Er2 Ir10 Pt2'
_cell_volume   749.11815498
_cell_formula_units_Z   2
loop_
 _symmetry_equiv_pos_site_id
 _symmetry_equiv_pos_as_xyz
  1  'x, y, z'
loop_
 _atom_site_type_symbol
 _atom_site_label
 _atom_site_symmetry_multiplicity
 _atom_site_fract_x
 _atom_site_fract_y
 _atom_site_fract_z
 _atom_site_occupancy
  Ho  Ho0  1  0.291262  0.088067  0.375867  1
  Ho  Ho1  1  0.291262  0.911933  0.875867  1
  Ho  Ho2  1  0.705571  0.089732  0.874085  1
  Ho  Ho3  1  0.705571  0.910268  0.374085  1
  Ho  Ho4  1  0.584655  0.790809  0.877986  1
  Ho  Ho5  1  0.584655  0.209191  0.377986  1
  Ho  Ho6  1  0.411175  0.791260  0.377069  1
  Ho  Ho7  1  0.411175  0.208740  0.877069  1
  Ho  Ho8  1  0.209000  0.411789  0.622519  1
  Ho  Ho9  1  0.209000  0.588211  0.122519  1
  Ho  Ho10  1  0.790773  0.414655  0.122933  1
  Ho  Ho11  1  0.790773  0.585345  0.622933  1
  Ho  Ho12  1  0.913513  0.707138  0.126709  1
  Ho  Ho13  1  0.913513  0.292862  0.626709  1
  Ho  Ho14  1  0.091120  0.706962  0.622891  1
  Ho  Ho15  1  0.091120  0.293038  0.122891  1
  Ho  Ho16  1  0.002781  0.999705  0.500048  1
  Ho  Ho17  1  0.002781  0.000295  0.000048  1
  Er  Er18  1  0.499874  0.499625  0.999791  1
  Er  Er19  1  0.499874  0.500375  0.499791  1
  Ir  Ir20  1  0.152932  0.153841  0.750175  1
  Ir  Ir21  1  0.152932  0.846159  0.250175  1
  Ir  Ir22  1  0.654614  0.346016  0.749681  1
  Ir  Ir23  1  0.654614  0.653984  0.249681  1
  Ir  Ir24  1  0.346810  0.346450  0.250251  1
  Ir  Ir25  1  0.346810  0.653550  0.750251  1
  Ir  Ir26  1  0.500828  0.999808  0.122934  1
  Ir  Ir27  1  0.500828  0.000192  0.622934  1
  Ir  Ir28  1  0.999522  0.500084  0.877326  1
  Ir  Ir29  1  0.999522  0.499916  0.377326  1
  Pt  Pt30  1  0.845571  0.153541  0.249734  1
  Pt  Pt31  1  0.845571  0.846459  0.749734  1
