# generated using pymatgen
data_Er6Al6PtAu5
_symmetry_space_group_name_H-M   'P 1'
_cell_length_a   7.31042100
_cell_length_b   7.31042136
_cell_length_c   7.99843100
_cell_angle_alpha   90.00000000
_cell_angle_beta   90.00000000
_cell_angle_gamma   119.99999386
_symmetry_Int_Tables_number   1
_chemical_formula_structural   Er6Al6PtAu5
_chemical_formula_sum   'Er6 Al6 Pt1 Au5'
_cell_volume   370.18622911
_cell_formula_units_Z   1
loop_
 _symmetry_equiv_pos_site_id
 _symmetry_equiv_pos_as_xyz
  1  'x, y, z'
loop_
 _atom_site_type_symbol
 _atom_site_label
 _atom_site_symmetry_multiplicity
 _atom_site_fract_x
 _atom_site_fract_y
 _atom_site_fract_z
 _atom_site_occupancy
  Er  Er0  1  0.581207  0.993442  0.750000  1
  Er  Er1  1  0.006558  0.587766  0.750000  1
  Er  Er2  1  0.412234  0.418793  0.750000  1
  Er  Er3  1  0.993052  0.589973  0.250000  1
  Er  Er4  1  0.596921  0.006948  0.250000  1
  Er  Er5  1  0.410027  0.403079  0.250000  1
  Al  Al6  1  0.757759  0.758540  0.005646  1
  Al  Al7  1  0.241460  0.999218  0.005646  1
  Al  Al8  1  0.000782  0.242241  0.005646  1
  Al  Al9  1  0.757759  0.758540  0.494354  1
  Al  Al10  1  0.241460  0.999218  0.494354  1
  Al  Al11  1  0.000782  0.242241  0.494354  1
  Pt  Pt12  1  0.000000  0.000000  0.250000  1
  Au  Au13  1  0.000000  0.000000  0.750000  1
  Au  Au14  1  0.666667  0.333333  0.992066  1
  Au  Au15  1  0.666667  0.333333  0.507934  1
  Au  Au16  1  0.333333  0.666667  0.489043  1
  Au  Au17  1  0.333333  0.666667  0.010957  1
