# generated using pymatgen
data_Ti18NbSi16Mo
_symmetry_space_group_name_H-M   'P 1'
_cell_length_a   6.69998733
_cell_length_b   6.69998822
_cell_length_c   12.21419928
_cell_angle_alpha   89.97590195
_cell_angle_beta   90.02409957
_cell_angle_gamma   90.07309128
_symmetry_Int_Tables_number   1
_chemical_formula_structural   Ti18NbSi16Mo
_chemical_formula_sum   'Ti18 Nb1 Si16 Mo1'
_cell_volume   548.29286227
_cell_formula_units_Z   1
loop_
 _symmetry_equiv_pos_site_id
 _symmetry_equiv_pos_as_xyz
  1  'x, y, z'
loop_
 _atom_site_type_symbol
 _atom_site_label
 _atom_site_symmetry_multiplicity
 _atom_site_fract_x
 _atom_site_fract_y
 _atom_site_fract_z
 _atom_site_occupancy
  Ti  Ti0  1  0.995858  0.147620  0.622455  1
  Ti  Ti1  1  0.350155  0.495820  0.871652  1
  Ti  Ti2  1  0.649500  0.504895  0.371616  1
  Ti  Ti3  1  0.495820  0.350155  0.128348  1
  Ti  Ti4  1  0.504895  0.649500  0.628384  1
  Ti  Ti5  1  0.005285  0.851934  0.120780  1
  Ti  Ti6  1  0.147620  0.995858  0.377545  1
  Ti  Ti7  1  0.851934  0.005285  0.879220  1
  Ti  Ti8  1  0.003150  0.344865  0.218606  1
  Ti  Ti9  1  0.154662  0.502371  0.469049  1
  Ti  Ti10  1  0.844117  0.497679  0.969385  1
  Ti  Ti11  1  0.502371  0.154662  0.530951  1
  Ti  Ti12  1  0.497679  0.844117  0.030615  1
  Ti  Ti13  1  0.997395  0.655959  0.719109  1
  Ti  Ti14  1  0.344865  0.003150  0.781394  1
  Ti  Ti15  1  0.655959  0.997395  0.280891  1
  Ti  Ti16  1  0.329389  0.670694  0.249015  1
  Ti  Ti17  1  0.670694  0.329389  0.750985  1
  Nb  Nb18  1  0.828363  0.828363  0.500000  1
  Si  Si19  1  0.045055  0.301285  0.813287  1
  Si  Si20  1  0.199287  0.544085  0.063730  1
  Si  Si21  1  0.800119  0.451816  0.564422  1
  Si  Si22  1  0.544085  0.199287  0.936270  1
  Si  Si23  1  0.451816  0.800119  0.435578  1
  Si  Si24  1  0.956776  0.697114  0.311097  1
  Si  Si25  1  0.301285  0.045055  0.186713  1
  Si  Si26  1  0.697114  0.956776  0.688903  1
  Si  Si27  1  0.295743  0.356734  0.673561  1
  Si  Si28  1  0.142618  0.794439  0.922319  1
  Si  Si29  1  0.858227  0.207809  0.422411  1
  Si  Si30  1  0.794439  0.142618  0.077681  1
  Si  Si31  1  0.207809  0.858227  0.577589  1
  Si  Si32  1  0.704623  0.642898  0.172770  1
  Si  Si33  1  0.356734  0.295743  0.326439  1
  Si  Si34  1  0.642898  0.704623  0.827230  1
  Mo  Mo35  1  0.171660  0.171660  0.000000  1
