# generated using pymatgen
data_PdPt2F12
_symmetry_space_group_name_H-M   'P 1'
_cell_length_a   5.17105710
_cell_length_b   5.57253398
_cell_length_c   8.83535017
_cell_angle_alpha   73.51382171
_cell_angle_beta   87.74321069
_cell_angle_gamma   62.99425325
_symmetry_Int_Tables_number   1
_chemical_formula_structural   PdPt2F12
_chemical_formula_sum   'Pd1 Pt2 F12'
_cell_volume   216.31525317
_cell_formula_units_Z   1
loop_
 _symmetry_equiv_pos_site_id
 _symmetry_equiv_pos_as_xyz
  1  'x, y, z'
loop_
 _atom_site_type_symbol
 _atom_site_label
 _atom_site_symmetry_multiplicity
 _atom_site_fract_x
 _atom_site_fract_y
 _atom_site_fract_z
 _atom_site_occupancy
  Pd  Pd0  1  0.500000  0.500000  0.500000  1
  Pt  Pt1  1  0.770872  0.991948  0.258799  1
  Pt  Pt2  1  0.229128  0.008052  0.741201  1
  F  F3  1  0.957267  0.225493  0.209178  1
  F  F4  1  0.042733  0.774507  0.790822  1
  F  F5  1  0.024437  0.751151  0.145204  1
  F  F6  1  0.513277  0.768726  0.616576  1
  F  F7  1  0.486723  0.231274  0.383424  1
  F  F8  1  0.956794  0.249884  0.541048  1
  F  F9  1  0.043206  0.750116  0.458952  1
  F  F10  1  0.438739  0.249864  0.701648  1
  F  F11  1  0.561261  0.750136  0.298352  1
  F  F12  1  0.509057  0.768639  0.920035  1
  F  F13  1  0.490943  0.231361  0.079965  1
  F  F14  1  0.975563  0.248849  0.854796  1
