# generated using pymatgen
data_La16Cd4TcNi2Pd
_symmetry_space_group_name_H-M   'P 1'
_cell_length_a   10.14407835
_cell_length_b   10.02834024
_cell_length_c   10.02834183
_cell_angle_alpha   60.07163182
_cell_angle_beta   60.40163469
_cell_angle_gamma   60.40163030
_symmetry_Int_Tables_number   1
_chemical_formula_structural   La16Cd4TcNi2Pd
_chemical_formula_sum   'La16 Cd4 Tc1 Ni2 Pd1'
_cell_volume   726.11115987
_cell_formula_units_Z   1
loop_
 _symmetry_equiv_pos_site_id
 _symmetry_equiv_pos_as_xyz
  1  'x, y, z'
loop_
 _atom_site_type_symbol
 _atom_site_label
 _atom_site_symmetry_multiplicity
 _atom_site_fract_x
 _atom_site_fract_y
 _atom_site_fract_z
 _atom_site_occupancy
  La  La0  1  0.932561  0.944484  0.559076  1
  La  La1  1  0.558916  0.940813  0.562937  1
  La  La2  1  0.559777  0.936189  0.936189  1
  La  La3  1  0.690020  0.688085  0.314006  1
  La  La4  1  0.151981  0.148166  0.541814  1
  La  La5  1  0.301018  0.695812  0.695812  1
  La  La6  1  0.154663  0.154952  0.154952  1
  La  La7  1  0.551216  0.144321  0.144321  1
  La  La8  1  0.304494  0.700111  0.310408  1
  La  La9  1  0.304494  0.310408  0.700111  1
  La  La10  1  0.690020  0.314006  0.688085  1
  La  La11  1  0.938128  0.558210  0.558210  1
  La  La12  1  0.558916  0.562937  0.940813  1
  La  La13  1  0.151981  0.541814  0.148166  1
  La  La14  1  0.697785  0.310060  0.310060  1
  La  La15  1  0.932561  0.559076  0.944484  1
  Cd  Cd16  1  0.236980  0.921097  0.921097  1
  Cd  Cd17  1  0.921267  0.920524  0.920524  1
  Cd  Cd18  1  0.921986  0.920206  0.237345  1
  Cd  Cd19  1  0.921986  0.237345  0.920206  1
  Tc  Tc20  1  0.920387  0.359983  0.359983  1
  Ni  Ni21  1  0.366131  0.353644  0.922961  1
  Ni  Ni22  1  0.366131  0.922961  0.353644  1
  Pd  Pd23  1  0.366598  0.354796  0.354796  1
