# generated using pymatgen
data_Cs7Rb(Tl2S5)2
_symmetry_space_group_name_H-M   'P 1'
_cell_length_a   8.00624947
_cell_length_b   10.01404139
_cell_length_c   11.46671200
_cell_angle_alpha   72.98399099
_cell_angle_beta   70.42476246
_cell_angle_gamma   84.56579375
_symmetry_Int_Tables_number   1
_chemical_formula_structural   Cs7Rb(Tl2S5)2
_chemical_formula_sum   'Cs7 Rb1 Tl4 S10'
_cell_volume   828.28117398
_cell_formula_units_Z   1
loop_
 _symmetry_equiv_pos_site_id
 _symmetry_equiv_pos_as_xyz
  1  'x, y, z'
loop_
 _atom_site_type_symbol
 _atom_site_label
 _atom_site_symmetry_multiplicity
 _atom_site_fract_x
 _atom_site_fract_y
 _atom_site_fract_z
 _atom_site_occupancy
  Cs  Cs0  1  0.495514  0.209533  0.086932  1
  Cs  Cs1  1  0.553134  0.185446  0.540375  1
  Cs  Cs2  1  0.447787  0.813062  0.460010  1
  Cs  Cs3  1  0.113282  0.183296  0.904975  1
  Cs  Cs4  1  0.886934  0.815442  0.094223  1
  Cs  Cs5  1  0.769281  0.472061  0.661724  1
  Cs  Cs6  1  0.230794  0.527428  0.338590  1
  Rb  Rb7  1  0.501483  0.791839  0.913211  1
  Tl  Tl8  1  0.037169  0.003420  0.337040  1
  Tl  Tl9  1  0.965493  0.993640  0.663360  1
  Tl  Tl10  1  0.877209  0.414037  0.169320  1
  Tl  Tl11  1  0.121833  0.589427  0.829580  1
  S  S12  1  0.833292  0.849091  0.558027  1
  S  S13  1  0.168789  0.148674  0.442220  1
  S  S14  1  0.815066  0.145544  0.225731  1
  S  S15  1  0.192115  0.856442  0.773770  1
  S  S16  1  0.208238  0.486495  0.043121  1
  S  S17  1  0.788305  0.523631  0.955633  1
  S  S18  1  0.720028  0.519734  0.347058  1
  S  S19  1  0.277835  0.479954  0.654200  1
  S  S20  1  0.261167  0.892565  0.182191  1
  S  S21  1  0.735250  0.099239  0.818708  1
