# generated using pymatgen
data_Ca2Si14IrRh5
_symmetry_space_group_name_H-M   'P 1'
_cell_length_a   7.98883794
_cell_length_b   7.99764815
_cell_length_c   7.99765000
_cell_angle_alpha   57.00686228
_cell_angle_beta   56.99846915
_cell_angle_gamma   56.99845165
_symmetry_Int_Tables_number   1
_chemical_formula_structural   Ca2Si14IrRh5
_chemical_formula_sum   'Ca2 Si14 Ir1 Rh5'
_cell_volume   336.33803414
_cell_formula_units_Z   1
loop_
 _symmetry_equiv_pos_site_id
 _symmetry_equiv_pos_as_xyz
  1  'x, y, z'
loop_
 _atom_site_type_symbol
 _atom_site_label
 _atom_site_symmetry_multiplicity
 _atom_site_fract_x
 _atom_site_fract_y
 _atom_site_fract_z
 _atom_site_occupancy
  Ca  Ca0  1  0.999739  0.999910  0.000594  1
  Ca  Ca1  1  0.500261  0.499406  0.500090  1
  Si  Si2  1  0.750000  0.749129  0.750871  1
  Si  Si3  1  0.250000  0.249967  0.250033  1
  Si  Si4  1  0.850735  0.068463  0.671429  1
  Si  Si5  1  0.673305  0.850909  0.064502  1
  Si  Si6  1  0.065398  0.674076  0.849517  1
  Si  Si7  1  0.649265  0.828571  0.431537  1
  Si  Si8  1  0.434602  0.650483  0.825924  1
  Si  Si9  1  0.826695  0.435498  0.649091  1
  Si  Si10  1  0.174262  0.563247  0.351060  1
  Si  Si11  1  0.564638  0.350274  0.172381  1
  Si  Si12  1  0.350717  0.171058  0.568452  1
  Si  Si13  1  0.935362  0.327619  0.149726  1
  Si  Si14  1  0.325738  0.148940  0.936753  1
  Si  Si15  1  0.149283  0.931548  0.328942  1
  Ir  Ir16  1  0.750000  0.070623  0.429377  1
  Rh  Rh17  1  0.070798  0.428813  0.750423  1
  Rh  Rh18  1  0.250000  0.929949  0.570051  1
  Rh  Rh19  1  0.570518  0.250387  0.928449  1
  Rh  Rh20  1  0.929482  0.571551  0.249613  1
  Rh  Rh21  1  0.429202  0.749577  0.071187  1
