# generated using pymatgen
data_Sc12Cu(Si4Os)3
_symmetry_space_group_name_H-M   'P 1'
_cell_length_a   4.03049900
_cell_length_b   10.26738543
_cell_length_c   11.67696862
_cell_angle_alpha   90.22194962
_cell_angle_beta   90.00000000
_cell_angle_gamma   90.00000000
_symmetry_Int_Tables_number   1
_chemical_formula_structural   Sc12Cu(Si4Os)3
_chemical_formula_sum   'Sc12 Cu1 Si12 Os3'
_cell_volume   483.22070808
_cell_formula_units_Z   1
loop_
 _symmetry_equiv_pos_site_id
 _symmetry_equiv_pos_as_xyz
  1  'x, y, z'
loop_
 _atom_site_type_symbol
 _atom_site_label
 _atom_site_symmetry_multiplicity
 _atom_site_fract_x
 _atom_site_fract_y
 _atom_site_fract_z
 _atom_site_occupancy
  Sc  Sc0  1  0.250000  0.877304  0.023435  1
  Sc  Sc1  1  0.250000  0.625193  0.518816  1
  Sc  Sc2  1  0.750000  0.124284  0.982296  1
  Sc  Sc3  1  0.750000  0.378974  0.480464  1
  Sc  Sc4  1  0.250000  0.922164  0.600294  1
  Sc  Sc5  1  0.250000  0.578948  0.103598  1
  Sc  Sc6  1  0.750000  0.079214  0.394829  1
  Sc  Sc7  1  0.750000  0.420674  0.896199  1
  Sc  Sc8  1  0.250000  0.659799  0.798589  1
  Sc  Sc9  1  0.250000  0.840786  0.297960  1
  Sc  Sc10  1  0.750000  0.340787  0.202234  1
  Sc  Sc11  1  0.750000  0.160118  0.699751  1
  Cu  Cu12  1  0.750000  0.888345  0.822286  1
  Si  Si13  1  0.250000  0.015927  0.824647  1
  Si  Si14  1  0.250000  0.485269  0.322176  1
  Si  Si15  1  0.750000  0.984311  0.175979  1
  Si  Si16  1  0.750000  0.514947  0.678874  1
  Si  Si17  1  0.250000  0.250400  0.841934  1
  Si  Si18  1  0.250000  0.248434  0.342386  1
  Si  Si19  1  0.750000  0.748074  0.158388  1
  Si  Si20  1  0.750000  0.752033  0.655066  1
  Si  Si21  1  0.250000  0.197120  0.545256  1
  Si  Si22  1  0.250000  0.304490  0.046900  1
  Si  Si23  1  0.750000  0.806410  0.452298  1
  Si  Si24  1  0.750000  0.687550  0.956660  1
  Os  Os25  1  0.250000  0.390895  0.678079  1
  Os  Os26  1  0.250000  0.108642  0.176991  1
  Os  Os27  1  0.750000  0.608911  0.323614  1
