# generated using pymatgen
data_LiF18
_symmetry_space_group_name_H-M   'P 1'
_cell_length_a   8.24891172
_cell_length_b   9.47820258
_cell_length_c   9.97007024
_cell_angle_alpha   92.00940570
_cell_angle_beta   85.37823547
_cell_angle_gamma   115.79493973
_symmetry_Int_Tables_number   1
_chemical_formula_structural   LiF18
_chemical_formula_sum   'Li2 F36'
_cell_volume   699.55397334
_cell_formula_units_Z   2
loop_
 _symmetry_equiv_pos_site_id
 _symmetry_equiv_pos_as_xyz
  1  'x, y, z'
loop_
 _atom_site_type_symbol
 _atom_site_label
 _atom_site_symmetry_multiplicity
 _atom_site_fract_x
 _atom_site_fract_y
 _atom_site_fract_z
 _atom_site_occupancy
  Li  Li0  1  0.000000  0.000000  0.000000  1
  Li  Li1  1  0.500000  0.000000  0.500000  1
  F  F2  1  0.847464  0.813885  0.766703  1
  F  F3  1  0.152536  0.186115  0.233297  1
  F  F4  1  0.624961  0.934054  0.953521  1
  F  F5  1  0.466421  0.813885  0.733297  1
  F  F6  1  0.375039  0.065946  0.046479  1
  F  F7  1  0.533579  0.186115  0.266703  1
  F  F8  1  0.094737  0.328884  0.720570  1
  F  F9  1  0.809093  0.934054  0.546479  1
  F  F10  1  0.905263  0.671116  0.279430  1
  F  F11  1  0.190907  0.065946  0.453521  1
  F  F12  1  0.734148  0.328884  0.779430  1
  F  F13  1  0.265852  0.671116  0.220570  1
  F  F14  1  0.682595  0.633904  0.717223  1
  F  F15  1  0.317405  0.366096  0.282777  1
  F  F16  1  0.745048  0.986532  0.061553  1
  F  F17  1  0.451309  0.633904  0.782777  1
  F  F18  1  0.254952  0.013468  0.938447  1
  F  F19  1  0.548691  0.366096  0.217223  1
  F  F20  1  0.039517  0.284444  0.587659  1
  F  F21  1  0.741484  0.986532  0.438447  1
  F  F22  1  0.960483  0.715556  0.412341  1
  F  F23  1  0.258516  0.013468  0.561553  1
  F  F24  1  0.744928  0.284444  0.912341  1
  F  F25  1  0.255072  0.715556  0.087659  1
  F  F26  1  0.007216  0.985844  0.812196  1
  F  F27  1  0.992784  0.014156  0.187804  1
  F  F28  1  0.691091  0.644474  0.025072  1
  F  F29  1  0.478629  0.985844  0.687804  1
  F  F30  1  0.308909  0.355526  0.974928  1
  F  F31  1  0.521371  0.014156  0.312196  1
  F  F32  1  0.139636  0.363437  0.982838  1
  F  F33  1  0.453381  0.644474  0.474928  1
  F  F34  1  0.860364  0.636563  0.017162  1
  F  F35  1  0.546619  0.355526  0.525072  1
  F  F36  1  0.723802  0.363437  0.517162  1
  F  F37  1  0.276198  0.636563  0.482838  1
