# generated using pymatgen
data_Sm3Hg4
_symmetry_space_group_name_H-M   'P 1'
_cell_length_a   8.46792516
_cell_length_b   8.46792576
_cell_length_c   8.46792518
_cell_angle_alpha   113.77704412
_cell_angle_beta   113.77704943
_cell_angle_gamma   113.77704051
_symmetry_Int_Tables_number   1
_chemical_formula_structural   Sm3Hg4
_chemical_formula_sum   'Sm6 Hg8'
_cell_volume   374.92510491
_cell_formula_units_Z   2
loop_
 _symmetry_equiv_pos_site_id
 _symmetry_equiv_pos_as_xyz
  1  'x, y, z'
loop_
 _atom_site_type_symbol
 _atom_site_label
 _atom_site_symmetry_multiplicity
 _atom_site_fract_x
 _atom_site_fract_y
 _atom_site_fract_z
 _atom_site_occupancy
  Sm  Sm0  1  0.991096  0.599897  0.730943  1
  Sm  Sm1  1  0.730943  0.991096  0.599897  1
  Sm  Sm2  1  0.599897  0.730943  0.991096  1
  Sm  Sm3  1  0.008904  0.400103  0.269057  1
  Sm  Sm4  1  0.269057  0.008904  0.400103  1
  Sm  Sm5  1  0.400103  0.269057  0.008904  1
  Hg  Hg6  1  0.000000  0.000000  0.000000  1
  Hg  Hg7  1  0.500000  0.500000  0.500000  1
  Hg  Hg8  1  0.920750  0.762149  0.447826  1
  Hg  Hg9  1  0.447826  0.920750  0.762149  1
  Hg  Hg10  1  0.762149  0.447826  0.920750  1
  Hg  Hg11  1  0.079250  0.237851  0.552174  1
  Hg  Hg12  1  0.552174  0.079250  0.237851  1
  Hg  Hg13  1  0.237851  0.552174  0.079250  1
