# generated using pymatgen
data_SmTh3(InPd2)2
_symmetry_space_group_name_H-M   'P 1'
_cell_length_a   7.96213305
_cell_length_b   7.96213305
_cell_length_c   3.81673200
_cell_angle_alpha   90.00000000
_cell_angle_beta   90.00000000
_cell_angle_gamma   89.11762799
_symmetry_Int_Tables_number   1
_chemical_formula_structural   SmTh3(InPd2)2
_chemical_formula_sum   'Sm1 Th3 In2 Pd4'
_cell_volume   241.93517994
_cell_formula_units_Z   1
loop_
 _symmetry_equiv_pos_site_id
 _symmetry_equiv_pos_as_xyz
  1  'x, y, z'
loop_
 _atom_site_type_symbol
 _atom_site_label
 _atom_site_symmetry_multiplicity
 _atom_site_fract_x
 _atom_site_fract_y
 _atom_site_fract_z
 _atom_site_occupancy
  Sm  Sm0  1  0.675954  0.175954  0.500000  1
  Th  Th1  1  0.327806  0.827806  0.500000  1
  Th  Th2  1  0.823926  0.672988  0.500000  1
  Th  Th3  1  0.172988  0.323926  0.500000  1
  In  In4  1  0.995426  0.001455  0.000000  1
  In  In5  1  0.501455  0.495426  0.000000  1
  Pd  Pd6  1  0.367463  0.125892  0.000000  1
  Pd  Pd7  1  0.877553  0.377553  0.000000  1
  Pd  Pd8  1  0.131536  0.631536  0.000000  1
  Pd  Pd9  1  0.625892  0.867463  0.000000  1
