# generated using pymatgen
data_HfZr7In4(PdAu3)2
_symmetry_space_group_name_H-M   'P 1'
_cell_length_a   7.59559722
_cell_length_b   7.60188058
_cell_length_c   7.09839400
_cell_angle_alpha   90.00000000
_cell_angle_beta   90.00000000
_cell_angle_gamma   90.06154612
_symmetry_Int_Tables_number   1
_chemical_formula_structural   HfZr7In4(PdAu3)2
_chemical_formula_sum   'Hf1 Zr7 In4 Pd2 Au6'
_cell_volume   409.86687512
_cell_formula_units_Z   1
loop_
 _symmetry_equiv_pos_site_id
 _symmetry_equiv_pos_as_xyz
  1  'x, y, z'
loop_
 _atom_site_type_symbol
 _atom_site_label
 _atom_site_symmetry_multiplicity
 _atom_site_fract_x
 _atom_site_fract_y
 _atom_site_fract_z
 _atom_site_occupancy
  Hf  Hf0  1  0.862159  0.849323  0.000000  1
  Zr  Zr1  1  0.151715  0.139180  0.000000  1
  Zr  Zr2  1  0.646288  0.353613  0.500000  1
  Zr  Zr3  1  0.346591  0.653977  0.500000  1
  Zr  Zr4  1  0.694528  0.305167  0.000000  1
  Zr  Zr5  1  0.298749  0.700454  0.000000  1
  Zr  Zr6  1  0.815146  0.805457  0.500000  1
  Zr  Zr7  1  0.194368  0.185293  0.500000  1
  In  In8  1  0.496703  0.998976  0.251559  1
  In  In9  1  0.496703  0.998976  0.748441  1
  In  In10  1  0.000092  0.503129  0.251725  1
  In  In11  1  0.000092  0.503129  0.748275  1
  Pd  Pd12  1  0.128801  0.869045  0.291051  1
  Pd  Pd13  1  0.128801  0.869045  0.708949  1
  Au  Au14  1  0.368540  0.372188  0.206918  1
  Au  Au15  1  0.629911  0.633389  0.794435  1
  Au  Au16  1  0.629911  0.633389  0.205565  1
  Au  Au17  1  0.871183  0.127039  0.708655  1
  Au  Au18  1  0.871183  0.127039  0.291345  1
  Au  Au19  1  0.368540  0.372188  0.793082  1
