# generated using pymatgen
data_Dy2Lu2VB12Rh
_symmetry_space_group_name_H-M   'P 1'
_cell_length_a   3.58206400
_cell_length_b   9.11657356
_cell_length_c   11.52637649
_cell_angle_alpha   90.28514730
_cell_angle_beta   90.00000000
_cell_angle_gamma   90.00000000
_symmetry_Int_Tables_number   1
_chemical_formula_structural   Dy2Lu2VB12Rh
_chemical_formula_sum   'Dy4 Lu4 V2 B24 Rh2'
_cell_volume   376.40241768
_cell_formula_units_Z   2
loop_
 _symmetry_equiv_pos_site_id
 _symmetry_equiv_pos_as_xyz
  1  'x, y, z'
loop_
 _atom_site_type_symbol
 _atom_site_label
 _atom_site_symmetry_multiplicity
 _atom_site_fract_x
 _atom_site_fract_y
 _atom_site_fract_z
 _atom_site_occupancy
  Dy  Dy0  1  0.500000  0.318603  0.411981  1
  Dy  Dy1  1  0.500000  0.681397  0.588019  1
  Dy  Dy2  1  0.500000  0.174667  0.916518  1
  Dy  Dy3  1  0.500000  0.825333  0.083482  1
  Lu  Lu4  1  0.500000  0.441907  0.127242  1
  Lu  Lu5  1  0.500000  0.558093  0.872758  1
  Lu  Lu6  1  0.500000  0.054132  0.628801  1
  Lu  Lu7  1  0.500000  0.945868  0.371199  1
  V  V8  1  0.500000  0.140182  0.182075  1
  V  V9  1  0.500000  0.859818  0.817925  1
  B  B10  1  0.000000  0.103521  0.472563  1
  B  B11  1  0.000000  0.896479  0.527437  1
  B  B12  1  0.000000  0.396921  0.971243  1
  B  B13  1  0.000000  0.603079  0.028757  1
  B  B14  1  0.000000  0.131414  0.316638  1
  B  B15  1  0.000000  0.868586  0.683362  1
  B  B16  1  0.000000  0.369041  0.816071  1
  B  B17  1  0.000000  0.630959  0.183929  1
  B  B18  1  0.000000  0.052736  0.067151  1
  B  B19  1  0.000000  0.947264  0.932849  1
  B  B20  1  0.000000  0.445746  0.566634  1
  B  B21  1  0.000000  0.554254  0.433366  1
  B  B22  1  0.000000  0.481897  0.287101  1
  B  B23  1  0.000000  0.518103  0.712899  1
  B  B24  1  0.000000  0.019472  0.786644  1
  B  B25  1  0.000000  0.980528  0.213356  1
  B  B26  1  0.000000  0.250015  0.080644  1
  B  B27  1  0.000000  0.749985  0.919356  1
  B  B28  1  0.000000  0.248617  0.580204  1
  B  B29  1  0.000000  0.751383  0.419796  1
  B  B30  1  0.000000  0.295016  0.235422  1
  B  B31  1  0.000000  0.704984  0.764578  1
  B  B32  1  0.000000  0.206950  0.735174  1
  B  B33  1  0.000000  0.793050  0.264826  1
  Rh  Rh34  1  0.500000  0.360778  0.679462  1
  Rh  Rh35  1  0.500000  0.639222  0.320538  1
