# generated using pymatgen
data_Hf4Zr6Ga12Rh7
_symmetry_space_group_name_H-M   'P 1'
_cell_length_a   8.91309998
_cell_length_b   8.91310127
_cell_length_c   8.91310100
_cell_angle_alpha   60.00000472
_cell_angle_beta   59.99999991
_cell_angle_gamma   60.00000046
_symmetry_Int_Tables_number   1
_chemical_formula_structural   Hf4Zr6Ga12Rh7
_chemical_formula_sum   'Hf4 Zr6 Ga12 Rh7'
_cell_volume   500.69293773
_cell_formula_units_Z   1
loop_
 _symmetry_equiv_pos_site_id
 _symmetry_equiv_pos_as_xyz
  1  'x, y, z'
loop_
 _atom_site_type_symbol
 _atom_site_label
 _atom_site_symmetry_multiplicity
 _atom_site_fract_x
 _atom_site_fract_y
 _atom_site_fract_z
 _atom_site_occupancy
  Hf  Hf0  1  0.878298  0.878298  0.365108  1
  Hf  Hf1  1  0.878298  0.365108  0.878298  1
  Hf  Hf2  1  0.365108  0.878298  0.878298  1
  Hf  Hf3  1  0.878298  0.878298  0.878298  1
  Zr  Zr4  1  0.691544  0.691544  0.308456  1
  Zr  Zr5  1  0.308456  0.691544  0.308456  1
  Zr  Zr6  1  0.691544  0.308456  0.308456  1
  Zr  Zr7  1  0.308456  0.308456  0.691544  1
  Zr  Zr8  1  0.691544  0.308456  0.691544  1
  Zr  Zr9  1  0.308456  0.691544  0.691544  1
  Ga  Ga10  1  0.121501  0.121501  0.635497  1
  Ga  Ga11  1  0.121501  0.635497  0.121501  1
  Ga  Ga12  1  0.635497  0.121501  0.121501  1
  Ga  Ga13  1  0.121501  0.121501  0.121501  1
  Ga  Ga14  1  0.656292  0.656292  0.031123  1
  Ga  Ga15  1  0.656292  0.031123  0.656292  1
  Ga  Ga16  1  0.031123  0.656292  0.656292  1
  Ga  Ga17  1  0.656292  0.656292  0.656292  1
  Ga  Ga18  1  0.341304  0.341304  0.976090  1
  Ga  Ga19  1  0.341304  0.976090  0.341304  1
  Ga  Ga20  1  0.976090  0.341304  0.341304  1
  Ga  Ga21  1  0.341304  0.341304  0.341304  1
  Rh  Rh22  1  0.000000  0.000000  0.000000  1
  Rh  Rh23  1  0.998241  0.998241  0.501759  1
  Rh  Rh24  1  0.501759  0.998241  0.501759  1
  Rh  Rh25  1  0.998241  0.501759  0.501759  1
  Rh  Rh26  1  0.501759  0.501759  0.998241  1
  Rh  Rh27  1  0.998241  0.501759  0.998241  1
  Rh  Rh28  1  0.501759  0.998241  0.998241  1
