# generated using pymatgen
data_Nd3Th11TcOs5
_symmetry_space_group_name_H-M   'P 1'
_cell_length_a   9.91729456
_cell_length_b   10.03821849
_cell_length_c   6.41961666
_cell_angle_alpha   89.68923350
_cell_angle_beta   90.35253391
_cell_angle_gamma   120.10756234
_symmetry_Int_Tables_number   1
_chemical_formula_structural   Nd3Th11TcOs5
_chemical_formula_sum   'Nd3 Th11 Tc1 Os5'
_cell_volume   552.85092177
_cell_formula_units_Z   1
loop_
 _symmetry_equiv_pos_site_id
 _symmetry_equiv_pos_as_xyz
  1  'x, y, z'
loop_
 _atom_site_type_symbol
 _atom_site_label
 _atom_site_symmetry_multiplicity
 _atom_site_fract_x
 _atom_site_fract_y
 _atom_site_fract_z
 _atom_site_occupancy
  Nd  Nd0  1  0.463534  0.536265  0.296252  1
  Nd  Nd1  1  0.073400  0.536117  0.295161  1
  Nd  Nd2  1  0.925064  0.460325  0.793752  1
  Th  Th3  1  0.251486  0.126875  0.509717  1
  Th  Th4  1  0.539448  0.077151  0.799868  1
  Th  Th5  1  0.749440  0.871267  0.010841  1
  Th  Th6  1  0.666480  0.333130  0.274142  1
  Th  Th7  1  0.124900  0.871039  0.005923  1
  Th  Th8  1  0.463734  0.923484  0.300411  1
  Th  Th9  1  0.537254  0.464122  0.798423  1
  Th  Th10  1  0.874818  0.128569  0.508519  1
  Th  Th11  1  0.124498  0.249710  0.009179  1
  Th  Th12  1  0.875429  0.752185  0.509702  1
  Th  Th13  1  0.332981  0.666155  0.773417  1
  Tc  Tc14  1  0.809788  0.636141  0.042368  1
  Os  Os15  1  0.808098  0.175999  0.052406  1
  Os  Os16  1  0.630811  0.819380  0.553230  1
  Os  Os17  1  0.370819  0.183990  0.043283  1
  Os  Os18  1  0.186264  0.365837  0.560494  1
  Os  Os19  1  0.191752  0.822259  0.546910  1
