# generated using pymatgen
data_Pr2NdHo(Sn5Rh3)2
_symmetry_space_group_name_H-M   'P 1'
_cell_length_a   13.59324387
_cell_length_b   13.59324439
_cell_length_c   7.24708911
_cell_angle_alpha   90.16493827
_cell_angle_beta   89.83506080
_cell_angle_gamma   160.78797210
_symmetry_Int_Tables_number   1
_chemical_formula_structural   Pr2NdHo(Sn5Rh3)2
_chemical_formula_sum   'Pr2 Nd1 Ho1 Sn10 Rh6'
_cell_volume   440.64569344
_cell_formula_units_Z   1
loop_
 _symmetry_equiv_pos_site_id
 _symmetry_equiv_pos_as_xyz
  1  'x, y, z'
loop_
 _atom_site_type_symbol
 _atom_site_label
 _atom_site_symmetry_multiplicity
 _atom_site_fract_x
 _atom_site_fract_y
 _atom_site_fract_z
 _atom_site_occupancy
  Pr  Pr0  1  0.172067  0.827933  0.746417  1
  Pr  Pr1  1  0.827845  0.172155  0.246076  1
  Nd  Nd2  1  0.476481  0.523519  0.761524  1
  Ho  Ho3  1  0.524568  0.475432  0.261408  1
  Sn  Sn4  1  0.879190  0.120810  0.767693  1
  Sn  Sn5  1  0.120222  0.879778  0.267167  1
  Sn  Sn6  1  0.703907  0.296093  0.450681  1
  Sn  Sn7  1  0.295452  0.704548  0.950583  1
  Sn  Sn8  1  0.595793  0.404207  0.889755  1
  Sn  Sn9  1  0.404934  0.595066  0.387551  1
  Sn  Sn10  1  0.953187  0.046813  0.101383  1
  Sn  Sn11  1  0.047836  0.952164  0.597606  1
  Sn  Sn12  1  0.290029  0.709971  0.524924  1
  Sn  Sn13  1  0.709733  0.290267  0.025383  1
  Rh  Rh14  1  0.050811  0.949189  0.985840  1
  Rh  Rh15  1  0.949567  0.050433  0.479766  1
  Rh  Rh16  1  0.777261  0.222739  0.735939  1
  Rh  Rh17  1  0.222326  0.777674  0.236045  1
  Rh  Rh18  1  0.395051  0.604949  0.015666  1
  Rh  Rh19  1  0.603739  0.396261  0.512592  1
