# generated using pymatgen
data_Li3Nd4Co12Ni5P12
_symmetry_space_group_name_H-M   'P 1'
_cell_length_a   3.74038300
_cell_length_b   10.41110540
_cell_length_c   12.03166068
_cell_angle_alpha   90.59472467
_cell_angle_beta   90.00000000
_cell_angle_gamma   90.00000000
_symmetry_Int_Tables_number   1
_chemical_formula_structural   Li3Nd4Co12Ni5P12
_chemical_formula_sum   'Li3 Nd4 Co12 Ni5 P12'
_cell_volume   468.50593455
_cell_formula_units_Z   1
loop_
 _symmetry_equiv_pos_site_id
 _symmetry_equiv_pos_as_xyz
  1  'x, y, z'
loop_
 _atom_site_type_symbol
 _atom_site_label
 _atom_site_symmetry_multiplicity
 _atom_site_fract_x
 _atom_site_fract_y
 _atom_site_fract_z
 _atom_site_occupancy
  Li  Li0  1  0.250000  0.700819  0.992658  1
  Li  Li1  1  0.250000  0.798777  0.492589  1
  Li  Li2  1  0.750000  0.298344  0.006209  1
  Nd  Nd3  1  0.250000  0.582417  0.701760  1
  Nd  Nd4  1  0.250000  0.917193  0.202202  1
  Nd  Nd5  1  0.750000  0.416577  0.295760  1
  Nd  Nd6  1  0.750000  0.082472  0.798245  1
  Co  Co7  1  0.250000  0.218229  0.176232  1
  Co  Co8  1  0.250000  0.277982  0.670539  1
  Co  Co9  1  0.750000  0.782491  0.827553  1
  Co  Co10  1  0.750000  0.718623  0.327820  1
  Co  Co11  1  0.250000  0.883321  0.697928  1
  Co  Co12  1  0.250000  0.617328  0.197769  1
  Co  Co13  1  0.750000  0.117690  0.305707  1
  Co  Co14  1  0.750000  0.381124  0.798273  1
  Co  Co15  1  0.250000  0.468633  0.931897  1
  Co  Co16  1  0.250000  0.032570  0.433821  1
  Co  Co17  1  0.750000  0.530318  0.065455  1
  Co  Co18  1  0.750000  0.968852  0.566223  1
  Ni  Ni19  1  0.750000  0.208144  0.512091  1
  Ni  Ni20  1  0.250000  0.405138  0.486620  1
  Ni  Ni21  1  0.250000  0.092566  0.990077  1
  Ni  Ni22  1  0.750000  0.589414  0.509398  1
  Ni  Ni23  1  0.750000  0.909924  0.011936  1
  P  P24  1  0.250000  0.420185  0.111036  1
  P  P25  1  0.250000  0.078365  0.610854  1
  P  P26  1  0.750000  0.578947  0.886916  1
  P  P27  1  0.750000  0.920649  0.387821  1
  P  P28  1  0.250000  0.279886  0.856071  1
  P  P29  1  0.250000  0.223129  0.363489  1
  P  P30  1  0.750000  0.718857  0.143138  1
  P  P31  1  0.750000  0.780556  0.642879  1
  P  P32  1  0.250000  0.606484  0.388092  1
  P  P33  1  0.250000  0.892862  0.889550  1
  P  P34  1  0.750000  0.391745  0.607312  1
  P  P35  1  0.750000  0.109386  0.114079  1
