# generated using pymatgen
data_Tb12Co2Ni3Bi
_symmetry_space_group_name_H-M   'P 1'
_cell_length_a   8.36611416
_cell_length_b   8.36611483
_cell_length_c   8.36611408
_cell_angle_alpha   111.18572859
_cell_angle_beta   109.33486290
_cell_angle_gamma   107.90978658
_symmetry_Int_Tables_number   1
_chemical_formula_structural   Tb12Co2Ni3Bi
_chemical_formula_sum   'Tb12 Co2 Ni3 Bi1'
_cell_volume   450.39299842
_cell_formula_units_Z   1
loop_
 _symmetry_equiv_pos_site_id
 _symmetry_equiv_pos_as_xyz
  1  'x, y, z'
loop_
 _atom_site_type_symbol
 _atom_site_label
 _atom_site_symmetry_multiplicity
 _atom_site_fract_x
 _atom_site_fract_y
 _atom_site_fract_z
 _atom_site_occupancy
  Tb  Tb0  1  0.818057  0.707939  0.525996  1
  Tb  Tb1  1  0.181943  0.292061  0.474004  1
  Tb  Tb2  1  0.181943  0.707939  0.889883  1
  Tb  Tb3  1  0.818057  0.292061  0.110117  1
  Tb  Tb4  1  0.686265  0.376386  0.690120  1
  Tb  Tb5  1  0.313735  0.623614  0.309880  1
  Tb  Tb6  1  0.686265  0.996145  0.309880  1
  Tb  Tb7  1  0.313735  0.003855  0.690120  1
  Tb  Tb8  1  0.599528  0.793026  0.806504  1
  Tb  Tb9  1  0.400472  0.206974  0.193496  1
  Tb  Tb10  1  0.986522  0.793026  0.193496  1
  Tb  Tb11  1  0.013478  0.206974  0.806504  1
  Co  Co12  1  0.113058  0.613058  0.500000  1
  Co  Co13  1  0.886942  0.386942  0.500000  1
  Ni  Ni14  1  0.630532  0.000000  0.630532  1
  Ni  Ni15  1  0.369468  0.000000  0.369468  1
  Ni  Ni16  1  0.000000  0.000000  0.000000  1
  Bi  Bi17  1  0.500000  0.500000  0.000000  1
