# generated using pymatgen
data_Nd3Fe(P3Rh4)2
_symmetry_space_group_name_H-M   'P 1'
_cell_length_a   3.92475100
_cell_length_b   11.30115100
_cell_length_c   12.85839800
_cell_angle_alpha   90.00000000
_cell_angle_beta   90.00000000
_cell_angle_gamma   90.00000000
_symmetry_Int_Tables_number   1
_chemical_formula_structural   Nd3Fe(P3Rh4)2
_chemical_formula_sum   'Nd6 Fe2 P12 Rh16'
_cell_volume   570.32400400
_cell_formula_units_Z   2
loop_
 _symmetry_equiv_pos_site_id
 _symmetry_equiv_pos_as_xyz
  1  'x, y, z'
loop_
 _atom_site_type_symbol
 _atom_site_label
 _atom_site_symmetry_multiplicity
 _atom_site_fract_x
 _atom_site_fract_y
 _atom_site_fract_z
 _atom_site_occupancy
  Nd  Nd0  1  0.000000  0.500000  0.520072  1
  Nd  Nd1  1  0.500000  0.000000  0.479928  1
  Nd  Nd2  1  0.500000  0.819484  0.201490  1
  Nd  Nd3  1  0.500000  0.180516  0.201490  1
  Nd  Nd4  1  0.000000  0.680516  0.798510  1
  Nd  Nd5  1  0.000000  0.319484  0.798510  1
  Fe  Fe6  1  0.000000  0.500000  0.990819  1
  Fe  Fe7  1  0.500000  0.000000  0.009181  1
  P  P8  1  0.500000  0.500000  0.889326  1
  P  P9  1  0.000000  0.000000  0.110674  1
  P  P10  1  0.500000  0.500000  0.344924  1
  P  P11  1  0.000000  0.000000  0.655076  1
  P  P12  1  0.500000  0.311993  0.619074  1
  P  P13  1  0.500000  0.688007  0.619074  1
  P  P14  1  0.000000  0.188007  0.380926  1
  P  P15  1  0.000000  0.811993  0.380926  1
  P  P16  1  0.500000  0.851290  0.897071  1
  P  P17  1  0.500000  0.148710  0.897071  1
  P  P18  1  0.000000  0.648710  0.102929  1
  P  P19  1  0.000000  0.351290  0.102929  1
  Rh  Rh20  1  0.500000  0.500000  0.161746  1
  Rh  Rh21  1  0.000000  0.000000  0.838254  1
  Rh  Rh22  1  0.500000  0.500000  0.704185  1
  Rh  Rh23  1  0.000000  0.000000  0.295815  1
  Rh  Rh24  1  0.500000  0.335041  0.995733  1
  Rh  Rh25  1  0.500000  0.664959  0.995733  1
  Rh  Rh26  1  0.000000  0.164959  0.004267  1
  Rh  Rh27  1  0.000000  0.835041  0.004267  1
  Rh  Rh28  1  0.500000  0.293042  0.429803  1
  Rh  Rh29  1  0.500000  0.706958  0.429803  1
  Rh  Rh30  1  0.000000  0.206958  0.570197  1
  Rh  Rh31  1  0.000000  0.793042  0.570197  1
  Rh  Rh32  1  0.500000  0.875312  0.712727  1
  Rh  Rh33  1  0.500000  0.124688  0.712727  1
  Rh  Rh34  1  0.000000  0.624688  0.287273  1
  Rh  Rh35  1  0.000000  0.375312  0.287273  1
