# generated using pymatgen
data_LuPaInPt2
_symmetry_space_group_name_H-M   'P 1'
_cell_length_a   7.76372500
_cell_length_b   7.76372500
_cell_length_c   7.24731900
_cell_angle_alpha   90.00000000
_cell_angle_beta   90.00000000
_cell_angle_gamma   90.00000000
_symmetry_Int_Tables_number   1
_chemical_formula_structural   LuPaInPt2
_chemical_formula_sum   'Lu4 Pa4 In4 Pt8'
_cell_volume   436.83523918
_cell_formula_units_Z   4
loop_
 _symmetry_equiv_pos_site_id
 _symmetry_equiv_pos_as_xyz
  1  'x, y, z'
loop_
 _atom_site_type_symbol
 _atom_site_label
 _atom_site_symmetry_multiplicity
 _atom_site_fract_x
 _atom_site_fract_y
 _atom_site_fract_z
 _atom_site_occupancy
  Lu  Lu0  1  0.671425  0.671425  0.500000  1
  Lu  Lu1  1  0.328575  0.328575  0.500000  1
  Lu  Lu2  1  0.171426  0.828575  0.000000  1
  Lu  Lu3  1  0.828575  0.171426  0.000000  1
  Pa  Pa4  1  0.835944  0.164056  0.500000  1
  Pa  Pa5  1  0.164056  0.835944  0.500000  1
  Pa  Pa6  1  0.335944  0.335944  0.000000  1
  Pa  Pa7  1  0.664056  0.664056  0.000000  1
  In  In8  1  0.500000  0.000000  0.250000  1
  In  In9  1  0.000000  0.500000  0.750000  1
  In  In10  1  0.500000  0.000000  0.750000  1
  In  In11  1  0.000000  0.500000  0.250000  1
  Pt  Pt12  1  0.633152  0.366848  0.258595  1
  Pt  Pt13  1  0.366848  0.633152  0.258595  1
  Pt  Pt14  1  0.133152  0.133152  0.758595  1
  Pt  Pt15  1  0.866848  0.866848  0.758595  1
  Pt  Pt16  1  0.366848  0.633152  0.741405  1
  Pt  Pt17  1  0.633152  0.366848  0.741405  1
  Pt  Pt18  1  0.866848  0.866848  0.241405  1
  Pt  Pt19  1  0.133152  0.133152  0.241405  1
