# generated using pymatgen
data_La3Sm(PaOs3)2
_symmetry_space_group_name_H-M   'P 1'
_cell_length_a   5.88855000
_cell_length_b   5.88855046
_cell_length_c   8.41981800
_cell_angle_alpha   90.00000000
_cell_angle_beta   90.00000000
_cell_angle_gamma   119.99998618
_symmetry_Int_Tables_number   1
_chemical_formula_structural   La3Sm(PaOs3)2
_chemical_formula_sum   'La3 Sm1 Pa2 Os6'
_cell_volume   252.84255146
_cell_formula_units_Z   1
loop_
 _symmetry_equiv_pos_site_id
 _symmetry_equiv_pos_as_xyz
  1  'x, y, z'
loop_
 _atom_site_type_symbol
 _atom_site_label
 _atom_site_symmetry_multiplicity
 _atom_site_fract_x
 _atom_site_fract_y
 _atom_site_fract_z
 _atom_site_occupancy
  La  La0  1  0.333333  0.666667  0.434501  1
  La  La1  1  0.666667  0.333333  0.565773  1
  La  La2  1  0.666667  0.333333  0.935158  1
  Sm  Sm3  1  0.333333  0.666667  0.064852  1
  Pa  Pa4  1  0.000000  0.000000  0.999881  1
  Pa  Pa5  1  0.000000  0.000000  0.499887  1
  Os  Os6  1  0.167757  0.335514  0.750973  1
  Os  Os7  1  0.167757  0.832243  0.750973  1
  Os  Os8  1  0.334046  0.167022  0.249011  1
  Os  Os9  1  0.832978  0.665954  0.249011  1
  Os  Os10  1  0.664486  0.832243  0.750973  1
  Os  Os11  1  0.832978  0.167022  0.249011  1
