# generated using pymatgen
data_Tb15DyIn4(PtRh)2
_symmetry_space_group_name_H-M   'P 1'
_cell_length_a   9.74902349
_cell_length_b   9.74255421
_cell_length_c   9.74255343
_cell_angle_alpha   60.00076263
_cell_angle_beta   59.97371563
_cell_angle_gamma   59.97371764
_symmetry_Int_Tables_number   1
_chemical_formula_structural   Tb15DyIn4(PtRh)2
_chemical_formula_sum   'Tb15 Dy1 In4 Pt2 Rh2'
_cell_volume   654.06603835
_cell_formula_units_Z   1
loop_
 _symmetry_equiv_pos_site_id
 _symmetry_equiv_pos_as_xyz
  1  'x, y, z'
loop_
 _atom_site_type_symbol
 _atom_site_label
 _atom_site_symmetry_multiplicity
 _atom_site_fract_x
 _atom_site_fract_y
 _atom_site_fract_z
 _atom_site_occupancy
  Tb  Tb0  1  0.690797  0.309146  0.309146  1
  Tb  Tb1  1  0.687210  0.693228  0.309613  1
  Tb  Tb2  1  0.309967  0.693116  0.309673  1
  Tb  Tb3  1  0.938755  0.937026  0.561917  1
  Tb  Tb4  1  0.150374  0.145931  0.553371  1
  Tb  Tb5  1  0.562312  0.937051  0.561827  1
  Tb  Tb6  1  0.153309  0.149239  0.149239  1
  Tb  Tb7  1  0.309967  0.309673  0.693116  1
  Tb  Tb8  1  0.939083  0.560906  0.560906  1
  Tb  Tb9  1  0.562312  0.561827  0.937051  1
  Tb  Tb10  1  0.562985  0.937067  0.937067  1
  Tb  Tb11  1  0.938755  0.561917  0.937026  1
  Tb  Tb12  1  0.150374  0.553371  0.145931  1
  Tb  Tb13  1  0.310496  0.689496  0.689496  1
  Tb  Tb14  1  0.687210  0.309613  0.693228  1
  Dy  Dy15  1  0.548090  0.149334  0.149334  1
  In  In16  1  0.916847  0.917910  0.248265  1
  In  In17  1  0.248630  0.917272  0.917272  1
  In  In18  1  0.916847  0.248265  0.917910  1
  In  In19  1  0.916717  0.917325  0.917325  1
  Pt  Pt20  1  0.355865  0.357690  0.357690  1
  Pt  Pt21  1  0.928535  0.357890  0.357890  1
  Rh  Rh22  1  0.357283  0.358619  0.927087  1
  Rh  Rh23  1  0.357283  0.927087  0.358619  1
