# generated using pymatgen
data_Yb3In2(GeO4)3
_symmetry_space_group_name_H-M   'P 1'
_cell_length_a   10.88207107
_cell_length_b   10.88207144
_cell_length_c   10.88207100
_cell_angle_alpha   109.47121981
_cell_angle_beta   109.47122051
_cell_angle_gamma   109.47122269
_symmetry_Int_Tables_number   1
_chemical_formula_structural   Yb3In2(GeO4)3
_chemical_formula_sum   'Yb12 In8 Ge12 O48'
_cell_volume   992.00255128
_cell_formula_units_Z   4
loop_
 _symmetry_equiv_pos_site_id
 _symmetry_equiv_pos_as_xyz
  1  'x, y, z'
loop_
 _atom_site_type_symbol
 _atom_site_label
 _atom_site_symmetry_multiplicity
 _atom_site_fract_x
 _atom_site_fract_y
 _atom_site_fract_z
 _atom_site_occupancy
  Yb  Yb0  1  0.375001  0.750000  0.125000  1
  Yb  Yb1  1  0.249999  0.374999  0.125000  1
  Yb  Yb2  1  0.874999  0.625000  0.249999  1
  Yb  Yb3  1  0.374999  0.124999  0.249999  1
  Yb  Yb4  1  0.124999  0.250000  0.374999  1
  Yb  Yb5  1  0.750001  0.125000  0.375000  1
  Yb  Yb6  1  0.875000  0.750000  0.624999  1
  Yb  Yb7  1  0.249999  0.875000  0.625000  1
  Yb  Yb8  1  0.125000  0.375001  0.750000  1
  Yb  Yb9  1  0.624999  0.875000  0.750000  1
  Yb  Yb10  1  0.624999  0.249999  0.875000  1
  Yb  Yb11  1  0.750000  0.624999  0.875000  1
  In  In12  1  0.000000  0.000000  0.000000  1
  In  In13  1  0.500000  0.000000  0.000000  1
  In  In14  1  0.000000  0.500000  0.000000  1
  In  In15  1  0.500000  0.500000  0.000000  1
  In  In16  1  0.000000  0.000000  0.500000  1
  In  In17  1  0.500000  0.500000  0.499999  1
  In  In18  1  0.500000  0.000000  0.500000  1
  In  In19  1  0.000000  0.500000  0.500000  1
  Ge  Ge20  1  0.749999  0.875000  0.125000  1
  Ge  Ge21  1  0.875000  0.250001  0.125000  1
  Ge  Ge22  1  0.624999  0.375000  0.249999  1
  Ge  Ge23  1  0.125000  0.875000  0.250001  1
  Ge  Ge24  1  0.625000  0.750000  0.374999  1
  Ge  Ge25  1  0.249999  0.624999  0.375000  1
  Ge  Ge26  1  0.375000  0.249999  0.624999  1
  Ge  Ge27  1  0.749999  0.374999  0.625000  1
  Ge  Ge28  1  0.875000  0.125000  0.750000  1
  Ge  Ge29  1  0.374999  0.625000  0.750000  1
  Ge  Ge30  1  0.124999  0.750000  0.875000  1
  Ge  Ge31  1  0.250001  0.125000  0.875000  1
  O  O32  1  0.216789  0.125381  0.024949  1
  O  O33  1  0.308161  0.899568  0.024949  1
  O  O34  1  0.716790  0.691840  0.091408  1
  O  O35  1  0.874619  0.399569  0.091408  1
  O  O36  1  0.625381  0.408591  0.100431  1
  O  O37  1  0.975051  0.691839  0.100431  1
  O  O38  1  0.600432  0.908592  0.125382  1
  O  O39  1  0.024949  0.216789  0.125381  1
  O  O40  1  0.216789  0.591407  0.191838  1
  O  O41  1  0.475050  0.600432  0.191838  1
  O  O42  1  0.591407  0.191838  0.216789  1
  O  O43  1  0.125381  0.024949  0.216789  1
  O  O44  1  0.475050  0.374618  0.283211  1
  O  O45  1  0.308161  0.908592  0.283211  1
  O  O46  1  0.908592  0.283211  0.308161  1
  O  O47  1  0.899569  0.024949  0.308161  1
  O  O48  1  0.591408  0.899568  0.374618  1
  O  O49  1  0.283211  0.475050  0.374618  1
  O  O50  1  0.808161  0.524950  0.399569  1
  O  O51  1  0.091408  0.874619  0.399570  1
  O  O52  1  0.808161  0.783210  0.408592  1
  O  O53  1  0.100431  0.625381  0.408591  1
  O  O54  1  0.374618  0.283210  0.475051  1
  O  O55  1  0.600431  0.191838  0.475051  1
  O  O56  1  0.625382  0.716789  0.524949  1
  O  O57  1  0.399569  0.808161  0.524950  1
  O  O58  1  0.191838  0.216789  0.591407  1
  O  O59  1  0.899568  0.374618  0.591408  1
  O  O60  1  0.908593  0.125382  0.600432  1
  O  O61  1  0.191839  0.475050  0.600431  1
  O  O62  1  0.408591  0.100431  0.625381  1
  O  O63  1  0.716790  0.524949  0.625382  1
  O  O64  1  0.091408  0.716790  0.691839  1
  O  O65  1  0.100431  0.975051  0.691839  1
  O  O66  1  0.691839  0.091408  0.716790  1
  O  O67  1  0.524949  0.625382  0.716790  1
  O  O68  1  0.874618  0.975051  0.783211  1
  O  O69  1  0.408592  0.808161  0.783210  1
  O  O70  1  0.524950  0.399569  0.808161  1
  O  O71  1  0.783210  0.408592  0.808161  1
  O  O72  1  0.975051  0.783211  0.874619  1
  O  O73  1  0.399570  0.091408  0.874619  1
  O  O74  1  0.024950  0.308161  0.899568  1
  O  O75  1  0.374618  0.591408  0.899569  1
  O  O76  1  0.283211  0.308161  0.908592  1
  O  O77  1  0.125382  0.600431  0.908593  1
  O  O78  1  0.691839  0.100431  0.975050  1
  O  O79  1  0.783211  0.874619  0.975051  1
