# generated using pymatgen
data_Ca3TiGa2(SnO6)2
_symmetry_space_group_name_H-M   'P 1'
_cell_length_a   11.07043485
_cell_length_b   11.06712218
_cell_length_c   11.06592863
_cell_angle_alpha   109.78695546
_cell_angle_beta   109.43840294
_cell_angle_gamma   109.20109455
_symmetry_Int_Tables_number   1
_chemical_formula_structural   Ca3TiGa2(SnO6)2
_chemical_formula_sum   'Ca12 Ti4 Ga8 Sn8 O48'
_cell_volume   1043.48969209
_cell_formula_units_Z   4
loop_
 _symmetry_equiv_pos_site_id
 _symmetry_equiv_pos_as_xyz
  1  'x, y, z'
loop_
 _atom_site_type_symbol
 _atom_site_label
 _atom_site_symmetry_multiplicity
 _atom_site_fract_x
 _atom_site_fract_y
 _atom_site_fract_z
 _atom_site_occupancy
  Ca  Ca0  1  0.248395  0.370542  0.120568  1
  Ca  Ca1  1  0.755726  0.630271  0.877193  1
  Ca  Ca2  1  0.750156  0.125484  0.373862  1
  Ca  Ca3  1  0.122042  0.248424  0.372056  1
  Ca  Ca4  1  0.373878  0.749877  0.122298  1
  Ca  Ca5  1  0.246809  0.873521  0.629222  1
  Ca  Ca6  1  0.878508  0.755299  0.625712  1
  Ca  Ca7  1  0.625381  0.247359  0.880539  1
  Ca  Ca8  1  0.369418  0.119196  0.239635  1
  Ca  Ca9  1  0.627496  0.877612  0.752806  1
  Ca  Ca10  1  0.128446  0.378274  0.755744  1
  Ca  Ca11  1  0.873864  0.624031  0.250256  1
  Ti  Ti12  1  0.250046  0.624899  0.375329  1
  Ti  Ti13  1  0.749723  0.374854  0.625299  1
  Ti  Ti14  1  0.750237  0.874843  0.125123  1
  Ti  Ti15  1  0.375539  0.250445  0.625387  1
  Ga  Ga16  1  0.625017  0.750161  0.374670  1
  Ga  Ga17  1  0.250680  0.125373  0.875051  1
  Ga  Ga18  1  0.124511  0.749827  0.875136  1
  Ga  Ga19  1  0.875070  0.249740  0.124990  1
  Ga  Ga20  1  0.625449  0.374464  0.250181  1
  Ga  Ga21  1  0.375003  0.624854  0.749673  1
  Ga  Ga22  1  0.874925  0.125035  0.749660  1
  Ga  Ga23  1  0.124560  0.875386  0.250145  1
  Sn  Sn24  1  0.004327  0.002772  0.999483  1
  Sn  Sn25  1  0.501356  0.997330  0.497288  1
  Sn  Sn26  1  0.999862  0.499229  0.500401  1
  Sn  Sn27  1  0.497374  0.001337  0.997300  1
  Sn  Sn28  1  0.496594  0.498316  0.002839  1
  Sn  Sn29  1  0.502676  0.504468  0.499540  1
  Sn  Sn30  1  0.998258  0.996809  0.502635  1
  Sn  Sn31  1  0.999280  0.499908  0.000374  1
  O  O32  1  0.477171  0.377250  0.297490  1
  O  O33  1  0.524457  0.621595  0.703830  1
  O  O34  1  0.581876  0.180167  0.204888  1
  O  O35  1  0.919427  0.124391  0.599008  1
  O  O36  1  0.294735  0.480063  0.380031  1
  O  O37  1  0.319289  0.918942  0.297576  1
  O  O38  1  0.418749  0.818471  0.794752  1
  O  O39  1  0.081537  0.877798  0.401194  1
  O  O40  1  0.704540  0.518661  0.620605  1
  O  O41  1  0.679568  0.081852  0.702135  1
  O  O42  1  0.022291  0.319632  0.901077  1
  O  O43  1  0.204922  0.584882  0.186952  1
  O  O44  1  0.121789  0.023257  0.204470  1
  O  O45  1  0.975285  0.680554  0.098667  1
  O  O46  1  0.792996  0.416097  0.814244  1
  O  O47  1  0.877285  0.978217  0.796670  1
  O  O48  1  0.602802  0.916818  0.119459  1
  O  O49  1  0.180695  0.475933  0.599032  1
  O  O50  1  0.401467  0.083985  0.874690  1
  O  O51  1  0.819517  0.521616  0.400709  1
  O  O52  1  0.899179  0.018568  0.315634  1
  O  O53  1  0.380112  0.582386  0.901063  1
  O  O54  1  0.098755  0.975784  0.682765  1
  O  O55  1  0.622051  0.418800  0.099419  1
  O  O56  1  0.382576  0.300117  0.484689  1
  O  O57  1  0.583478  0.902195  0.375197  1
  O  O58  1  0.622750  0.706709  0.523829  1
  O  O59  1  0.417662  0.101788  0.618293  1
  O  O60  1  0.120690  0.598677  0.918499  1
  O  O61  1  0.024216  0.205164  0.123916  1
  O  O62  1  0.878122  0.400688  0.081914  1
  O  O63  1  0.974685  0.794372  0.876616  1
  O  O64  1  0.318755  0.899646  0.021944  1
  O  O65  1  0.918207  0.294761  0.319969  1
  O  O66  1  0.681877  0.098682  0.978264  1
  O  O67  1  0.081901  0.703416  0.680497  1
  O  O68  1  0.185330  0.201383  0.581957  1
  O  O69  1  0.474046  0.599401  0.182339  1
  O  O70  1  0.816688  0.793756  0.414943  1
  O  O71  1  0.519059  0.398569  0.815963  1
  O  O72  1  0.293049  0.317323  0.914961  1
  O  O73  1  0.701991  0.684082  0.081447  1
  O  O74  1  0.207999  0.123353  0.024126  1
  O  O75  1  0.797516  0.880755  0.983037  1
  O  O76  1  0.897624  0.378874  0.584929  1
  O  O77  1  0.101516  0.619703  0.415005  1
  O  O78  1  0.601207  0.186368  0.481873  1
  O  O79  1  0.397950  0.814557  0.519035  1
