# generated using pymatgen
data_Sm2Y4RuI10
_symmetry_space_group_name_H-M   'P 1'
_cell_length_a   7.80729984
_cell_length_b   9.78252343
_cell_length_c   9.82445865
_cell_angle_alpha   106.96355844
_cell_angle_beta   96.58320951
_cell_angle_gamma   104.86802398
_symmetry_Int_Tables_number   1
_chemical_formula_structural   Sm2Y4RuI10
_chemical_formula_sum   'Sm2 Y4 Ru1 I10'
_cell_volume   678.93662838
_cell_formula_units_Z   1
loop_
 _symmetry_equiv_pos_site_id
 _symmetry_equiv_pos_as_xyz
  1  'x, y, z'
loop_
 _atom_site_type_symbol
 _atom_site_label
 _atom_site_symmetry_multiplicity
 _atom_site_fract_x
 _atom_site_fract_y
 _atom_site_fract_z
 _atom_site_occupancy
  Sm  Sm0  1  0.115741  0.043028  0.762035  1
  Sm  Sm1  1  0.884259  0.956972  0.237965  1
  Y  Y2  1  0.969273  0.279079  0.082350  1
  Y  Y3  1  0.647351  0.873349  0.831240  1
  Y  Y4  1  0.352649  0.126651  0.168760  1
  Y  Y5  1  0.030727  0.720921  0.917650  1
  Ru  Ru6  1  0.000000  0.000000  0.000000  1
  I  I7  1  0.347461  0.447878  0.270590  1
  I  I8  1  0.652539  0.552122  0.729410  1
  I  I9  1  0.738340  0.911498  0.540760  1
  I  I10  1  0.085108  0.374319  0.822497  1
  I  I11  1  0.914892  0.625681  0.177503  1
  I  I12  1  0.451198  0.816090  0.090081  1
  I  I13  1  0.548802  0.183910  0.909919  1
  I  I14  1  0.780945  0.260205  0.344474  1
  I  I15  1  0.219055  0.739795  0.655526  1
  I  I16  1  0.261660  0.088502  0.459240  1
