# generated using pymatgen
data_LiCo4As3Ru
_symmetry_space_group_name_H-M   'P 1'
_cell_length_a   3.69048500
_cell_length_b   10.59265100
_cell_length_c   12.19999200
_cell_angle_alpha   90.00000000
_cell_angle_beta   90.00000000
_cell_angle_gamma   90.00000000
_symmetry_Int_Tables_number   1
_chemical_formula_structural   LiCo4As3Ru
_chemical_formula_sum   'Li4 Co16 As12 Ru4'
_cell_volume   476.92232670
_cell_formula_units_Z   4
loop_
 _symmetry_equiv_pos_site_id
 _symmetry_equiv_pos_as_xyz
  1  'x, y, z'
loop_
 _atom_site_type_symbol
 _atom_site_label
 _atom_site_symmetry_multiplicity
 _atom_site_fract_x
 _atom_site_fract_y
 _atom_site_fract_z
 _atom_site_occupancy
  Li  Li0  1  0.250000  0.578806  0.702669  1
  Li  Li1  1  0.250000  0.921194  0.202669  1
  Li  Li2  1  0.750000  0.421194  0.297331  1
  Li  Li3  1  0.750000  0.078806  0.797331  1
  Co  Co4  1  0.250000  0.408180  0.490009  1
  Co  Co5  1  0.250000  0.091820  0.990009  1
  Co  Co6  1  0.750000  0.591820  0.509991  1
  Co  Co7  1  0.750000  0.908180  0.009991  1
  Co  Co8  1  0.250000  0.214505  0.176786  1
  Co  Co9  1  0.250000  0.285495  0.676786  1
  Co  Co10  1  0.750000  0.785495  0.823214  1
  Co  Co11  1  0.750000  0.714505  0.323214  1
  Co  Co12  1  0.250000  0.881681  0.697174  1
  Co  Co13  1  0.250000  0.618319  0.197174  1
  Co  Co14  1  0.750000  0.118319  0.302826  1
  Co  Co15  1  0.750000  0.381681  0.802826  1
  Co  Co16  1  0.250000  0.461795  0.935578  1
  Co  Co17  1  0.250000  0.038205  0.435578  1
  Co  Co18  1  0.750000  0.538205  0.064422  1
  Co  Co19  1  0.750000  0.961795  0.564422  1
  As  As20  1  0.250000  0.418485  0.122603  1
  As  As21  1  0.250000  0.081515  0.622603  1
  As  As22  1  0.750000  0.581515  0.877397  1
  As  As23  1  0.750000  0.918485  0.377397  1
  As  As24  1  0.250000  0.257561  0.864832  1
  As  As25  1  0.250000  0.242439  0.364832  1
  As  As26  1  0.750000  0.742439  0.135168  1
  As  As27  1  0.750000  0.757561  0.635168  1
  As  As28  1  0.250000  0.588516  0.384302  1
  As  As29  1  0.250000  0.911484  0.884302  1
  As  As30  1  0.750000  0.411484  0.615698  1
  As  As31  1  0.750000  0.088516  0.115698  1
  Ru  Ru32  1  0.250000  0.710485  0.985529  1
  Ru  Ru33  1  0.250000  0.789515  0.485529  1
  Ru  Ru34  1  0.750000  0.289515  0.014471  1
  Ru  Ru35  1  0.750000  0.210485  0.514471  1
