# generated using pymatgen
data_Y8BeSiBr12
_symmetry_space_group_name_H-M   'P 1'
_cell_length_a   4.02016300
_cell_length_b   13.26743701
_cell_length_c   14.03729101
_cell_angle_alpha   90.00515028
_cell_angle_beta   90.00000000
_cell_angle_gamma   90.00000000
_symmetry_Int_Tables_number   1
_chemical_formula_structural   Y8BeSiBr12
_chemical_formula_sum   'Y8 Be1 Si1 Br12'
_cell_volume   748.71062888
_cell_formula_units_Z   1
loop_
 _symmetry_equiv_pos_site_id
 _symmetry_equiv_pos_as_xyz
  1  'x, y, z'
loop_
 _atom_site_type_symbol
 _atom_site_label
 _atom_site_symmetry_multiplicity
 _atom_site_fract_x
 _atom_site_fract_y
 _atom_site_fract_z
 _atom_site_occupancy
  Y  Y0  1  0.500000  0.115564  0.344660  1
  Y  Y1  1  0.500000  0.884436  0.655340  1
  Y  Y2  1  0.500000  0.618316  0.159240  1
  Y  Y3  1  0.500000  0.381684  0.840760  1
  Y  Y4  1  0.000000  0.117164  0.577778  1
  Y  Y5  1  0.000000  0.882836  0.422222  1
  Y  Y6  1  0.000000  0.619433  0.920633  1
  Y  Y7  1  0.000000  0.380567  0.079367  1
  Be  Be8  1  0.500000  0.000000  0.500000  1
  Si  Si9  1  0.500000  0.500000  0.000000  1
  Br  Br10  1  0.500000  0.244203  0.163093  1
  Br  Br11  1  0.500000  0.755797  0.836907  1
  Br  Br12  1  0.500000  0.745189  0.337047  1
  Br  Br13  1  0.500000  0.254811  0.662953  1
  Br  Br14  1  0.000000  0.257006  0.411254  1
  Br  Br15  1  0.000000  0.742994  0.588746  1
  Br  Br16  1  0.000000  0.756277  0.088578  1
  Br  Br17  1  0.000000  0.243723  0.911422  1
  Br  Br18  1  0.000000  0.001544  0.241595  1
  Br  Br19  1  0.000000  0.998456  0.758405  1
  Br  Br20  1  0.000000  0.501267  0.257886  1
  Br  Br21  1  0.000000  0.498733  0.742114  1
