# generated using pymatgen
data_TbGa2Co2Cu
_symmetry_space_group_name_H-M   'P 1'
_cell_length_a   4.09654600
_cell_length_b   8.81011431
_cell_length_c   8.81011287
_cell_angle_alpha   60.01078551
_cell_angle_beta   90.00000000
_cell_angle_gamma   90.00000000
_symmetry_Int_Tables_number   1
_chemical_formula_structural   TbGa2Co2Cu
_chemical_formula_sum   'Tb3 Ga6 Co6 Cu3'
_cell_volume   275.39666267
_cell_formula_units_Z   3
loop_
 _symmetry_equiv_pos_site_id
 _symmetry_equiv_pos_as_xyz
  1  'x, y, z'
loop_
 _atom_site_type_symbol
 _atom_site_label
 _atom_site_symmetry_multiplicity
 _atom_site_fract_x
 _atom_site_fract_y
 _atom_site_fract_z
 _atom_site_occupancy
  Tb  Tb0  1  0.500000  0.333359  0.333338  1
  Tb  Tb1  1  0.500000  0.666662  0.666641  1
  Tb  Tb2  1  0.000000  0.999985  0.000015  1
  Ga  Ga3  1  0.500000  0.722444  0.277556  1
  Ga  Ga4  1  0.500000  0.277586  0.000011  1
  Ga  Ga5  1  0.500000  0.999989  0.722414  1
  Ga  Ga6  1  0.000000  0.487755  0.512245  1
  Ga  Ga7  1  0.000000  0.512233  0.999931  1
  Ga  Ga8  1  0.000000  0.000069  0.487767  1
  Co  Co9  1  0.000000  0.193465  0.176512  1
  Co  Co10  1  0.000000  0.176530  0.630106  1
  Co  Co11  1  0.000000  0.629970  0.193485  1
  Co  Co12  1  0.000000  0.823487  0.806535  1
  Co  Co13  1  0.000000  0.369894  0.823470  1
  Co  Co14  1  0.000000  0.806515  0.370030  1
  Cu  Cu15  1  0.500000  0.291165  0.708835  1
  Cu  Cu16  1  0.500000  0.708778  0.999985  1
  Cu  Cu17  1  0.500000  0.000015  0.291222  1
