# generated using pymatgen
data_Ce(BrO3)4
_symmetry_space_group_name_H-M   'P 1'
_cell_length_a   10.33779700
_cell_length_b   10.33779700
_cell_length_c   5.31973000
_cell_angle_alpha   90.00000000
_cell_angle_beta   90.00000000
_cell_angle_gamma   90.00000000
_symmetry_Int_Tables_number   1
_chemical_formula_structural   Ce(BrO3)4
_chemical_formula_sum   'Ce2 Br8 O24'
_cell_volume   568.51979413
_cell_formula_units_Z   2
loop_
 _symmetry_equiv_pos_site_id
 _symmetry_equiv_pos_as_xyz
  1  'x, y, z'
loop_
 _atom_site_type_symbol
 _atom_site_label
 _atom_site_symmetry_multiplicity
 _atom_site_fract_x
 _atom_site_fract_y
 _atom_site_fract_z
 _atom_site_occupancy
  Ce  Ce0  1  0.000000  0.000000  0.000000  1
  Ce  Ce1  1  0.500000  0.500000  0.500000  1
  Br  Br2  1  0.019687  0.262039  0.532911  1
  Br  Br3  1  0.762039  0.480313  0.032911  1
  Br  Br4  1  0.237961  0.519687  0.032911  1
  Br  Br5  1  0.980313  0.737961  0.532911  1
  Br  Br6  1  0.480313  0.237961  0.967089  1
  Br  Br7  1  0.737961  0.019687  0.467089  1
  Br  Br8  1  0.262039  0.980313  0.467089  1
  Br  Br9  1  0.519687  0.762039  0.967089  1
  O  O10  1  0.073315  0.151040  0.313839  1
  O  O11  1  0.651040  0.426685  0.813839  1
  O  O12  1  0.348960  0.573315  0.813839  1
  O  O13  1  0.926685  0.848960  0.313839  1
  O  O14  1  0.426685  0.348960  0.186161  1
  O  O15  1  0.848960  0.073315  0.686161  1
  O  O16  1  0.151040  0.926685  0.686161  1
  O  O17  1  0.573315  0.651040  0.186161  1
  O  O18  1  0.075665  0.192105  0.805990  1
  O  O19  1  0.692105  0.424335  0.305990  1
  O  O20  1  0.614840  0.887732  0.001162  1
  O  O21  1  0.387732  0.885160  0.501162  1
  O  O22  1  0.612268  0.114840  0.501162  1
  O  O23  1  0.385160  0.112268  0.001162  1
  O  O24  1  0.885160  0.612268  0.498838  1
  O  O25  1  0.112268  0.614840  0.998838  1
  O  O26  1  0.887732  0.385160  0.998838  1
  O  O27  1  0.114840  0.387732  0.498838  1
  O  O28  1  0.575665  0.692105  0.694010  1
  O  O29  1  0.192105  0.924335  0.194010  1
  O  O30  1  0.807895  0.075665  0.194010  1
  O  O31  1  0.424335  0.307895  0.694010  1
  O  O32  1  0.924335  0.807895  0.805990  1
  O  O33  1  0.307895  0.575665  0.305990  1
