# generated using pymatgen
data_Gd4RuCl4
_symmetry_space_group_name_H-M   'P 1'
_cell_length_a   12.48251200
_cell_length_b   12.48251200
_cell_length_c   6.41479000
_cell_angle_alpha   90.00000000
_cell_angle_beta   90.00000000
_cell_angle_gamma   90.00000000
_symmetry_Int_Tables_number   1
_chemical_formula_structural   Gd4RuCl4
_chemical_formula_sum   'Gd16 Ru4 Cl16'
_cell_volume   999.50835315
_cell_formula_units_Z   4
loop_
 _symmetry_equiv_pos_site_id
 _symmetry_equiv_pos_as_xyz
  1  'x, y, z'
loop_
 _atom_site_type_symbol
 _atom_site_label
 _atom_site_symmetry_multiplicity
 _atom_site_fract_x
 _atom_site_fract_y
 _atom_site_fract_z
 _atom_site_occupancy
  Gd  Gd0  1  0.180401  0.077834  0.007480  1
  Gd  Gd1  1  0.577834  0.319599  0.007480  1
  Gd  Gd2  1  0.422166  0.680401  0.007480  1
  Gd  Gd3  1  0.819599  0.922167  0.007480  1
  Gd  Gd4  1  0.077834  0.180401  0.492521  1
  Gd  Gd5  1  0.680401  0.422166  0.492521  1
  Gd  Gd6  1  0.319599  0.577834  0.492521  1
  Gd  Gd7  1  0.922167  0.819599  0.492521  1
  Gd  Gd8  1  0.819599  0.077834  0.507479  1
  Gd  Gd9  1  0.422166  0.319599  0.507479  1
  Gd  Gd10  1  0.577834  0.680401  0.507479  1
  Gd  Gd11  1  0.180401  0.922167  0.507479  1
  Gd  Gd12  1  0.922167  0.180401  0.992520  1
  Gd  Gd13  1  0.319599  0.422166  0.992520  1
  Gd  Gd14  1  0.680401  0.577834  0.992520  1
  Gd  Gd15  1  0.077834  0.819599  0.992520  1
  Ru  Ru16  1  0.000000  0.000000  0.250000  1
  Ru  Ru17  1  0.500000  0.500000  0.250000  1
  Ru  Ru18  1  0.000000  0.000000  0.749999  1
  Ru  Ru19  1  0.500000  0.500000  0.749999  1
  Cl  Cl20  1  0.113299  0.298280  0.084309  1
  Cl  Cl21  1  0.798280  0.386701  0.084309  1
  Cl  Cl22  1  0.201721  0.613299  0.084309  1
  Cl  Cl23  1  0.886701  0.701721  0.084309  1
  Cl  Cl24  1  0.298280  0.113299  0.415690  1
  Cl  Cl25  1  0.613299  0.201721  0.415690  1
  Cl  Cl26  1  0.386701  0.798280  0.415690  1
  Cl  Cl27  1  0.701721  0.886701  0.415690  1
  Cl  Cl28  1  0.886701  0.298280  0.584310  1
  Cl  Cl29  1  0.201721  0.386701  0.584310  1
  Cl  Cl30  1  0.798280  0.613299  0.584310  1
  Cl  Cl31  1  0.113299  0.701721  0.584310  1
  Cl  Cl32  1  0.701721  0.113299  0.915691  1
  Cl  Cl33  1  0.386701  0.201721  0.915691  1
  Cl  Cl34  1  0.613299  0.798280  0.915691  1
  Cl  Cl35  1  0.298280  0.886701  0.915691  1
