# generated using pymatgen
data_Ti3Mn3Si2P
_symmetry_space_group_name_H-M   'P 1'
_cell_length_a   6.42646200
_cell_length_b   6.42646170
_cell_length_c   3.23576600
_cell_angle_alpha   90.00000000
_cell_angle_beta   90.00000000
_cell_angle_gamma   120.00000155
_symmetry_Int_Tables_number   1
_chemical_formula_structural   Ti3Mn3Si2P
_chemical_formula_sum   'Ti3 Mn3 Si2 P1'
_cell_volume   115.73150467
_cell_formula_units_Z   1
loop_
 _symmetry_equiv_pos_site_id
 _symmetry_equiv_pos_as_xyz
  1  'x, y, z'
loop_
 _atom_site_type_symbol
 _atom_site_label
 _atom_site_symmetry_multiplicity
 _atom_site_fract_x
 _atom_site_fract_y
 _atom_site_fract_z
 _atom_site_occupancy
  Ti  Ti0  1  0.595416  0.006315  0.000000  1
  Ti  Ti1  1  0.993685  0.589102  0.000000  1
  Ti  Ti2  1  0.410898  0.404584  0.000000  1
  Mn  Mn3  1  0.258011  0.004003  0.500000  1
  Mn  Mn4  1  0.995997  0.254007  0.500000  1
  Mn  Mn5  1  0.745993  0.741989  0.500000  1
  Si  Si6  1  0.333333  0.666667  0.500000  1
  Si  Si7  1  0.000000  0.000000  0.000000  1
  P  P8  1  0.666667  0.333333  0.500000  1
