# generated using pymatgen
data_Ti8Al14GaIr5Rh2
_symmetry_space_group_name_H-M   'P 1'
_cell_length_a   8.65643961
_cell_length_b   8.65643970
_cell_length_c   8.65644051
_cell_angle_alpha   120.04131399
_cell_angle_beta   119.73613868
_cell_angle_gamma   90.19304547
_symmetry_Int_Tables_number   1
_chemical_formula_structural   Ti8Al14GaIr5Rh2
_chemical_formula_sum   'Ti8 Al14 Ga1 Ir5 Rh2'
_cell_volume   459.43732368
_cell_formula_units_Z   1
loop_
 _symmetry_equiv_pos_site_id
 _symmetry_equiv_pos_as_xyz
  1  'x, y, z'
loop_
 _atom_site_type_symbol
 _atom_site_label
 _atom_site_symmetry_multiplicity
 _atom_site_fract_x
 _atom_site_fract_y
 _atom_site_fract_z
 _atom_site_occupancy
  Ti  Ti0  1  0.792793  0.293697  0.077705  1
  Ti  Ti1  1  0.215992  0.293697  0.500906  1
  Ti  Ti2  1  0.205599  0.705599  0.500000  1
  Ti  Ti3  1  0.215992  0.715086  0.922295  1
  Ti  Ti4  1  0.792793  0.715086  0.499094  1
  Ti  Ti5  1  0.784264  0.284264  0.500000  1
  Ti  Ti6  1  0.378350  0.121980  0.743630  1
  Ti  Ti7  1  0.378350  0.634720  0.256370  1
  Al  Al8  1  0.153865  0.340949  0.187083  1
  Al  Al9  1  0.153865  0.966781  0.812917  1
  Al  Al10  1  0.151624  0.345800  0.805823  1
  Al  Al11  1  0.539976  0.345800  0.194177  1
  Al  Al12  1  0.845543  0.655301  0.809760  1
  Al  Al13  1  0.845543  0.035783  0.190240  1
  Al  Al14  1  0.842495  0.656079  0.186416  1
  Al  Al15  1  0.469663  0.656079  0.813584  1
  Al  Al16  1  0.379252  0.120934  0.258318  1
  Al  Al17  1  0.862618  0.120934  0.741682  1
  Al  Al18  1  0.621141  0.877701  0.256562  1
  Al  Al19  1  0.621141  0.364579  0.743438  1
  Al  Al20  1  0.619922  0.878358  0.741564  1
  Al  Al21  1  0.136794  0.878358  0.258436  1
  Ga  Ga22  1  0.996031  0.496031  0.500000  1
  Ir  Ir23  1  0.001631  0.000491  0.502273  1
  Ir  Ir24  1  0.498218  0.000491  0.998860  1
  Ir  Ir25  1  0.497428  0.497428  0.000000  1
  Ir  Ir26  1  0.498218  0.499357  0.497727  1
  Ir  Ir27  1  0.001631  0.499357  0.001140  1
  Rh  Rh28  1  0.998999  0.998999  0.000000  1
  Rh  Rh29  1  0.500271  0.000271  0.500000  1
