# generated using pymatgen
data_Hf3Zr7Sn4(GeSb)2
_symmetry_space_group_name_H-M   'P 1'
_cell_length_a   8.69530004
_cell_length_b   8.69771226
_cell_length_c   5.88206203
_cell_angle_alpha   90.01073564
_cell_angle_beta   89.99617060
_cell_angle_gamma   119.97981435
_symmetry_Int_Tables_number   1
_chemical_formula_structural   Hf3Zr7Sn4(GeSb)2
_chemical_formula_sum   'Hf3 Zr7 Sn4 Ge2 Sb2'
_cell_volume   385.33471216
_cell_formula_units_Z   1
loop_
 _symmetry_equiv_pos_site_id
 _symmetry_equiv_pos_as_xyz
  1  'x, y, z'
loop_
 _atom_site_type_symbol
 _atom_site_label
 _atom_site_symmetry_multiplicity
 _atom_site_fract_x
 _atom_site_fract_y
 _atom_site_fract_z
 _atom_site_occupancy
  Hf  Hf0  1  0.666966  0.332773  0.998784  1
  Hf  Hf1  1  0.332718  0.666980  0.998878  1
  Hf  Hf2  1  0.332729  0.666977  0.501187  1
  Zr  Zr3  1  0.666983  0.332554  0.500829  1
  Zr  Zr4  1  0.735689  0.735980  0.750265  1
  Zr  Zr5  1  0.264543  0.999838  0.750268  1
  Zr  Zr6  1  0.000335  0.264812  0.750323  1
  Zr  Zr7  1  0.262157  0.262530  0.249792  1
  Zr  Zr8  1  0.736581  0.999826  0.249818  1
  Zr  Zr9  1  0.000466  0.736953  0.249793  1
  Sn  Sn10  1  0.393406  0.393750  0.750440  1
  Sn  Sn11  1  0.607666  0.999226  0.750464  1
  Sn  Sn12  1  0.999992  0.608054  0.750429  1
  Sn  Sn13  1  0.605603  0.606011  0.249590  1
  Ge  Ge14  1  0.999489  0.999481  0.999043  1
  Ge  Ge15  1  0.999464  0.999460  0.500976  1
  Sb  Sb16  1  0.394901  0.999541  0.249555  1
  Sb  Sb17  1  0.000312  0.395255  0.249566  1
