# generated using pymatgen
data_ErZr2PtF15
_symmetry_space_group_name_H-M   'P 1'
_cell_length_a   8.12291808
_cell_length_b   8.12291674
_cell_length_c   8.10917759
_cell_angle_alpha   79.94268259
_cell_angle_beta   79.94268374
_cell_angle_gamma   100.09436882
_symmetry_Int_Tables_number   1
_chemical_formula_structural   ErZr2PtF15
_chemical_formula_sum   'Er2 Zr4 Pt2 F30'
_cell_volume   506.92239028
_cell_formula_units_Z   2
loop_
 _symmetry_equiv_pos_site_id
 _symmetry_equiv_pos_as_xyz
  1  'x, y, z'
loop_
 _atom_site_type_symbol
 _atom_site_label
 _atom_site_symmetry_multiplicity
 _atom_site_fract_x
 _atom_site_fract_y
 _atom_site_fract_z
 _atom_site_occupancy
  Er  Er0  1  0.677242  0.322758  0.750000  1
  Er  Er1  1  0.322758  0.677242  0.250000  1
  Zr  Zr2  1  0.823247  0.750752  0.327026  1
  Zr  Zr3  1  0.249248  0.176753  0.172974  1
  Zr  Zr4  1  0.176753  0.249248  0.672974  1
  Zr  Zr5  1  0.750752  0.823247  0.827026  1
  Pt  Pt6  1  0.249792  0.750208  0.750000  1
  Pt  Pt7  1  0.750208  0.249792  0.250000  1
  F  F8  1  0.150108  0.186000  0.945523  1
  F  F9  1  0.688261  0.563999  0.847034  1
  F  F10  1  0.041416  0.654209  0.314647  1
  F  F11  1  0.654209  0.041416  0.814647  1
  F  F12  1  0.563999  0.688261  0.347034  1
  F  F13  1  0.186000  0.150108  0.445523  1
  F  F14  1  0.849892  0.814000  0.054477  1
  F  F15  1  0.311739  0.436001  0.152966  1
  F  F16  1  0.958584  0.345791  0.685353  1
  F  F17  1  0.345791  0.958584  0.185353  1
  F  F18  1  0.436001  0.311739  0.652966  1
  F  F19  1  0.814000  0.849892  0.554477  1
  F  F20  1  0.968647  0.031353  0.750000  1
  F  F21  1  0.542108  0.752806  0.028201  1
  F  F22  1  0.247194  0.457892  0.471799  1
  F  F23  1  0.457892  0.247194  0.971799  1
  F  F24  1  0.752806  0.542108  0.528201  1
  F  F25  1  0.031353  0.968647  0.250000  1
  F  F26  1  0.213783  0.726244  0.000340  1
  F  F27  1  0.226548  0.499135  0.788778  1
  F  F28  1  0.997784  0.714105  0.775073  1
  F  F29  1  0.714105  0.997784  0.275073  1
  F  F30  1  0.499135  0.226548  0.288778  1
  F  F31  1  0.726244  0.213783  0.500340  1
  F  F32  1  0.786217  0.273756  0.999660  1
  F  F33  1  0.773452  0.500865  0.211222  1
  F  F34  1  0.002216  0.285895  0.224927  1
  F  F35  1  0.285895  0.002216  0.724927  1
  F  F36  1  0.500865  0.773452  0.711222  1
  F  F37  1  0.273756  0.786217  0.499660  1
