# generated using pymatgen
data_Ba11ErSb9
_symmetry_space_group_name_H-M   'P 1'
_cell_length_a   13.35362728
_cell_length_b   13.35362771
_cell_length_c   13.35362800
_cell_angle_alpha   120.90199171
_cell_angle_beta   117.15435216
_cell_angle_gamma   91.72140935
_symmetry_Int_Tables_number   1
_chemical_formula_structural   Ba11ErSb9
_chemical_formula_sum   'Ba22 Er2 Sb18'
_cell_volume   1705.46769178
_cell_formula_units_Z   2
loop_
 _symmetry_equiv_pos_site_id
 _symmetry_equiv_pos_as_xyz
  1  'x, y, z'
loop_
 _atom_site_type_symbol
 _atom_site_label
 _atom_site_symmetry_multiplicity
 _atom_site_fract_x
 _atom_site_fract_y
 _atom_site_fract_z
 _atom_site_occupancy
  Ba  Ba0  1  0.323672  0.323672  0.000000  1
  Ba  Ba1  1  0.820653  0.836185  0.659464  1
  Ba  Ba2  1  0.434978  0.066488  0.180762  1
  Ba  Ba3  1  0.823672  0.823672  0.000000  1
  Ba  Ba4  1  0.690057  0.947103  0.375531  1
  Ba  Ba5  1  0.426614  0.687818  0.370230  1
  Ba  Ba6  1  0.320653  0.661189  0.984468  1
  Ba  Ba7  1  0.817588  0.187818  0.261205  1
  Ba  Ba8  1  0.618868  0.418936  0.353716  1
  Ba  Ba9  1  0.885726  0.254216  0.819238  1
  Ba  Ba10  1  0.118868  0.765152  0.199932  1
  Ba  Ba11  1  0.190057  0.814526  0.742954  1
  Ba  Ba12  1  0.926614  0.556384  0.738795  1
  Ba  Ba13  1  0.385726  0.566488  0.631511  1
  Ba  Ba14  1  0.065220  0.265152  0.646284  1
  Ba  Ba15  1  0.565220  0.918936  0.800068  1
  Ba  Ba16  1  0.934978  0.754216  0.368489  1
  Ba  Ba17  1  0.676720  0.336185  0.015532  1
  Ba  Ba18  1  0.571573  0.314526  0.624469  1
  Ba  Ba19  1  0.176720  0.161189  0.340536  1
  Ba  Ba20  1  0.071573  0.447103  0.257046  1
  Ba  Ba21  1  0.317588  0.056384  0.629770  1
  Er  Er22  1  0.603527  0.603527  0.000000  1
  Er  Er23  1  0.103527  0.103527  0.000000  1
  Sb  Sb24  1  0.643108  0.643006  0.649253  1
  Sb  Sb25  1  0.403341  0.970155  0.367650  1
  Sb  Sb26  1  0.993752  0.993855  0.350747  1
  Sb  Sb27  1  0.615197  0.623255  0.239604  1
  Sb  Sb28  1  0.050572  0.041983  0.721835  1
  Sb  Sb29  1  0.249870  0.749870  0.500000  1
  Sb  Sb30  1  0.550572  0.828737  0.008589  1
  Sb  Sb31  1  0.749870  0.249870  0.500000  1
  Sb  Sb32  1  0.883652  0.123255  0.008058  1
  Sb  Sb33  1  0.493752  0.143006  0.999898  1
  Sb  Sb34  1  0.143108  0.493855  0.000102  1
  Sb  Sb35  1  0.383652  0.375593  0.760396  1
  Sb  Sb36  1  0.320148  0.328737  0.278165  1
  Sb  Sb37  1  0.903341  0.535692  0.433187  1
  Sb  Sb38  1  0.102505  0.470155  0.566813  1
  Sb  Sb39  1  0.820148  0.541983  0.991411  1
  Sb  Sb40  1  0.602505  0.035692  0.632350  1
  Sb  Sb41  1  0.115197  0.875593  0.991942  1
