# generated using pymatgen
data_CeNdIN2
_symmetry_space_group_name_H-M   'P 1'
_cell_length_a   4.02356300
_cell_length_b   4.02356258
_cell_length_c   7.97958100
_cell_angle_alpha   90.00000000
_cell_angle_beta   90.00000000
_cell_angle_gamma   120.00001166
_symmetry_Int_Tables_number   1
_chemical_formula_structural   CeNdIN2
_chemical_formula_sum   'Ce1 Nd1 I1 N2'
_cell_volume   111.87479040
_cell_formula_units_Z   1
loop_
 _symmetry_equiv_pos_site_id
 _symmetry_equiv_pos_as_xyz
  1  'x, y, z'
loop_
 _atom_site_type_symbol
 _atom_site_label
 _atom_site_symmetry_multiplicity
 _atom_site_fract_x
 _atom_site_fract_y
 _atom_site_fract_z
 _atom_site_occupancy
  Ce  Ce0  1  0.333333  0.666667  0.336150  1
  Nd  Nd1  1  0.666667  0.333333  0.679910  1
  I  I2  1  0.000000  0.000000  0.002669  1
  N  N3  1  0.666667  0.333333  0.373617  1
  N  N4  1  0.333333  0.666667  0.607654  1
