# generated using pymatgen
data_Nd4YU(Co3P2)6
_symmetry_space_group_name_H-M   'P 1'
_cell_length_a   3.73324600
_cell_length_b   10.54982935
_cell_length_c   12.33179795
_cell_angle_alpha   90.49955835
_cell_angle_beta   90.00000000
_cell_angle_gamma   90.00000000
_symmetry_Int_Tables_number   1
_chemical_formula_structural   Nd4YU(Co3P2)6
_chemical_formula_sum   'Nd4 Y1 U1 Co18 P12'
_cell_volume   485.67073592
_cell_formula_units_Z   1
loop_
 _symmetry_equiv_pos_site_id
 _symmetry_equiv_pos_as_xyz
  1  'x, y, z'
loop_
 _atom_site_type_symbol
 _atom_site_label
 _atom_site_symmetry_multiplicity
 _atom_site_fract_x
 _atom_site_fract_y
 _atom_site_fract_z
 _atom_site_occupancy
  Nd  Nd0  1  0.500000  0.998516  0.479049  1
  Nd  Nd1  1  0.500000  0.183897  0.205378  1
  Nd  Nd2  1  0.000000  0.682873  0.793270  1
  Nd  Nd3  1  0.000000  0.317523  0.793996  1
  Y  Y4  1  0.000000  0.499667  0.519543  1
  U  U5  1  0.500000  0.823021  0.209402  1
  Co  Co6  1  0.500000  0.500677  0.160529  1
  Co  Co7  1  0.000000  0.000214  0.842731  1
  Co  Co8  1  0.500000  0.499606  0.703303  1
  Co  Co9  1  0.000000  0.983790  0.288819  1
  Co  Co10  1  0.000000  0.503999  0.989756  1
  Co  Co11  1  0.500000  0.999877  0.013017  1
  Co  Co12  1  0.500000  0.335708  0.996560  1
  Co  Co13  1  0.500000  0.669851  0.999841  1
  Co  Co14  1  0.000000  0.167845  0.004874  1
  Co  Co15  1  0.000000  0.834566  0.003897  1
  Co  Co16  1  0.500000  0.298319  0.430053  1
  Co  Co17  1  0.500000  0.697101  0.427802  1
  Co  Co18  1  0.000000  0.204011  0.568781  1
  Co  Co19  1  0.000000  0.795074  0.569353  1
  Co  Co20  1  0.500000  0.880656  0.710272  1
  Co  Co21  1  0.500000  0.118979  0.710071  1
  Co  Co22  1  0.000000  0.621254  0.287301  1
  Co  Co23  1  0.000000  0.381626  0.290735  1
  P  P24  1  0.500000  0.502095  0.887173  1
  P  P25  1  0.000000  0.999251  0.111134  1
  P  P26  1  0.500000  0.497894  0.343089  1
  P  P27  1  0.000000  0.999417  0.660276  1
  P  P28  1  0.500000  0.309859  0.613158  1
  P  P29  1  0.500000  0.688568  0.612494  1
  P  P30  1  0.000000  0.190314  0.385359  1
  P  P31  1  0.000000  0.802059  0.386537  1
  P  P32  1  0.500000  0.849271  0.893883  1
  P  P33  1  0.500000  0.152058  0.895386  1
  P  P34  1  0.000000  0.659194  0.107775  1
  P  P35  1  0.000000  0.351372  0.105399  1
