# generated using pymatgen
data_Zr10Sn3Bi3S
_symmetry_space_group_name_H-M   'P 1'
_cell_length_a   5.87881600
_cell_length_b   8.66110918
_cell_length_c   8.66116100
_cell_angle_alpha   119.99986870
_cell_angle_beta   90.00039510
_cell_angle_gamma   89.99956693
_symmetry_Int_Tables_number   1
_chemical_formula_structural   Zr10Sn3Bi3S
_chemical_formula_sum   'Zr10 Sn3 Bi3 S1'
_cell_volume   381.91850249
_cell_formula_units_Z   1
loop_
 _symmetry_equiv_pos_site_id
 _symmetry_equiv_pos_as_xyz
  1  'x, y, z'
loop_
 _atom_site_type_symbol
 _atom_site_label
 _atom_site_symmetry_multiplicity
 _atom_site_fract_x
 _atom_site_fract_y
 _atom_site_fract_z
 _atom_site_occupancy
  Zr  Zr0  1  0.495352  0.333333  0.666667  1
  Zr  Zr1  1  0.495352  0.666668  0.333334  1
  Zr  Zr2  1  0.004933  0.666667  0.333333  1
  Zr  Zr3  1  0.004933  0.333334  0.666668  1
  Zr  Zr4  1  0.758414  0.246099  0.000000  1
  Zr  Zr5  1  0.758407  0.753899  0.753899  1
  Zr  Zr6  1  0.758407  0.999998  0.246099  1
  Zr  Zr7  1  0.241934  0.751810  0.000000  1
  Zr  Zr8  1  0.241941  0.248193  0.248192  1
  Zr  Zr9  1  0.241939  0.000002  0.751808  1
  Sn  Sn10  1  0.248952  0.391569  0.000001  1
  Sn  Sn11  1  0.248969  0.608436  0.608441  1
  Sn  Sn12  1  0.248968  0.999996  0.391559  1
  Bi  Bi13  1  0.750883  0.603574  0.000000  1
  Bi  Bi14  1  0.750887  0.396423  0.396424  1
  Bi  Bi15  1  0.750886  0.000001  0.603576  1
  S  S16  1  0.498846  0.000000  0.999999  1
