# generated using pymatgen
data_Sc4ReB12Ru
_symmetry_space_group_name_H-M   'P 1'
_cell_length_a   3.50609800
_cell_length_b   8.88596685
_cell_length_c   11.20094381
_cell_angle_alpha   90.15199124
_cell_angle_beta   90.00000000
_cell_angle_gamma   90.00000000
_symmetry_Int_Tables_number   1
_chemical_formula_structural   Sc4ReB12Ru
_chemical_formula_sum   'Sc8 Re2 B24 Ru2'
_cell_volume   348.96496736
_cell_formula_units_Z   2
loop_
 _symmetry_equiv_pos_site_id
 _symmetry_equiv_pos_as_xyz
  1  'x, y, z'
loop_
 _atom_site_type_symbol
 _atom_site_label
 _atom_site_symmetry_multiplicity
 _atom_site_fract_x
 _atom_site_fract_y
 _atom_site_fract_z
 _atom_site_occupancy
  Sc  Sc0  1  0.000000  0.316502  0.412077  1
  Sc  Sc1  1  0.000000  0.683498  0.587923  1
  Sc  Sc2  1  0.000000  0.823061  0.084392  1
  Sc  Sc3  1  0.000000  0.176939  0.915608  1
  Sc  Sc4  1  0.000000  0.943408  0.372139  1
  Sc  Sc5  1  0.000000  0.056592  0.627861  1
  Sc  Sc6  1  0.000000  0.443420  0.128307  1
  Sc  Sc7  1  0.000000  0.556580  0.871693  1
  Re  Re8  1  0.000000  0.138360  0.180078  1
  Re  Re9  1  0.000000  0.861640  0.819922  1
  B  B10  1  0.500000  0.553349  0.435130  1
  B  B11  1  0.500000  0.446651  0.564870  1
  B  B12  1  0.500000  0.052550  0.065113  1
  B  B13  1  0.500000  0.947450  0.934887  1
  B  B14  1  0.500000  0.752111  0.421247  1
  B  B15  1  0.500000  0.247889  0.578753  1
  B  B16  1  0.500000  0.252680  0.078664  1
  B  B17  1  0.500000  0.747320  0.921336  1
  B  B18  1  0.500000  0.793119  0.264499  1
  B  B19  1  0.500000  0.206881  0.735501  1
  B  B20  1  0.500000  0.294794  0.236617  1
  B  B21  1  0.500000  0.705206  0.763383  1
  B  B22  1  0.500000  0.629393  0.182771  1
  B  B23  1  0.500000  0.370607  0.817229  1
  B  B24  1  0.500000  0.129464  0.318058  1
  B  B25  1  0.500000  0.870536  0.681942  1
  B  B26  1  0.500000  0.978092  0.212840  1
  B  B27  1  0.500000  0.021908  0.787160  1
  B  B28  1  0.500000  0.479596  0.287849  1
  B  B29  1  0.500000  0.520404  0.712151  1
  B  B30  1  0.500000  0.599440  0.027485  1
  B  B31  1  0.500000  0.400560  0.972515  1
  B  B32  1  0.500000  0.100169  0.472600  1
  B  B33  1  0.500000  0.899831  0.527400  1
  Ru  Ru34  1  0.000000  0.638183  0.320964  1
  Ru  Ru35  1  0.000000  0.361817  0.679036  1
