# generated using pymatgen
data_Er2Zn2IrRh
_symmetry_space_group_name_H-M   'P 1'
_cell_length_a   4.02776400
_cell_length_b   6.95081212
_cell_length_c   8.07566206
_cell_angle_alpha   89.86027103
_cell_angle_beta   90.00000000
_cell_angle_gamma   90.00000000
_symmetry_Int_Tables_number   1
_chemical_formula_structural   Er2Zn2IrRh
_chemical_formula_sum   'Er4 Zn4 Ir2 Rh2'
_cell_volume   226.08742677
_cell_formula_units_Z   2
loop_
 _symmetry_equiv_pos_site_id
 _symmetry_equiv_pos_as_xyz
  1  'x, y, z'
loop_
 _atom_site_type_symbol
 _atom_site_label
 _atom_site_symmetry_multiplicity
 _atom_site_fract_x
 _atom_site_fract_y
 _atom_site_fract_z
 _atom_site_occupancy
  Er  Er0  1  0.250000  0.534922  0.181689  1
  Er  Er1  1  0.750000  0.465078  0.818311  1
  Er  Er2  1  0.750000  0.961898  0.683812  1
  Er  Er3  1  0.250000  0.038102  0.316188  1
  Zn  Zn4  1  0.250000  0.637019  0.564851  1
  Zn  Zn5  1  0.750000  0.362981  0.435149  1
  Zn  Zn6  1  0.750000  0.861774  0.065898  1
  Zn  Zn7  1  0.250000  0.138226  0.934102  1
  Ir  Ir8  1  0.250000  0.756836  0.875670  1
  Ir  Ir9  1  0.750000  0.243164  0.124330  1
  Rh  Rh10  1  0.750000  0.743790  0.378385  1
  Rh  Rh11  1  0.250000  0.256210  0.621615  1
