# generated using pymatgen
data_SmPuN2
_symmetry_space_group_name_H-M   'P 1'
_cell_length_a   6.08667924
_cell_length_b   6.08667879
_cell_length_c   6.08667891
_cell_angle_alpha   33.76201336
_cell_angle_beta   33.76202631
_cell_angle_gamma   33.76201878
_symmetry_Int_Tables_number   1
_chemical_formula_structural   SmPuN2
_chemical_formula_sum   'Sm1 Pu1 N2'
_cell_volume   62.05564682
_cell_formula_units_Z   1
loop_
 _symmetry_equiv_pos_site_id
 _symmetry_equiv_pos_as_xyz
  1  'x, y, z'
loop_
 _atom_site_type_symbol
 _atom_site_label
 _atom_site_symmetry_multiplicity
 _atom_site_fract_x
 _atom_site_fract_y
 _atom_site_fract_z
 _atom_site_occupancy
  Sm  Sm0  1  0.000000  0.000000  0.000000  1
  Pu  Pu1  1  0.500000  0.500000  0.500000  1
  N  N2  1  0.243445  0.243445  0.243445  1
  N  N3  1  0.756555  0.756555  0.756555  1
