# generated using pymatgen
data_Lu8Re3B24Os
_symmetry_space_group_name_H-M   'P 1'
_cell_length_a   3.61467000
_cell_length_b   9.05520197
_cell_length_c   11.41115100
_cell_angle_alpha   90.07538853
_cell_angle_beta   90.00000000
_cell_angle_gamma   90.00000000
_symmetry_Int_Tables_number   1
_chemical_formula_structural   Lu8Re3B24Os
_chemical_formula_sum   'Lu8 Re3 B24 Os1'
_cell_volume   373.50452928
_cell_formula_units_Z   1
loop_
 _symmetry_equiv_pos_site_id
 _symmetry_equiv_pos_as_xyz
  1  'x, y, z'
loop_
 _atom_site_type_symbol
 _atom_site_label
 _atom_site_symmetry_multiplicity
 _atom_site_fract_x
 _atom_site_fract_y
 _atom_site_fract_z
 _atom_site_occupancy
  Lu  Lu0  1  0.000000  0.320890  0.414058  1
  Lu  Lu1  1  0.000000  0.678001  0.587832  1
  Lu  Lu2  1  0.000000  0.824035  0.084378  1
  Lu  Lu3  1  0.000000  0.177165  0.913496  1
  Lu  Lu4  1  0.000000  0.942799  0.370580  1
  Lu  Lu5  1  0.000000  0.056354  0.628841  1
  Lu  Lu6  1  0.000000  0.442928  0.129246  1
  Lu  Lu7  1  0.000000  0.556819  0.871362  1
  Re  Re8  1  0.000000  0.362048  0.678304  1
  Re  Re9  1  0.000000  0.138482  0.179737  1
  Re  Re10  1  0.000000  0.861627  0.820749  1
  B  B11  1  0.500000  0.553375  0.433525  1
  B  B12  1  0.500000  0.447584  0.566005  1
  B  B13  1  0.500000  0.052754  0.066186  1
  B  B14  1  0.500000  0.947504  0.933599  1
  B  B15  1  0.500000  0.749755  0.419478  1
  B  B16  1  0.500000  0.249406  0.580136  1
  B  B17  1  0.500000  0.250381  0.080263  1
  B  B18  1  0.500000  0.750153  0.919869  1
  B  B19  1  0.500000  0.792010  0.264933  1
  B  B20  1  0.500000  0.207050  0.734890  1
  B  B21  1  0.500000  0.293017  0.235474  1
  B  B22  1  0.500000  0.706957  0.765296  1
  B  B23  1  0.500000  0.630779  0.184625  1
  B  B24  1  0.500000  0.369883  0.815292  1
  B  B25  1  0.500000  0.130541  0.316117  1
  B  B26  1  0.500000  0.869345  0.684401  1
  B  B27  1  0.500000  0.980609  0.212119  1
  B  B28  1  0.500000  0.019387  0.787591  1
  B  B29  1  0.500000  0.481729  0.287913  1
  B  B30  1  0.500000  0.519694  0.712188  1
  B  B31  1  0.500000  0.600787  0.028576  1
  B  B32  1  0.500000  0.399511  0.972227  1
  B  B33  1  0.500000  0.099594  0.471923  1
  B  B34  1  0.500000  0.898722  0.527794  1
  Os  Os35  1  0.000000  0.638325  0.320999  1
