# generated using pymatgen
data_Gd(BeP)3
_symmetry_space_group_name_H-M   'P 1'
_cell_length_a   3.64034600
_cell_length_b   10.22466400
_cell_length_c   11.17745100
_cell_angle_alpha   90.00000000
_cell_angle_beta   90.00000000
_cell_angle_gamma   90.00000000
_symmetry_Int_Tables_number   1
_chemical_formula_structural   Gd(BeP)3
_chemical_formula_sum   'Gd4 Be12 P12'
_cell_volume   416.03942114
_cell_formula_units_Z   4
loop_
 _symmetry_equiv_pos_site_id
 _symmetry_equiv_pos_as_xyz
  1  'x, y, z'
loop_
 _atom_site_type_symbol
 _atom_site_label
 _atom_site_symmetry_multiplicity
 _atom_site_fract_x
 _atom_site_fract_y
 _atom_site_fract_z
 _atom_site_occupancy
  Gd  Gd0  1  0.750000  0.943727  0.339349  1
  Gd  Gd1  1  0.250000  0.443727  0.160651  1
  Gd  Gd2  1  0.750000  0.556273  0.839349  1
  Gd  Gd3  1  0.250000  0.056273  0.660651  1
  Be  Be4  1  0.750000  0.241168  0.454703  1
  Be  Be5  1  0.250000  0.741168  0.045297  1
  Be  Be6  1  0.750000  0.258832  0.954703  1
  Be  Be7  1  0.250000  0.758832  0.545297  1
  Be  Be8  1  0.750000  0.645056  0.287007  1
  Be  Be9  1  0.250000  0.145056  0.212993  1
  Be  Be10  1  0.750000  0.854944  0.787007  1
  Be  Be11  1  0.250000  0.354944  0.712993  1
  Be  Be12  1  0.750000  0.038709  0.064705  1
  Be  Be13  1  0.250000  0.538709  0.435295  1
  Be  Be14  1  0.750000  0.461291  0.564705  1
  Be  Be15  1  0.250000  0.961291  0.935295  1
  P  P16  1  0.750000  0.438725  0.370055  1
  P  P17  1  0.250000  0.938725  0.129945  1
  P  P18  1  0.750000  0.061275  0.870055  1
  P  P19  1  0.250000  0.561275  0.629945  1
  P  P20  1  0.750000  0.230381  0.146702  1
  P  P21  1  0.250000  0.730381  0.353298  1
  P  P22  1  0.750000  0.269619  0.646702  1
  P  P23  1  0.250000  0.769619  0.853298  1
  P  P24  1  0.750000  0.638489  0.091567  1
  P  P25  1  0.250000  0.138489  0.408433  1
  P  P26  1  0.750000  0.861511  0.591567  1
  P  P27  1  0.250000  0.361511  0.908433  1
