# generated using pymatgen
data_Ac3Eu3Sn10
_symmetry_space_group_name_H-M   'P 1'
_cell_length_a   6.78498737
_cell_length_b   6.78498758
_cell_length_c   10.78563646
_cell_angle_alpha   90.05778101
_cell_angle_beta   90.05778304
_cell_angle_gamma   101.61915735
_symmetry_Int_Tables_number   1
_chemical_formula_structural   Ac3Eu3Sn10
_chemical_formula_sum   'Ac3 Eu3 Sn10'
_cell_volume   486.35266110
_cell_formula_units_Z   1
loop_
 _symmetry_equiv_pos_site_id
 _symmetry_equiv_pos_as_xyz
  1  'x, y, z'
loop_
 _atom_site_type_symbol
 _atom_site_label
 _atom_site_symmetry_multiplicity
 _atom_site_fract_x
 _atom_site_fract_y
 _atom_site_fract_z
 _atom_site_occupancy
  Ac  Ac0  1  0.795839  0.204161  0.000000  1
  Ac  Ac1  1  0.203185  0.796815  0.000000  1
  Ac  Ac2  1  0.205575  0.794425  0.500000  1
  Eu  Eu3  1  0.795649  0.204351  0.500000  1
  Eu  Eu4  1  0.634563  0.634318  0.250426  1
  Eu  Eu5  1  0.365682  0.365437  0.749574  1
  Sn  Sn6  1  0.076186  0.486838  0.252100  1
  Sn  Sn7  1  0.920038  0.507272  0.745346  1
  Sn  Sn8  1  0.492728  0.079962  0.254654  1
  Sn  Sn9  1  0.513162  0.923815  0.747900  1
  Sn  Sn10  1  0.023016  0.026916  0.253168  1
  Sn  Sn11  1  0.973084  0.976984  0.746832  1
  Sn  Sn12  1  0.316357  0.316552  0.047619  1
  Sn  Sn13  1  0.683448  0.683643  0.952381  1
  Sn  Sn14  1  0.687159  0.685671  0.545137  1
  Sn  Sn15  1  0.314329  0.312841  0.454863  1
