# generated using pymatgen
data_SrPrTh(Si3Pd10)2
_symmetry_space_group_name_H-M   'P 1'
_cell_length_a   8.80725426
_cell_length_b   8.80725411
_cell_length_c   8.80725400
_cell_angle_alpha   60.00000043
_cell_angle_beta   60.00000097
_cell_angle_gamma   60.00000227
_symmetry_Int_Tables_number   1
_chemical_formula_structural   SrPrTh(Si3Pd10)2
_chemical_formula_sum   'Sr1 Pr1 Th1 Si6 Pd20'
_cell_volume   483.06613994
_cell_formula_units_Z   1
loop_
 _symmetry_equiv_pos_site_id
 _symmetry_equiv_pos_as_xyz
  1  'x, y, z'
loop_
 _atom_site_type_symbol
 _atom_site_label
 _atom_site_symmetry_multiplicity
 _atom_site_fract_x
 _atom_site_fract_y
 _atom_site_fract_z
 _atom_site_occupancy
  Sr  Sr0  1  0.250000  0.250000  0.250000  1
  Pr  Pr1  1  0.750000  0.750000  0.750000  1
  Th  Th2  1  0.000000  0.000000  0.000000  1
  Si  Si3  1  0.730499  0.269501  0.269501  1
  Si  Si4  1  0.269501  0.730499  0.730499  1
  Si  Si5  1  0.269501  0.730499  0.269501  1
  Si  Si6  1  0.730499  0.269501  0.730499  1
  Si  Si7  1  0.269501  0.269501  0.730499  1
  Si  Si8  1  0.730499  0.730499  0.269501  1
  Pd  Pd9  1  0.386447  0.386447  0.386447  1
  Pd  Pd10  1  0.614490  0.614490  0.614490  1
  Pd  Pd11  1  0.386447  0.386447  0.840660  1
  Pd  Pd12  1  0.386447  0.840660  0.386447  1
  Pd  Pd13  1  0.614490  0.614490  0.156529  1
  Pd  Pd14  1  0.614490  0.156529  0.614490  1
  Pd  Pd15  1  0.840660  0.386447  0.386447  1
  Pd  Pd16  1  0.156529  0.614490  0.614490  1
  Pd  Pd17  1  0.345487  0.999230  0.999230  1
  Pd  Pd18  1  0.656053  0.999230  0.999230  1
  Pd  Pd19  1  0.999230  0.345487  0.656053  1
  Pd  Pd20  1  0.999230  0.656053  0.345487  1
  Pd  Pd21  1  0.999230  0.345487  0.999230  1
  Pd  Pd22  1  0.656053  0.999230  0.345487  1
  Pd  Pd23  1  0.999230  0.656053  0.999230  1
  Pd  Pd24  1  0.345487  0.999230  0.656053  1
  Pd  Pd25  1  0.999230  0.999230  0.345487  1
  Pd  Pd26  1  0.999230  0.999230  0.656053  1
  Pd  Pd27  1  0.656053  0.345487  0.999230  1
  Pd  Pd28  1  0.345487  0.656053  0.999230  1
