# generated using pymatgen
data_CaPr2(YSi2)2
_symmetry_space_group_name_H-M   'P 1'
_cell_length_a   7.51797100
_cell_length_b   7.88362000
_cell_length_c   14.97655000
_cell_angle_alpha   90.00000000
_cell_angle_beta   90.00000000
_cell_angle_gamma   90.00000000
_symmetry_Int_Tables_number   1
_chemical_formula_structural   CaPr2(YSi2)2
_chemical_formula_sum   'Ca4 Pr8 Y8 Si16'
_cell_volume   887.64254404
_cell_formula_units_Z   4
loop_
 _symmetry_equiv_pos_site_id
 _symmetry_equiv_pos_as_xyz
  1  'x, y, z'
loop_
 _atom_site_type_symbol
 _atom_site_label
 _atom_site_symmetry_multiplicity
 _atom_site_fract_x
 _atom_site_fract_y
 _atom_site_fract_z
 _atom_site_occupancy
  Ca  Ca0  1  0.652631  0.988062  0.750000  1
  Ca  Ca1  1  0.847369  0.488062  0.250000  1
  Ca  Ca2  1  0.347369  0.011938  0.250000  1
  Ca  Ca3  1  0.152631  0.511938  0.750000  1
  Pr  Pr4  1  0.024732  0.180509  0.401599  1
  Pr  Pr5  1  0.524732  0.319491  0.401599  1
  Pr  Pr6  1  0.475268  0.680509  0.901599  1
  Pr  Pr7  1  0.475268  0.680509  0.598401  1
  Pr  Pr8  1  0.975268  0.819491  0.598401  1
  Pr  Pr9  1  0.975268  0.819491  0.901599  1
  Pr  Pr10  1  0.524732  0.319491  0.098401  1
  Pr  Pr11  1  0.024732  0.180509  0.098401  1
  Y  Y12  1  0.321785  0.181354  0.622878  1
  Y  Y13  1  0.678215  0.818646  0.377122  1
  Y  Y14  1  0.178215  0.681354  0.377122  1
  Y  Y15  1  0.821785  0.318646  0.877122  1
  Y  Y16  1  0.821785  0.318646  0.622878  1
  Y  Y17  1  0.321785  0.181354  0.877122  1
  Y  Y18  1  0.178215  0.681354  0.122878  1
  Y  Y19  1  0.678215  0.818646  0.122878  1
  Si  Si20  1  0.265907  0.887685  0.750000  1
  Si  Si21  1  0.469246  0.607165  0.250000  1
  Si  Si22  1  0.030754  0.107165  0.750000  1
  Si  Si23  1  0.530754  0.392835  0.750000  1
  Si  Si24  1  0.147182  0.468140  0.535855  1
  Si  Si25  1  0.969246  0.892835  0.250000  1
  Si  Si26  1  0.734093  0.112315  0.250000  1
  Si  Si27  1  0.852818  0.531860  0.035855  1
  Si  Si28  1  0.352818  0.968140  0.035855  1
  Si  Si29  1  0.147182  0.468140  0.964145  1
  Si  Si30  1  0.647182  0.031860  0.535855  1
  Si  Si31  1  0.352818  0.968140  0.464145  1
  Si  Si32  1  0.852818  0.531860  0.464145  1
  Si  Si33  1  0.765907  0.612315  0.750000  1
  Si  Si34  1  0.234093  0.387685  0.250000  1
  Si  Si35  1  0.647182  0.031860  0.964145  1
