# generated using pymatgen
data_Be2AlSiIr4
_symmetry_space_group_name_H-M   'P 1'
_cell_length_a   4.11196200
_cell_length_b   5.80647200
_cell_length_c   12.34874000
_cell_angle_alpha   89.99999941
_cell_angle_beta   90.00113274
_cell_angle_gamma   90.00000168
_symmetry_Int_Tables_number   1
_chemical_formula_structural   Be2AlSiIr4
_chemical_formula_sum   'Be6 Al3 Si3 Ir12'
_cell_volume   294.83842012
_cell_formula_units_Z   3
loop_
 _symmetry_equiv_pos_site_id
 _symmetry_equiv_pos_as_xyz
  1  'x, y, z'
loop_
 _atom_site_type_symbol
 _atom_site_label
 _atom_site_symmetry_multiplicity
 _atom_site_fract_x
 _atom_site_fract_y
 _atom_site_fract_z
 _atom_site_occupancy
  Be  Be0  1  0.000000  0.500000  0.005856  1
  Be  Be1  1  0.499717  0.999999  0.166672  1
  Be  Be2  1  0.999738  0.500000  0.327480  1
  Be  Be3  1  0.499998  0.000000  0.495258  1
  Be  Be4  1  0.000292  0.500000  0.666668  1
  Be  Be5  1  0.500300  0.000000  0.838068  1
  Al  Al6  1  0.000020  0.000000  0.998992  1
  Al  Al7  1  0.499742  0.500000  0.166666  1
  Al  Al8  1  0.999813  0.000000  0.334342  1
  Si  Si9  1  0.500012  0.500000  0.500287  1
  Si  Si10  1  0.000197  0.000000  0.666667  1
  Si  Si11  1  0.500201  0.500000  0.833046  1
  Ir  Ir12  1  0.500017  0.253636  0.994454  1
  Ir  Ir13  1  0.500017  0.746364  0.994454  1
  Ir  Ir14  1  0.999823  0.248727  0.166667  1
  Ir  Ir15  1  0.999823  0.751273  0.166667  1
  Ir  Ir16  1  0.499846  0.253639  0.338879  1
  Ir  Ir17  1  0.499845  0.746361  0.338879  1
  Ir  Ir18  1  0.000015  0.252665  0.505669  1
  Ir  Ir19  1  0.000016  0.747334  0.505669  1
  Ir  Ir20  1  0.500141  0.249423  0.666666  1
  Ir  Ir21  1  0.500141  0.750579  0.666667  1
  Ir  Ir22  1  0.000147  0.252665  0.827665  1
  Ir  Ir23  1  0.000147  0.747334  0.827665  1
