# generated using pymatgen
data_TbSb(SeO3)4
_symmetry_space_group_name_H-M   'P 1'
_cell_length_a   8.49943000
_cell_length_b   8.89676572
_cell_length_c   8.58629549
_cell_angle_alpha   90.98925234
_cell_angle_beta   90.00000000
_cell_angle_gamma   90.00000000
_symmetry_Int_Tables_number   1
_chemical_formula_structural   TbSb(SeO3)4
_chemical_formula_sum   'Tb2 Sb2 Se8 O24'
_cell_volume   649.17688845
_cell_formula_units_Z   2
loop_
 _symmetry_equiv_pos_site_id
 _symmetry_equiv_pos_as_xyz
  1  'x, y, z'
loop_
 _atom_site_type_symbol
 _atom_site_label
 _atom_site_symmetry_multiplicity
 _atom_site_fract_x
 _atom_site_fract_y
 _atom_site_fract_z
 _atom_site_occupancy
  Tb  Tb0  1  0.000000  0.500000  0.000000  1
  Tb  Tb1  1  0.500000  0.500000  0.500000  1
  Sb  Sb2  1  0.000000  0.000000  0.500000  1
  Sb  Sb3  1  0.500000  0.000000  0.000000  1
  Se  Se4  1  0.342816  0.696289  0.166147  1
  Se  Se5  1  0.842816  0.303711  0.333853  1
  Se  Se6  1  0.696558  0.845385  0.690003  1
  Se  Se7  1  0.196558  0.154615  0.809997  1
  Se  Se8  1  0.657184  0.303711  0.833853  1
  Se  Se9  1  0.157184  0.696289  0.666147  1
  Se  Se10  1  0.303442  0.154615  0.309997  1
  Se  Se11  1  0.803442  0.845385  0.190003  1
  O  O12  1  0.248622  0.576301  0.043482  1
  O  O13  1  0.748622  0.423699  0.456518  1
  O  O14  1  0.767326  0.980418  0.555052  1
  O  O15  1  0.267326  0.019582  0.944948  1
  O  O16  1  0.551913  0.969735  0.770022  1
  O  O17  1  0.476430  0.586127  0.254846  1
  O  O18  1  0.976430  0.413873  0.245154  1
  O  O19  1  0.051913  0.030265  0.729978  1
  O  O20  1  0.977947  0.220429  0.475422  1
  O  O21  1  0.584074  0.737958  0.573941  1
  O  O22  1  0.477947  0.779571  0.024578  1
  O  O23  1  0.084074  0.262042  0.926059  1
  O  O24  1  0.751378  0.423699  0.956518  1
  O  O25  1  0.251378  0.576301  0.543482  1
  O  O26  1  0.232674  0.019582  0.444948  1
  O  O27  1  0.732674  0.980418  0.055052  1
  O  O28  1  0.448087  0.030265  0.229978  1
  O  O29  1  0.523570  0.413873  0.745154  1
  O  O30  1  0.023570  0.586127  0.754846  1
  O  O31  1  0.948087  0.969735  0.270022  1
  O  O32  1  0.022053  0.779571  0.524578  1
  O  O33  1  0.415926  0.262042  0.426059  1
  O  O34  1  0.522053  0.220429  0.975422  1
  O  O35  1  0.915926  0.737958  0.073941  1
