# generated using pymatgen
data_Tb6MgNi17As12
_symmetry_space_group_name_H-M   'P 1'
_cell_length_a   3.93016800
_cell_length_b   10.96083300
_cell_length_c   12.78254300
_cell_angle_alpha   90.00000000
_cell_angle_beta   90.00000000
_cell_angle_gamma   90.00000000
_symmetry_Int_Tables_number   1
_chemical_formula_structural   Tb6MgNi17As12
_chemical_formula_sum   'Tb6 Mg1 Ni17 As12'
_cell_volume   550.64530224
_cell_formula_units_Z   1
loop_
 _symmetry_equiv_pos_site_id
 _symmetry_equiv_pos_as_xyz
  1  'x, y, z'
loop_
 _atom_site_type_symbol
 _atom_site_label
 _atom_site_symmetry_multiplicity
 _atom_site_fract_x
 _atom_site_fract_y
 _atom_site_fract_z
 _atom_site_occupancy
  Tb  Tb0  1  0.000000  0.500000  0.526362  1
  Tb  Tb1  1  0.500000  0.000000  0.476569  1
  Tb  Tb2  1  0.500000  0.819860  0.209445  1
  Tb  Tb3  1  0.500000  0.180140  0.209445  1
  Tb  Tb4  1  0.000000  0.682850  0.796334  1
  Tb  Tb5  1  0.000000  0.317150  0.796334  1
  Mg  Mg6  1  0.500000  0.500000  0.148265  1
  Ni  Ni7  1  0.000000  0.000000  0.840593  1
  Ni  Ni8  1  0.500000  0.500000  0.701530  1
  Ni  Ni9  1  0.000000  0.000000  0.302287  1
  Ni  Ni10  1  0.000000  0.500000  0.985395  1
  Ni  Ni11  1  0.500000  0.000000  0.019369  1
  Ni  Ni12  1  0.500000  0.325192  0.994321  1
  Ni  Ni13  1  0.500000  0.674808  0.994321  1
  Ni  Ni14  1  0.000000  0.158056  0.998387  1
  Ni  Ni15  1  0.000000  0.841944  0.998387  1
  Ni  Ni16  1  0.500000  0.300821  0.428981  1
  Ni  Ni17  1  0.500000  0.699179  0.428981  1
  Ni  Ni18  1  0.000000  0.198290  0.574015  1
  Ni  Ni19  1  0.000000  0.801710  0.574015  1
  Ni  Ni20  1  0.500000  0.880768  0.705923  1
  Ni  Ni21  1  0.500000  0.119232  0.705923  1
  Ni  Ni22  1  0.000000  0.619717  0.291775  1
  Ni  Ni23  1  0.000000  0.380283  0.291775  1
  As  As24  1  0.500000  0.500000  0.879889  1
  As  As25  1  0.000000  0.000000  0.124960  1
  As  As26  1  0.500000  0.500000  0.353743  1
  As  As27  1  0.000000  0.000000  0.653249  1
  As  As28  1  0.500000  0.313816  0.615659  1
  As  As29  1  0.500000  0.686184  0.615659  1
  As  As30  1  0.000000  0.186803  0.388115  1
  As  As31  1  0.000000  0.813197  0.388115  1
  As  As32  1  0.500000  0.851456  0.887576  1
  As  As33  1  0.500000  0.148544  0.887576  1
  As  As34  1  0.000000  0.664971  0.103366  1
  As  As35  1  0.000000  0.335029  0.103366  1
