# generated using pymatgen
data_Eu4TiGe3O14
_symmetry_space_group_name_H-M   'P 1'
_cell_length_a   7.18566149
_cell_length_b   7.18566183
_cell_length_c   7.18566206
_cell_angle_alpha   59.80216060
_cell_angle_beta   59.80215716
_cell_angle_gamma   59.80215785
_symmetry_Int_Tables_number   1
_chemical_formula_structural   Eu4TiGe3O14
_chemical_formula_sum   'Eu4 Ti1 Ge3 O14'
_cell_volume   261.17431331
_cell_formula_units_Z   1
loop_
 _symmetry_equiv_pos_site_id
 _symmetry_equiv_pos_as_xyz
  1  'x, y, z'
loop_
 _atom_site_type_symbol
 _atom_site_label
 _atom_site_symmetry_multiplicity
 _atom_site_fract_x
 _atom_site_fract_y
 _atom_site_fract_z
 _atom_site_occupancy
  Eu  Eu0  1  0.500000  0.500000  0.500000  1
  Eu  Eu1  1  0.500000  0.500000  0.000001  1
  Eu  Eu2  1  0.000001  0.500000  0.500000  1
  Eu  Eu3  1  0.500000  0.000001  0.500000  1
  Ti  Ti4  1  0.000000  0.000000  0.000000  1
  Ge  Ge5  1  0.000000  0.000000  0.500001  1
  Ge  Ge6  1  0.500001  0.000000  0.000000  1
  Ge  Ge7  1  0.000000  0.500001  0.000000  1
  O  O8  1  0.923266  0.324521  0.324521  1
  O  O9  1  0.329593  0.925250  0.925250  1
  O  O10  1  0.324521  0.923266  0.324521  1
  O  O11  1  0.324521  0.324521  0.923266  1
  O  O12  1  0.925250  0.329593  0.925250  1
  O  O13  1  0.925250  0.925250  0.329593  1
  O  O14  1  0.675480  0.076734  0.675480  1
  O  O15  1  0.074749  0.670409  0.074749  1
  O  O16  1  0.076734  0.675480  0.675480  1
  O  O17  1  0.675480  0.675480  0.076734  1
  O  O18  1  0.670409  0.074749  0.074749  1
  O  O19  1  0.074749  0.074749  0.670409  1
  O  O20  1  0.375328  0.375328  0.375328  1
  O  O21  1  0.624672  0.624672  0.624672  1
