# generated using pymatgen
data_Lu6Ni17P12Ru
_symmetry_space_group_name_H-M   'P 1'
_cell_length_a   3.72614400
_cell_length_b   10.46854000
_cell_length_c   12.27939900
_cell_angle_alpha   90.00000000
_cell_angle_beta   90.00000000
_cell_angle_gamma   90.00000000
_symmetry_Int_Tables_number   1
_chemical_formula_structural   Lu6Ni17P12Ru
_chemical_formula_sum   'Lu6 Ni17 P12 Ru1'
_cell_volume   478.98604724
_cell_formula_units_Z   1
loop_
 _symmetry_equiv_pos_site_id
 _symmetry_equiv_pos_as_xyz
  1  'x, y, z'
loop_
 _atom_site_type_symbol
 _atom_site_label
 _atom_site_symmetry_multiplicity
 _atom_site_fract_x
 _atom_site_fract_y
 _atom_site_fract_z
 _atom_site_occupancy
  Lu  Lu0  1  0.000000  0.500000  0.525357  1
  Lu  Lu1  1  0.500000  0.000000  0.477833  1
  Lu  Lu2  1  0.500000  0.817339  0.206524  1
  Lu  Lu3  1  0.500000  0.182661  0.206524  1
  Lu  Lu4  1  0.000000  0.683197  0.791917  1
  Lu  Lu5  1  0.000000  0.316803  0.791917  1
  Ni  Ni6  1  0.000000  0.000000  0.839425  1
  Ni  Ni7  1  0.500000  0.500000  0.701065  1
  Ni  Ni8  1  0.000000  0.000000  0.300603  1
  Ni  Ni9  1  0.000000  0.500000  0.983060  1
  Ni  Ni10  1  0.500000  0.000000  0.015889  1
  Ni  Ni11  1  0.500000  0.329772  0.989845  1
  Ni  Ni12  1  0.500000  0.670228  0.989845  1
  Ni  Ni13  1  0.000000  0.165759  0.005801  1
  Ni  Ni14  1  0.000000  0.834241  0.005801  1
  Ni  Ni15  1  0.500000  0.302283  0.430265  1
  Ni  Ni16  1  0.500000  0.697717  0.430265  1
  Ni  Ni17  1  0.000000  0.198040  0.570440  1
  Ni  Ni18  1  0.000000  0.801960  0.570440  1
  Ni  Ni19  1  0.500000  0.878087  0.710348  1
  Ni  Ni20  1  0.500000  0.121913  0.710348  1
  Ni  Ni21  1  0.000000  0.622663  0.291607  1
  Ni  Ni22  1  0.000000  0.377337  0.291607  1
  P  P23  1  0.500000  0.500000  0.876428  1
  P  P24  1  0.000000  0.000000  0.125702  1
  P  P25  1  0.500000  0.500000  0.350619  1
  P  P26  1  0.000000  0.000000  0.651880  1
  P  P27  1  0.500000  0.314979  0.615414  1
  P  P28  1  0.500000  0.685021  0.615414  1
  P  P29  1  0.000000  0.184444  0.385552  1
  P  P30  1  0.000000  0.815556  0.385552  1
  P  P31  1  0.500000  0.848237  0.890484  1
  P  P32  1  0.500000  0.151763  0.890484  1
  P  P33  1  0.000000  0.653179  0.108896  1
  P  P34  1  0.000000  0.346821  0.108896  1
  Ru  Ru35  1  0.500000  0.500000  0.157958  1
