# generated using pymatgen
data_YbRu2F12
_symmetry_space_group_name_H-M   'P 1'
_cell_length_a   5.38609141
_cell_length_b   5.84111151
_cell_length_c   9.30145043
_cell_angle_alpha   105.04315877
_cell_angle_beta   90.79680601
_cell_angle_gamma   118.88571748
_symmetry_Int_Tables_number   1
_chemical_formula_structural   YbRu2F12
_chemical_formula_sum   'Yb1 Ru2 F12'
_cell_volume   244.06244935
_cell_formula_units_Z   1
loop_
 _symmetry_equiv_pos_site_id
 _symmetry_equiv_pos_as_xyz
  1  'x, y, z'
loop_
 _atom_site_type_symbol
 _atom_site_label
 _atom_site_symmetry_multiplicity
 _atom_site_fract_x
 _atom_site_fract_y
 _atom_site_fract_z
 _atom_site_occupancy
  Yb  Yb0  1  0.000000  0.000000  0.000000  1
  Ru  Ru1  1  0.773023  0.505086  0.259958  1
  Ru  Ru2  1  0.226977  0.494914  0.740042  1
  F  F3  1  0.829839  0.268824  0.697397  1
  F  F4  1  0.170161  0.731176  0.302603  1
  F  F5  1  0.185887  0.729122  0.920323  1
  F  F6  1  0.716067  0.720498  0.425434  1
  F  F7  1  0.283933  0.279502  0.574566  1
  F  F8  1  0.780429  0.278827  0.365815  1
  F  F9  1  0.219571  0.721173  0.634185  1
  F  F10  1  0.359305  0.266474  0.195257  1
  F  F11  1  0.640695  0.733526  0.804743  1
  F  F12  1  0.758048  0.723407  0.136222  1
  F  F13  1  0.241952  0.276593  0.863778  1
  F  F14  1  0.814113  0.270878  0.079677  1
