# generated using pymatgen
data_Nd19ErSi15Pt
_symmetry_space_group_name_H-M   'P 1'
_cell_length_a   7.78360142
_cell_length_b   7.93396987
_cell_length_c   15.15629962
_cell_angle_alpha   89.71990056
_cell_angle_beta   89.59806184
_cell_angle_gamma   90.06082775
_symmetry_Int_Tables_number   1
_chemical_formula_structural   Nd19ErSi15Pt
_chemical_formula_sum   'Nd19 Er1 Si15 Pt1'
_cell_volume   935.94037164
_cell_formula_units_Z   1
loop_
 _symmetry_equiv_pos_site_id
 _symmetry_equiv_pos_as_xyz
  1  'x, y, z'
loop_
 _atom_site_type_symbol
 _atom_site_label
 _atom_site_symmetry_multiplicity
 _atom_site_fract_x
 _atom_site_fract_y
 _atom_site_fract_z
 _atom_site_occupancy
  Nd  Nd0  1  0.813134  0.328653  0.617984  1
  Nd  Nd1  1  0.457508  0.686104  0.898219  1
  Nd  Nd2  1  0.958112  0.813667  0.897809  1
  Nd  Nd3  1  0.185872  0.683252  0.120384  1
  Nd  Nd4  1  0.691063  0.819299  0.120806  1
  Nd  Nd5  1  0.308072  0.179329  0.877948  1
  Nd  Nd6  1  0.187606  0.677425  0.380114  1
  Nd  Nd7  1  0.042239  0.187288  0.102385  1
  Nd  Nd8  1  0.312215  0.179532  0.622329  1
  Nd  Nd9  1  0.856910  0.490502  0.257050  1
  Nd  Nd10  1  0.363387  0.008488  0.251936  1
  Nd  Nd11  1  0.536908  0.315779  0.397989  1
  Nd  Nd12  1  0.811047  0.318219  0.878272  1
  Nd  Nd13  1  0.964680  0.815914  0.600611  1
  Nd  Nd14  1  0.460178  0.686390  0.603524  1
  Nd  Nd15  1  0.042455  0.184015  0.398336  1
  Nd  Nd16  1  0.689720  0.816407  0.382647  1
  Nd  Nd17  1  0.638375  0.992905  0.748932  1
  Nd  Nd18  1  0.542711  0.312579  0.101883  1
  Er  Er19  1  0.137968  0.512451  0.748394  1
  Si  Si20  1  0.478511  0.602889  0.245976  1
  Si  Si21  1  0.250427  0.379097  0.247104  1
  Si  Si22  1  0.513926  0.402302  0.751016  1
  Si  Si23  1  0.632069  0.025461  0.958409  1
  Si  Si24  1  0.016505  0.102856  0.749453  1
  Si  Si25  1  0.751690  0.621302  0.750793  1
  Si  Si26  1  0.750931  0.120642  0.248574  1
  Si  Si27  1  0.364801  0.970715  0.461061  1
  Si  Si28  1  0.982015  0.900128  0.248528  1
  Si  Si29  1  0.365553  0.974634  0.040913  1
  Si  Si30  1  0.635228  0.025030  0.542351  1
  Si  Si31  1  0.134896  0.474882  0.957036  1
  Si  Si32  1  0.146087  0.476278  0.545172  1
  Si  Si33  1  0.866814  0.525442  0.039385  1
  Si  Si34  1  0.245812  0.872708  0.751001  1
  Pt  Pt35  1  0.864573  0.517437  0.455681  1
