# generated using pymatgen
data_Ho6Tm9Th(CdPt)4
_symmetry_space_group_name_H-M   'P 1'
_cell_length_a   9.60660293
_cell_length_b   9.60660479
_cell_length_c   9.60660329
_cell_angle_alpha   60.21355299
_cell_angle_beta   60.21355007
_cell_angle_gamma   60.21354473
_symmetry_Int_Tables_number   1
_chemical_formula_structural   Ho6Tm9Th(CdPt)4
_chemical_formula_sum   'Ho6 Tm9 Th1 Cd4 Pt4'
_cell_volume   629.92585765
_cell_formula_units_Z   1
loop_
 _symmetry_equiv_pos_site_id
 _symmetry_equiv_pos_as_xyz
  1  'x, y, z'
loop_
 _atom_site_type_symbol
 _atom_site_label
 _atom_site_symmetry_multiplicity
 _atom_site_fract_x
 _atom_site_fract_y
 _atom_site_fract_z
 _atom_site_occupancy
  Ho  Ho0  1  0.185268  0.816384  0.816384  1
  Ho  Ho1  1  0.813708  0.186583  0.186583  1
  Ho  Ho2  1  0.816384  0.185268  0.816384  1
  Ho  Ho3  1  0.186583  0.813708  0.186583  1
  Ho  Ho4  1  0.816384  0.816384  0.185268  1
  Ho  Ho5  1  0.186583  0.186583  0.813708  1
  Tm  Tm6  1  0.603611  0.603611  0.189796  1
  Tm  Tm7  1  0.603611  0.189796  0.603611  1
  Tm  Tm8  1  0.189796  0.603611  0.603611  1
  Tm  Tm9  1  0.062926  0.438677  0.438677  1
  Tm  Tm10  1  0.440239  0.060810  0.060810  1
  Tm  Tm11  1  0.438677  0.062926  0.438677  1
  Tm  Tm12  1  0.060810  0.440239  0.060810  1
  Tm  Tm13  1  0.438677  0.438677  0.062926  1
  Tm  Tm14  1  0.060810  0.060810  0.440239  1
  Th  Th15  1  0.599956  0.599956  0.599956  1
  Cd  Cd16  1  0.831772  0.831772  0.831772  1
  Cd  Cd17  1  0.832888  0.832888  0.502644  1
  Cd  Cd18  1  0.832888  0.502644  0.832888  1
  Cd  Cd19  1  0.502644  0.832888  0.832888  1
  Pt  Pt20  1  0.393901  0.393901  0.393901  1
  Pt  Pt21  1  0.390118  0.390118  0.821646  1
  Pt  Pt22  1  0.390118  0.821646  0.390118  1
  Pt  Pt23  1  0.821646  0.390118  0.390118  1
