# generated using pymatgen
data_Y2HfCo8TcP6
_symmetry_space_group_name_H-M   'P 1'
_cell_length_a   12.06966301
_cell_length_b   12.10277000
_cell_length_c   3.70180800
_cell_angle_alpha   90.00000000
_cell_angle_beta   90.00000000
_cell_angle_gamma   120.06683657
_symmetry_Int_Tables_number   1
_chemical_formula_structural   Y2HfCo8TcP6
_chemical_formula_sum   'Y4 Hf2 Co16 Tc2 P12'
_cell_volume   467.98459705
_cell_formula_units_Z   2
loop_
 _symmetry_equiv_pos_site_id
 _symmetry_equiv_pos_as_xyz
  1  'x, y, z'
loop_
 _atom_site_type_symbol
 _atom_site_label
 _atom_site_symmetry_multiplicity
 _atom_site_fract_x
 _atom_site_fract_y
 _atom_site_fract_z
 _atom_site_occupancy
  Y  Y0  1  0.817969  0.816042  0.500000  1
  Y  Y1  1  0.000545  0.178834  0.500000  1
  Y  Y2  1  0.334796  0.667056  0.000000  1
  Y  Y3  1  0.665111  0.332175  0.000000  1
  Hf  Hf4  1  0.000626  0.559434  0.000000  1
  Hf  Hf5  1  0.181617  0.997884  0.500000  1
  Co  Co6  1  0.623588  0.823647  0.000000  1
  Co  Co7  1  0.372267  0.195143  0.000000  1
  Co  Co8  1  0.004166  0.724094  0.500000  1
  Co  Co9  1  0.283647  0.279609  0.500000  1
  Co  Co10  1  0.872594  0.351249  0.500000  1
  Co  Co11  1  0.715591  0.998750  0.500000  1
  Co  Co12  1  0.818547  0.626236  0.000000  1
  Co  Co13  1  0.182864  0.812564  0.000000  1
  Co  Co14  1  0.357452  0.878619  0.500000  1
  Co  Co15  1  0.127513  0.478127  0.500000  1
  Co  Co16  1  0.640497  0.518572  0.500000  1
  Co  Co17  1  0.003951  0.000271  0.000000  1
  Co  Co18  1  0.517304  0.644665  0.500000  1
  Co  Co19  1  0.479578  0.126827  0.500000  1
  Co  Co20  1  0.198495  0.370618  0.000000  1
  Co  Co21  1  0.801569  0.173168  0.000000  1
  Tc  Tc22  1  0.446517  0.446435  0.000000  1
  Tc  Tc23  1  0.551519  0.001642  0.000000  1
  P  P24  1  0.999855  0.350985  0.000000  1
  P  P25  1  0.828344  0.521419  0.500000  1
  P  P26  1  0.684507  0.162787  0.500000  1
  P  P27  1  0.179404  0.174065  0.000000  1
  P  P28  1  0.635817  0.640588  0.000000  1
  P  P29  1  0.822753  0.997917  0.000000  1
  P  P30  1  0.520222  0.836473  0.500000  1
  P  P31  1  0.172936  0.692204  0.500000  1
  P  P32  1  0.360326  0.004527  0.000000  1
  P  P33  1  0.479629  0.315570  0.500000  1
  P  P34  1  0.003651  0.825376  0.000000  1
  P  P35  1  0.314234  0.476427  0.500000  1
