# generated using pymatgen
data_Sc3Zn5Ir
_symmetry_space_group_name_H-M   'P 1'
_cell_length_a   7.29329100
_cell_length_b   7.29328950
_cell_length_c   3.40652700
_cell_angle_alpha   90.00000000
_cell_angle_beta   90.00000000
_cell_angle_gamma   119.99998410
_symmetry_Int_Tables_number   1
_chemical_formula_structural   Sc3Zn5Ir
_chemical_formula_sum   'Sc3 Zn5 Ir1'
_cell_volume   156.92405860
_cell_formula_units_Z   1
loop_
 _symmetry_equiv_pos_site_id
 _symmetry_equiv_pos_as_xyz
  1  'x, y, z'
loop_
 _atom_site_type_symbol
 _atom_site_label
 _atom_site_symmetry_multiplicity
 _atom_site_fract_x
 _atom_site_fract_y
 _atom_site_fract_z
 _atom_site_occupancy
  Sc  Sc0  1  0.589516  0.612641  0.000000  1
  Sc  Sc1  1  0.387359  0.976873  0.000000  1
  Sc  Sc2  1  0.023127  0.410484  0.000000  1
  Zn  Zn3  1  0.000000  0.000000  0.000000  1
  Zn  Zn4  1  0.666667  0.333333  0.500000  1
  Zn  Zn5  1  0.991114  0.724132  0.500000  1
  Zn  Zn6  1  0.275868  0.266982  0.500000  1
  Zn  Zn7  1  0.733018  0.008886  0.500000  1
  Ir  Ir8  1  0.333333  0.666667  0.500000  1
