# generated using pymatgen
data_DyYTiCrO8
_symmetry_space_group_name_H-M   'P 1'
_cell_length_a   6.03652901
_cell_length_b   6.03652885
_cell_length_c   6.03652901
_cell_angle_alpha   106.11222183
_cell_angle_beta   106.11222750
_cell_angle_gamma   116.42082843
_symmetry_Int_Tables_number   1
_chemical_formula_structural   DyYTiCrO8
_chemical_formula_sum   'Dy1 Y1 Ti1 Cr1 O8'
_cell_volume   167.44213431
_cell_formula_units_Z   1
loop_
 _symmetry_equiv_pos_site_id
 _symmetry_equiv_pos_as_xyz
  1  'x, y, z'
loop_
 _atom_site_type_symbol
 _atom_site_label
 _atom_site_symmetry_multiplicity
 _atom_site_fract_x
 _atom_site_fract_y
 _atom_site_fract_z
 _atom_site_occupancy
  Dy  Dy0  1  0.500000  0.500000  0.000000  1
  Y  Y1  1  0.750000  0.250000  0.500000  1
  Ti  Ti2  1  0.250000  0.750000  0.500000  1
  Cr  Cr3  1  0.000000  0.000000  0.000000  1
  O  O4  1  0.838520  0.018034  0.179514  1
  O  O5  1  0.868723  0.556938  0.311785  1
  O  O6  1  0.245153  0.556938  0.688215  1
  O  O7  1  0.838520  0.659007  0.820486  1
  O  O8  1  0.340993  0.161480  0.179514  1
  O  O9  1  0.443062  0.754847  0.311785  1
  O  O10  1  0.443062  0.131277  0.688215  1
  O  O11  1  0.981966  0.161480  0.820486  1
