# generated using pymatgen
data_Rb6Ir3RhBr18
_symmetry_space_group_name_H-M   'P 1'
_cell_length_a   7.51081300
_cell_length_b   7.51081287
_cell_length_c   19.50681000
_cell_angle_alpha   90.00000000
_cell_angle_beta   90.00000000
_cell_angle_gamma   119.99999617
_symmetry_Int_Tables_number   1
_chemical_formula_structural   Rb6Ir3RhBr18
_chemical_formula_sum   'Rb6 Ir3 Rh1 Br18'
_cell_volume   952.99537606
_cell_formula_units_Z   1
loop_
 _symmetry_equiv_pos_site_id
 _symmetry_equiv_pos_as_xyz
  1  'x, y, z'
loop_
 _atom_site_type_symbol
 _atom_site_label
 _atom_site_symmetry_multiplicity
 _atom_site_fract_x
 _atom_site_fract_y
 _atom_site_fract_z
 _atom_site_occupancy
  Rb  Rb0  1  0.666667  0.333333  0.560009  1
  Rb  Rb1  1  0.333333  0.666667  0.059022  1
  Rb  Rb2  1  0.333333  0.666667  0.440453  1
  Rb  Rb3  1  0.666667  0.333333  0.939383  1
  Rb  Rb4  1  0.000000  0.000000  0.249819  1
  Rb  Rb5  1  0.000000  0.000000  0.750029  1
  Ir  Ir6  1  0.666667  0.333333  0.334900  1
  Ir  Ir7  1  0.333333  0.666667  0.833927  1
  Ir  Ir8  1  0.666667  0.333333  0.165177  1
  Rh  Rh9  1  0.333333  0.666667  0.665400  1
  Br  Br10  1  0.824146  0.648291  0.407356  1
  Br  Br11  1  0.176032  0.823968  0.593369  1
  Br  Br12  1  0.647937  0.823968  0.593369  1
  Br  Br13  1  0.824146  0.175854  0.407356  1
  Br  Br14  1  0.351709  0.175854  0.407356  1
  Br  Br15  1  0.176001  0.352004  0.906525  1
  Br  Br16  1  0.032590  0.516295  0.750512  1
  Br  Br17  1  0.647996  0.823999  0.906525  1
  Br  Br18  1  0.824090  0.648179  0.092790  1
  Br  Br19  1  0.176032  0.352063  0.593369  1
  Br  Br20  1  0.483705  0.967410  0.750512  1
  Br  Br21  1  0.517335  0.482665  0.250074  1
  Br  Br22  1  0.483705  0.516295  0.750512  1
  Br  Br23  1  0.176001  0.823999  0.906525  1
  Br  Br24  1  0.351821  0.175910  0.092790  1
  Br  Br25  1  0.965332  0.482665  0.250074  1
  Br  Br26  1  0.517335  0.034668  0.250074  1
  Br  Br27  1  0.824090  0.175910  0.092790  1
