# generated using pymatgen
data_CdHgRh2O7
_symmetry_space_group_name_H-M   'P 1'
_cell_length_a   7.26620655
_cell_length_b   7.21878813
_cell_length_c   7.26620699
_cell_angle_alpha   60.21564031
_cell_angle_beta   60.37293999
_cell_angle_gamma   60.21564144
_symmetry_Int_Tables_number   1
_chemical_formula_structural   CdHgRh2O7
_chemical_formula_sum   'Cd2 Hg2 Rh4 O14'
_cell_volume   271.13761810
_cell_formula_units_Z   2
loop_
 _symmetry_equiv_pos_site_id
 _symmetry_equiv_pos_as_xyz
  1  'x, y, z'
loop_
 _atom_site_type_symbol
 _atom_site_label
 _atom_site_symmetry_multiplicity
 _atom_site_fract_x
 _atom_site_fract_y
 _atom_site_fract_z
 _atom_site_occupancy
  Cd  Cd0  1  0.625000  0.125000  0.125000  1
  Cd  Cd1  1  0.125000  0.125000  0.625000  1
  Hg  Hg2  1  0.125000  0.125000  0.125000  1
  Hg  Hg3  1  0.125000  0.625000  0.125000  1
  Rh  Rh4  1  0.625000  0.625000  0.625000  1
  Rh  Rh5  1  0.625000  0.625000  0.125000  1
  Rh  Rh6  1  0.125000  0.625000  0.625000  1
  Rh  Rh7  1  0.625000  0.125000  0.625000  1
  O  O8  1  0.241668  0.258332  0.241668  1
  O  O9  1  0.303750  0.696250  0.303750  1
  O  O10  1  0.949230  0.950481  0.554744  1
  O  O11  1  0.548862  0.951138  0.548862  1
  O  O12  1  0.695256  0.704454  0.300770  1
  O  O13  1  0.949230  0.545546  0.554744  1
  O  O14  1  0.701138  0.298862  0.701138  1
  O  O15  1  0.300770  0.299519  0.695256  1
  O  O16  1  0.695256  0.299519  0.300770  1
  O  O17  1  0.300770  0.704454  0.695256  1
  O  O18  1  0.946250  0.553750  0.946250  1
  O  O19  1  0.554744  0.545546  0.949230  1
  O  O20  1  0.008332  0.991668  0.008332  1
  O  O21  1  0.554744  0.950481  0.949230  1
