# generated using pymatgen
data_Li2PrCu9
_symmetry_space_group_name_H-M   'P 1'
_cell_length_a   5.03366200
_cell_length_b   5.03366272
_cell_length_c   16.17229100
_cell_angle_alpha   90.00000000
_cell_angle_beta   90.00000000
_cell_angle_gamma   119.99999525
_symmetry_Int_Tables_number   1
_chemical_formula_structural   Li2PrCu9
_chemical_formula_sum   'Li4 Pr2 Cu18'
_cell_volume   354.87087923
_cell_formula_units_Z   2
loop_
 _symmetry_equiv_pos_site_id
 _symmetry_equiv_pos_as_xyz
  1  'x, y, z'
loop_
 _atom_site_type_symbol
 _atom_site_label
 _atom_site_symmetry_multiplicity
 _atom_site_fract_x
 _atom_site_fract_y
 _atom_site_fract_z
 _atom_site_occupancy
  Li  Li0  1  0.666667  0.333333  0.472012  1
  Li  Li1  1  0.333333  0.666667  0.972012  1
  Li  Li2  1  0.666667  0.333333  0.027988  1
  Li  Li3  1  0.333333  0.666667  0.527988  1
  Pr  Pr4  1  0.666667  0.333333  0.250000  1
  Pr  Pr5  1  0.333333  0.666667  0.750000  1
  Cu  Cu6  1  0.333333  0.666667  0.250000  1
  Cu  Cu7  1  0.666667  0.333333  0.750000  1
  Cu  Cu8  1  0.168298  0.831702  0.378557  1
  Cu  Cu9  1  0.168298  0.336596  0.378557  1
  Cu  Cu10  1  0.000000  0.000000  0.750000  1
  Cu  Cu11  1  0.000000  0.000000  0.250000  1
  Cu  Cu12  1  0.000000  0.000000  0.000000  1
  Cu  Cu13  1  0.000000  0.000000  0.500000  1
  Cu  Cu14  1  0.168298  0.336596  0.121443  1
  Cu  Cu15  1  0.831702  0.168298  0.621443  1
  Cu  Cu16  1  0.336596  0.168298  0.621443  1
  Cu  Cu17  1  0.663404  0.831702  0.121443  1
  Cu  Cu18  1  0.168298  0.831702  0.121443  1
  Cu  Cu19  1  0.831702  0.663404  0.878557  1
  Cu  Cu20  1  0.831702  0.168298  0.878557  1
  Cu  Cu21  1  0.831702  0.663404  0.621443  1
  Cu  Cu22  1  0.336596  0.168298  0.878557  1
  Cu  Cu23  1  0.663404  0.831702  0.378557  1
