# generated using pymatgen
data_Ca12GeAs7Rh8
_symmetry_space_group_name_H-M   'P 1'
_cell_length_a   5.62659700
_cell_length_b   7.98682900
_cell_length_c   13.36587800
_cell_angle_alpha   89.99984534
_cell_angle_beta   90.00000000
_cell_angle_gamma   90.00000000
_symmetry_Int_Tables_number   1
_chemical_formula_structural   Ca12GeAs7Rh8
_chemical_formula_sum   'Ca12 Ge1 As7 Rh8'
_cell_volume   600.64475538
_cell_formula_units_Z   1
loop_
 _symmetry_equiv_pos_site_id
 _symmetry_equiv_pos_as_xyz
  1  'x, y, z'
loop_
 _atom_site_type_symbol
 _atom_site_label
 _atom_site_symmetry_multiplicity
 _atom_site_fract_x
 _atom_site_fract_y
 _atom_site_fract_z
 _atom_site_occupancy
  Ca  Ca0  1  0.634947  0.250346  0.249259  1
  Ca  Ca1  1  0.366341  0.750279  0.751489  1
  Ca  Ca2  1  0.366341  0.749721  0.248511  1
  Ca  Ca3  1  0.634947  0.249654  0.750741  1
  Ca  Ca4  1  0.136977  0.387418  0.103261  1
  Ca  Ca5  1  0.862770  0.612251  0.896675  1
  Ca  Ca6  1  0.863591  0.611288  0.602794  1
  Ca  Ca7  1  0.863591  0.888712  0.397206  1
  Ca  Ca8  1  0.137426  0.389892  0.396796  1
  Ca  Ca9  1  0.137426  0.110108  0.603204  1
  Ca  Ca10  1  0.136977  0.112582  0.896739  1
  Ca  Ca11  1  0.862770  0.887749  0.103325  1
  Ge  Ge12  1  0.612069  0.250000  0.500000  1
  As  As13  1  0.144888  0.099960  0.249319  1
  As  As14  1  0.855968  0.899956  0.750310  1
  As  As15  1  0.855968  0.600044  0.249690  1
  As  As16  1  0.144888  0.400040  0.750681  1
  As  As17  1  0.613253  0.250000  0.000000  1
  As  As18  1  0.387099  0.750000  0.000000  1
  As  As19  1  0.381804  0.750000  0.500000  1
  Rh  Rh20  1  0.368376  0.027442  0.087193  1
  Rh  Rh21  1  0.631202  0.972335  0.912562  1
  Rh  Rh22  1  0.631526  0.972226  0.587242  1
  Rh  Rh23  1  0.631526  0.527774  0.412758  1
  Rh  Rh24  1  0.368874  0.028485  0.410607  1
  Rh  Rh25  1  0.368874  0.471515  0.589393  1
  Rh  Rh26  1  0.368376  0.472558  0.912807  1
  Rh  Rh27  1  0.631202  0.527665  0.087438  1
