# generated using pymatgen
data_SmPa(Al3Rh)3
_symmetry_space_group_name_H-M   'P 1'
_cell_length_a   7.61983630
_cell_length_b   7.61563722
_cell_length_c   9.43402100
_cell_angle_alpha   90.00000000
_cell_angle_beta   90.00000000
_cell_angle_gamma   119.55081246
_symmetry_Int_Tables_number   1
_chemical_formula_structural   SmPa(Al3Rh)3
_chemical_formula_sum   'Sm2 Pa2 Al18 Rh6'
_cell_volume   476.24164487
_cell_formula_units_Z   2
loop_
 _symmetry_equiv_pos_site_id
 _symmetry_equiv_pos_as_xyz
  1  'x, y, z'
loop_
 _atom_site_type_symbol
 _atom_site_label
 _atom_site_symmetry_multiplicity
 _atom_site_fract_x
 _atom_site_fract_y
 _atom_site_fract_z
 _atom_site_occupancy
  Sm  Sm0  1  0.670053  0.993861  0.250000  1
  Sm  Sm1  1  0.329947  0.006139  0.750000  1
  Pa  Pa2  1  0.996887  0.671190  0.250000  1
  Pa  Pa3  1  0.003113  0.328810  0.750000  1
  Al  Al4  1  0.130268  0.126970  0.250000  1
  Al  Al5  1  0.869732  0.873030  0.750000  1
  Al  Al6  1  0.001189  0.333445  0.076279  1
  Al  Al7  1  0.998811  0.666555  0.923721  1
  Al  Al8  1  0.998811  0.666555  0.576279  1
  Al  Al9  1  0.336654  0.002571  0.424690  1
  Al  Al10  1  0.001189  0.333445  0.423721  1
  Al  Al11  1  0.663346  0.997429  0.575310  1
  Al  Al12  1  0.663346  0.997429  0.924690  1
  Al  Al13  1  0.336654  0.002571  0.075310  1
  Al  Al14  1  0.334621  0.333836  0.551276  1
  Al  Al15  1  0.665379  0.666164  0.448724  1
  Al  Al16  1  0.665379  0.666164  0.051276  1
  Al  Al17  1  0.334621  0.333836  0.948724  1
  Al  Al18  1  0.338558  0.547730  0.250000  1
  Al  Al19  1  0.661442  0.452270  0.750000  1
  Al  Al20  1  0.550050  0.343597  0.250000  1
  Al  Al21  1  0.449950  0.656403  0.750000  1
  Rh  Rh22  1  0.675221  0.330043  0.999730  1
  Rh  Rh23  1  0.324779  0.669957  0.000270  1
  Rh  Rh24  1  0.324779  0.669957  0.499730  1
  Rh  Rh25  1  0.675221  0.330043  0.500270  1
  Rh  Rh26  1  0.000000  0.000000  0.000000  1
  Rh  Rh27  1  0.000000  0.000000  0.500000  1
