# generated using pymatgen
data_NiBr14
_symmetry_space_group_name_H-M   'P 1'
_cell_length_a   11.29016139
_cell_length_b   11.29015792
_cell_length_c   7.47615800
_cell_angle_alpha   105.61403565
_cell_angle_beta   105.61403073
_cell_angle_gamma   64.48142886
_symmetry_Int_Tables_number   1
_chemical_formula_structural   NiBr14
_chemical_formula_sum   'Ni1 Br14'
_cell_volume   815.29666715
_cell_formula_units_Z   1
loop_
 _symmetry_equiv_pos_site_id
 _symmetry_equiv_pos_as_xyz
  1  'x, y, z'
loop_
 _atom_site_type_symbol
 _atom_site_label
 _atom_site_symmetry_multiplicity
 _atom_site_fract_x
 _atom_site_fract_y
 _atom_site_fract_z
 _atom_site_occupancy
  Ni  Ni0  1  0.000000  0.000000  0.000000  1
  Br  Br1  1  0.354211  0.354211  0.699540  1
  Br  Br2  1  0.645789  0.645789  0.300460  1
  Br  Br3  1  0.944054  0.221880  0.907346  1
  Br  Br4  1  0.221880  0.944054  0.907346  1
  Br  Br5  1  0.055946  0.778120  0.092654  1
  Br  Br6  1  0.778120  0.055946  0.092654  1
  Br  Br7  1  0.199002  0.573359  0.907037  1
  Br  Br8  1  0.573359  0.199002  0.907037  1
  Br  Br9  1  0.800998  0.426641  0.092963  1
  Br  Br10  1  0.426641  0.800998  0.092963  1
  Br  Br11  1  0.072278  0.072278  0.354650  1
  Br  Br12  1  0.927722  0.927722  0.645350  1
  Br  Br13  1  0.791944  0.791944  0.492227  1
  Br  Br14  1  0.208056  0.208056  0.507773  1
