# generated using pymatgen
data_Na2USe3
_symmetry_space_group_name_H-M   'P 1'
_cell_length_a   7.29643030
_cell_length_b   7.29643009
_cell_length_c   7.36376539
_cell_angle_alpha   80.33592618
_cell_angle_beta   80.33592735
_cell_angle_gamma   119.91395687
_symmetry_Int_Tables_number   1
_chemical_formula_structural   Na2USe3
_chemical_formula_sum   'Na4 U2 Se6'
_cell_volume   320.13158168
_cell_formula_units_Z   2
loop_
 _symmetry_equiv_pos_site_id
 _symmetry_equiv_pos_as_xyz
  1  'x, y, z'
loop_
 _atom_site_type_symbol
 _atom_site_label
 _atom_site_symmetry_multiplicity
 _atom_site_fract_x
 _atom_site_fract_y
 _atom_site_fract_z
 _atom_site_occupancy
  Na  Na0  1  0.660070  0.339930  0.500000  1
  Na  Na1  1  0.339930  0.660070  0.500000  1
  Na  Na2  1  0.500000  0.500000  0.000000  1
  Na  Na3  1  0.000000  0.000000  0.500000  1
  U  U4  1  0.832688  0.167312  0.000000  1
  U  U5  1  0.167312  0.832688  0.000000  1
  Se  Se6  1  0.777484  0.777484  0.230612  1
  Se  Se7  1  0.222516  0.222516  0.769388  1
  Se  Se8  1  0.423093  0.067276  0.229139  1
  Se  Se9  1  0.576907  0.932724  0.770861  1
  Se  Se10  1  0.932724  0.576907  0.770861  1
  Se  Se11  1  0.067276  0.423093  0.229139  1
