# generated using pymatgen
data_Nd15Dy5Rh12
_symmetry_space_group_name_H-M   'P 1'
_cell_length_a   11.17422865
_cell_length_b   11.17128604
_cell_length_c   6.52796237
_cell_angle_alpha   90.00325835
_cell_angle_beta   89.96179179
_cell_angle_gamma   90.00881586
_symmetry_Int_Tables_number   1
_chemical_formula_structural   Nd15Dy5Rh12
_chemical_formula_sum   'Nd15 Dy5 Rh12'
_cell_volume   814.88864359
_cell_formula_units_Z   1
loop_
 _symmetry_equiv_pos_site_id
 _symmetry_equiv_pos_as_xyz
  1  'x, y, z'
loop_
 _atom_site_type_symbol
 _atom_site_label
 _atom_site_symmetry_multiplicity
 _atom_site_fract_x
 _atom_site_fract_y
 _atom_site_fract_z
 _atom_site_occupancy
  Nd  Nd0  1  0.790785  0.410393  0.116633  1
  Nd  Nd1  1  0.210422  0.586858  0.115984  1
  Nd  Nd2  1  0.911198  0.711031  0.116042  1
  Nd  Nd3  1  0.410516  0.789149  0.383298  1
  Nd  Nd4  1  0.589257  0.210701  0.383686  1
  Nd  Nd5  1  0.287661  0.090865  0.382046  1
  Nd  Nd6  1  0.710897  0.910656  0.383344  1
  Nd  Nd7  1  0.409594  0.211083  0.884306  1
  Nd  Nd8  1  0.710917  0.089254  0.883689  1
  Nd  Nd9  1  0.289217  0.910797  0.883546  1
  Nd  Nd10  1  0.589370  0.789085  0.883328  1
  Nd  Nd11  1  0.089002  0.710917  0.616061  1
  Nd  Nd12  1  0.912471  0.288882  0.616014  1
  Nd  Nd13  1  0.210076  0.409541  0.616013  1
  Nd  Nd14  1  0.789165  0.588929  0.616211  1
  Dy  Dy15  1  0.088387  0.292070  0.112985  1
  Dy  Dy16  1  0.001033  0.002268  0.001446  1
  Dy  Dy17  1  0.500082  0.499683  0.000648  1
  Dy  Dy18  1  0.499744  0.499875  0.500257  1
  Dy  Dy19  1  0.999950  0.000307  0.500385  1
  Rh  Rh20  1  0.149388  0.850819  0.250409  1
  Rh  Rh21  1  0.347868  0.349872  0.248707  1
  Rh  Rh22  1  0.649150  0.649289  0.250319  1
  Rh  Rh23  1  0.852937  0.150524  0.248189  1
  Rh  Rh24  1  0.350762  0.649293  0.750272  1
  Rh  Rh25  1  0.148347  0.150856  0.754972  1
  Rh  Rh26  1  0.850780  0.850756  0.749960  1
  Rh  Rh27  1  0.649026  0.350846  0.750019  1
  Rh  Rh28  1  0.000958  0.497937  0.373843  1
  Rh  Rh29  1  0.499730  0.000278  0.124303  1
  Rh  Rh30  1  0.500163  0.999997  0.624451  1
  Rh  Rh31  1  0.001147  0.497188  0.878635  1
