# generated using pymatgen
data_CeHo5(BePd5)2
_symmetry_space_group_name_H-M   'P 1'
_cell_length_a   8.07795495
_cell_length_b   8.07795497
_cell_length_c   8.07795481
_cell_angle_alpha   127.35490094
_cell_angle_beta   124.50275699
_cell_angle_gamma   80.02629250
_symmetry_Int_Tables_number   1
_chemical_formula_structural   CeHo5(BePd5)2
_chemical_formula_sum   'Ce1 Ho5 Be2 Pd10'
_cell_volume   333.39603466
_cell_formula_units_Z   1
loop_
 _symmetry_equiv_pos_site_id
 _symmetry_equiv_pos_as_xyz
  1  'x, y, z'
loop_
 _atom_site_type_symbol
 _atom_site_label
 _atom_site_symmetry_multiplicity
 _atom_site_fract_x
 _atom_site_fract_y
 _atom_site_fract_z
 _atom_site_occupancy
  Ce  Ce0  1  0.599089  0.750000  0.849089  1
  Ho  Ho1  1  0.221381  0.445693  0.775688  1
  Ho  Ho2  1  0.779719  0.552834  0.226885  1
  Ho  Ho3  1  0.829995  0.054307  0.775688  1
  Ho  Ho4  1  0.174050  0.947166  0.226885  1
  Ho  Ho5  1  0.404467  0.250000  0.154467  1
  Be  Be6  1  0.792872  0.250000  0.542872  1
  Be  Be7  1  0.203025  0.750000  0.453025  1
  Pd  Pd8  1  0.170549  0.405903  0.355065  1
  Pd  Pd9  1  0.828249  0.183418  0.232929  1
  Pd  Pd10  1  0.449162  0.094097  0.764646  1
  Pd  Pd11  1  0.549511  0.316582  0.644831  1
  Pd  Pd12  1  0.000229  0.498557  0.998787  1
  Pd  Pd13  1  0.000229  0.001443  0.501672  1
  Pd  Pd14  1  0.449162  0.684516  0.355065  1
  Pd  Pd15  1  0.549511  0.904680  0.232929  1
  Pd  Pd16  1  0.170549  0.815484  0.764646  1
  Pd  Pd17  1  0.828249  0.595320  0.644831  1
