# generated using pymatgen
data_Eu15Th(InRh)4
_symmetry_space_group_name_H-M   'P 1'
_cell_length_a   10.16496949
_cell_length_b   10.15381247
_cell_length_c   10.15381300
_cell_angle_alpha   60.00000153
_cell_angle_beta   60.03630305
_cell_angle_gamma   60.03629761
_symmetry_Int_Tables_number   1
_chemical_formula_structural   Eu15Th(InRh)4
_chemical_formula_sum   'Eu15 Th1 In4 Rh4'
_cell_volume   741.45953824
_cell_formula_units_Z   1
loop_
 _symmetry_equiv_pos_site_id
 _symmetry_equiv_pos_as_xyz
  1  'x, y, z'
loop_
 _atom_site_type_symbol
 _atom_site_label
 _atom_site_symmetry_multiplicity
 _atom_site_fract_x
 _atom_site_fract_y
 _atom_site_fract_z
 _atom_site_occupancy
  Eu  Eu0  1  0.697040  0.304723  0.304723  1
  Eu  Eu1  1  0.697040  0.693514  0.304723  1
  Eu  Eu2  1  0.304335  0.694712  0.306240  1
  Eu  Eu3  1  0.940306  0.944023  0.557835  1
  Eu  Eu4  1  0.151033  0.154451  0.540064  1
  Eu  Eu5  1  0.554549  0.944235  0.556982  1
  Eu  Eu6  1  0.151033  0.154451  0.154451  1
  Eu  Eu7  1  0.304335  0.306240  0.694712  1
  Eu  Eu8  1  0.940306  0.557835  0.557835  1
  Eu  Eu9  1  0.554549  0.556982  0.944235  1
  Eu  Eu10  1  0.554549  0.944235  0.944235  1
  Eu  Eu11  1  0.940306  0.557835  0.944023  1
  Eu  Eu12  1  0.151033  0.540064  0.154451  1
  Eu  Eu13  1  0.304335  0.694712  0.694712  1
  Eu  Eu14  1  0.697040  0.304723  0.693514  1
  Th  Th15  1  0.527416  0.157528  0.157528  1
  In  In16  1  0.917537  0.922209  0.238047  1
  In  In17  1  0.232019  0.922660  0.922660  1
  In  In18  1  0.917537  0.238047  0.922209  1
  In  In19  1  0.917537  0.922209  0.922209  1
  Rh  Rh20  1  0.376716  0.347334  0.347334  1
  Rh  Rh21  1  0.916014  0.361329  0.361329  1
  Rh  Rh22  1  0.376716  0.347334  0.928617  1
  Rh  Rh23  1  0.376716  0.928617  0.347334  1
