# generated using pymatgen
data_NaScTi2O6
_symmetry_space_group_name_H-M   'P 1'
_cell_length_a   7.02111780
_cell_length_b   7.02111870
_cell_length_c   5.94137457
_cell_angle_alpha   75.83413393
_cell_angle_beta   75.83413253
_cell_angle_gamma   82.89755429
_symmetry_Int_Tables_number   1
_chemical_formula_structural   NaScTi2O6
_chemical_formula_sum   'Na2 Sc2 Ti4 O12'
_cell_volume   274.71101694
_cell_formula_units_Z   2
loop_
 _symmetry_equiv_pos_site_id
 _symmetry_equiv_pos_as_xyz
  1  'x, y, z'
loop_
 _atom_site_type_symbol
 _atom_site_label
 _atom_site_symmetry_multiplicity
 _atom_site_fract_x
 _atom_site_fract_y
 _atom_site_fract_z
 _atom_site_occupancy
  Na  Na0  1  0.295882  0.704118  0.250000  1
  Na  Na1  1  0.704118  0.295882  0.750000  1
  Sc  Sc2  1  0.913418  0.086582  0.250000  1
  Sc  Sc3  1  0.086582  0.913418  0.750000  1
  Ti  Ti4  1  0.385136  0.197418  0.264558  1
  Ti  Ti5  1  0.802582  0.614864  0.235442  1
  Ti  Ti6  1  0.614864  0.802582  0.735442  1
  Ti  Ti7  1  0.197418  0.385136  0.764558  1
  O  O8  1  0.361060  0.356434  0.973237  1
  O  O9  1  0.643566  0.638940  0.526763  1
  O  O10  1  0.638940  0.643566  0.026763  1
  O  O11  1  0.356434  0.361060  0.473237  1
  O  O12  1  0.087384  0.630016  0.710166  1
  O  O13  1  0.369984  0.912616  0.789834  1
  O  O14  1  0.912616  0.369984  0.289834  1
  O  O15  1  0.630016  0.087384  0.210166  1
  O  O16  1  0.192339  0.018624  0.369677  1
  O  O17  1  0.981376  0.807661  0.130323  1
  O  O18  1  0.807661  0.981376  0.630323  1
  O  O19  1  0.018624  0.192339  0.869677  1
