# generated using pymatgen
data_Tb6Zn4Pd12Au
_symmetry_space_group_name_H-M   'P 1'
_cell_length_a   8.30029800
_cell_length_b   8.30029934
_cell_length_c   8.30029900
_cell_angle_alpha   109.47121737
_cell_angle_beta   109.47122064
_cell_angle_gamma   109.47122426
_symmetry_Int_Tables_number   1
_chemical_formula_structural   Tb6Zn4Pd12Au
_chemical_formula_sum   'Tb6 Zn4 Pd12 Au1'
_cell_volume   440.20937164
_cell_formula_units_Z   1
loop_
 _symmetry_equiv_pos_site_id
 _symmetry_equiv_pos_as_xyz
  1  'x, y, z'
loop_
 _atom_site_type_symbol
 _atom_site_label
 _atom_site_symmetry_multiplicity
 _atom_site_fract_x
 _atom_site_fract_y
 _atom_site_fract_z
 _atom_site_occupancy
  Tb  Tb0  1  0.694997  0.694997  0.000000  1
  Tb  Tb1  1  0.305003  0.000000  0.305003  1
  Tb  Tb2  1  0.000000  0.305003  0.305003  1
  Tb  Tb3  1  0.305003  0.305003  0.000000  1
  Tb  Tb4  1  0.694997  0.000000  0.694997  1
  Tb  Tb5  1  0.000000  0.694997  0.694997  1
  Zn  Zn6  1  0.000000  0.000000  0.500000  1
  Zn  Zn7  1  0.000000  0.500000  0.000000  1
  Zn  Zn8  1  0.500000  0.000000  0.000000  1
  Zn  Zn9  1  0.500000  0.500000  0.500000  1
  Pd  Pd10  1  0.333513  0.333513  0.667027  1
  Pd  Pd11  1  0.666487  0.000000  0.333513  1
  Pd  Pd12  1  0.000000  0.666487  0.333513  1
  Pd  Pd13  1  0.666487  0.333513  0.000000  1
  Pd  Pd14  1  0.333513  0.667027  0.333513  1
  Pd  Pd15  1  0.000000  0.333513  0.666487  1
  Pd  Pd16  1  0.333513  0.666487  0.000000  1
  Pd  Pd17  1  0.333513  0.000000  0.666487  1
  Pd  Pd18  1  0.667027  0.333513  0.333513  1
  Pd  Pd19  1  0.666487  0.666487  0.332973  1
  Pd  Pd20  1  0.666487  0.332973  0.666487  1
  Pd  Pd21  1  0.332973  0.666487  0.666487  1
  Au  Au22  1  0.000000  0.000000  0.000000  1
