# generated using pymatgen
data_Yb12Tm8Si15Ge
_symmetry_space_group_name_H-M   'P 1'
_cell_length_a   7.34811881
_cell_length_b   7.76777267
_cell_length_c   14.99791364
_cell_angle_alpha   89.93236780
_cell_angle_beta   90.04247522
_cell_angle_gamma   90.03313508
_symmetry_Int_Tables_number   1
_chemical_formula_structural   Yb12Tm8Si15Ge
_chemical_formula_sum   'Yb12 Tm8 Si15 Ge1'
_cell_volume   856.05768739
_cell_formula_units_Z   1
loop_
 _symmetry_equiv_pos_site_id
 _symmetry_equiv_pos_as_xyz
  1  'x, y, z'
loop_
 _atom_site_type_symbol
 _atom_site_label
 _atom_site_symmetry_multiplicity
 _atom_site_fract_x
 _atom_site_fract_y
 _atom_site_fract_z
 _atom_site_occupancy
  Yb  Yb0  1  0.973357  0.816276  0.403864  1
  Yb  Yb1  1  0.473201  0.683510  0.096144  1
  Yb  Yb2  1  0.526500  0.316284  0.596083  1
  Yb  Yb3  1  0.026804  0.183510  0.903876  1
  Yb  Yb4  1  0.026957  0.183562  0.596031  1
  Yb  Yb5  1  0.526805  0.316484  0.903865  1
  Yb  Yb6  1  0.473058  0.683773  0.403732  1
  Yb  Yb7  1  0.973189  0.816486  0.096129  1
  Yb  Yb8  1  0.352395  0.019838  0.750048  1
  Yb  Yb9  1  0.852474  0.480229  0.750186  1
  Yb  Yb10  1  0.147629  0.519766  0.249991  1
  Yb  Yb11  1  0.647516  0.980191  0.249992  1
  Tm  Tm12  1  0.314497  0.176329  0.121167  1
  Tm  Tm13  1  0.814945  0.323142  0.378502  1
  Tm  Tm14  1  0.185573  0.676355  0.878796  1
  Tm  Tm15  1  0.684784  0.825138  0.621633  1
  Tm  Tm16  1  0.314706  0.176007  0.378691  1
  Tm  Tm17  1  0.814458  0.323662  0.121178  1
  Tm  Tm18  1  0.186497  0.676529  0.621221  1
  Tm  Tm19  1  0.685497  0.823709  0.878864  1
  Si  Si20  1  0.356913  0.966162  0.961589  1
  Si  Si21  1  0.643129  0.033771  0.461624  1
  Si  Si22  1  0.143061  0.466153  0.038399  1
  Si  Si23  1  0.146863  0.465493  0.460799  1
  Si  Si24  1  0.643089  0.033838  0.038401  1
  Si  Si25  1  0.356945  0.966160  0.538370  1
  Si  Si26  1  0.856937  0.533842  0.961565  1
  Si  Si27  1  0.977561  0.879879  0.749991  1
  Si  Si28  1  0.477738  0.620127  0.750067  1
  Si  Si29  1  0.522405  0.379885  0.249934  1
  Si  Si30  1  0.022437  0.119958  0.249936  1
  Si  Si31  1  0.248906  0.396292  0.750007  1
  Si  Si32  1  0.749058  0.103862  0.749999  1
  Si  Si33  1  0.250926  0.896303  0.249996  1
  Si  Si34  1  0.751022  0.603713  0.249987  1
  Ge  Ge35  1  0.852169  0.533780  0.539344  1
