# generated using pymatgen
data_Sc2Ga9NiRh2
_symmetry_space_group_name_H-M   'P 1'
_cell_length_a   7.46062185
_cell_length_b   7.46062260
_cell_length_c   9.34555900
_cell_angle_alpha   90.00000000
_cell_angle_beta   90.00000000
_cell_angle_gamma   120.23462333
_symmetry_Int_Tables_number   1
_chemical_formula_structural   Sc2Ga9NiRh2
_chemical_formula_sum   'Sc4 Ga18 Ni2 Rh4'
_cell_volume   449.42205813
_cell_formula_units_Z   2
loop_
 _symmetry_equiv_pos_site_id
 _symmetry_equiv_pos_as_xyz
  1  'x, y, z'
loop_
 _atom_site_type_symbol
 _atom_site_label
 _atom_site_symmetry_multiplicity
 _atom_site_fract_x
 _atom_site_fract_y
 _atom_site_fract_z
 _atom_site_occupancy
  Sc  Sc0  1  0.997571  0.665983  0.250000  1
  Sc  Sc1  1  0.002429  0.334017  0.750000  1
  Sc  Sc2  1  0.665983  0.997571  0.250000  1
  Sc  Sc3  1  0.334017  0.002429  0.750000  1
  Ga  Ga4  1  0.323336  0.323337  0.569758  1
  Ga  Ga5  1  0.676663  0.676664  0.430242  1
  Ga  Ga6  1  0.676663  0.676664  0.069758  1
  Ga  Ga7  1  0.323336  0.323337  0.930242  1
  Ga  Ga8  1  0.338967  0.549230  0.250000  1
  Ga  Ga9  1  0.661033  0.450770  0.750000  1
  Ga  Ga10  1  0.549230  0.338967  0.250000  1
  Ga  Ga11  1  0.450770  0.661033  0.750000  1
  Ga  Ga12  1  0.996238  0.329761  0.081305  1
  Ga  Ga13  1  0.003762  0.670239  0.918695  1
  Ga  Ga14  1  0.003762  0.670239  0.581305  1
  Ga  Ga15  1  0.329761  0.996238  0.418695  1
  Ga  Ga16  1  0.996238  0.329761  0.418695  1
  Ga  Ga17  1  0.670239  0.003762  0.581305  1
  Ga  Ga18  1  0.670239  0.003762  0.918695  1
  Ga  Ga19  1  0.329761  0.996238  0.081305  1
  Ga  Ga20  1  0.111747  0.111747  0.250000  1
  Ga  Ga21  1  0.888253  0.888253  0.750000  1
  Ni  Ni22  1  0.000000  0.000000  0.000000  1
  Ni  Ni23  1  0.000000  0.000000  0.500000  1
  Rh  Rh24  1  0.671392  0.328608  0.000000  1
  Rh  Rh25  1  0.328608  0.671392  0.000000  1
  Rh  Rh26  1  0.328608  0.671392  0.500000  1
  Rh  Rh27  1  0.671392  0.328608  0.500000  1
