# generated using pymatgen
data_HfSc3(Rh5Pb)2
_symmetry_space_group_name_H-M   'P 1'
_cell_length_a   4.17682800
_cell_length_b   5.62818342
_cell_length_c   11.19492675
_cell_angle_alpha   89.95691514
_cell_angle_beta   90.00000000
_cell_angle_gamma   90.00000000
_symmetry_Int_Tables_number   1
_chemical_formula_structural   HfSc3(Rh5Pb)2
_chemical_formula_sum   'Hf1 Sc3 Rh10 Pb2'
_cell_volume   263.16974972
_cell_formula_units_Z   1
loop_
 _symmetry_equiv_pos_site_id
 _symmetry_equiv_pos_as_xyz
  1  'x, y, z'
loop_
 _atom_site_type_symbol
 _atom_site_label
 _atom_site_symmetry_multiplicity
 _atom_site_fract_x
 _atom_site_fract_y
 _atom_site_fract_z
 _atom_site_occupancy
  Hf  Hf0  1  0.500000  0.311854  0.140704  1
  Sc  Sc1  1  0.500000  0.191168  0.640722  1
  Sc  Sc2  1  0.500000  0.810757  0.361517  1
  Sc  Sc3  1  0.500000  0.689969  0.857988  1
  Rh  Rh4  1  0.500000  0.216352  0.882475  1
  Rh  Rh5  1  0.500000  0.787730  0.120799  1
  Rh  Rh6  1  0.500000  0.715995  0.620384  1
  Rh  Rh7  1  0.500000  0.286229  0.378427  1
  Rh  Rh8  1  0.000000  0.448940  0.753630  1
  Rh  Rh9  1  0.000000  0.550856  0.247333  1
  Rh  Rh10  1  0.000000  0.000092  0.499471  1
  Rh  Rh11  1  0.000000  0.494420  0.001553  1
  Rh  Rh12  1  0.000000  0.053314  0.250610  1
  Rh  Rh13  1  0.000000  0.949914  0.746197  1
  Pb  Pb14  1  0.000000  0.499516  0.500736  1
  Pb  Pb15  1  0.000000  0.992895  0.997455  1
