# generated using pymatgen
data_Dy3Sc3Bi2Ru
_symmetry_space_group_name_H-M   'P 1'
_cell_length_a   7.99536810
_cell_length_b   7.99528756
_cell_length_c   4.20780400
_cell_angle_alpha   90.00000000
_cell_angle_beta   90.00000000
_cell_angle_gamma   119.99741991
_symmetry_Int_Tables_number   1
_chemical_formula_structural   Dy3Sc3Bi2Ru
_chemical_formula_sum   'Dy3 Sc3 Bi2 Ru1'
_cell_volume   232.95389478
_cell_formula_units_Z   1
loop_
 _symmetry_equiv_pos_site_id
 _symmetry_equiv_pos_as_xyz
  1  'x, y, z'
loop_
 _atom_site_type_symbol
 _atom_site_label
 _atom_site_symmetry_multiplicity
 _atom_site_fract_x
 _atom_site_fract_y
 _atom_site_fract_z
 _atom_site_occupancy
  Dy  Dy0  1  0.612816  0.000004  0.000000  1
  Dy  Dy1  1  0.999999  0.612776  0.000000  1
  Dy  Dy2  1  0.387138  0.387142  0.000000  1
  Sc  Sc3  1  0.223652  0.000023  0.500000  1
  Sc  Sc4  1  0.000012  0.223636  0.500000  1
  Sc  Sc5  1  0.776390  0.776400  0.500000  1
  Bi  Bi6  1  0.333349  0.666666  0.500000  1
  Bi  Bi7  1  0.666661  0.333351  0.500000  1
  Ru  Ru8  1  0.999986  0.000002  0.000000  1
