# generated using pymatgen
data_Zr10GeBiAsPb5
_symmetry_space_group_name_H-M   'P 1'
_cell_length_a   8.87170202
_cell_length_b   8.87170429
_cell_length_c   5.96382500
_cell_angle_alpha   90.00392662
_cell_angle_beta   90.00392662
_cell_angle_gamma   119.81623266
_symmetry_Int_Tables_number   1
_chemical_formula_structural   Zr10GeBiAsPb5
_chemical_formula_sum   'Zr10 Ge1 Bi1 As1 Pb5'
_cell_volume   407.25906312
_cell_formula_units_Z   1
loop_
 _symmetry_equiv_pos_site_id
 _symmetry_equiv_pos_as_xyz
  1  'x, y, z'
loop_
 _atom_site_type_symbol
 _atom_site_label
 _atom_site_symmetry_multiplicity
 _atom_site_fract_x
 _atom_site_fract_y
 _atom_site_fract_z
 _atom_site_occupancy
  Zr  Zr0  1  0.666578  0.333182  0.000396  1
  Zr  Zr1  1  0.333182  0.666578  0.000396  1
  Zr  Zr2  1  0.333214  0.667059  0.499552  1
  Zr  Zr3  1  0.667059  0.333214  0.499552  1
  Zr  Zr4  1  0.739933  0.739933  0.749263  1
  Zr  Zr5  1  0.259684  0.999612  0.749663  1
  Zr  Zr6  1  0.999612  0.259684  0.749663  1
  Zr  Zr7  1  0.260650  0.260650  0.250497  1
  Zr  Zr8  1  0.739827  0.999241  0.250465  1
  Zr  Zr9  1  0.999241  0.739827  0.250465  1
  Ge  Ge10  1  0.999755  0.999755  0.999873  1
  Bi  Bi11  1  0.394005  0.394005  0.750249  1
  As  As12  1  0.999937  0.999937  0.500246  1
  Pb  Pb13  1  0.606854  0.999781  0.749915  1
  Pb  Pb14  1  0.999781  0.606854  0.749915  1
  Pb  Pb15  1  0.608436  0.608436  0.249873  1
  Pb  Pb16  1  0.392669  0.999585  0.250005  1
  Pb  Pb17  1  0.999585  0.392669  0.250005  1
