# generated using pymatgen
data_Gd3YC5
_symmetry_space_group_name_H-M   'P 1'
_cell_length_a   3.70162900
_cell_length_b   6.66076906
_cell_length_c   12.08447736
_cell_angle_alpha   88.85110911
_cell_angle_beta   90.00000000
_cell_angle_gamma   90.00000000
_symmetry_Int_Tables_number   1
_chemical_formula_structural   Gd3YC5
_chemical_formula_sum   'Gd6 Y2 C10'
_cell_volume   297.89130112
_cell_formula_units_Z   2
loop_
 _symmetry_equiv_pos_site_id
 _symmetry_equiv_pos_as_xyz
  1  'x, y, z'
loop_
 _atom_site_type_symbol
 _atom_site_label
 _atom_site_symmetry_multiplicity
 _atom_site_fract_x
 _atom_site_fract_y
 _atom_site_fract_z
 _atom_site_occupancy
  Gd  Gd0  1  0.000000  0.254487  0.543262  1
  Gd  Gd1  1  0.000000  0.745513  0.456738  1
  Gd  Gd2  1  0.000000  0.753680  0.958333  1
  Gd  Gd3  1  0.000000  0.246320  0.041667  1
  Gd  Gd4  1  0.500000  0.104880  0.802781  1
  Gd  Gd5  1  0.500000  0.895120  0.197219  1
  Y  Y6  1  0.500000  0.610604  0.694767  1
  Y  Y7  1  0.500000  0.389396  0.305233  1
  C  C8  1  0.500000  0.500000  0.500000  1
  C  C9  1  0.500000  0.000000  0.000000  1
  C  C10  1  0.000000  0.360097  0.737637  1
  C  C11  1  0.000000  0.639903  0.262363  1
  C  C12  1  0.000000  0.862075  0.764329  1
  C  C13  1  0.000000  0.137925  0.235671  1
  C  C14  1  0.000000  0.423680  0.840905  1
  C  C15  1  0.000000  0.576320  0.159095  1
  C  C16  1  0.000000  0.112767  0.345451  1
  C  C17  1  0.000000  0.887233  0.654549  1
