# generated using pymatgen
data_Ac8Ho12SnPb15
_symmetry_space_group_name_H-M   'P 1'
_cell_length_a   8.40465100
_cell_length_b   8.48272757
_cell_length_c   16.01362500
_cell_angle_alpha   90.00000000
_cell_angle_beta   90.00000000
_cell_angle_gamma   89.82946452
_symmetry_Int_Tables_number   1
_chemical_formula_structural   Ac8Ho12SnPb15
_chemical_formula_sum   'Ac8 Ho12 Sn1 Pb15'
_cell_volume   1141.67616528
_cell_formula_units_Z   1
loop_
 _symmetry_equiv_pos_site_id
 _symmetry_equiv_pos_as_xyz
  1  'x, y, z'
loop_
 _atom_site_type_symbol
 _atom_site_label
 _atom_site_symmetry_multiplicity
 _atom_site_fract_x
 _atom_site_fract_y
 _atom_site_fract_z
 _atom_site_occupancy
  Ac  Ac0  1  0.521066  0.324657  0.904137  1
  Ac  Ac1  1  0.021646  0.177336  0.595394  1
  Ac  Ac2  1  0.478178  0.676985  0.404239  1
  Ac  Ac3  1  0.978498  0.822881  0.095212  1
  Ac  Ac4  1  0.478178  0.676985  0.095761  1
  Ac  Ac5  1  0.978498  0.822881  0.404788  1
  Ac  Ac6  1  0.521066  0.324657  0.595863  1
  Ac  Ac7  1  0.021646  0.177336  0.904606  1
  Ho  Ho8  1  0.365268  0.839681  0.874623  1
  Ho  Ho9  1  0.859496  0.657200  0.623868  1
  Ho  Ho10  1  0.637576  0.157609  0.376103  1
  Ho  Ho11  1  0.137883  0.342813  0.123444  1
  Ho  Ho12  1  0.637576  0.157609  0.123897  1
  Ho  Ho13  1  0.137883  0.342813  0.376556  1
  Ho  Ho14  1  0.365268  0.839681  0.625377  1
  Ho  Ho15  1  0.859496  0.657200  0.876132  1
  Ho  Ho16  1  0.199547  0.507040  0.750000  1
  Ho  Ho17  1  0.696053  0.992500  0.750000  1
  Ho  Ho18  1  0.803241  0.494729  0.250000  1
  Ho  Ho19  1  0.302832  0.005607  0.250000  1
  Sn  Sn20  1  0.559981  0.633888  0.750000  1
  Pb  Pb21  1  0.305535  0.045560  0.045001  1
  Pb  Pb22  1  0.804440  0.453414  0.454466  1
  Pb  Pb23  1  0.694522  0.954647  0.545363  1
  Pb  Pb24  1  0.194812  0.546954  0.954337  1
  Pb  Pb25  1  0.694522  0.954647  0.954637  1
  Pb  Pb26  1  0.194812  0.546954  0.545663  1
  Pb  Pb27  1  0.305535  0.045560  0.454999  1
  Pb  Pb28  1  0.804440  0.453414  0.045534  1
  Pb  Pb29  1  0.056808  0.865533  0.750000  1
  Pb  Pb30  1  0.442244  0.365440  0.250000  1
  Pb  Pb31  1  0.943093  0.134931  0.250000  1
  Pb  Pb32  1  0.331836  0.144414  0.750000  1
  Pb  Pb33  1  0.830842  0.356569  0.750000  1
  Pb  Pb34  1  0.668046  0.855593  0.250000  1
  Pb  Pb35  1  0.167633  0.644281  0.250000  1
