# generated using pymatgen
data_Rb2TiHgSe4
_symmetry_space_group_name_H-M   'P 1'
_cell_length_a   14.44905619
_cell_length_b   12.86085925
_cell_length_c   7.92063031
_cell_angle_alpha   84.54633040
_cell_angle_beta   62.38150498
_cell_angle_gamma   33.07216057
_symmetry_Int_Tables_number   1
_chemical_formula_structural   Rb2TiHgSe4
_chemical_formula_sum   'Rb4 Ti2 Hg2 Se8'
_cell_volume   565.63383111
_cell_formula_units_Z   2
loop_
 _symmetry_equiv_pos_site_id
 _symmetry_equiv_pos_as_xyz
  1  'x, y, z'
loop_
 _atom_site_type_symbol
 _atom_site_label
 _atom_site_symmetry_multiplicity
 _atom_site_fract_x
 _atom_site_fract_y
 _atom_site_fract_z
 _atom_site_occupancy
  Rb  Rb0  1  0.679862  0.679862  0.320138  1
  Rb  Rb1  1  0.320138  0.320138  0.679862  1
  Rb  Rb2  1  0.929862  0.929862  0.570138  1
  Rb  Rb3  1  0.570138  0.570138  0.929862  1
  Ti  Ti4  1  0.750000  0.750000  0.750000  1
  Ti  Ti5  1  0.500000  0.500000  0.500000  1
  Hg  Hg6  1  0.000000  0.000000  0.000000  1
  Hg  Hg7  1  0.250000  0.250000  0.250000  1
  Se  Se8  1  0.378859  0.008781  0.920953  1
  Se  Se9  1  0.691407  0.920953  0.008781  1
  Se  Se10  1  0.920953  0.691407  0.378859  1
  Se  Se11  1  0.008781  0.378859  0.691407  1
  Se  Se12  1  0.241219  0.871141  0.558593  1
  Se  Se13  1  0.558593  0.329047  0.241219  1
  Se  Se14  1  0.329047  0.558593  0.871141  1
  Se  Se15  1  0.871141  0.241219  0.329047  1
