# generated using pymatgen
data_Y2TmMg3AgSn2
_symmetry_space_group_name_H-M   'P 1'
_cell_length_a   7.49058109
_cell_length_b   7.49058125
_cell_length_c   4.50914800
_cell_angle_alpha   90.00000000
_cell_angle_beta   90.00000000
_cell_angle_gamma   119.72168185
_symmetry_Int_Tables_number   1
_chemical_formula_structural   Y2TmMg3AgSn2
_chemical_formula_sum   'Y2 Tm1 Mg3 Ag1 Sn2'
_cell_volume   219.71885059
_cell_formula_units_Z   1
loop_
 _symmetry_equiv_pos_site_id
 _symmetry_equiv_pos_as_xyz
  1  'x, y, z'
loop_
 _atom_site_type_symbol
 _atom_site_label
 _atom_site_symmetry_multiplicity
 _atom_site_fract_x
 _atom_site_fract_y
 _atom_site_fract_z
 _atom_site_occupancy
  Y  Y0  1  0.582402  0.999284  0.000000  1
  Y  Y1  1  0.999284  0.582402  0.000000  1
  Tm  Tm2  1  0.416015  0.416015  0.000000  1
  Mg  Mg3  1  0.236635  0.000713  0.500000  1
  Mg  Mg4  1  0.000713  0.236635  0.500000  1
  Mg  Mg5  1  0.763018  0.763018  0.500000  1
  Ag  Ag6  1  0.002815  0.002815  0.000000  1
  Sn  Sn7  1  0.334567  0.664552  0.500000  1
  Sn  Sn8  1  0.664552  0.334567  0.500000  1
