# generated using pymatgen
data_Pr10Bi6P
_symmetry_space_group_name_H-M   'P 1'
_cell_length_a   6.53770701
_cell_length_b   9.60206006
_cell_length_c   9.60117300
_cell_angle_alpha   120.00306595
_cell_angle_beta   90.00234872
_cell_angle_gamma   89.99529901
_symmetry_Int_Tables_number   1
_chemical_formula_structural   Pr10Bi6P
_chemical_formula_sum   'Pr10 Bi6 P1'
_cell_volume   521.95297660
_cell_formula_units_Z   1
loop_
 _symmetry_equiv_pos_site_id
 _symmetry_equiv_pos_as_xyz
  1  'x, y, z'
loop_
 _atom_site_type_symbol
 _atom_site_label
 _atom_site_symmetry_multiplicity
 _atom_site_fract_x
 _atom_site_fract_y
 _atom_site_fract_z
 _atom_site_occupancy
  Pr  Pr0  1  0.499999  0.333320  0.666642  1
  Pr  Pr1  1  0.499999  0.666678  0.333358  1
  Pr  Pr2  1  0.000010  0.666677  0.333361  1
  Pr  Pr3  1  0.000010  0.333315  0.666639  1
  Pr  Pr4  1  0.747952  0.247626  0.000000  1
  Pr  Pr5  1  0.747942  0.752337  0.752334  1
  Pr  Pr6  1  0.747942  0.000002  0.247666  1
  Pr  Pr7  1  0.252043  0.752375  0.000000  1
  Pr  Pr8  1  0.252056  0.247666  0.247668  1
  Pr  Pr9  1  0.252056  0.999999  0.752332  1
  Bi  Bi10  1  0.749984  0.609650  0.000000  1
  Bi  Bi11  1  0.750030  0.390369  0.390361  1
  Bi  Bi12  1  0.750030  0.000008  0.609639  1
  Bi  Bi13  1  0.250013  0.390353  0.000000  1
  Bi  Bi14  1  0.249967  0.609633  0.609639  1
  Bi  Bi15  1  0.249967  0.999993  0.390361  1
  P  P16  1  0.499998  0.000002  0.000000  1
