# generated using pymatgen
data_Pr8Nd2Ir5Ru
_symmetry_space_group_name_H-M   'P 1'
_cell_length_a   11.33474300
_cell_length_b   11.33474300
_cell_length_c   6.63406800
_cell_angle_alpha   90.00000000
_cell_angle_beta   90.00000000
_cell_angle_gamma   90.00000000
_symmetry_Int_Tables_number   1
_chemical_formula_structural   Pr8Nd2Ir5Ru
_chemical_formula_sum   'Pr16 Nd4 Ir10 Ru2'
_cell_volume   852.32116654
_cell_formula_units_Z   2
loop_
 _symmetry_equiv_pos_site_id
 _symmetry_equiv_pos_as_xyz
  1  'x, y, z'
loop_
 _atom_site_type_symbol
 _atom_site_label
 _atom_site_symmetry_multiplicity
 _atom_site_fract_x
 _atom_site_fract_y
 _atom_site_fract_z
 _atom_site_occupancy
  Pr  Pr0  1  0.088546  0.291955  0.117316  1
  Pr  Pr1  1  0.791955  0.411454  0.117316  1
  Pr  Pr2  1  0.208045  0.588546  0.117316  1
  Pr  Pr3  1  0.911454  0.708045  0.117316  1
  Pr  Pr4  1  0.411454  0.791955  0.382684  1
  Pr  Pr5  1  0.588546  0.208045  0.382684  1
  Pr  Pr6  1  0.291955  0.088546  0.382684  1
  Pr  Pr7  1  0.708045  0.911454  0.382684  1
  Pr  Pr8  1  0.410878  0.207945  0.885151  1
  Pr  Pr9  1  0.707945  0.089122  0.885151  1
  Pr  Pr10  1  0.292055  0.910878  0.885151  1
  Pr  Pr11  1  0.589122  0.792055  0.885151  1
  Pr  Pr12  1  0.089122  0.707945  0.614849  1
  Pr  Pr13  1  0.910878  0.292055  0.614849  1
  Pr  Pr14  1  0.207945  0.410878  0.614849  1
  Pr  Pr15  1  0.792055  0.589122  0.614849  1
  Nd  Nd16  1  0.000000  0.000000  0.999738  1
  Nd  Nd17  1  0.500000  0.500000  0.999738  1
  Nd  Nd18  1  0.500000  0.500000  0.500262  1
  Nd  Nd19  1  0.000000  0.000000  0.500262  1
  Ir  Ir20  1  0.153065  0.846935  0.250000  1
  Ir  Ir21  1  0.346935  0.346935  0.250000  1
  Ir  Ir22  1  0.653065  0.653065  0.250000  1
  Ir  Ir23  1  0.846935  0.153065  0.250000  1
  Ir  Ir24  1  0.347307  0.652693  0.750000  1
  Ir  Ir25  1  0.152693  0.152693  0.750000  1
  Ir  Ir26  1  0.847307  0.847307  0.750000  1
  Ir  Ir27  1  0.652693  0.347307  0.750000  1
  Ir  Ir28  1  0.500000  0.000000  0.621279  1
  Ir  Ir29  1  0.000000  0.500000  0.878721  1
  Ru  Ru30  1  0.000000  0.500000  0.380162  1
  Ru  Ru31  1  0.500000  0.000000  0.119838  1
