# generated using pymatgen
data_Nb4Co4Si3P
_symmetry_space_group_name_H-M   'P 1'
_cell_length_a   3.63758200
_cell_length_b   6.21370280
_cell_length_c   7.04716000
_cell_angle_alpha   89.91330914
_cell_angle_beta   90.00000000
_cell_angle_gamma   90.00000000
_symmetry_Int_Tables_number   1
_chemical_formula_structural   Nb4Co4Si3P
_chemical_formula_sum   'Nb4 Co4 Si3 P1'
_cell_volume   159.28574227
_cell_formula_units_Z   1
loop_
 _symmetry_equiv_pos_site_id
 _symmetry_equiv_pos_as_xyz
  1  'x, y, z'
loop_
 _atom_site_type_symbol
 _atom_site_label
 _atom_site_symmetry_multiplicity
 _atom_site_fract_x
 _atom_site_fract_y
 _atom_site_fract_z
 _atom_site_occupancy
  Nb  Nb0  1  0.250000  0.022704  0.822782  1
  Nb  Nb1  1  0.250000  0.524233  0.675721  1
  Nb  Nb2  1  0.750000  0.976386  0.179640  1
  Nb  Nb3  1  0.750000  0.480543  0.321975  1
  Co  Co4  1  0.250000  0.136989  0.437410  1
  Co  Co5  1  0.250000  0.643609  0.066554  1
  Co  Co6  1  0.750000  0.856108  0.557361  1
  Co  Co7  1  0.750000  0.358679  0.937986  1
  Si  Si8  1  0.250000  0.275654  0.118715  1
  Si  Si9  1  0.750000  0.225175  0.618764  1
  Si  Si10  1  0.750000  0.724037  0.881373  1
  P  P11  1  0.250000  0.775883  0.381719  1
