# generated using pymatgen
data_Tb2ErCo8P6Ru
_symmetry_space_group_name_H-M   'P 1'
_cell_length_a   3.71087100
_cell_length_b   10.52996900
_cell_length_c   12.26888300
_cell_angle_alpha   90.00000000
_cell_angle_beta   90.00000000
_cell_angle_gamma   90.00000000
_symmetry_Int_Tables_number   1
_chemical_formula_structural   Tb2ErCo8P6Ru
_chemical_formula_sum   'Tb4 Er2 Co16 P12 Ru2'
_cell_volume   479.41097822
_cell_formula_units_Z   2
loop_
 _symmetry_equiv_pos_site_id
 _symmetry_equiv_pos_as_xyz
  1  'x, y, z'
loop_
 _atom_site_type_symbol
 _atom_site_label
 _atom_site_symmetry_multiplicity
 _atom_site_fract_x
 _atom_site_fract_y
 _atom_site_fract_z
 _atom_site_occupancy
  Tb  Tb0  1  0.000000  0.500000  0.523827  1
  Tb  Tb1  1  0.500000  0.000000  0.475347  1
  Tb  Tb2  1  0.000000  0.683381  0.793361  1
  Tb  Tb3  1  0.000000  0.316619  0.793361  1
  Er  Er4  1  0.500000  0.817077  0.206790  1
  Er  Er5  1  0.500000  0.182923  0.206790  1
  Co  Co6  1  0.500000  0.500000  0.704286  1
  Co  Co7  1  0.000000  0.000000  0.295153  1
  Co  Co8  1  0.000000  0.500000  0.987217  1
  Co  Co9  1  0.500000  0.000000  0.014833  1
  Co  Co10  1  0.500000  0.331990  0.991481  1
  Co  Co11  1  0.500000  0.668010  0.991481  1
  Co  Co12  1  0.000000  0.167183  0.010465  1
  Co  Co13  1  0.000000  0.832817  0.010465  1
  Co  Co14  1  0.500000  0.296902  0.430031  1
  Co  Co15  1  0.500000  0.703098  0.430031  1
  Co  Co16  1  0.000000  0.202742  0.568262  1
  Co  Co17  1  0.000000  0.797258  0.568262  1
  Co  Co18  1  0.500000  0.879556  0.707702  1
  Co  Co19  1  0.500000  0.120444  0.707702  1
  Co  Co20  1  0.000000  0.621280  0.291406  1
  Co  Co21  1  0.000000  0.378720  0.291406  1
  P  P22  1  0.500000  0.500000  0.883140  1
  P  P23  1  0.000000  0.000000  0.118703  1
  P  P24  1  0.500000  0.500000  0.349179  1
  P  P25  1  0.000000  0.000000  0.650454  1
  P  P26  1  0.500000  0.310545  0.615449  1
  P  P27  1  0.500000  0.689455  0.615449  1
  P  P28  1  0.000000  0.188860  0.382643  1
  P  P29  1  0.000000  0.811140  0.382643  1
  P  P30  1  0.500000  0.847183  0.894193  1
  P  P31  1  0.500000  0.152817  0.894193  1
  P  P32  1  0.000000  0.654165  0.107039  1
  P  P33  1  0.000000  0.345835  0.107039  1
  Ru  Ru34  1  0.500000  0.500000  0.159237  1
  Ru  Ru35  1  0.000000  0.000000  0.840978  1
