# generated using pymatgen
data_Ce2ZnSi4Ag
_symmetry_space_group_name_H-M   'P 1'
_cell_length_a   9.18528383
_cell_length_b   9.18528326
_cell_length_c   4.11515500
_cell_angle_alpha   90.00000000
_cell_angle_beta   90.00000000
_cell_angle_gamma   153.93898771
_symmetry_Int_Tables_number   1
_chemical_formula_structural   Ce2ZnSi4Ag
_chemical_formula_sum   'Ce2 Zn1 Si4 Ag1'
_cell_volume   152.53173446
_cell_formula_units_Z   1
loop_
 _symmetry_equiv_pos_site_id
 _symmetry_equiv_pos_as_xyz
  1  'x, y, z'
loop_
 _atom_site_type_symbol
 _atom_site_label
 _atom_site_symmetry_multiplicity
 _atom_site_fract_x
 _atom_site_fract_y
 _atom_site_fract_z
 _atom_site_occupancy
  Ce  Ce0  1  0.595573  0.404427  0.250000  1
  Ce  Ce1  1  0.404007  0.595993  0.750000  1
  Zn  Zn2  1  0.250535  0.749465  0.250000  1
  Si  Si3  1  0.968194  0.031806  0.250000  1
  Si  Si4  1  0.032184  0.967816  0.750000  1
  Si  Si5  1  0.837250  0.162750  0.250000  1
  Si  Si6  1  0.163090  0.836910  0.750000  1
  Ag  Ag7  1  0.749166  0.250834  0.750000  1
