# generated using pymatgen
data_Zr10ZnGaSn2Bi3Pb
_symmetry_space_group_name_H-M   'P 1'
_cell_length_a   8.80970225
_cell_length_b   8.80970259
_cell_length_c   5.93762700
_cell_angle_alpha   90.01376836
_cell_angle_beta   90.01377487
_cell_angle_gamma   119.97779641
_symmetry_Int_Tables_number   1
_chemical_formula_structural   Zr10ZnGaSn2Bi3Pb
_chemical_formula_sum   'Zr10 Zn1 Ga1 Sn2 Bi3 Pb1'
_cell_volume   399.17478108
_cell_formula_units_Z   1
loop_
 _symmetry_equiv_pos_site_id
 _symmetry_equiv_pos_as_xyz
  1  'x, y, z'
loop_
 _atom_site_type_symbol
 _atom_site_label
 _atom_site_symmetry_multiplicity
 _atom_site_fract_x
 _atom_site_fract_y
 _atom_site_fract_z
 _atom_site_occupancy
  Zr  Zr0  1  0.666592  0.330896  0.004213  1
  Zr  Zr1  1  0.330896  0.666592  0.004213  1
  Zr  Zr2  1  0.330995  0.666879  0.495626  1
  Zr  Zr3  1  0.666879  0.330995  0.495626  1
  Zr  Zr4  1  0.739677  0.739677  0.749621  1
  Zr  Zr5  1  0.261673  0.998670  0.749424  1
  Zr  Zr6  1  0.998670  0.261673  0.749424  1
  Zr  Zr7  1  0.269533  0.269533  0.251192  1
  Zr  Zr8  1  0.730452  0.004804  0.251336  1
  Zr  Zr9  1  0.004804  0.730452  0.251336  1
  Zn  Zn10  1  0.999785  0.999785  0.487761  1
  Ga  Ga11  1  0.000095  0.000095  0.010682  1
  Sn  Sn12  1  0.383946  0.000477  0.251727  1
  Sn  Sn13  1  0.000477  0.383946  0.251727  1
  Bi  Bi14  1  0.389785  0.389785  0.747911  1
  Bi  Bi15  1  0.608262  0.998435  0.748585  1
  Bi  Bi16  1  0.998435  0.608262  0.748585  1
  Pb  Pb17  1  0.619041  0.619041  0.251010  1
