# generated using pymatgen
data_Pr5ErAl24(Ir3Os)2
_symmetry_space_group_name_H-M   'P 1'
_cell_length_a   8.87878800
_cell_length_b   8.92447254
_cell_length_c   9.65666700
_cell_angle_alpha   90.00000000
_cell_angle_beta   90.00000000
_cell_angle_gamma   119.83080820
_symmetry_Int_Tables_number   1
_chemical_formula_structural   Pr5ErAl24(Ir3Os)2
_chemical_formula_sum   'Pr5 Er1 Al24 Ir6 Os2'
_cell_volume   663.79202951
_cell_formula_units_Z   1
loop_
 _symmetry_equiv_pos_site_id
 _symmetry_equiv_pos_as_xyz
  1  'x, y, z'
loop_
 _atom_site_type_symbol
 _atom_site_label
 _atom_site_symmetry_multiplicity
 _atom_site_fract_x
 _atom_site_fract_y
 _atom_site_fract_z
 _atom_site_occupancy
  Pr  Pr0  1  0.809078  0.618156  0.750000  1
  Pr  Pr1  1  0.621921  0.810922  0.250000  1
  Pr  Pr2  1  0.378870  0.188558  0.750000  1
  Pr  Pr3  1  0.189001  0.810922  0.250000  1
  Pr  Pr4  1  0.809688  0.188558  0.750000  1
  Er  Er5  1  0.195304  0.390609  0.250000  1
  Al  Al6  1  0.333108  0.666217  0.026888  1
  Al  Al7  1  0.666008  0.332016  0.977452  1
  Al  Al8  1  0.666008  0.332016  0.522548  1
  Al  Al9  1  0.333108  0.666217  0.473112  1
  Al  Al10  1  0.163845  0.327689  0.570568  1
  Al  Al11  1  0.835619  0.671239  0.425498  1
  Al  Al12  1  0.670919  0.834681  0.574199  1
  Al  Al13  1  0.835619  0.671239  0.074502  1
  Al  Al14  1  0.326805  0.165710  0.423370  1
  Al  Al15  1  0.163845  0.327689  0.929432  1
  Al  Al16  1  0.163763  0.834681  0.574199  1
  Al  Al17  1  0.326805  0.165710  0.076630  1
  Al  Al18  1  0.838903  0.165710  0.423370  1
  Al  Al19  1  0.670919  0.834681  0.925801  1
  Al  Al20  1  0.838903  0.165710  0.076630  1
  Al  Al21  1  0.163763  0.834681  0.925801  1
  Al  Al22  1  0.563406  0.126813  0.250000  1
  Al  Al23  1  0.436055  0.872109  0.750000  1
  Al  Al24  1  0.875399  0.436929  0.250000  1
  Al  Al25  1  0.126296  0.561358  0.750000  1
  Al  Al26  1  0.561530  0.436929  0.250000  1
  Al  Al27  1  0.435063  0.561358  0.750000  1
  Al  Al28  1  0.006282  0.012563  0.250000  1
  Al  Al29  1  0.998677  0.997354  0.750000  1
  Ir  Ir30  1  0.499573  0.999146  0.000564  1
  Ir  Ir31  1  0.001056  0.498581  0.001866  1
  Ir  Ir32  1  0.499573  0.999146  0.499436  1
  Ir  Ir33  1  0.497525  0.498581  0.001866  1
  Ir  Ir34  1  0.001056  0.498581  0.498134  1
  Ir  Ir35  1  0.497525  0.498581  0.498134  1
  Os  Os36  1  0.999590  0.999181  0.000358  1
  Os  Os37  1  0.999590  0.999181  0.499642  1
