# generated using pymatgen
data_C(S8Cl)3
_symmetry_space_group_name_H-M   'P 1'
_cell_length_a   15.14356866
_cell_length_b   15.14357034
_cell_length_c   15.14356935
_cell_angle_alpha   118.44916077
_cell_angle_beta   118.44916585
_cell_angle_gamma   118.44917491
_symmetry_Int_Tables_number   1
_chemical_formula_structural   C(S8Cl)3
_chemical_formula_sum   'C1 S24 Cl3'
_cell_volume   1114.41711408
_cell_formula_units_Z   1
loop_
 _symmetry_equiv_pos_site_id
 _symmetry_equiv_pos_as_xyz
  1  'x, y, z'
loop_
 _atom_site_type_symbol
 _atom_site_label
 _atom_site_symmetry_multiplicity
 _atom_site_fract_x
 _atom_site_fract_y
 _atom_site_fract_z
 _atom_site_occupancy
  C  C0  1  0.907315  0.907315  0.907315  1
  S  S1  1  0.797411  0.513760  0.513760  1
  S  S2  1  0.513760  0.513760  0.797411  1
  S  S3  1  0.513760  0.797411  0.513760  1
  S  S4  1  0.256055  0.385131  0.645610  1
  S  S5  1  0.336453  0.936604  0.336453  1
  S  S6  1  0.336453  0.336453  0.936604  1
  S  S7  1  0.936604  0.336453  0.336453  1
  S  S8  1  0.131821  0.744150  0.261113  1
  S  S9  1  0.261113  0.131821  0.744150  1
  S  S10  1  0.744150  0.261113  0.131821  1
  S  S11  1  0.744150  0.131821  0.261113  1
  S  S12  1  0.261113  0.744150  0.131821  1
  S  S13  1  0.131821  0.261113  0.744150  1
  S  S14  1  0.337370  0.870313  0.519449  1
  S  S15  1  0.519449  0.337370  0.870313  1
  S  S16  1  0.870313  0.519449  0.337370  1
  S  S17  1  0.870313  0.337370  0.519449  1
  S  S18  1  0.519449  0.870313  0.337370  1
  S  S19  1  0.337370  0.519449  0.870313  1
  S  S20  1  0.256055  0.645610  0.385131  1
  S  S21  1  0.385131  0.256055  0.645610  1
  S  S22  1  0.645610  0.385131  0.256055  1
  S  S23  1  0.645610  0.256055  0.385131  1
  S  S24  1  0.385131  0.645610  0.256055  1
  Cl  Cl25  1  0.885707  0.997906  0.997906  1
  Cl  Cl26  1  0.997906  0.997906  0.885707  1
  Cl  Cl27  1  0.997906  0.885707  0.997906  1
