# generated using pymatgen
data_Dy2Al6Si3IrOs2
_symmetry_space_group_name_H-M   'P 1'
_cell_length_a   7.46240875
_cell_length_b   7.43943594
_cell_length_c   9.40556728
_cell_angle_alpha   90.06442643
_cell_angle_beta   90.02921540
_cell_angle_gamma   119.99266032
_symmetry_Int_Tables_number   1
_chemical_formula_structural   Dy2Al6Si3IrOs2
_chemical_formula_sum   'Dy4 Al12 Si6 Ir2 Os4'
_cell_volume   452.23708875
_cell_formula_units_Z   2
loop_
 _symmetry_equiv_pos_site_id
 _symmetry_equiv_pos_as_xyz
  1  'x, y, z'
loop_
 _atom_site_type_symbol
 _atom_site_label
 _atom_site_symmetry_multiplicity
 _atom_site_fract_x
 _atom_site_fract_y
 _atom_site_fract_z
 _atom_site_occupancy
  Dy  Dy0  1  0.000347  0.665110  0.752836  1
  Dy  Dy1  1  0.999653  0.334890  0.247164  1
  Dy  Dy2  1  0.675573  0.007520  0.756175  1
  Dy  Dy3  1  0.324427  0.992480  0.243825  1
  Al  Al4  1  0.130179  0.130045  0.749831  1
  Al  Al5  1  0.869821  0.869955  0.250169  1
  Al  Al6  1  0.659953  0.995184  0.428914  1
  Al  Al7  1  0.340047  0.004816  0.571086  1
  Al  Al8  1  0.338412  0.337284  0.059872  1
  Al  Al9  1  0.661588  0.662716  0.940128  1
  Al  Al10  1  0.661694  0.665588  0.558771  1
  Al  Al11  1  0.338306  0.334412  0.441229  1
  Al  Al12  1  0.339408  0.550019  0.749783  1
  Al  Al13  1  0.660592  0.449981  0.250217  1
  Al  Al14  1  0.548919  0.342582  0.750421  1
  Al  Al15  1  0.451081  0.657418  0.249579  1
  Si  Si16  1  0.002522  0.330451  0.565717  1
  Si  Si17  1  0.997478  0.669549  0.434283  1
  Si  Si18  1  0.989758  0.662546  0.071331  1
  Si  Si19  1  0.337236  0.008274  0.923469  1
  Si  Si20  1  0.010242  0.337454  0.928669  1
  Si  Si21  1  0.662764  0.991726  0.076531  1
  Ir  Ir22  1  0.000000  0.000000  0.500000  1
  Ir  Ir23  1  0.000000  0.000000  0.000000  1
  Os  Os24  1  0.688802  0.336219  0.502162  1
  Os  Os25  1  0.311198  0.663781  0.497838  1
  Os  Os26  1  0.318475  0.681120  0.000153  1
  Os  Os27  1  0.681525  0.318880  0.999847  1
