# generated using pymatgen
data_Cd3Pd4Au
_symmetry_space_group_name_H-M   'P 1'
_cell_length_a   5.66446774
_cell_length_b   5.66446836
_cell_length_c   4.37315900
_cell_angle_alpha   90.00000000
_cell_angle_beta   90.00000000
_cell_angle_gamma   97.20100615
_symmetry_Int_Tables_number   1
_chemical_formula_structural   Cd3Pd4Au
_chemical_formula_sum   'Cd3 Pd4 Au1'
_cell_volume   139.21128840
_cell_formula_units_Z   1
loop_
 _symmetry_equiv_pos_site_id
 _symmetry_equiv_pos_as_xyz
  1  'x, y, z'
loop_
 _atom_site_type_symbol
 _atom_site_label
 _atom_site_symmetry_multiplicity
 _atom_site_fract_x
 _atom_site_fract_y
 _atom_site_fract_z
 _atom_site_occupancy
  Cd  Cd0  1  0.000000  0.000000  0.000000  1
  Cd  Cd1  1  0.263798  0.736202  0.500000  1
  Cd  Cd2  1  0.736202  0.263798  0.500000  1
  Pd  Pd3  1  0.500000  0.000000  0.000000  1
  Pd  Pd4  1  0.000000  0.500000  0.000000  1
  Pd  Pd5  1  0.235766  0.235766  0.500000  1
  Pd  Pd6  1  0.764234  0.764234  0.500000  1
  Au  Au7  1  0.500000  0.500000  0.000000  1
