# generated using pymatgen
data_Tb8Ho2Ru3Rh
_symmetry_space_group_name_H-M   'P 1'
_cell_length_a   6.39348221
_cell_length_b   7.30040508
_cell_length_c   8.54796281
_cell_angle_alpha   96.65023592
_cell_angle_beta   111.98469299
_cell_angle_gamma   90.09202420
_symmetry_Int_Tables_number   1
_chemical_formula_structural   Tb8Ho2Ru3Rh
_chemical_formula_sum   'Tb8 Ho2 Ru3 Rh1'
_cell_volume   367.03691643
_cell_formula_units_Z   1
loop_
 _symmetry_equiv_pos_site_id
 _symmetry_equiv_pos_as_xyz
  1  'x, y, z'
loop_
 _atom_site_type_symbol
 _atom_site_label
 _atom_site_symmetry_multiplicity
 _atom_site_fract_x
 _atom_site_fract_y
 _atom_site_fract_z
 _atom_site_occupancy
  Tb  Tb0  1  0.979135  0.917652  0.184978  1
  Tb  Tb1  1  0.792374  0.585146  0.811919  1
  Tb  Tb2  1  0.021481  0.084778  0.814327  1
  Tb  Tb3  1  0.208759  0.413842  0.184967  1
  Tb  Tb4  1  0.639891  0.815916  0.434854  1
  Tb  Tb5  1  0.210369  0.686091  0.568908  1
  Tb  Tb6  1  0.358265  0.185856  0.566546  1
  Tb  Tb7  1  0.792764  0.312627  0.434952  1
  Ho  Ho8  1  0.421262  0.750850  0.999464  1
  Ho  Ho9  1  0.576254  0.247830  0.998404  1
  Ru  Ru10  1  0.604195  0.923663  0.780414  1
  Ru  Ru11  1  0.176139  0.425656  0.779774  1
  Ru  Ru12  1  0.397654  0.075114  0.219995  1
  Rh  Rh13  1  0.821458  0.574980  0.220499  1
