# generated using pymatgen
data_Sc2Al2PdRh
_symmetry_space_group_name_H-M   'P 1'
_cell_length_a   4.31098600
_cell_length_b   6.40416600
_cell_length_c   7.62000400
_cell_angle_alpha   90.00000000
_cell_angle_beta   90.00000000
_cell_angle_gamma   90.00000000
_symmetry_Int_Tables_number   1
_chemical_formula_structural   Sc2Al2PdRh
_chemical_formula_sum   'Sc4 Al4 Pd2 Rh2'
_cell_volume   210.37512759
_cell_formula_units_Z   2
loop_
 _symmetry_equiv_pos_site_id
 _symmetry_equiv_pos_as_xyz
  1  'x, y, z'
loop_
 _atom_site_type_symbol
 _atom_site_label
 _atom_site_symmetry_multiplicity
 _atom_site_fract_x
 _atom_site_fract_y
 _atom_site_fract_z
 _atom_site_occupancy
  Sc  Sc0  1  0.250000  0.967526  0.321657  1
  Sc  Sc1  1  0.250000  0.467526  0.178343  1
  Sc  Sc2  1  0.750000  0.025200  0.684034  1
  Sc  Sc3  1  0.750000  0.525200  0.815966  1
  Al  Al4  1  0.250000  0.354939  0.561787  1
  Al  Al5  1  0.250000  0.854939  0.938213  1
  Al  Al6  1  0.750000  0.648512  0.441744  1
  Al  Al7  1  0.750000  0.148512  0.058256  1
  Pd  Pd8  1  0.750000  0.758056  0.118599  1
  Pd  Pd9  1  0.750000  0.258056  0.381401  1
  Rh  Rh10  1  0.250000  0.245767  0.884572  1
  Rh  Rh11  1  0.250000  0.745767  0.615428  1
