# generated using pymatgen
data_Sr2DyUO6
_symmetry_space_group_name_H-M   'P 1'
_cell_length_a   6.08791899
_cell_length_b   6.08791881
_cell_length_c   6.08791921
_cell_angle_alpha   59.96795885
_cell_angle_beta   59.96796226
_cell_angle_gamma   59.96795935
_symmetry_Int_Tables_number   1
_chemical_formula_structural   Sr2DyUO6
_chemical_formula_sum   'Sr2 Dy1 U1 O6'
_cell_volume   159.43216361
_cell_formula_units_Z   1
loop_
 _symmetry_equiv_pos_site_id
 _symmetry_equiv_pos_as_xyz
  1  'x, y, z'
loop_
 _atom_site_type_symbol
 _atom_site_label
 _atom_site_symmetry_multiplicity
 _atom_site_fract_x
 _atom_site_fract_y
 _atom_site_fract_z
 _atom_site_occupancy
  Sr  Sr0  1  0.258431  0.258431  0.258431  1
  Sr  Sr1  1  0.741569  0.741569  0.741569  1
  Dy  Dy2  1  0.000000  0.000000  0.000000  1
  U  U3  1  0.500000  0.500000  0.500000  1
  O  O4  1  0.734624  0.345678  0.167875  1
  O  O5  1  0.654323  0.832125  0.265375  1
  O  O6  1  0.167876  0.734625  0.345677  1
  O  O7  1  0.832124  0.265375  0.654323  1
  O  O8  1  0.345677  0.167875  0.734625  1
  O  O9  1  0.265376  0.654322  0.832125  1
