# generated using pymatgen
data_Ho4Lu4Mn(B8Os)3
_symmetry_space_group_name_H-M   'P 1'
_cell_length_a   3.59326500
_cell_length_b   9.04963944
_cell_length_c   11.43521710
_cell_angle_alpha   90.02479386
_cell_angle_beta   90.00000000
_cell_angle_gamma   90.00000000
_symmetry_Int_Tables_number   1
_chemical_formula_structural   Ho4Lu4Mn(B8Os)3
_chemical_formula_sum   'Ho4 Lu4 Mn1 B24 Os3'
_cell_volume   371.84752629
_cell_formula_units_Z   1
loop_
 _symmetry_equiv_pos_site_id
 _symmetry_equiv_pos_as_xyz
  1  'x, y, z'
loop_
 _atom_site_type_symbol
 _atom_site_label
 _atom_site_symmetry_multiplicity
 _atom_site_fract_x
 _atom_site_fract_y
 _atom_site_fract_z
 _atom_site_occupancy
  Ho  Ho0  1  0.000000  0.324663  0.412657  1
  Ho  Ho1  1  0.000000  0.677398  0.581888  1
  Ho  Ho2  1  0.000000  0.819411  0.088524  1
  Ho  Ho3  1  0.000000  0.178709  0.915033  1
  Lu  Lu4  1  0.000000  0.939694  0.371723  1
  Lu  Lu5  1  0.000000  0.056463  0.626717  1
  Lu  Lu6  1  0.000000  0.446349  0.130460  1
  Lu  Lu7  1  0.000000  0.556639  0.872713  1
  Mn  Mn8  1  0.000000  0.637981  0.320335  1
  B  B9  1  0.500000  0.554392  0.431300  1
  B  B10  1  0.500000  0.446614  0.566361  1
  B  B11  1  0.500000  0.053901  0.067396  1
  B  B12  1  0.500000  0.946456  0.933218  1
  B  B13  1  0.500000  0.747196  0.417370  1
  B  B14  1  0.500000  0.250627  0.580100  1
  B  B15  1  0.500000  0.250465  0.081264  1
  B  B16  1  0.500000  0.750580  0.919675  1
  B  B17  1  0.500000  0.789634  0.266378  1
  B  B18  1  0.500000  0.208347  0.734087  1
  B  B19  1  0.500000  0.292267  0.234704  1
  B  B20  1  0.500000  0.708459  0.765536  1
  B  B21  1  0.500000  0.630673  0.186514  1
  B  B22  1  0.500000  0.369663  0.815637  1
  B  B23  1  0.500000  0.130016  0.315337  1
  B  B24  1  0.500000  0.869349  0.684135  1
  B  B25  1  0.500000  0.981235  0.213490  1
  B  B26  1  0.500000  0.018189  0.786722  1
  B  B27  1  0.500000  0.484600  0.287762  1
  B  B28  1  0.500000  0.518178  0.712971  1
  B  B29  1  0.500000  0.603637  0.029054  1
  B  B30  1  0.500000  0.397210  0.972146  1
  B  B31  1  0.500000  0.103038  0.470963  1
  B  B32  1  0.500000  0.895976  0.528108  1
  Os  Os33  1  0.000000  0.361652  0.679947  1
  Os  Os34  1  0.000000  0.138095  0.179317  1
  Os  Os35  1  0.000000  0.862250  0.820456  1
