# generated using pymatgen
data_SmEu3Ni4(SnH)4
_symmetry_space_group_name_H-M   'P 1'
_cell_length_a   4.35191800
_cell_length_b   7.27273428
_cell_length_c   8.51032215
_cell_angle_alpha   90.16034716
_cell_angle_beta   90.00000000
_cell_angle_gamma   90.00000000
_symmetry_Int_Tables_number   1
_chemical_formula_structural   SmEu3Ni4(SnH)4
_chemical_formula_sum   'Sm1 Eu3 Ni4 Sn4 H4'
_cell_volume   269.35356207
_cell_formula_units_Z   1
loop_
 _symmetry_equiv_pos_site_id
 _symmetry_equiv_pos_as_xyz
  1  'x, y, z'
loop_
 _atom_site_type_symbol
 _atom_site_label
 _atom_site_symmetry_multiplicity
 _atom_site_fract_x
 _atom_site_fract_y
 _atom_site_fract_z
 _atom_site_occupancy
  Sm  Sm0  1  0.750000  0.510812  0.817986  1
  Eu  Eu1  1  0.750000  0.011914  0.682940  1
  Eu  Eu2  1  0.250000  0.987205  0.314154  1
  Eu  Eu3  1  0.250000  0.488221  0.187605  1
  Ni  Ni4  1  0.750000  0.780563  0.094743  1
  Ni  Ni5  1  0.250000  0.224401  0.895658  1
  Ni  Ni6  1  0.250000  0.716007  0.608692  1
  Ni  Ni7  1  0.750000  0.281589  0.399271  1
  Sn  Sn8  1  0.750000  0.648924  0.436159  1
  Sn  Sn9  1  0.250000  0.348618  0.571004  1
  Sn  Sn10  1  0.250000  0.848989  0.929304  1
  Sn  Sn11  1  0.750000  0.151954  0.066109  1
  H  H12  1  0.250000  0.441408  0.917801  1
  H  H13  1  0.750000  0.563244  0.080301  1
  H  H14  1  0.750000  0.065339  0.416219  1
  H  H15  1  0.250000  0.930810  0.582056  1
