# generated using pymatgen
data_Dy5Zr3P12(Ir5Rh3)2
_symmetry_space_group_name_H-M   'P 1'
_cell_length_a   12.90668900
_cell_length_b   12.90669050
_cell_length_c   3.96029300
_cell_angle_alpha   90.00000000
_cell_angle_beta   90.00000000
_cell_angle_gamma   119.99999871
_symmetry_Int_Tables_number   1
_chemical_formula_structural   Dy5Zr3P12(Ir5Rh3)2
_chemical_formula_sum   'Dy5 Zr3 P12 Ir10 Rh6'
_cell_volume   571.33087856
_cell_formula_units_Z   1
loop_
 _symmetry_equiv_pos_site_id
 _symmetry_equiv_pos_as_xyz
  1  'x, y, z'
loop_
 _atom_site_type_symbol
 _atom_site_label
 _atom_site_symmetry_multiplicity
 _atom_site_fract_x
 _atom_site_fract_y
 _atom_site_fract_z
 _atom_site_occupancy
  Dy  Dy0  1  0.333333  0.666667  0.500000  1
  Dy  Dy1  1  0.666667  0.333333  0.500000  1
  Dy  Dy2  1  0.000000  0.814389  0.000000  1
  Dy  Dy3  1  0.185611  0.185611  0.000000  1
  Dy  Dy4  1  0.814389  0.000000  0.000000  1
  Zr  Zr5  1  0.000000  0.447876  0.500000  1
  Zr  Zr6  1  0.552124  0.552124  0.500000  1
  Zr  Zr7  1  0.447876  0.000000  0.500000  1
  P  P8  1  0.000000  0.649300  0.500000  1
  P  P9  1  0.350700  0.350700  0.500000  1
  P  P10  1  0.649300  0.000000  0.500000  1
  P  P11  1  0.517383  0.686970  0.000000  1
  P  P12  1  0.313030  0.830413  0.000000  1
  P  P13  1  0.169587  0.482617  0.000000  1
  P  P14  1  0.482617  0.169587  0.000000  1
  P  P15  1  0.686970  0.517383  0.000000  1
  P  P16  1  0.830413  0.313030  0.000000  1
  P  P17  1  0.000000  0.176160  0.500000  1
  P  P18  1  0.823840  0.823840  0.500000  1
  P  P19  1  0.176160  0.000000  0.500000  1
  Ir  Ir20  1  0.000000  0.276165  0.000000  1
  Ir  Ir21  1  0.723835  0.723835  0.000000  1
  Ir  Ir22  1  0.276165  0.000000  0.000000  1
  Ir  Ir23  1  0.627263  0.805695  0.500000  1
  Ir  Ir24  1  0.194305  0.821568  0.500000  1
  Ir  Ir25  1  0.178432  0.372737  0.500000  1
  Ir  Ir26  1  0.372737  0.178432  0.500000  1
  Ir  Ir27  1  0.805695  0.627263  0.500000  1
  Ir  Ir28  1  0.821568  0.194305  0.500000  1
  Ir  Ir29  1  0.000000  0.000000  0.500000  1
  Rh  Rh30  1  0.509821  0.866042  0.000000  1
  Rh  Rh31  1  0.133958  0.643781  0.000000  1
  Rh  Rh32  1  0.356219  0.490179  0.000000  1
  Rh  Rh33  1  0.490179  0.356219  0.000000  1
  Rh  Rh34  1  0.866042  0.509821  0.000000  1
  Rh  Rh35  1  0.643781  0.133958  0.000000  1
