# generated using pymatgen
data_Rb12Na8Si4As11P
_symmetry_space_group_name_H-M   'P 1'
_cell_length_a   10.78292766
_cell_length_b   10.78292655
_cell_length_c   15.66978309
_cell_angle_alpha   89.99603205
_cell_angle_beta   89.99603153
_cell_angle_gamma   142.71701112
_symmetry_Int_Tables_number   1
_chemical_formula_structural   Rb12Na8Si4As11P
_chemical_formula_sum   'Rb12 Na8 Si4 As11 P1'
_cell_volume   1103.64985778
_cell_formula_units_Z   1
loop_
 _symmetry_equiv_pos_site_id
 _symmetry_equiv_pos_as_xyz
  1  'x, y, z'
loop_
 _atom_site_type_symbol
 _atom_site_label
 _atom_site_symmetry_multiplicity
 _atom_site_fract_x
 _atom_site_fract_y
 _atom_site_fract_z
 _atom_site_occupancy
  Rb  Rb0  1  0.937336  0.607676  0.827969  1
  Rb  Rb1  1  0.562461  0.891919  0.328328  1
  Rb  Rb2  1  0.392421  0.062578  0.171888  1
  Rb  Rb3  1  0.062578  0.392421  0.171888  1
  Rb  Rb4  1  0.891919  0.562461  0.328328  1
  Rb  Rb5  1  0.436628  0.107405  0.671190  1
  Rb  Rb6  1  0.607676  0.937336  0.827969  1
  Rb  Rb7  1  0.262014  0.262014  0.320656  1
  Rb  Rb8  1  0.765299  0.765299  0.180713  1
  Rb  Rb9  1  0.234751  0.234751  0.820256  1
  Rb  Rb10  1  0.734824  0.734824  0.679623  1
  Rb  Rb11  1  0.107405  0.436628  0.671190  1
  Na  Na12  1  0.921318  0.078802  0.000027  1
  Na  Na13  1  0.580129  0.423743  0.499255  1
  Na  Na14  1  0.078802  0.921318  0.000027  1
  Na  Na15  1  0.423743  0.580129  0.499255  1
  Na  Na16  1  0.755640  0.244490  0.000030  1
  Na  Na17  1  0.744405  0.255416  0.499896  1
  Na  Na18  1  0.244490  0.755640  0.000030  1
  Na  Na19  1  0.255416  0.744405  0.499896  1
  Si  Si20  1  0.585130  0.414954  0.000036  1
  Si  Si21  1  0.914943  0.080027  0.498933  1
  Si  Si22  1  0.414954  0.585130  0.000036  1
  Si  Si23  1  0.080027  0.914943  0.498933  1
  As  As24  1  0.854201  0.549957  0.093517  1
  As  As25  1  0.450361  0.145786  0.906579  1
  As  As26  1  0.645768  0.948826  0.592167  1
  As  As27  1  0.948826  0.645768  0.592167  1
  As  As28  1  0.145786  0.450361  0.906579  1
  As  As29  1  0.549957  0.854201  0.093517  1
  As  As30  1  0.351329  0.048784  0.406175  1
  As  As31  1  0.184899  0.184899  0.581251  1
  As  As32  1  0.682251  0.682251  0.918954  1
  As  As33  1  0.317942  0.317942  0.081268  1
  As  As34  1  0.048784  0.351329  0.406175  1
  P  P35  1  0.825588  0.825588  0.425296  1
