# generated using pymatgen
data_Ho5Er11MgIn3Rh4
_symmetry_space_group_name_H-M   'P 1'
_cell_length_a   9.59034040
_cell_length_b   9.59301961
_cell_length_c   9.59535268
_cell_angle_alpha   60.07483630
_cell_angle_beta   59.98762399
_cell_angle_gamma   60.10321637
_symmetry_Int_Tables_number   1
_chemical_formula_structural   Ho5Er11MgIn3Rh4
_chemical_formula_sum   'Ho5 Er11 Mg1 In3 Rh4'
_cell_volume   624.99650939
_cell_formula_units_Z   1
loop_
 _symmetry_equiv_pos_site_id
 _symmetry_equiv_pos_as_xyz
  1  'x, y, z'
loop_
 _atom_site_type_symbol
 _atom_site_label
 _atom_site_symmetry_multiplicity
 _atom_site_fract_x
 _atom_site_fract_y
 _atom_site_fract_z
 _atom_site_occupancy
  Ho  Ho0  1  0.190186  0.191569  0.810578  1
  Ho  Ho1  1  0.438417  0.060788  0.061990  1
  Ho  Ho2  1  0.433983  0.063749  0.433984  1
  Ho  Ho3  1  0.062475  0.438113  0.062690  1
  Ho  Ho4  1  0.647901  0.051559  0.647800  1
  Er  Er5  1  0.189273  0.811997  0.811632  1
  Er  Er6  1  0.061468  0.060996  0.438363  1
  Er  Er7  1  0.810449  0.191738  0.190405  1
  Er  Er8  1  0.812003  0.812139  0.189138  1
  Er  Er9  1  0.650094  0.648832  0.046751  1
  Er  Er10  1  0.654269  0.652624  0.653861  1
  Er  Er11  1  0.064401  0.433818  0.437210  1
  Er  Er12  1  0.045916  0.649278  0.650030  1
  Er  Er13  1  0.809930  0.191203  0.809802  1
  Er  Er14  1  0.437790  0.434137  0.064021  1
  Er  Er15  1  0.187478  0.814381  0.187801  1
  Mg  Mg16  1  0.424300  0.730597  0.424261  1
  In  In17  1  0.416584  0.419733  0.748231  1
  In  In18  1  0.748593  0.419495  0.416691  1
  In  In19  1  0.416099  0.419340  0.415344  1
  Rh  Rh20  1  0.857754  0.425270  0.858884  1
  Rh  Rh21  1  0.858490  0.860444  0.425236  1
  Rh  Rh22  1  0.425495  0.859127  0.858774  1
  Rh  Rh23  1  0.856653  0.859074  0.856523  1
