# generated using pymatgen
data_Pr8Sm2Si5Pt
_symmetry_space_group_name_H-M   'P 1'
_cell_length_a   7.70440246
_cell_length_b   7.70440244
_cell_length_c   9.10500911
_cell_angle_alpha   115.02956447
_cell_angle_beta   115.02956439
_cell_angle_gamma   90.00000362
_symmetry_Int_Tables_number   1
_chemical_formula_structural   Pr8Sm2Si5Pt
_chemical_formula_sum   'Pr8 Sm2 Si5 Pt1'
_cell_volume   433.03669618
_cell_formula_units_Z   1
loop_
 _symmetry_equiv_pos_site_id
 _symmetry_equiv_pos_as_xyz
  1  'x, y, z'
loop_
 _atom_site_type_symbol
 _atom_site_label
 _atom_site_symmetry_multiplicity
 _atom_site_fract_x
 _atom_site_fract_y
 _atom_site_fract_z
 _atom_site_occupancy
  Pr  Pr0  1  0.954345  0.810448  0.286504  1
  Pr  Pr1  1  0.332160  0.476056  0.286504  1
  Pr  Pr2  1  0.810448  0.332160  0.286504  1
  Pr  Pr3  1  0.476056  0.954345  0.286504  1
  Pr  Pr4  1  0.023944  0.167840  0.713496  1
  Pr  Pr5  1  0.689552  0.545655  0.713496  1
  Pr  Pr6  1  0.167840  0.689552  0.713496  1
  Pr  Pr7  1  0.545655  0.023944  0.713496  1
  Sm  Sm8  1  0.473769  0.473769  0.947537  1
  Sm  Sm9  1  0.026231  0.026231  0.052463  1
  Si  Si10  1  0.250000  0.250000  0.500000  1
  Si  Si11  1  0.615896  0.884104  0.000000  1
  Si  Si12  1  0.384104  0.115896  0.000000  1
  Si  Si13  1  0.884104  0.384104  0.000000  1
  Si  Si14  1  0.115896  0.615896  0.000000  1
  Pt  Pt15  1  0.750000  0.750000  0.500000  1
