# generated using pymatgen
data_NaDyPt4
_symmetry_space_group_name_H-M   'P 1'
_cell_length_a   5.39907739
_cell_length_b   5.39907753
_cell_length_c   5.39907700
_cell_angle_alpha   59.99999713
_cell_angle_beta   59.99999626
_cell_angle_gamma   59.99999130
_symmetry_Int_Tables_number   1
_chemical_formula_structural   NaDyPt4
_chemical_formula_sum   'Na1 Dy1 Pt4'
_cell_volume   111.28678338
_cell_formula_units_Z   1
loop_
 _symmetry_equiv_pos_site_id
 _symmetry_equiv_pos_as_xyz
  1  'x, y, z'
loop_
 _atom_site_type_symbol
 _atom_site_label
 _atom_site_symmetry_multiplicity
 _atom_site_fract_x
 _atom_site_fract_y
 _atom_site_fract_z
 _atom_site_occupancy
  Na  Na0  1  0.250000  0.250000  0.250000  1
  Dy  Dy1  1  0.000000  0.000000  0.000000  1
  Pt  Pt2  1  0.624748  0.624748  0.125757  1
  Pt  Pt3  1  0.624748  0.125757  0.624748  1
  Pt  Pt4  1  0.125757  0.624748  0.624748  1
  Pt  Pt5  1  0.624748  0.624748  0.624748  1
