# generated using pymatgen
data_PaFeC2
_symmetry_space_group_name_H-M   'P 1'
_cell_length_a   3.58133600
_cell_length_b   3.58133600
_cell_length_c   7.18864300
_cell_angle_alpha   90.00000000
_cell_angle_beta   90.00000000
_cell_angle_gamma   90.00000000
_symmetry_Int_Tables_number   1
_chemical_formula_structural   PaFeC2
_chemical_formula_sum   'Pa2 Fe2 C4'
_cell_volume   92.20130181
_cell_formula_units_Z   2
loop_
 _symmetry_equiv_pos_site_id
 _symmetry_equiv_pos_as_xyz
  1  'x, y, z'
loop_
 _atom_site_type_symbol
 _atom_site_label
 _atom_site_symmetry_multiplicity
 _atom_site_fract_x
 _atom_site_fract_y
 _atom_site_fract_z
 _atom_site_occupancy
  Pa  Pa0  1  0.000000  0.500000  0.682518  1
  Pa  Pa1  1  0.500000  0.000000  0.317482  1
  Fe  Fe2  1  0.000000  0.000000  0.000000  1
  Fe  Fe3  1  0.500000  0.500000  0.000000  1
  C  C4  1  0.000000  0.500000  0.142038  1
  C  C5  1  0.500000  0.000000  0.857962  1
  C  C6  1  0.000000  0.500000  0.351653  1
  C  C7  1  0.500000  0.000000  0.648347  1
