# generated using pymatgen
data_Nb2H2SeS3
_symmetry_space_group_name_H-M   'P 1'
_cell_length_a   3.37068500
_cell_length_b   3.37068439
_cell_length_c   15.15100800
_cell_angle_alpha   90.00000000
_cell_angle_beta   90.00000000
_cell_angle_gamma   119.99997654
_symmetry_Int_Tables_number   1
_chemical_formula_structural   Nb2H2SeS3
_chemical_formula_sum   'Nb2 H2 Se1 S3'
_cell_volume   149.07627075
_cell_formula_units_Z   1
loop_
 _symmetry_equiv_pos_site_id
 _symmetry_equiv_pos_as_xyz
  1  'x, y, z'
loop_
 _atom_site_type_symbol
 _atom_site_label
 _atom_site_symmetry_multiplicity
 _atom_site_fract_x
 _atom_site_fract_y
 _atom_site_fract_z
 _atom_site_occupancy
  Nb  Nb0  1  0.333333  0.666667  0.338027  1
  Nb  Nb1  1  0.666667  0.333333  0.782585  1
  H  H2  1  0.000000  0.000000  0.788718  1
  H  H3  1  0.000000  0.000000  0.336818  1
  Se  Se4  1  0.333333  0.666667  0.902262  1
  S  S5  1  0.333333  0.666667  0.675936  1
  S  S6  1  0.666667  0.333333  0.446146  1
  S  S7  1  0.666667  0.333333  0.229508  1
