# generated using pymatgen
data_Pr2Sm2Te3N2
_symmetry_space_group_name_H-M   'P 1'
_cell_length_a   7.39633700
_cell_length_b   11.36945600
_cell_length_c   11.79607300
_cell_angle_alpha   90.00000000
_cell_angle_beta   90.00000000
_cell_angle_gamma   90.00000000
_symmetry_Int_Tables_number   1
_chemical_formula_structural   Pr2Sm2Te3N2
_chemical_formula_sum   'Pr8 Sm8 Te12 N8'
_cell_volume   991.95924080
_cell_formula_units_Z   4
loop_
 _symmetry_equiv_pos_site_id
 _symmetry_equiv_pos_as_xyz
  1  'x, y, z'
loop_
 _atom_site_type_symbol
 _atom_site_label
 _atom_site_symmetry_multiplicity
 _atom_site_fract_x
 _atom_site_fract_y
 _atom_site_fract_z
 _atom_site_occupancy
  Pr  Pr0  1  0.851934  0.610756  0.450563  1
  Pr  Pr1  1  0.148066  0.389244  0.549437  1
  Pr  Pr2  1  0.148066  0.389244  0.950563  1
  Pr  Pr3  1  0.351934  0.889244  0.450563  1
  Pr  Pr4  1  0.648066  0.110756  0.950563  1
  Pr  Pr5  1  0.351934  0.889244  0.049437  1
  Pr  Pr6  1  0.851934  0.610756  0.049437  1
  Pr  Pr7  1  0.648066  0.110756  0.549437  1
  Sm  Sm8  1  0.087703  0.657968  0.750000  1
  Sm  Sm9  1  0.236056  0.031539  0.750000  1
  Sm  Sm10  1  0.263944  0.531539  0.250000  1
  Sm  Sm11  1  0.412297  0.157968  0.250000  1
  Sm  Sm12  1  0.763944  0.968461  0.250000  1
  Sm  Sm13  1  0.736056  0.468461  0.750000  1
  Sm  Sm14  1  0.587703  0.842032  0.750000  1
  Sm  Sm15  1  0.912297  0.342032  0.250000  1
  Te  Te16  1  0.922476  0.225307  0.750000  1
  Te  Te17  1  0.077524  0.774693  0.250000  1
  Te  Te18  1  0.566482  0.364853  0.417303  1
  Te  Te19  1  0.066482  0.135147  0.082697  1
  Te  Te20  1  0.422476  0.274693  0.750000  1
  Te  Te21  1  0.577524  0.725307  0.250000  1
  Te  Te22  1  0.566482  0.364853  0.082697  1
  Te  Te23  1  0.433518  0.635147  0.582697  1
  Te  Te24  1  0.933518  0.864853  0.917303  1
  Te  Te25  1  0.933518  0.864853  0.582697  1
  Te  Te26  1  0.066482  0.135147  0.417303  1
  Te  Te27  1  0.433518  0.635147  0.917303  1
  N  N28  1  0.053511  0.467094  0.376332  1
  N  N29  1  0.553511  0.032906  0.123668  1
  N  N30  1  0.446489  0.967094  0.623668  1
  N  N31  1  0.946489  0.532906  0.623668  1
  N  N32  1  0.946489  0.532906  0.876332  1
  N  N33  1  0.446489  0.967094  0.876332  1
  N  N34  1  0.553511  0.032906  0.376332  1
  N  N35  1  0.053511  0.467094  0.123668  1
