# generated using pymatgen
data_Tb7ErZn3Si12Au
_symmetry_space_group_name_H-M   'P 1'
_cell_length_a   8.16347100
_cell_length_b   8.15478655
_cell_length_c   8.11458313
_cell_angle_alpha   90.01648963
_cell_angle_beta   89.99792584
_cell_angle_gamma   120.03500266
_symmetry_Int_Tables_number   1
_chemical_formula_structural   Tb7ErZn3Si12Au
_chemical_formula_sum   'Tb7 Er1 Zn3 Si12 Au1'
_cell_volume   467.66082116
_cell_formula_units_Z   1
loop_
 _symmetry_equiv_pos_site_id
 _symmetry_equiv_pos_as_xyz
  1  'x, y, z'
loop_
 _atom_site_type_symbol
 _atom_site_label
 _atom_site_symmetry_multiplicity
 _atom_site_fract_x
 _atom_site_fract_y
 _atom_site_fract_z
 _atom_site_occupancy
  Tb  Tb0  1  0.501101  0.002203  0.748192  1
  Tb  Tb1  1  0.997006  0.498404  0.251984  1
  Tb  Tb2  1  0.997842  0.498896  0.748199  1
  Tb  Tb3  1  0.501392  0.498406  0.251980  1
  Tb  Tb4  1  0.501050  0.498896  0.748201  1
  Tb  Tb5  1  0.000033  0.000074  0.250625  1
  Tb  Tb6  1  0.999971  0.999941  0.748984  1
  Er  Er7  1  0.501427  0.002831  0.251903  1
  Zn  Zn8  1  0.666181  0.332365  0.001381  1
  Zn  Zn9  1  0.666189  0.332380  0.498981  1
  Zn  Zn10  1  0.333855  0.667700  0.498687  1
  Si  Si11  1  0.163624  0.327247  0.999718  1
  Si  Si12  1  0.832761  0.665522  0.000097  1
  Si  Si13  1  0.673385  0.836658  0.000189  1
  Si  Si14  1  0.832528  0.665054  0.500437  1
  Si  Si15  1  0.334014  0.166972  0.000691  1
  Si  Si16  1  0.166422  0.332845  0.499274  1
  Si  Si17  1  0.163269  0.836660  0.000190  1
  Si  Si18  1  0.334561  0.167126  0.499805  1
  Si  Si19  1  0.832956  0.166971  0.000694  1
  Si  Si20  1  0.667486  0.833867  0.498667  1
  Si  Si21  1  0.832565  0.167129  0.499805  1
  Si  Si22  1  0.166385  0.833864  0.498664  1
  Au  Au23  1  0.333994  0.667992  0.002653  1
