# generated using pymatgen
data_Er5Si8P4Ir16Ru3
_symmetry_space_group_name_H-M   'P 1'
_cell_length_a   12.76956396
_cell_length_b   12.72840214
_cell_length_c   3.95673700
_cell_angle_alpha   90.00000000
_cell_angle_beta   90.00000000
_cell_angle_gamma   120.01352206
_symmetry_Int_Tables_number   1
_chemical_formula_structural   Er5Si8P4Ir16Ru3
_chemical_formula_sum   'Er5 Si8 P4 Ir16 Ru3'
_cell_volume   556.87610066
_cell_formula_units_Z   1
loop_
 _symmetry_equiv_pos_site_id
 _symmetry_equiv_pos_as_xyz
  1  'x, y, z'
loop_
 _atom_site_type_symbol
 _atom_site_label
 _atom_site_symmetry_multiplicity
 _atom_site_fract_x
 _atom_site_fract_y
 _atom_site_fract_z
 _atom_site_occupancy
  Er  Er0  1  0.666925  0.333511  0.000000  1
  Er  Er1  1  0.332481  0.667809  0.000000  1
  Er  Er2  1  0.814030  0.813966  0.500000  1
  Er  Er3  1  0.184861  0.000349  0.500000  1
  Er  Er4  1  0.998628  0.182857  0.500000  1
  Si  Si5  1  0.686021  0.163566  0.500000  1
  Si  Si6  1  0.836722  0.522125  0.500000  1
  Si  Si7  1  0.478439  0.314453  0.500000  1
  Si  Si8  1  0.165963  0.688629  0.500000  1
  Si  Si9  1  0.520500  0.831924  0.500000  1
  Si  Si10  1  0.633676  0.632233  0.000000  1
  Si  Si11  1  0.367809  0.999786  0.000000  1
  Si  Si12  1  0.999593  0.366875  0.000000  1
  P  P13  1  0.307059  0.480426  0.500000  1
  P  P14  1  0.181158  0.181880  0.000000  1
  P  P15  1  0.818713  0.998018  0.000000  1
  P  P16  1  0.000904  0.821121  0.000000  1
  Ir  Ir17  1  0.808216  0.179249  0.000000  1
  Ir  Ir18  1  0.820447  0.627942  0.000000  1
  Ir  Ir19  1  0.370690  0.191034  0.000000  1
  Ir  Ir20  1  0.181079  0.807655  0.000000  1
  Ir  Ir21  1  0.623899  0.815921  0.000000  1
  Ir  Ir22  1  0.198553  0.379653  0.000000  1
  Ir  Ir23  1  0.452182  0.442424  0.000000  1
  Ir  Ir24  1  0.555239  0.001374  0.000000  1
  Ir  Ir25  1  0.999350  0.553618  0.000000  1
  Ir  Ir26  1  0.871859  0.358569  0.500000  1
  Ir  Ir27  1  0.642601  0.513070  0.500000  1
  Ir  Ir28  1  0.487457  0.128905  0.500000  1
  Ir  Ir29  1  0.361588  0.873404  0.500000  1
  Ir  Ir30  1  0.504348  0.632118  0.500000  1
  Ir  Ir31  1  0.126482  0.487942  0.500000  1
  Ir  Ir32  1  0.000838  0.001748  0.000000  1
  Ru  Ru33  1  0.279293  0.284328  0.500000  1
  Ru  Ru34  1  0.721600  0.997609  0.500000  1
  Ru  Ru35  1  0.000798  0.723908  0.500000  1
