# generated using pymatgen
data_Dy2ErCd3Ga2Ag
_symmetry_space_group_name_H-M   'P 1'
_cell_length_a   7.37024009
_cell_length_b   7.37225342
_cell_length_c   4.33701200
_cell_angle_alpha   90.00000000
_cell_angle_beta   90.00000000
_cell_angle_gamma   120.00904489
_symmetry_Int_Tables_number   1
_chemical_formula_structural   Dy2ErCd3Ga2Ag
_chemical_formula_sum   'Dy2 Er1 Cd3 Ga2 Ag1'
_cell_volume   204.06266629
_cell_formula_units_Z   1
loop_
 _symmetry_equiv_pos_site_id
 _symmetry_equiv_pos_as_xyz
  1  'x, y, z'
loop_
 _atom_site_type_symbol
 _atom_site_label
 _atom_site_symmetry_multiplicity
 _atom_site_fract_x
 _atom_site_fract_y
 _atom_site_fract_z
 _atom_site_occupancy
  Dy  Dy0  1  0.421218  0.421355  0.500000  1
  Dy  Dy1  1  0.578782  0.000137  0.500000  1
  Er  Er2  1  0.000000  0.579194  0.500000  1
  Cd  Cd3  1  0.748275  0.748053  0.000000  1
  Cd  Cd4  1  0.251725  0.999779  0.000000  1
  Cd  Cd5  1  0.000000  0.252309  0.000000  1
  Ga  Ga6  1  0.667905  0.334062  0.000000  1
  Ga  Ga7  1  0.332095  0.666158  0.000000  1
  Ag  Ag8  1  0.000000  0.998953  0.500000  1
