# generated using pymatgen
data_Tm4Fe3AuO14
_symmetry_space_group_name_H-M   'P 1'
_cell_length_a   7.18600268
_cell_length_b   7.18600291
_cell_length_c   7.18600183
_cell_angle_alpha   59.53978703
_cell_angle_beta   59.53978532
_cell_angle_gamma   59.53979328
_symmetry_Int_Tables_number   1
_chemical_formula_structural   Tm4Fe3AuO14
_chemical_formula_sum   'Tm4 Fe3 Au1 O14'
_cell_volume   259.64425995
_cell_formula_units_Z   1
loop_
 _symmetry_equiv_pos_site_id
 _symmetry_equiv_pos_as_xyz
  1  'x, y, z'
loop_
 _atom_site_type_symbol
 _atom_site_label
 _atom_site_symmetry_multiplicity
 _atom_site_fract_x
 _atom_site_fract_y
 _atom_site_fract_z
 _atom_site_occupancy
  Tm  Tm0  1  0.125000  0.125000  0.625000  1
  Tm  Tm1  1  0.125000  0.125000  0.125000  1
  Tm  Tm2  1  0.625000  0.125000  0.125000  1
  Tm  Tm3  1  0.125000  0.625000  0.125000  1
  Fe  Fe4  1  0.125000  0.625000  0.625000  1
  Fe  Fe5  1  0.625000  0.125000  0.625000  1
  Fe  Fe6  1  0.625000  0.625000  0.125000  1
  Au  Au7  1  0.625000  0.625000  0.625000  1
  O  O8  1  0.531835  0.531835  0.970311  1
  O  O9  1  0.959062  0.539760  0.959062  1
  O  O10  1  0.290938  0.290938  0.710240  1
  O  O11  1  0.001163  0.001163  0.001163  1
  O  O12  1  0.279689  0.718165  0.718165  1
  O  O13  1  0.718165  0.718165  0.279689  1
  O  O14  1  0.710240  0.290938  0.290938  1
  O  O15  1  0.531835  0.970311  0.531835  1
  O  O16  1  0.718165  0.279689  0.718165  1
  O  O17  1  0.539760  0.959062  0.959062  1
  O  O18  1  0.959062  0.959062  0.539760  1
  O  O19  1  0.248837  0.248837  0.248837  1
  O  O20  1  0.290938  0.710240  0.290938  1
  O  O21  1  0.970311  0.531835  0.531835  1
