# generated using pymatgen
data_La12Th4Cd4IrRu3
_symmetry_space_group_name_H-M   'P 1'
_cell_length_a   10.09263326
_cell_length_b   10.08675467
_cell_length_c   10.08675600
_cell_angle_alpha   60.00000220
_cell_angle_beta   60.01926806
_cell_angle_gamma   60.01926611
_symmetry_Int_Tables_number   1
_chemical_formula_structural   La12Th4Cd4IrRu3
_chemical_formula_sum   'La12 Th4 Cd4 Ir1 Ru3'
_cell_volume   726.30475899
_cell_formula_units_Z   1
loop_
 _symmetry_equiv_pos_site_id
 _symmetry_equiv_pos_as_xyz
  1  'x, y, z'
loop_
 _atom_site_type_symbol
 _atom_site_label
 _atom_site_symmetry_multiplicity
 _atom_site_fract_x
 _atom_site_fract_y
 _atom_site_fract_z
 _atom_site_occupancy
  La  La0  1  0.059547  0.442350  0.442350  1
  La  La1  1  0.442141  0.058414  0.058414  1
  La  La2  1  0.442141  0.058414  0.441031  1
  La  La3  1  0.059547  0.442350  0.055753  1
  La  La4  1  0.442141  0.441031  0.058414  1
  La  La5  1  0.059547  0.055753  0.442350  1
  La  La6  1  0.189222  0.809828  0.809828  1
  La  La7  1  0.808159  0.191060  0.191060  1
  La  La8  1  0.808159  0.191060  0.809722  1
  La  La9  1  0.189222  0.809828  0.191122  1
  La  La10  1  0.808159  0.809722  0.191060  1
  La  La11  1  0.189222  0.191122  0.809828  1
  Th  Th12  1  0.591693  0.594643  0.594643  1
  Th  Th13  1  0.591693  0.594643  0.219022  1
  Th  Th14  1  0.591693  0.219022  0.594643  1
  Th  Th15  1  0.221515  0.592828  0.592828  1
  Cd  Cd16  1  0.828804  0.828805  0.828805  1
  Cd  Cd17  1  0.828804  0.828805  0.513585  1
  Cd  Cd18  1  0.828804  0.513585  0.828805  1
  Cd  Cd19  1  0.513639  0.828787  0.828787  1
  Ir  Ir20  1  0.817312  0.394229  0.394229  1
  Ru  Ru21  1  0.396278  0.394361  0.394361  1
  Ru  Ru22  1  0.396278  0.394361  0.814999  1
  Ru  Ru23  1  0.396278  0.814999  0.394361  1
