# generated using pymatgen
data_Ho16Cd4CoNiRu2
_symmetry_space_group_name_H-M   'P 1'
_cell_length_a   9.58500278
_cell_length_b   9.52476859
_cell_length_c   9.51993837
_cell_angle_alpha   59.60920311
_cell_angle_beta   59.77365680
_cell_angle_gamma   59.79059046
_symmetry_Int_Tables_number   1
_chemical_formula_structural   Ho16Cd4CoNiRu2
_chemical_formula_sum   'Ho16 Cd4 Co1 Ni1 Ru2'
_cell_volume   610.71284419
_cell_formula_units_Z   1
loop_
 _symmetry_equiv_pos_site_id
 _symmetry_equiv_pos_as_xyz
  1  'x, y, z'
loop_
 _atom_site_type_symbol
 _atom_site_label
 _atom_site_symmetry_multiplicity
 _atom_site_fract_x
 _atom_site_fract_y
 _atom_site_fract_z
 _atom_site_occupancy
  Ho  Ho0  1  0.937923  0.938623  0.559299  1
  Ho  Ho1  1  0.811948  0.188100  0.188004  1
  Ho  Ho2  1  0.935181  0.563015  0.566624  1
  Ho  Ho3  1  0.936802  0.558579  0.938651  1
  Ho  Ho4  1  0.812785  0.810341  0.187091  1
  Ho  Ho5  1  0.340948  0.347516  0.351133  1
  Ho  Ho6  1  0.559308  0.940571  0.940812  1
  Ho  Ho7  1  0.564155  0.938623  0.559299  1
  Ho  Ho8  1  0.189536  0.813691  0.807236  1
  Ho  Ho9  1  0.189570  0.186162  0.808066  1
  Ho  Ho10  1  0.345691  0.351809  0.956810  1
  Ho  Ho11  1  0.343948  0.959422  0.352683  1
  Ho  Ho12  1  0.816203  0.186162  0.808066  1
  Ho  Ho13  1  0.565968  0.558579  0.938651  1
  Ho  Ho14  1  0.189783  0.810341  0.187091  1
  Ho  Ho15  1  0.960405  0.347516  0.351133  1
  Cd  Cd16  1  0.581545  0.579590  0.257321  1
  Cd  Cd17  1  0.258845  0.579392  0.579427  1
  Cd  Cd18  1  0.582337  0.579392  0.579427  1
  Cd  Cd19  1  0.581769  0.256618  0.579846  1
  Co  Co20  1  0.139297  0.143309  0.578098  1
  Ni  Ni21  1  0.140490  0.577452  0.141569  1
  Ru  Ru22  1  0.576737  0.142602  0.141836  1
  Ru  Ru23  1  0.138826  0.142602  0.141836  1
