# generated using pymatgen
data_Ho8Ti11Si16Ag
_symmetry_space_group_name_H-M   'P 1'
_cell_length_a   7.05976126
_cell_length_b   7.05976126
_cell_length_c   12.88766636
_cell_angle_alpha   90.08011596
_cell_angle_beta   89.91988404
_cell_angle_gamma   89.60692922
_symmetry_Int_Tables_number   1
_chemical_formula_structural   Ho8Ti11Si16Ag
_chemical_formula_sum   'Ho8 Ti11 Si16 Ag1'
_cell_volume   642.30786338
_cell_formula_units_Z   1
loop_
 _symmetry_equiv_pos_site_id
 _symmetry_equiv_pos_as_xyz
  1  'x, y, z'
loop_
 _atom_site_type_symbol
 _atom_site_label
 _atom_site_symmetry_multiplicity
 _atom_site_fract_x
 _atom_site_fract_y
 _atom_site_fract_z
 _atom_site_occupancy
  Ho  Ho0  1  0.340956  0.002446  0.466588  1
  Ho  Ho1  1  0.497726  0.840107  0.716715  1
  Ho  Ho2  1  0.500794  0.158280  0.214501  1
  Ho  Ho3  1  0.840107  0.497726  0.283285  1
  Ho  Ho4  1  0.158280  0.500794  0.785499  1
  Ho  Ho5  1  0.656375  0.000584  0.968295  1
  Ho  Ho6  1  0.002446  0.340956  0.533412  1
  Ho  Ho7  1  0.000584  0.656375  0.031705  1
  Ti  Ti8  1  0.173771  0.826639  0.250146  1
  Ti  Ti9  1  0.826639  0.173771  0.749854  1
  Ti  Ti10  1  0.672955  0.672955  0.500000  1
  Ti  Ti11  1  0.148331  0.007620  0.876955  1
  Ti  Ti12  1  0.495153  0.650688  0.123589  1
  Ti  Ti13  1  0.507598  0.350280  0.625196  1
  Ti  Ti14  1  0.650688  0.495153  0.876411  1
  Ti  Ti15  1  0.350280  0.507598  0.374804  1
  Ti  Ti16  1  0.849600  0.992439  0.374726  1
  Ti  Ti17  1  0.007620  0.148331  0.123045  1
  Ti  Ti18  1  0.992439  0.849600  0.625274  1
  Si  Si19  1  0.202289  0.132281  0.684220  1
  Si  Si20  1  0.373807  0.718703  0.929267  1
  Si  Si21  1  0.631218  0.294652  0.432684  1
  Si  Si22  1  0.718703  0.373807  0.070733  1
  Si  Si23  1  0.294652  0.631218  0.567316  1
  Si  Si24  1  0.797342  0.867960  0.182844  1
  Si  Si25  1  0.132281  0.202289  0.315780  1
  Si  Si26  1  0.867960  0.797342  0.817156  1
  Si  Si27  1  0.286035  0.938101  0.066254  1
  Si  Si28  1  0.546606  0.791764  0.314620  1
  Si  Si29  1  0.455601  0.207167  0.808758  1
  Si  Si30  1  0.791764  0.546606  0.685380  1
  Si  Si31  1  0.207167  0.455601  0.191242  1
  Si  Si32  1  0.708721  0.047692  0.564517  1
  Si  Si33  1  0.938101  0.286035  0.933746  1
  Si  Si34  1  0.047692  0.708721  0.435483  1
  Ag  Ag35  1  0.327717  0.327717  0.000000  1
