# generated using pymatgen
data_Ac4AlOs3I2
_symmetry_space_group_name_H-M   'P 1'
_cell_length_a   4.42422400
_cell_length_b   4.42422367
_cell_length_c   18.83623600
_cell_angle_alpha   90.00000000
_cell_angle_beta   90.00000000
_cell_angle_gamma   120.00000243
_symmetry_Int_Tables_number   1
_chemical_formula_structural   Ac4AlOs3I2
_chemical_formula_sum   'Ac4 Al1 Os3 I2'
_cell_volume   319.30000610
_cell_formula_units_Z   1
loop_
 _symmetry_equiv_pos_site_id
 _symmetry_equiv_pos_as_xyz
  1  'x, y, z'
loop_
 _atom_site_type_symbol
 _atom_site_label
 _atom_site_symmetry_multiplicity
 _atom_site_fract_x
 _atom_site_fract_y
 _atom_site_fract_z
 _atom_site_occupancy
  Ac  Ac0  1  0.000000  0.000000  0.105406  1
  Ac  Ac1  1  0.000000  0.000000  0.894118  1
  Ac  Ac2  1  0.000000  0.000000  0.607769  1
  Ac  Ac3  1  0.000000  0.000000  0.393991  1
  Al  Al4  1  0.333333  0.666667  0.500805  1
  Os  Os5  1  0.666667  0.333333  0.499530  1
  Os  Os6  1  0.666667  0.333333  0.003568  1
  Os  Os7  1  0.333333  0.666667  0.996142  1
  I  I8  1  0.333333  0.666667  0.248421  1
  I  I9  1  0.666667  0.333333  0.750252  1
