# generated using pymatgen
data_Ho12Ga2CoNi2Os
_symmetry_space_group_name_H-M   'P 1'
_cell_length_a   8.30598717
_cell_length_b   8.30590558
_cell_length_c   8.30599765
_cell_angle_alpha   112.73282389
_cell_angle_beta   109.79004697
_cell_angle_gamma   105.96146104
_symmetry_Int_Tables_number   1
_chemical_formula_structural   Ho12Ga2CoNi2Os
_chemical_formula_sum   'Ho12 Ga2 Co1 Ni2 Os1'
_cell_volume   439.56972942
_cell_formula_units_Z   1
loop_
 _symmetry_equiv_pos_site_id
 _symmetry_equiv_pos_as_xyz
  1  'x, y, z'
loop_
 _atom_site_type_symbol
 _atom_site_label
 _atom_site_symmetry_multiplicity
 _atom_site_fract_x
 _atom_site_fract_y
 _atom_site_fract_z
 _atom_site_occupancy
  Ho  Ho0  1  0.440007  0.246300  0.193703  1
  Ho  Ho1  1  0.570013  0.766460  0.803551  1
  Ho  Ho2  1  0.037098  0.233547  0.803556  1
  Ho  Ho3  1  0.947412  0.753709  0.193719  1
  Ho  Ho4  1  0.183763  0.279387  0.463151  1
  Ho  Ho5  1  0.822484  0.723645  0.546136  1
  Ho  Ho6  1  0.183763  0.720611  0.904382  1
  Ho  Ho7  1  0.822481  0.276353  0.098840  1
  Ho  Ho8  1  0.329257  0.640875  0.310751  1
  Ho  Ho9  1  0.669877  0.359125  0.688378  1
  Ho  Ho10  1  0.329253  0.018512  0.688388  1
  Ho  Ho11  1  0.669879  0.981494  0.310746  1
  Ga  Ga12  1  0.495589  0.500005  0.995589  1
  Ga  Ga13  1  0.009735  0.000002  0.009738  1
  Co  Co14  1  0.659099  0.000008  0.659101  1
  Ni  Ni15  1  0.118328  0.618112  0.500201  1
  Ni  Ni16  1  0.882075  0.381855  0.500183  1
  Os  Os17  1  0.329886  0.000001  0.329886  1
