# generated using pymatgen
data_La2Ho3Si4
_symmetry_space_group_name_H-M   'P 1'
_cell_length_a   7.56392200
_cell_length_b   7.85176100
_cell_length_c   14.89878100
_cell_angle_alpha   90.00000000
_cell_angle_beta   90.00000000
_cell_angle_gamma   90.00000000
_symmetry_Int_Tables_number   1
_chemical_formula_structural   La2Ho3Si4
_chemical_formula_sum   'La8 Ho12 Si16'
_cell_volume   884.84020918
_cell_formula_units_Z   4
loop_
 _symmetry_equiv_pos_site_id
 _symmetry_equiv_pos_as_xyz
  1  'x, y, z'
loop_
 _atom_site_type_symbol
 _atom_site_label
 _atom_site_symmetry_multiplicity
 _atom_site_fract_x
 _atom_site_fract_y
 _atom_site_fract_z
 _atom_site_occupancy
  La  La0  1  0.976949  0.821586  0.097894  1
  La  La1  1  0.476949  0.678414  0.402106  1
  La  La2  1  0.523051  0.321586  0.902106  1
  La  La3  1  0.023051  0.178414  0.597894  1
  La  La4  1  0.023051  0.178414  0.902106  1
  La  La5  1  0.523051  0.321586  0.597894  1
  La  La6  1  0.476949  0.678414  0.097894  1
  La  La7  1  0.976949  0.821586  0.402106  1
  Ho  Ho8  1  0.649794  0.990477  0.250000  1
  Ho  Ho9  1  0.149794  0.509523  0.250000  1
  Ho  Ho10  1  0.850206  0.490477  0.750000  1
  Ho  Ho11  1  0.350206  0.009523  0.750000  1
  Ho  Ho12  1  0.680939  0.822385  0.876335  1
  Ho  Ho13  1  0.180939  0.677615  0.623665  1
  Ho  Ho14  1  0.819061  0.322385  0.123665  1
  Ho  Ho15  1  0.319061  0.177615  0.376335  1
  Ho  Ho16  1  0.319061  0.177615  0.123665  1
  Ho  Ho17  1  0.819061  0.322385  0.376335  1
  Ho  Ho18  1  0.180939  0.677615  0.876335  1
  Ho  Ho19  1  0.680939  0.822385  0.623665  1
  Si  Si20  1  0.770131  0.619125  0.250000  1
  Si  Si21  1  0.270131  0.880875  0.250000  1
  Si  Si22  1  0.729869  0.119125  0.750000  1
  Si  Si23  1  0.229869  0.380875  0.750000  1
  Si  Si24  1  0.023866  0.114387  0.250000  1
  Si  Si25  1  0.523866  0.385613  0.250000  1
  Si  Si26  1  0.476134  0.614387  0.750000  1
  Si  Si27  1  0.976134  0.885613  0.750000  1
  Si  Si28  1  0.857230  0.530977  0.960056  1
  Si  Si29  1  0.357230  0.969023  0.539944  1
  Si  Si30  1  0.642770  0.030977  0.039944  1
  Si  Si31  1  0.142770  0.469023  0.460056  1
  Si  Si32  1  0.142770  0.469023  0.039944  1
  Si  Si33  1  0.642770  0.030977  0.460056  1
  Si  Si34  1  0.357230  0.969023  0.960056  1
  Si  Si35  1  0.857230  0.530977  0.539944  1
