# generated using pymatgen
data_Ta2TcP2Rh
_symmetry_space_group_name_H-M   'P 1'
_cell_length_a   3.75012100
_cell_length_b   6.36296300
_cell_length_c   7.26090900
_cell_angle_alpha   90.00000000
_cell_angle_beta   90.00000000
_cell_angle_gamma   90.00000000
_symmetry_Int_Tables_number   1
_chemical_formula_structural   Ta2TcP2Rh
_chemical_formula_sum   'Ta4 Tc2 P4 Rh2'
_cell_volume   173.25894773
_cell_formula_units_Z   2
loop_
 _symmetry_equiv_pos_site_id
 _symmetry_equiv_pos_as_xyz
  1  'x, y, z'
loop_
 _atom_site_type_symbol
 _atom_site_label
 _atom_site_symmetry_multiplicity
 _atom_site_fract_x
 _atom_site_fract_y
 _atom_site_fract_z
 _atom_site_occupancy
  Ta  Ta0  1  0.250000  0.027445  0.827791  1
  Ta  Ta1  1  0.250000  0.527445  0.672209  1
  Ta  Ta2  1  0.750000  0.976425  0.170405  1
  Ta  Ta3  1  0.750000  0.476425  0.329595  1
  Tc  Tc4  1  0.250000  0.140117  0.442726  1
  Tc  Tc5  1  0.250000  0.640117  0.057274  1
  P  P6  1  0.250000  0.768413  0.368058  1
  P  P7  1  0.250000  0.268413  0.131942  1
  P  P8  1  0.750000  0.239691  0.620604  1
  P  P9  1  0.750000  0.739691  0.879396  1
  Rh  Rh10  1  0.750000  0.847910  0.567869  1
  Rh  Rh11  1  0.750000  0.347910  0.932131  1
