# generated using pymatgen
data_Hf5Zr3Sc(In2Co)7
_symmetry_space_group_name_H-M   'P 1'
_cell_length_a   9.44748208
_cell_length_b   9.44880641
_cell_length_c   9.44514611
_cell_angle_alpha   60.02414369
_cell_angle_beta   59.99940654
_cell_angle_gamma   59.97760981
_symmetry_Int_Tables_number   1
_chemical_formula_structural   Hf5Zr3Sc(In2Co)7
_chemical_formula_sum   'Hf5 Zr3 Sc1 In14 Co7'
_cell_volume   596.19780773
_cell_formula_units_Z   1
loop_
 _symmetry_equiv_pos_site_id
 _symmetry_equiv_pos_as_xyz
  1  'x, y, z'
loop_
 _atom_site_type_symbol
 _atom_site_label
 _atom_site_symmetry_multiplicity
 _atom_site_fract_x
 _atom_site_fract_y
 _atom_site_fract_z
 _atom_site_occupancy
  Hf  Hf0  1  0.119157  0.642286  0.119289  1
  Hf  Hf1  1  0.357733  0.879672  0.881303  1
  Hf  Hf2  1  0.880420  0.880223  0.881570  1
  Hf  Hf3  1  0.642335  0.118283  0.119678  1
  Hf  Hf4  1  0.880428  0.880197  0.357794  1
  Zr  Zr5  1  0.121431  0.120060  0.121773  1
  Zr  Zr6  1  0.877923  0.363354  0.879345  1
  Zr  Zr7  1  0.121409  0.120090  0.636725  1
  Sc  Sc8  1  0.500054  0.500018  0.500010  1
  In  In9  1  0.500310  0.841920  0.157663  1
  In  In10  1  0.500252  0.841943  0.500159  1
  In  In11  1  0.500188  0.157296  0.500265  1
  In  In12  1  0.499640  0.499787  0.842586  1
  In  In13  1  0.157956  0.499763  0.499865  1
  In  In14  1  0.841633  0.157187  0.500550  1
  In  In15  1  0.157566  0.841683  0.500422  1
  In  In16  1  0.500104  0.157336  0.842270  1
  In  In17  1  0.157963  0.499805  0.842456  1
  In  In18  1  0.499766  0.499637  0.158016  1
  In  In19  1  0.842040  0.500236  0.499865  1
  In  In20  1  0.842066  0.500172  0.157813  1
  In  In21  1  0.252362  0.252579  0.247496  1
  In  In22  1  0.748822  0.753880  0.748660  1
  Co  Co23  1  0.780797  0.780766  0.219220  1
  Co  Co24  1  0.999423  0.997311  0.001622  1
  Co  Co25  1  0.219221  0.779936  0.219239  1
  Co  Co26  1  0.219193  0.779972  0.781622  1
  Co  Co27  1  0.219693  0.218037  0.781135  1
  Co  Co28  1  0.780022  0.218318  0.781678  1
  Co  Co29  1  0.780095  0.218252  0.219912  1
