# generated using pymatgen
data_LiCd4Pd11
_symmetry_space_group_name_H-M   'P 1'
_cell_length_a   4.90188100
_cell_length_b   5.75985900
_cell_length_c   9.30788700
_cell_angle_alpha   90.00000000
_cell_angle_beta   90.00000000
_cell_angle_gamma   90.00000000
_symmetry_Int_Tables_number   1
_chemical_formula_structural   LiCd4Pd11
_chemical_formula_sum   'Li1 Cd4 Pd11'
_cell_volume   262.80021626
_cell_formula_units_Z   1
loop_
 _symmetry_equiv_pos_site_id
 _symmetry_equiv_pos_as_xyz
  1  'x, y, z'
loop_
 _atom_site_type_symbol
 _atom_site_label
 _atom_site_symmetry_multiplicity
 _atom_site_fract_x
 _atom_site_fract_y
 _atom_site_fract_z
 _atom_site_occupancy
  Li  Li0  1  0.875648  0.000000  0.250000  1
  Cd  Cd1  1  0.158076  0.500000  0.750000  1
  Cd  Cd2  1  0.845392  0.500000  0.250000  1
  Cd  Cd3  1  0.494010  0.000000  0.501056  1
  Cd  Cd4  1  0.494010  0.000000  0.998944  1
  Pd  Pd5  1  0.659553  0.251525  0.750000  1
  Pd  Pd6  1  0.659553  0.748475  0.750000  1
  Pd  Pd7  1  0.346220  0.249514  0.250000  1
  Pd  Pd8  1  0.346220  0.750486  0.250000  1
  Pd  Pd9  1  0.497664  0.500000  0.001690  1
  Pd  Pd10  1  0.497664  0.500000  0.498310  1
  Pd  Pd11  1  0.149120  0.000000  0.750000  1
  Pd  Pd12  1  0.994217  0.751465  0.003441  1
  Pd  Pd13  1  0.994217  0.248535  0.496559  1
  Pd  Pd14  1  0.994217  0.248535  0.003441  1
  Pd  Pd15  1  0.994217  0.751465  0.496559  1
