# generated using pymatgen
data_LiSc9Cd3Ni
_symmetry_space_group_name_H-M   'P 1'
_cell_length_a   8.88789200
_cell_length_b   8.88789264
_cell_length_c   8.96644700
_cell_angle_alpha   90.00000000
_cell_angle_beta   90.00000000
_cell_angle_gamma   119.99999761
_symmetry_Int_Tables_number   1
_chemical_formula_structural   LiSc9Cd3Ni
_chemical_formula_sum   'Li2 Sc18 Cd6 Ni2'
_cell_volume   613.40681496
_cell_formula_units_Z   2
loop_
 _symmetry_equiv_pos_site_id
 _symmetry_equiv_pos_as_xyz
  1  'x, y, z'
loop_
 _atom_site_type_symbol
 _atom_site_label
 _atom_site_symmetry_multiplicity
 _atom_site_fract_x
 _atom_site_fract_y
 _atom_site_fract_z
 _atom_site_occupancy
  Li  Li0  1  0.000000  0.000000  0.500000  1
  Li  Li1  1  0.000000  0.000000  0.000000  1
  Sc  Sc2  1  0.543392  0.456608  0.250000  1
  Sc  Sc3  1  0.543392  0.086784  0.250000  1
  Sc  Sc4  1  0.913216  0.456608  0.250000  1
  Sc  Sc5  1  0.456608  0.543392  0.750000  1
  Sc  Sc6  1  0.456608  0.913216  0.750000  1
  Sc  Sc7  1  0.086784  0.543392  0.750000  1
  Sc  Sc8  1  0.209266  0.790734  0.439674  1
  Sc  Sc9  1  0.209266  0.418533  0.439674  1
  Sc  Sc10  1  0.581467  0.790734  0.439674  1
  Sc  Sc11  1  0.790734  0.209266  0.560326  1
  Sc  Sc12  1  0.790734  0.581467  0.560326  1
  Sc  Sc13  1  0.418533  0.209266  0.560326  1
  Sc  Sc14  1  0.790734  0.209266  0.939674  1
  Sc  Sc15  1  0.790734  0.581467  0.939674  1
  Sc  Sc16  1  0.418533  0.209266  0.939674  1
  Sc  Sc17  1  0.209266  0.790734  0.060326  1
  Sc  Sc18  1  0.209266  0.418533  0.060326  1
  Sc  Sc19  1  0.581467  0.790734  0.060326  1
  Cd  Cd20  1  0.889345  0.110655  0.250000  1
  Cd  Cd21  1  0.889345  0.778688  0.250000  1
  Cd  Cd22  1  0.221312  0.110655  0.250000  1
  Cd  Cd23  1  0.110655  0.889345  0.750000  1
  Cd  Cd24  1  0.110655  0.221312  0.750000  1
  Cd  Cd25  1  0.778688  0.889345  0.750000  1
  Ni  Ni26  1  0.333333  0.666667  0.250000  1
  Ni  Ni27  1  0.666667  0.333333  0.750000  1
