# generated using pymatgen
data_Er4Sc6Si20IrPt7
_symmetry_space_group_name_H-M   'P 1'
_cell_length_a   12.49033879
_cell_length_b   12.48682323
_cell_length_c   4.17372100
_cell_angle_alpha   90.00000000
_cell_angle_beta   90.00000000
_cell_angle_gamma   89.98036069
_symmetry_Int_Tables_number   1
_chemical_formula_structural   Er4Sc6Si20IrPt7
_chemical_formula_sum   'Er4 Sc6 Si20 Ir1 Pt7'
_cell_volume   650.95290769
_cell_formula_units_Z   1
loop_
 _symmetry_equiv_pos_site_id
 _symmetry_equiv_pos_as_xyz
  1  'x, y, z'
loop_
 _atom_site_type_symbol
 _atom_site_label
 _atom_site_symmetry_multiplicity
 _atom_site_fract_x
 _atom_site_fract_y
 _atom_site_fract_z
 _atom_site_occupancy
  Er  Er0  1  0.886921  0.386886  0.500000  1
  Er  Er1  1  0.111948  0.613899  0.500000  1
  Er  Er2  1  0.387100  0.112900  0.500000  1
  Er  Er3  1  0.613497  0.887459  0.500000  1
  Sc  Sc4  1  0.499972  0.500435  0.000000  1
  Sc  Sc5  1  0.999652  0.995826  0.000000  1
  Sc  Sc6  1  0.676278  0.176409  0.500000  1
  Sc  Sc7  1  0.324335  0.824163  0.500000  1
  Sc  Sc8  1  0.175770  0.323806  0.500000  1
  Sc  Sc9  1  0.825133  0.676434  0.500000  1
  Si  Si10  1  0.566315  0.066683  0.000000  1
  Si  Si11  1  0.433731  0.933717  0.000000  1
  Si  Si12  1  0.065529  0.433738  0.000000  1
  Si  Si13  1  0.934003  0.568463  0.000000  1
  Si  Si14  1  0.666636  0.704829  0.000000  1
  Si  Si15  1  0.334390  0.297459  0.000000  1
  Si  Si16  1  0.162576  0.797573  0.000000  1
  Si  Si17  1  0.834940  0.202921  0.000000  1
  Si  Si18  1  0.296045  0.667255  0.000000  1
  Si  Si19  1  0.703461  0.334714  0.000000  1
  Si  Si20  1  0.203163  0.165260  0.000000  1
  Si  Si21  1  0.800640  0.834952  0.000000  1
  Si  Si22  1  0.647295  0.506640  0.500000  1
  Si  Si23  1  0.352279  0.493953  0.500000  1
  Si  Si24  1  0.147079  0.991551  0.500000  1
  Si  Si25  1  0.852337  0.005936  0.500000  1
  Si  Si26  1  0.494129  0.647750  0.500000  1
  Si  Si27  1  0.505398  0.352841  0.500000  1
  Si  Si28  1  0.006562  0.146110  0.500000  1
  Si  Si29  1  0.992882  0.848212  0.500000  1
  Ir  Ir30  1  0.977433  0.757234  0.000000  1
  Pt  Pt31  1  0.741857  0.522701  0.000000  1
  Pt  Pt32  1  0.257508  0.478284  0.000000  1
  Pt  Pt33  1  0.242426  0.977773  0.000000  1
  Pt  Pt34  1  0.757687  0.022924  0.000000  1
  Pt  Pt35  1  0.477869  0.742170  0.000000  1
  Pt  Pt36  1  0.522493  0.258448  0.000000  1
  Pt  Pt37  1  0.022734  0.241692  0.000000  1
