# generated using pymatgen
data_TbNdYAl7Cu2
_symmetry_space_group_name_H-M   'P 1'
_cell_length_a   9.13146406
_cell_length_b   9.13146432
_cell_length_c   9.13146306
_cell_angle_alpha   35.18915418
_cell_angle_beta   35.18916281
_cell_angle_gamma   35.18915070
_symmetry_Int_Tables_number   1
_chemical_formula_structural   TbNdYAl7Cu2
_chemical_formula_sum   'Tb1 Nd1 Y1 Al7 Cu2'
_cell_volume   225.84937187
_cell_formula_units_Z   1
loop_
 _symmetry_equiv_pos_site_id
 _symmetry_equiv_pos_as_xyz
  1  'x, y, z'
loop_
 _atom_site_type_symbol
 _atom_site_label
 _atom_site_symmetry_multiplicity
 _atom_site_fract_x
 _atom_site_fract_y
 _atom_site_fract_z
 _atom_site_occupancy
  Tb  Tb0  1  0.857828  0.857828  0.857828  1
  Nd  Nd1  1  0.999961  0.999961  0.999961  1
  Y  Y2  1  0.142148  0.142148  0.142148  1
  Al  Al3  1  0.417661  0.417661  0.926571  1
  Al  Al4  1  0.926571  0.417661  0.417661  1
  Al  Al5  1  0.417661  0.926571  0.417661  1
  Al  Al6  1  0.499985  0.499985  0.499985  1
  Al  Al7  1  0.582375  0.073389  0.582375  1
  Al  Al8  1  0.073389  0.582375  0.582375  1
  Al  Al9  1  0.582375  0.582375  0.073389  1
  Cu  Cu10  1  0.664577  0.664577  0.664577  1
  Cu  Cu11  1  0.335472  0.335472  0.335472  1
