# generated using pymatgen
data_Dy16In4CuOs3
_symmetry_space_group_name_H-M   'P 1'
_cell_length_a   9.67657235
_cell_length_b   9.61526359
_cell_length_c   9.67657100
_cell_angle_alpha   59.78884650
_cell_angle_beta   59.99999436
_cell_angle_gamma   59.78884640
_symmetry_Int_Tables_number   1
_chemical_formula_structural   Dy16In4CuOs3
_chemical_formula_sum   'Dy16 In4 Cu1 Os3'
_cell_volume   634.59365838
_cell_formula_units_Z   1
loop_
 _symmetry_equiv_pos_site_id
 _symmetry_equiv_pos_as_xyz
  1  'x, y, z'
loop_
 _atom_site_type_symbol
 _atom_site_label
 _atom_site_symmetry_multiplicity
 _atom_site_fract_x
 _atom_site_fract_y
 _atom_site_fract_z
 _atom_site_occupancy
  Dy  Dy0  1  0.689714  0.312547  0.308025  1
  Dy  Dy1  1  0.696965  0.683224  0.309905  1
  Dy  Dy2  1  0.309905  0.683224  0.309905  1
  Dy  Dy3  1  0.932256  0.946370  0.560688  1
  Dy  Dy4  1  0.149019  0.152900  0.549061  1
  Dy  Dy5  1  0.560688  0.946370  0.560688  1
  Dy  Dy6  1  0.149019  0.152900  0.149019  1
  Dy  Dy7  1  0.308025  0.312547  0.689714  1
  Dy  Dy8  1  0.941224  0.560486  0.557064  1
  Dy  Dy9  1  0.557064  0.560486  0.941224  1
  Dy  Dy10  1  0.560688  0.946370  0.932256  1
  Dy  Dy11  1  0.941224  0.560486  0.941224  1
  Dy  Dy12  1  0.152054  0.543835  0.152054  1
  Dy  Dy13  1  0.309905  0.683224  0.696965  1
  Dy  Dy14  1  0.689714  0.312547  0.689714  1
  Dy  Dy15  1  0.549061  0.152900  0.149019  1
  In  In16  1  0.917266  0.918538  0.246932  1
  In  In17  1  0.246932  0.918538  0.917266  1
  In  In18  1  0.916948  0.249156  0.916948  1
  In  In19  1  0.917266  0.918538  0.917266  1
  Cu  Cu20  1  0.359422  0.921735  0.359422  1
  Os  Os21  1  0.360481  0.354359  0.360481  1
  Os  Os22  1  0.924681  0.354359  0.360481  1
  Os  Os23  1  0.360481  0.354359  0.924681  1
