# generated using pymatgen
data_AsBr(OF3)2
_symmetry_space_group_name_H-M   'P 1'
_cell_length_a   5.93087000
_cell_length_b   7.13739165
_cell_length_c   10.08403886
_cell_angle_alpha   48.78755970
_cell_angle_beta   90.00000000
_cell_angle_gamma   90.00000000
_symmetry_Int_Tables_number   1
_chemical_formula_structural   AsBr(OF3)2
_chemical_formula_sum   'As2 Br2 O4 F12'
_cell_volume   321.11993575
_cell_formula_units_Z   2
loop_
 _symmetry_equiv_pos_site_id
 _symmetry_equiv_pos_as_xyz
  1  'x, y, z'
loop_
 _atom_site_type_symbol
 _atom_site_label
 _atom_site_symmetry_multiplicity
 _atom_site_fract_x
 _atom_site_fract_y
 _atom_site_fract_z
 _atom_site_occupancy
  As  As0  1  0.507384  0.000000  0.750000  1
  As  As1  1  0.492616  0.000000  0.250000  1
  Br  Br2  1  0.826529  0.500000  0.250000  1
  Br  Br3  1  0.173471  0.500000  0.750000  1
  O  O4  1  0.980433  0.645144  0.074966  1
  O  O5  1  0.019567  0.354856  0.925034  1
  O  O6  1  0.980433  0.354856  0.425034  1
  O  O7  1  0.019567  0.645144  0.574966  1
  F  F8  1  0.494970  0.740467  0.978788  1
  F  F9  1  0.281128  0.139920  0.781837  1
  F  F10  1  0.281128  0.860080  0.718163  1
  F  F11  1  0.505030  0.259533  0.021212  1
  F  F12  1  0.708864  0.853514  0.718515  1
  F  F13  1  0.494970  0.259533  0.521212  1
  F  F14  1  0.718872  0.139920  0.281837  1
  F  F15  1  0.291136  0.853514  0.218515  1
  F  F16  1  0.505030  0.740467  0.478788  1
  F  F17  1  0.708864  0.146486  0.781485  1
  F  F18  1  0.718872  0.860080  0.218163  1
  F  F19  1  0.291136  0.146486  0.281485  1
