# generated using pymatgen
data_Be8AlReOs2
_symmetry_space_group_name_H-M   'P 1'
_cell_length_a   4.35334500
_cell_length_b   4.35334494
_cell_length_c   7.11154100
_cell_angle_alpha   90.00000000
_cell_angle_beta   90.00000000
_cell_angle_gamma   120.00000808
_symmetry_Int_Tables_number   1
_chemical_formula_structural   Be8AlReOs2
_chemical_formula_sum   'Be8 Al1 Re1 Os2'
_cell_volume   116.71871040
_cell_formula_units_Z   1
loop_
 _symmetry_equiv_pos_site_id
 _symmetry_equiv_pos_as_xyz
  1  'x, y, z'
loop_
 _atom_site_type_symbol
 _atom_site_label
 _atom_site_symmetry_multiplicity
 _atom_site_fract_x
 _atom_site_fract_y
 _atom_site_fract_z
 _atom_site_occupancy
  Be  Be0  1  0.000000  0.000000  0.998767  1
  Be  Be1  1  0.000000  0.000000  0.502404  1
  Be  Be2  1  0.833333  0.666666  0.251890  1
  Be  Be3  1  0.171128  0.828872  0.748576  1
  Be  Be4  1  0.657744  0.828872  0.748576  1
  Be  Be5  1  0.333334  0.166667  0.251890  1
  Be  Be6  1  0.833333  0.166667  0.251890  1
  Be  Be7  1  0.171128  0.342256  0.748576  1
  Al  Al8  1  0.666667  0.333333  0.935213  1
  Re  Re9  1  0.333333  0.666667  0.438173  1
  Os  Os10  1  0.333333  0.666667  0.062472  1
  Os  Os11  1  0.666667  0.333333  0.561573  1
