# generated using pymatgen
data_Na2PuSe3
_symmetry_space_group_name_H-M   'P 1'
_cell_length_a   7.31496813
_cell_length_b   7.31496826
_cell_length_c   7.34864001
_cell_angle_alpha   80.36034438
_cell_angle_beta   80.36034343
_cell_angle_gamma   120.08374849
_symmetry_Int_Tables_number   1
_chemical_formula_structural   Na2PuSe3
_chemical_formula_sum   'Na4 Pu2 Se6'
_cell_volume   320.54811346
_cell_formula_units_Z   2
loop_
 _symmetry_equiv_pos_site_id
 _symmetry_equiv_pos_as_xyz
  1  'x, y, z'
loop_
 _atom_site_type_symbol
 _atom_site_label
 _atom_site_symmetry_multiplicity
 _atom_site_fract_x
 _atom_site_fract_y
 _atom_site_fract_z
 _atom_site_occupancy
  Na  Na0  1  0.000000  0.000000  0.000000  1
  Na  Na1  1  0.500000  0.500000  0.500000  1
  Na  Na2  1  0.840403  0.159597  0.500000  1
  Na  Na3  1  0.159597  0.840403  0.500000  1
  Pu  Pu4  1  0.332995  0.667005  0.000000  1
  Pu  Pu5  1  0.667005  0.332995  0.000000  1
  Se  Se6  1  0.565576  0.923549  0.226488  1
  Se  Se7  1  0.719650  0.719650  0.771039  1
  Se  Se8  1  0.434424  0.076451  0.773512  1
  Se  Se9  1  0.076451  0.434424  0.773512  1
  Se  Se10  1  0.923549  0.565576  0.226488  1
  Se  Se11  1  0.280350  0.280350  0.228961  1
