# generated using pymatgen
data_Hf9Mn(In7Co3)2
_symmetry_space_group_name_H-M   'P 1'
_cell_length_a   9.40906757
_cell_length_b   9.40906681
_cell_length_c   9.40906700
_cell_angle_alpha   60.00000286
_cell_angle_beta   60.00000554
_cell_angle_gamma   60.00000101
_symmetry_Int_Tables_number   1
_chemical_formula_structural   Hf9Mn(In7Co3)2
_chemical_formula_sum   'Hf9 Mn1 In14 Co6'
_cell_volume   589.01280197
_cell_formula_units_Z   1
loop_
 _symmetry_equiv_pos_site_id
 _symmetry_equiv_pos_as_xyz
  1  'x, y, z'
loop_
 _atom_site_type_symbol
 _atom_site_label
 _atom_site_symmetry_multiplicity
 _atom_site_fract_x
 _atom_site_fract_y
 _atom_site_fract_z
 _atom_site_occupancy
  Hf  Hf0  1  0.118980  0.643061  0.118980  1
  Hf  Hf1  1  0.356939  0.881020  0.881020  1
  Hf  Hf2  1  0.881020  0.881020  0.881020  1
  Hf  Hf3  1  0.643061  0.118980  0.118980  1
  Hf  Hf4  1  0.500000  0.500000  0.500000  1
  Hf  Hf5  1  0.881020  0.881020  0.356939  1
  Hf  Hf6  1  0.118980  0.118980  0.118980  1
  Hf  Hf7  1  0.881020  0.356939  0.881020  1
  Hf  Hf8  1  0.118980  0.118980  0.643061  1
  Mn  Mn9  1  0.000000  0.000000  0.000000  1
  In  In10  1  0.500000  0.842170  0.157830  1
  In  In11  1  0.500000  0.842170  0.500000  1
  In  In12  1  0.500000  0.157830  0.500000  1
  In  In13  1  0.500000  0.500000  0.842170  1
  In  In14  1  0.157830  0.500000  0.500000  1
  In  In15  1  0.842170  0.157830  0.500000  1
  In  In16  1  0.157830  0.842170  0.500000  1
  In  In17  1  0.500000  0.157830  0.842170  1
  In  In18  1  0.157830  0.500000  0.842170  1
  In  In19  1  0.500000  0.500000  0.157830  1
  In  In20  1  0.842170  0.500000  0.500000  1
  In  In21  1  0.842170  0.500000  0.157830  1
  In  In22  1  0.250000  0.250000  0.250000  1
  In  In23  1  0.750000  0.750000  0.750000  1
  Co  Co24  1  0.779278  0.779278  0.220722  1
  Co  Co25  1  0.220722  0.779278  0.220722  1
  Co  Co26  1  0.220722  0.779278  0.779278  1
  Co  Co27  1  0.220722  0.220722  0.779278  1
  Co  Co28  1  0.779278  0.220722  0.779278  1
  Co  Co29  1  0.779278  0.220722  0.220722  1
