# generated using pymatgen
data_BrOF8
_symmetry_space_group_name_H-M   'P 1'
_cell_length_a   5.84757800
_cell_length_b   7.67966514
_cell_length_c   10.61215617
_cell_angle_alpha   44.59627124
_cell_angle_beta   90.00000000
_cell_angle_gamma   90.00000000
_symmetry_Int_Tables_number   1
_chemical_formula_structural   BrOF8
_chemical_formula_sum   'Br2 O2 F16'
_cell_volume   334.59932878
_cell_formula_units_Z   2
loop_
 _symmetry_equiv_pos_site_id
 _symmetry_equiv_pos_as_xyz
  1  'x, y, z'
loop_
 _atom_site_type_symbol
 _atom_site_label
 _atom_site_symmetry_multiplicity
 _atom_site_fract_x
 _atom_site_fract_y
 _atom_site_fract_z
 _atom_site_occupancy
  Br  Br0  1  0.003934  0.500000  0.750000  1
  Br  Br1  1  0.996066  0.500000  0.250000  1
  O  O2  1  0.361871  0.000000  0.750000  1
  O  O3  1  0.638129  0.000000  0.250000  1
  F  F4  1  0.491603  0.854278  0.400347  1
  F  F5  1  0.508397  0.854278  0.900347  1
  F  F6  1  0.491603  0.145722  0.099653  1
  F  F7  1  0.508397  0.145722  0.599653  1
  F  F8  1  0.773794  0.339396  0.240333  1
  F  F9  1  0.004749  0.244090  0.996323  1
  F  F10  1  0.226206  0.339396  0.740333  1
  F  F11  1  0.218210  0.341884  0.240184  1
  F  F12  1  0.773794  0.660604  0.259667  1
  F  F13  1  0.781790  0.658116  0.759816  1
  F  F14  1  0.995251  0.244090  0.496323  1
  F  F15  1  0.781790  0.341884  0.740184  1
  F  F16  1  0.226206  0.660604  0.759667  1
  F  F17  1  0.004749  0.755910  0.503677  1
  F  F18  1  0.995251  0.755910  0.003677  1
  F  F19  1  0.218210  0.658116  0.259816  1
