# generated using pymatgen
data_Tb4Ga20Ni10Pd
_symmetry_space_group_name_H-M   'P 1'
_cell_length_a   4.10720728
_cell_length_b   10.64376834
_cell_length_c   13.03638018
_cell_angle_alpha   80.76416946
_cell_angle_beta   80.64664415
_cell_angle_gamma   78.60078182
_symmetry_Int_Tables_number   1
_chemical_formula_structural   Tb4Ga20Ni10Pd
_chemical_formula_sum   'Tb4 Ga20 Ni10 Pd1'
_cell_volume   546.35433002
_cell_formula_units_Z   1
loop_
 _symmetry_equiv_pos_site_id
 _symmetry_equiv_pos_as_xyz
  1  'x, y, z'
loop_
 _atom_site_type_symbol
 _atom_site_label
 _atom_site_symmetry_multiplicity
 _atom_site_fract_x
 _atom_site_fract_y
 _atom_site_fract_z
 _atom_site_occupancy
  Tb  Tb0  1  0.122684  0.098307  0.662569  1
  Tb  Tb1  1  0.231201  0.364325  0.180864  1
  Tb  Tb2  1  0.775320  0.632856  0.819043  1
  Tb  Tb3  1  0.882200  0.903407  0.335340  1
  Ga  Ga4  1  0.067076  0.665766  0.203140  1
  Ga  Ga5  1  0.297254  0.905092  0.500221  1
  Ga  Ga6  1  0.607239  0.785893  0.010096  1
  Ga  Ga7  1  0.254423  0.794054  0.696216  1
  Ga  Ga8  1  0.890199  0.669240  0.548261  1
  Ga  Ga9  1  0.756246  0.201676  0.295542  1
  Ga  Ga10  1  0.633058  0.948434  0.795126  1
  Ga  Ga11  1  0.706249  0.098221  0.496189  1
  Ga  Ga12  1  0.397714  0.208290  0.996985  1
  Ga  Ga13  1  0.938339  0.335181  0.795300  1
  Ga  Ga14  1  0.461459  0.702787  0.378369  1
  Ga  Ga15  1  0.991586  0.924938  0.093690  1
  Ga  Ga16  1  0.804206  0.398351  0.003559  1
  Ga  Ga17  1  0.542716  0.297353  0.621376  1
  Ga  Ga18  1  0.006961  0.086129  0.909037  1
  Ga  Ga19  1  0.202973  0.593345  0.998861  1
  Ga  Ga20  1  0.114411  0.330561  0.450557  1
  Ga  Ga21  1  0.371524  0.059058  0.197954  1
  Ga  Ga22  1  0.614434  0.470980  0.309242  1
  Ga  Ga23  1  0.391115  0.526523  0.691540  1
  Ni  Ni24  1  0.505038  0.186436  0.811624  1
  Ni  Ni25  1  0.867041  0.161197  0.103982  1
  Ni  Ni26  1  0.975380  0.436752  0.612260  1
  Ni  Ni27  1  0.502999  0.500357  0.499507  1
  Ni  Ni28  1  0.652837  0.576181  0.117413  1
  Ni  Ni29  1  0.029356  0.563273  0.386636  1
  Ni  Ni30  1  0.352652  0.419384  0.885027  1
  Ni  Ni31  1  0.251834  0.120969  0.386080  1
  Ni  Ni32  1  0.497929  0.816698  0.190158  1
  Ni  Ni33  1  0.753072  0.880702  0.610386  1
  Pd  Pd34  1  0.140084  0.839208  0.893487  1
