# generated using pymatgen
data_CeDy2Pa(Ni2Sn)2
_symmetry_space_group_name_H-M   'P 1'
_cell_length_a   7.40237359
_cell_length_b   7.40237428
_cell_length_c   3.64457800
_cell_angle_alpha   90.00000000
_cell_angle_beta   90.00000000
_cell_angle_gamma   93.02059321
_symmetry_Int_Tables_number   1
_chemical_formula_structural   CeDy2Pa(Ni2Sn)2
_chemical_formula_sum   'Ce1 Dy2 Pa1 Ni4 Sn2'
_cell_volume   199.42770285
_cell_formula_units_Z   1
loop_
 _symmetry_equiv_pos_site_id
 _symmetry_equiv_pos_as_xyz
  1  'x, y, z'
loop_
 _atom_site_type_symbol
 _atom_site_label
 _atom_site_symmetry_multiplicity
 _atom_site_fract_x
 _atom_site_fract_y
 _atom_site_fract_z
 _atom_site_occupancy
  Ce  Ce0  1  0.678101  0.178101  0.500000  1
  Dy  Dy1  1  0.174404  0.327182  0.500000  1
  Dy  Dy2  1  0.827182  0.674404  0.500000  1
  Pa  Pa3  1  0.325770  0.825770  0.500000  1
  Ni  Ni4  1  0.877886  0.377886  0.000000  1
  Ni  Ni5  1  0.135220  0.635220  0.000000  1
  Ni  Ni6  1  0.372808  0.107571  0.000000  1
  Ni  Ni7  1  0.607571  0.872808  0.000000  1
  Sn  Sn8  1  0.501300  0.499758  0.000000  1
  Sn  Sn9  1  0.999758  0.001300  0.000000  1
