# generated using pymatgen
data_Sc5Ni(P2Ru3)6
_symmetry_space_group_name_H-M   'P 1'
_cell_length_a   12.37410400
_cell_length_b   12.37410451
_cell_length_c   3.92483800
_cell_angle_alpha   90.00000000
_cell_angle_beta   90.00000000
_cell_angle_gamma   119.99999864
_symmetry_Int_Tables_number   1
_chemical_formula_structural   Sc5Ni(P2Ru3)6
_chemical_formula_sum   'Sc5 Ni1 P12 Ru18'
_cell_volume   520.45108080
_cell_formula_units_Z   1
loop_
 _symmetry_equiv_pos_site_id
 _symmetry_equiv_pos_as_xyz
  1  'x, y, z'
loop_
 _atom_site_type_symbol
 _atom_site_label
 _atom_site_symmetry_multiplicity
 _atom_site_fract_x
 _atom_site_fract_y
 _atom_site_fract_z
 _atom_site_occupancy
  Sc  Sc0  1  0.333333  0.666667  0.000000  1
  Sc  Sc1  1  0.666667  0.333333  0.000000  1
  Sc  Sc2  1  0.813175  0.000000  0.500000  1
  Sc  Sc3  1  0.000000  0.813175  0.500000  1
  Sc  Sc4  1  0.186825  0.186825  0.500000  1
  Ni  Ni5  1  0.000000  0.000000  0.000000  1
  P  P6  1  0.174477  0.000000  0.000000  1
  P  P7  1  0.000000  0.174477  0.000000  1
  P  P8  1  0.825523  0.825523  0.000000  1
  P  P9  1  0.169688  0.476185  0.500000  1
  P  P10  1  0.523815  0.693503  0.500000  1
  P  P11  1  0.306497  0.830312  0.500000  1
  P  P12  1  0.693503  0.523815  0.500000  1
  P  P13  1  0.830312  0.306497  0.500000  1
  P  P14  1  0.476185  0.169688  0.500000  1
  P  P15  1  0.627538  0.000000  0.000000  1
  P  P16  1  0.000000  0.627538  0.000000  1
  P  P17  1  0.372462  0.372462  0.000000  1
  Ru  Ru18  1  0.442496  0.000000  0.000000  1
  Ru  Ru19  1  0.000000  0.442496  0.000000  1
  Ru  Ru20  1  0.557504  0.557504  0.000000  1
  Ru  Ru21  1  0.365355  0.493524  0.500000  1
  Ru  Ru22  1  0.506476  0.871832  0.500000  1
  Ru  Ru23  1  0.128168  0.634645  0.500000  1
  Ru  Ru24  1  0.871832  0.506476  0.500000  1
  Ru  Ru25  1  0.634645  0.128168  0.500000  1
  Ru  Ru26  1  0.493524  0.365355  0.500000  1
  Ru  Ru27  1  0.184893  0.372446  0.000000  1
  Ru  Ru28  1  0.627554  0.812448  0.000000  1
  Ru  Ru29  1  0.187552  0.815107  0.000000  1
  Ru  Ru30  1  0.812448  0.627554  0.000000  1
  Ru  Ru31  1  0.815107  0.187552  0.000000  1
  Ru  Ru32  1  0.372446  0.184893  0.000000  1
  Ru  Ru33  1  0.274724  0.000000  0.500000  1
  Ru  Ru34  1  0.000000  0.274724  0.500000  1
  Ru  Ru35  1  0.725276  0.725276  0.500000  1
