# generated using pymatgen
data_Lu3Pa(CdNi2)2
_symmetry_space_group_name_H-M   'P 1'
_cell_length_a   7.37120417
_cell_length_b   7.37120316
_cell_length_c   3.50427100
_cell_angle_alpha   90.00000000
_cell_angle_beta   90.00000000
_cell_angle_gamma   92.23469693
_symmetry_Int_Tables_number   1
_chemical_formula_structural   Lu3Pa(CdNi2)2
_chemical_formula_sum   'Lu3 Pa1 Cd2 Ni4'
_cell_volume   190.25851095
_cell_formula_units_Z   1
loop_
 _symmetry_equiv_pos_site_id
 _symmetry_equiv_pos_as_xyz
  1  'x, y, z'
loop_
 _atom_site_type_symbol
 _atom_site_label
 _atom_site_symmetry_multiplicity
 _atom_site_fract_x
 _atom_site_fract_y
 _atom_site_fract_z
 _atom_site_occupancy
  Lu  Lu0  1  0.327019  0.827019  0.500000  1
  Lu  Lu1  1  0.171285  0.331720  0.500000  1
  Lu  Lu2  1  0.831720  0.671285  0.500000  1
  Pa  Pa3  1  0.668965  0.168965  0.500000  1
  Cd  Cd4  1  0.009409  0.996429  0.000000  1
  Cd  Cd5  1  0.496429  0.509409  0.000000  1
  Ni  Ni6  1  0.112689  0.612689  0.000000  1
  Ni  Ni7  1  0.861423  0.361423  0.000000  1
  Ni  Ni8  1  0.629820  0.891239  0.000000  1
  Ni  Ni9  1  0.391239  0.129820  0.000000  1
