# generated using pymatgen
data_La7Ho3(Sn3Cl)2
_symmetry_space_group_name_H-M   'P 1'
_cell_length_a   9.43896300
_cell_length_b   9.43896211
_cell_length_c   6.74706000
_cell_angle_alpha   90.00000000
_cell_angle_beta   90.00000000
_cell_angle_gamma   119.99999963
_symmetry_Int_Tables_number   1
_chemical_formula_structural   La7Ho3(Sn3Cl)2
_chemical_formula_sum   'La7 Ho3 Sn6 Cl2'
_cell_volume   520.58749512
_cell_formula_units_Z   1
loop_
 _symmetry_equiv_pos_site_id
 _symmetry_equiv_pos_as_xyz
  1  'x, y, z'
loop_
 _atom_site_type_symbol
 _atom_site_label
 _atom_site_symmetry_multiplicity
 _atom_site_fract_x
 _atom_site_fract_y
 _atom_site_fract_z
 _atom_site_occupancy
  La  La0  1  0.260868  0.000060  0.750848  1
  La  La1  1  0.739191  0.000060  0.249152  1
  La  La2  1  0.999940  0.260809  0.750848  1
  La  La3  1  0.999940  0.739132  0.249152  1
  La  La4  1  0.739191  0.739132  0.750848  1
  La  La5  1  0.260868  0.260809  0.249152  1
  La  La6  1  0.333333  0.666667  0.500000  1
  Ho  Ho7  1  0.666667  0.333333  0.500000  1
  Ho  Ho8  1  0.666667  0.333333  0.000000  1
  Ho  Ho9  1  0.333333  0.666667  0.000000  1
  Sn  Sn10  1  0.610019  0.004838  0.754208  1
  Sn  Sn11  1  0.394819  0.004838  0.245792  1
  Sn  Sn12  1  0.995162  0.605181  0.754208  1
  Sn  Sn13  1  0.995162  0.389981  0.245792  1
  Sn  Sn14  1  0.394819  0.389981  0.754208  1
  Sn  Sn15  1  0.610019  0.605181  0.245792  1
  Cl  Cl16  1  0.000000  0.000000  0.500000  1
  Cl  Cl17  1  0.000000  0.000000  0.000000  1
