# generated using pymatgen
data_La10InGaSi4
_symmetry_space_group_name_H-M   'P 1'
_cell_length_a   8.05971300
_cell_length_b   9.16019283
_cell_length_c   8.05971300
_cell_angle_alpha   116.09950807
_cell_angle_beta   90.00000000
_cell_angle_gamma   116.09950807
_symmetry_Int_Tables_number   1
_chemical_formula_structural   La10InGaSi4
_chemical_formula_sum   'La10 In1 Ga1 Si4'
_cell_volume   465.84977169
_cell_formula_units_Z   1
loop_
 _symmetry_equiv_pos_site_id
 _symmetry_equiv_pos_as_xyz
  1  'x, y, z'
loop_
 _atom_site_type_symbol
 _atom_site_label
 _atom_site_symmetry_multiplicity
 _atom_site_fract_x
 _atom_site_fract_y
 _atom_site_fract_z
 _atom_site_occupancy
  La  La0  1  0.996090  0.992183  0.996090  1
  La  La1  1  0.503910  0.007817  0.503910  1
  La  La2  1  0.530366  0.714482  0.673911  1
  La  La3  1  0.184117  0.714482  0.040572  1
  La  La4  1  0.673911  0.714482  0.184117  1
  La  La5  1  0.040572  0.714482  0.530366  1
  La  La6  1  0.459428  0.285518  0.315883  1
  La  La7  1  0.826089  0.285518  0.969634  1
  La  La8  1  0.315883  0.285518  0.826089  1
  La  La9  1  0.969634  0.285518  0.459428  1
  In  In10  1  0.750000  0.500000  0.750000  1
  Ga  Ga11  1  0.250000  0.500000  0.250000  1
  Si  Si12  1  0.888144  0.000000  0.611856  1
  Si  Si13  1  0.111856  0.000000  0.388144  1
  Si  Si14  1  0.611856  0.000000  0.111856  1
  Si  Si15  1  0.388144  0.000000  0.888144  1
