# generated using pymatgen
data_RbBa4Co4(P5Os3)2
_symmetry_space_group_name_H-M   'P 1'
_cell_length_a   8.91765973
_cell_length_b   8.91157417
_cell_length_c   8.90907676
_cell_angle_alpha   120.88480564
_cell_angle_beta   120.89488264
_cell_angle_gamma   88.46955173
_symmetry_Int_Tables_number   1
_chemical_formula_structural   RbBa4Co4(P5Os3)2
_chemical_formula_sum   'Rb1 Ba4 Co4 P10 Os6'
_cell_volume   493.69453240
_cell_formula_units_Z   1
loop_
 _symmetry_equiv_pos_site_id
 _symmetry_equiv_pos_as_xyz
  1  'x, y, z'
loop_
 _atom_site_type_symbol
 _atom_site_label
 _atom_site_symmetry_multiplicity
 _atom_site_fract_x
 _atom_site_fract_y
 _atom_site_fract_z
 _atom_site_occupancy
  Rb  Rb0  1  0.000222  0.000282  0.000242  1
  Ba  Ba1  1  0.390732  0.802098  0.193928  1
  Ba  Ba2  1  0.802657  0.608467  0.411247  1
  Ba  Ba3  1  0.197447  0.391023  0.589001  1
  Ba  Ba4  1  0.608799  0.197520  0.805441  1
  Co  Co5  1  0.951069  0.648635  0.098535  1
  Co  Co6  1  0.347521  0.449013  0.297388  1
  Co  Co7  1  0.750885  0.249200  0.502386  1
  Co  Co8  1  0.151464  0.054176  0.701642  1
  P  P9  1  0.944178  0.541764  0.797772  1
  P  P10  1  0.344537  0.346288  0.000677  1
  P  P11  1  0.746602  0.148845  0.207748  1
  P  P12  1  0.144968  0.945696  0.401555  1
  P  P13  1  0.540117  0.738643  0.591797  1
  P  P14  1  0.660311  0.652116  0.001760  1
  P  P15  1  0.054501  0.456609  0.198268  1
  P  P16  1  0.456292  0.254981  0.400713  1
  P  P17  1  0.856095  0.056331  0.600817  1
  P  P18  1  0.252112  0.859131  0.798833  1
  Os  Os19  1  0.549077  0.849005  0.900041  1
  Os  Os20  1  0.651081  0.545103  0.696684  1
  Os  Os21  1  0.050428  0.350055  0.899588  1
  Os  Os22  1  0.450177  0.155882  0.104142  1
  Os  Os23  1  0.853441  0.950011  0.305127  1
  Os  Os24  1  0.245287  0.749125  0.494670  1
