# generated using pymatgen
data_Ti10Sn6Ge
_symmetry_space_group_name_H-M   'P 1'
_cell_length_a   8.18575800
_cell_length_b   8.18575767
_cell_length_c   5.52552000
_cell_angle_alpha   90.00000000
_cell_angle_beta   90.00000000
_cell_angle_gamma   120.00000132
_symmetry_Int_Tables_number   1
_chemical_formula_structural   Ti10Sn6Ge
_chemical_formula_sum   'Ti10 Sn6 Ge1'
_cell_volume   320.64285456
_cell_formula_units_Z   1
loop_
 _symmetry_equiv_pos_site_id
 _symmetry_equiv_pos_as_xyz
  1  'x, y, z'
loop_
 _atom_site_type_symbol
 _atom_site_label
 _atom_site_symmetry_multiplicity
 _atom_site_fract_x
 _atom_site_fract_y
 _atom_site_fract_z
 _atom_site_occupancy
  Ti  Ti0  1  0.666667  0.333333  0.500000  1
  Ti  Ti1  1  0.333333  0.666667  0.500000  1
  Ti  Ti2  1  0.333333  0.666667  0.000000  1
  Ti  Ti3  1  0.666667  0.333333  0.000000  1
  Ti  Ti4  1  0.742009  0.742009  0.239618  1
  Ti  Ti5  1  0.257991  0.000000  0.239618  1
  Ti  Ti6  1  0.000000  0.257991  0.239618  1
  Ti  Ti7  1  0.257991  0.257991  0.760382  1
  Ti  Ti8  1  0.742009  0.000000  0.760382  1
  Ti  Ti9  1  0.000000  0.742009  0.760382  1
  Sn  Sn10  1  0.389805  0.389805  0.252639  1
  Sn  Sn11  1  0.610195  0.000000  0.252639  1
  Sn  Sn12  1  0.000000  0.610195  0.252639  1
  Sn  Sn13  1  0.610195  0.610195  0.747361  1
  Sn  Sn14  1  0.389805  0.000000  0.747361  1
  Sn  Sn15  1  0.000000  0.389805  0.747361  1
  Ge  Ge16  1  0.000000  0.000000  0.500000  1
