# generated using pymatgen
data_Li2Er(P3Pd10)2
_symmetry_space_group_name_H-M   'P 1'
_cell_length_a   8.58646764
_cell_length_b   8.58646743
_cell_length_c   8.58646800
_cell_angle_alpha   59.99999781
_cell_angle_beta   59.99999861
_cell_angle_gamma   59.99999605
_symmetry_Int_Tables_number   1
_chemical_formula_structural   Li2Er(P3Pd10)2
_chemical_formula_sum   'Li2 Er1 P6 Pd20'
_cell_volume   447.63970173
_cell_formula_units_Z   1
loop_
 _symmetry_equiv_pos_site_id
 _symmetry_equiv_pos_as_xyz
  1  'x, y, z'
loop_
 _atom_site_type_symbol
 _atom_site_label
 _atom_site_symmetry_multiplicity
 _atom_site_fract_x
 _atom_site_fract_y
 _atom_site_fract_z
 _atom_site_occupancy
  Li  Li0  1  0.000000  0.000000  0.000000  1
  Li  Li1  1  0.750000  0.750000  0.750000  1
  Er  Er2  1  0.250000  0.250000  0.250000  1
  P  P3  1  0.737559  0.262441  0.262441  1
  P  P4  1  0.737559  0.737559  0.262441  1
  P  P5  1  0.737559  0.262441  0.737559  1
  P  P6  1  0.262441  0.737559  0.262441  1
  P  P7  1  0.262441  0.737559  0.737559  1
  P  P8  1  0.262441  0.262441  0.737559  1
  Pd  Pd9  1  0.343725  0.000431  0.000431  1
  Pd  Pd10  1  0.000431  0.655413  0.343725  1
  Pd  Pd11  1  0.343725  0.000431  0.655413  1
  Pd  Pd12  1  0.000431  0.655413  0.000431  1
  Pd  Pd13  1  0.655413  0.343725  0.000431  1
  Pd  Pd14  1  0.616717  0.616717  0.149847  1
  Pd  Pd15  1  0.384395  0.846817  0.384395  1
  Pd  Pd16  1  0.149847  0.616717  0.616717  1
  Pd  Pd17  1  0.655413  0.000431  0.343725  1
  Pd  Pd18  1  0.000431  0.343725  0.655413  1
  Pd  Pd19  1  0.655413  0.000431  0.000431  1
  Pd  Pd20  1  0.000431  0.000431  0.343725  1
  Pd  Pd21  1  0.616717  0.149847  0.616717  1
  Pd  Pd22  1  0.343725  0.655413  0.000431  1
  Pd  Pd23  1  0.384395  0.384395  0.384395  1
  Pd  Pd24  1  0.616717  0.616717  0.616717  1
  Pd  Pd25  1  0.384395  0.384395  0.846817  1
  Pd  Pd26  1  0.000431  0.000431  0.655413  1
  Pd  Pd27  1  0.846817  0.384395  0.384395  1
  Pd  Pd28  1  0.000431  0.343725  0.000431  1
