# generated using pymatgen
data_Li8TbY7(Sn3Bi)2
_symmetry_space_group_name_H-M   'P 1'
_cell_length_a   9.43768448
_cell_length_b   9.43432951
_cell_length_c   7.30493731
_cell_angle_alpha   90.10085525
_cell_angle_beta   89.79302295
_cell_angle_gamma   120.01290919
_symmetry_Int_Tables_number   1
_chemical_formula_structural   Li8TbY7(Sn3Bi)2
_chemical_formula_sum   'Li8 Tb1 Y7 Sn6 Bi2'
_cell_volume   563.20211430
_cell_formula_units_Z   1
loop_
 _symmetry_equiv_pos_site_id
 _symmetry_equiv_pos_as_xyz
  1  'x, y, z'
loop_
 _atom_site_type_symbol
 _atom_site_label
 _atom_site_symmetry_multiplicity
 _atom_site_fract_x
 _atom_site_fract_y
 _atom_site_fract_z
 _atom_site_occupancy
  Li  Li0  1  0.164415  0.828771  0.196265  1
  Li  Li1  1  0.335609  0.171158  0.696135  1
  Li  Li2  1  0.829497  0.663624  0.692404  1
  Li  Li3  1  0.165742  0.336368  0.192506  1
  Li  Li4  1  0.665609  0.832027  0.196762  1
  Li  Li5  1  0.833642  0.168068  0.696623  1
  Li  Li6  1  0.334438  0.664218  0.814094  1
  Li  Li7  1  0.670362  0.335809  0.314167  1
  Tb  Tb8  1  0.515305  0.492320  0.989261  1
  Y  Y9  1  0.023092  0.507724  0.489282  1
  Y  Y10  1  0.495402  0.975545  0.491362  1
  Y  Y11  1  0.519877  0.024411  0.991370  1
  Y  Y12  1  0.971946  0.482376  0.993131  1
  Y  Y13  1  0.489490  0.517619  0.493147  1
  Y  Y14  1  0.992991  0.000329  0.985450  1
  Y  Y15  1  0.992670  0.999696  0.485451  1
  Sn  Sn16  1  0.833542  0.667119  0.254744  1
  Sn  Sn17  1  0.166294  0.332847  0.754672  1
  Sn  Sn18  1  0.667016  0.833967  0.754621  1
  Sn  Sn19  1  0.833081  0.166095  0.254645  1
  Sn  Sn20  1  0.333561  0.667530  0.223766  1
  Sn  Sn21  1  0.666157  0.332485  0.723681  1
  Bi  Bi22  1  0.167190  0.834042  0.753197  1
  Bi  Bi23  1  0.333073  0.165852  0.253267  1
