# generated using pymatgen
data_Lu4Al14Ga3SiIr6
_symmetry_space_group_name_H-M   'P 1'
_cell_length_a   7.51117447
_cell_length_b   7.51117366
_cell_length_c   9.39450500
_cell_angle_alpha   90.00000000
_cell_angle_beta   90.00000000
_cell_angle_gamma   119.72419934
_symmetry_Int_Tables_number   1
_chemical_formula_structural   Lu4Al14Ga3SiIr6
_chemical_formula_sum   'Lu4 Al14 Ga3 Si1 Ir6'
_cell_volume   460.27825710
_cell_formula_units_Z   1
loop_
 _symmetry_equiv_pos_site_id
 _symmetry_equiv_pos_as_xyz
  1  'x, y, z'
loop_
 _atom_site_type_symbol
 _atom_site_label
 _atom_site_symmetry_multiplicity
 _atom_site_fract_x
 _atom_site_fract_y
 _atom_site_fract_z
 _atom_site_occupancy
  Lu  Lu0  1  0.996842  0.676808  0.250000  1
  Lu  Lu1  1  0.003590  0.331995  0.750000  1
  Lu  Lu2  1  0.676808  0.996842  0.250000  1
  Lu  Lu3  1  0.331995  0.003590  0.750000  1
  Al  Al4  1  0.999504  0.336977  0.077845  1
  Al  Al5  1  0.997454  0.666164  0.925813  1
  Al  Al6  1  0.997454  0.666164  0.574187  1
  Al  Al7  1  0.336977  0.999504  0.422155  1
  Al  Al8  1  0.999504  0.336977  0.422155  1
  Al  Al9  1  0.666164  0.997454  0.574187  1
  Al  Al10  1  0.666164  0.997454  0.925813  1
  Al  Al11  1  0.336977  0.999504  0.077845  1
  Al  Al12  1  0.332367  0.332367  0.554469  1
  Al  Al13  1  0.663648  0.663648  0.437303  1
  Al  Al14  1  0.663648  0.663648  0.062697  1
  Al  Al15  1  0.332367  0.332367  0.945531  1
  Al  Al16  1  0.334559  0.549802  0.250000  1
  Al  Al17  1  0.549802  0.334559  0.250000  1
  Ga  Ga18  1  0.879035  0.879035  0.750000  1
  Ga  Ga19  1  0.659764  0.451998  0.750000  1
  Ga  Ga20  1  0.451998  0.659764  0.750000  1
  Si  Si21  1  0.131593  0.131593  0.250000  1
  Ir  Ir22  1  0.670360  0.326029  0.001971  1
  Ir  Ir23  1  0.326029  0.670360  0.001971  1
  Ir  Ir24  1  0.326029  0.670360  0.498029  1
  Ir  Ir25  1  0.670360  0.326029  0.498029  1
  Ir  Ir26  1  0.999507  0.999507  0.010827  1
  Ir  Ir27  1  0.999507  0.999507  0.489173  1
