# generated using pymatgen
data_Nd4GdYTa2O14
_symmetry_space_group_name_H-M   'P 1'
_cell_length_a   6.62485238
_cell_length_b   6.61854014
_cell_length_c   7.68750300
_cell_angle_alpha   90.00000000
_cell_angle_beta   90.00000000
_cell_angle_gamma   109.09014710
_symmetry_Int_Tables_number   1
_chemical_formula_structural   Nd4GdYTa2O14
_chemical_formula_sum   'Nd4 Gd1 Y1 Ta2 O14'
_cell_volume   318.53553980
_cell_formula_units_Z   1
loop_
 _symmetry_equiv_pos_site_id
 _symmetry_equiv_pos_as_xyz
  1  'x, y, z'
loop_
 _atom_site_type_symbol
 _atom_site_label
 _atom_site_symmetry_multiplicity
 _atom_site_fract_x
 _atom_site_fract_y
 _atom_site_fract_z
 _atom_site_occupancy
  Nd  Nd0  1  0.473517  0.474948  0.500517  1
  Nd  Nd1  1  0.473517  0.474948  0.999483  1
  Nd  Nd2  1  0.536856  0.995843  0.750000  1
  Nd  Nd3  1  0.995448  0.537055  0.250000  1
  Gd  Gd4  1  0.469167  0.997412  0.250000  1
  Y  Y5  1  0.997262  0.468342  0.750000  1
  Ta  Ta6  1  0.999040  0.998552  0.500581  1
  Ta  Ta7  1  0.999040  0.998552  0.999419  1
  O  O8  1  0.691071  0.938961  0.464427  1
  O  O9  1  0.948147  0.693823  0.539284  1
  O  O10  1  0.691071  0.938961  0.035573  1
  O  O11  1  0.948147  0.693823  0.960716  1
  O  O12  1  0.321435  0.077271  0.524963  1
  O  O13  1  0.074085  0.321587  0.476466  1
  O  O14  1  0.321435  0.077271  0.975037  1
  O  O15  1  0.074085  0.321587  0.023534  1
  O  O16  1  0.940388  0.061405  0.750000  1
  O  O17  1  0.057148  0.941200  0.250000  1
  O  O18  1  0.357834  0.623136  0.750000  1
  O  O19  1  0.625225  0.361623  0.250000  1
  O  O20  1  0.643208  0.364200  0.750000  1
  O  O21  1  0.362877  0.639499  0.250000  1
