# generated using pymatgen
data_Dy3HoAl3ZnPt4
_symmetry_space_group_name_H-M   'P 1'
_cell_length_a   4.42608100
_cell_length_b   6.81563870
_cell_length_c   7.82584480
_cell_angle_alpha   89.62027854
_cell_angle_beta   90.00000000
_cell_angle_gamma   90.00000000
_symmetry_Int_Tables_number   1
_chemical_formula_structural   Dy3HoAl3ZnPt4
_chemical_formula_sum   'Dy3 Ho1 Al3 Zn1 Pt4'
_cell_volume   236.07370217
_cell_formula_units_Z   1
loop_
 _symmetry_equiv_pos_site_id
 _symmetry_equiv_pos_as_xyz
  1  'x, y, z'
loop_
 _atom_site_type_symbol
 _atom_site_label
 _atom_site_symmetry_multiplicity
 _atom_site_fract_x
 _atom_site_fract_y
 _atom_site_fract_z
 _atom_site_occupancy
  Dy  Dy0  1  0.250000  0.029273  0.685676  1
  Dy  Dy1  1  0.750000  0.969976  0.317485  1
  Dy  Dy2  1  0.750000  0.466137  0.178029  1
  Ho  Ho3  1  0.250000  0.528384  0.818314  1
  Al  Al4  1  0.250000  0.647810  0.438262  1
  Al  Al5  1  0.750000  0.855377  0.937798  1
  Al  Al6  1  0.750000  0.357336  0.559570  1
  Zn  Zn7  1  0.250000  0.149228  0.065848  1
  Pt  Pt8  1  0.250000  0.274072  0.390513  1
  Pt  Pt9  1  0.250000  0.761709  0.116473  1
  Pt  Pt10  1  0.750000  0.729298  0.618677  1
  Pt  Pt11  1  0.750000  0.231398  0.873352  1
