# generated using pymatgen
data_Eu5P12Ir16Rh3
_symmetry_space_group_name_H-M   'P 1'
_cell_length_a   12.80734900
_cell_length_b   12.80734961
_cell_length_c   4.01243100
_cell_angle_alpha   90.00000000
_cell_angle_beta   90.00000000
_cell_angle_gamma   120.00000102
_symmetry_Int_Tables_number   1
_chemical_formula_structural   Eu5P12Ir16Rh3
_chemical_formula_sum   'Eu5 P12 Ir16 Rh3'
_cell_volume   569.97618910
_cell_formula_units_Z   1
loop_
 _symmetry_equiv_pos_site_id
 _symmetry_equiv_pos_as_xyz
  1  'x, y, z'
loop_
 _atom_site_type_symbol
 _atom_site_label
 _atom_site_symmetry_multiplicity
 _atom_site_fract_x
 _atom_site_fract_y
 _atom_site_fract_z
 _atom_site_occupancy
  Eu  Eu0  1  0.184991  0.184991  0.500000  1
  Eu  Eu1  1  0.815009  0.000000  0.500000  1
  Eu  Eu2  1  0.000000  0.815009  0.500000  1
  Eu  Eu3  1  0.333333  0.666667  0.000000  1
  Eu  Eu4  1  0.666667  0.333333  0.000000  1
  P  P5  1  0.817897  0.817897  0.000000  1
  P  P6  1  0.182103  0.000000  0.000000  1
  P  P7  1  0.000000  0.182103  0.000000  1
  P  P8  1  0.171680  0.483277  0.500000  1
  P  P9  1  0.516723  0.688404  0.500000  1
  P  P10  1  0.311596  0.828320  0.500000  1
  P  P11  1  0.688404  0.516723  0.500000  1
  P  P12  1  0.828320  0.311596  0.500000  1
  P  P13  1  0.483277  0.171680  0.500000  1
  P  P14  1  0.362650  0.362650  0.000000  1
  P  P15  1  0.637350  0.000000  0.000000  1
  P  P16  1  0.000000  0.637350  0.000000  1
  Ir  Ir17  1  0.714057  0.714057  0.500000  1
  Ir  Ir18  1  0.285943  0.000000  0.500000  1
  Ir  Ir19  1  0.000000  0.285943  0.500000  1
  Ir  Ir20  1  0.180839  0.378600  0.000000  1
  Ir  Ir21  1  0.621400  0.802239  0.000000  1
  Ir  Ir22  1  0.197761  0.819161  0.000000  1
  Ir  Ir23  1  0.802239  0.621400  0.000000  1
  Ir  Ir24  1  0.819161  0.197761  0.000000  1
  Ir  Ir25  1  0.378600  0.180839  0.000000  1
  Ir  Ir26  1  0.361003  0.490363  0.500000  1
  Ir  Ir27  1  0.509637  0.870641  0.500000  1
  Ir  Ir28  1  0.129359  0.638997  0.500000  1
  Ir  Ir29  1  0.870641  0.509637  0.500000  1
  Ir  Ir30  1  0.638997  0.129359  0.500000  1
  Ir  Ir31  1  0.490363  0.361003  0.500000  1
  Ir  Ir32  1  0.000000  0.000000  0.000000  1
  Rh  Rh33  1  0.540933  0.540933  0.000000  1
  Rh  Rh34  1  0.459067  0.000000  0.000000  1
  Rh  Rh35  1  0.000000  0.459067  0.000000  1
