# generated using pymatgen
data_LaAl3Ag
_symmetry_space_group_name_H-M   'P 1'
_cell_length_a   6.38816950
_cell_length_b   6.38817008
_cell_length_c   6.38816969
_cell_angle_alpha   140.14548884
_cell_angle_beta   140.14549779
_cell_angle_gamma   57.63245879
_symmetry_Int_Tables_number   1
_chemical_formula_structural   LaAl3Ag
_chemical_formula_sum   'La1 Al3 Ag1'
_cell_volume   106.13172027
_cell_formula_units_Z   1
loop_
 _symmetry_equiv_pos_site_id
 _symmetry_equiv_pos_as_xyz
  1  'x, y, z'
loop_
 _atom_site_type_symbol
 _atom_site_label
 _atom_site_symmetry_multiplicity
 _atom_site_fract_x
 _atom_site_fract_y
 _atom_site_fract_z
 _atom_site_occupancy
  La  La0  1  0.987922  0.987922  0.000000  1
  Al  Al1  1  0.392923  0.392923  0.000000  1
  Al  Al2  1  0.749200  0.249200  0.500000  1
  Al  Al3  1  0.249200  0.749200  0.500000  1
  Ag  Ag4  1  0.620754  0.620754  0.000000  1
