# generated using pymatgen
data_YbLuOsRu3
_symmetry_space_group_name_H-M   'P 1'
_cell_length_a   5.24392485
_cell_length_b   5.17492815
_cell_length_c   8.83609734
_cell_angle_alpha   90.19313699
_cell_angle_beta   89.71107009
_cell_angle_gamma   119.22440849
_symmetry_Int_Tables_number   1
_chemical_formula_structural   YbLuOsRu3
_chemical_formula_sum   'Yb2 Lu2 Os2 Ru6'
_cell_volume   209.26063703
_cell_formula_units_Z   2
loop_
 _symmetry_equiv_pos_site_id
 _symmetry_equiv_pos_as_xyz
  1  'x, y, z'
loop_
 _atom_site_type_symbol
 _atom_site_label
 _atom_site_symmetry_multiplicity
 _atom_site_fract_x
 _atom_site_fract_y
 _atom_site_fract_z
 _atom_site_occupancy
  Yb  Yb0  1  0.334284  0.667758  0.061325  1
  Yb  Yb1  1  0.669777  0.334284  0.940540  1
  Lu  Lu2  1  0.668187  0.333442  0.571771  1
  Lu  Lu3  1  0.331645  0.666549  0.428480  1
  Os  Os4  1  0.167699  0.341109  0.747465  1
  Os  Os5  1  0.165956  0.826505  0.747699  1
  Ru  Ru6  1  0.009391  0.004612  0.499010  1
  Ru  Ru7  1  0.012533  0.006057  0.998940  1
  Ru  Ru8  1  0.650437  0.824264  0.746076  1
  Ru  Ru9  1  0.824175  0.653250  0.253535  1
  Ru  Ru10  1  0.826189  0.170442  0.253433  1
  Ru  Ru11  1  0.339729  0.171728  0.251727  1
