# generated using pymatgen
data_HfNbP2IrRu
_symmetry_space_group_name_H-M   'P 1'
_cell_length_a   3.79679600
_cell_length_b   6.41429400
_cell_length_c   7.29330100
_cell_angle_alpha   90.00000000
_cell_angle_beta   90.00000000
_cell_angle_gamma   90.00000000
_symmetry_Int_Tables_number   1
_chemical_formula_structural   HfNbP2IrRu
_chemical_formula_sum   'Hf2 Nb2 P4 Ir2 Ru2'
_cell_volume   177.61934448
_cell_formula_units_Z   2
loop_
 _symmetry_equiv_pos_site_id
 _symmetry_equiv_pos_as_xyz
  1  'x, y, z'
loop_
 _atom_site_type_symbol
 _atom_site_label
 _atom_site_symmetry_multiplicity
 _atom_site_fract_x
 _atom_site_fract_y
 _atom_site_fract_z
 _atom_site_occupancy
  Hf  Hf0  1  0.250000  0.027001  0.826982  1
  Hf  Hf1  1  0.250000  0.527001  0.673018  1
  Nb  Nb2  1  0.750000  0.975150  0.176182  1
  Nb  Nb3  1  0.750000  0.475150  0.323818  1
  P  P4  1  0.250000  0.268511  0.133223  1
  P  P5  1  0.250000  0.768511  0.366777  1
  P  P6  1  0.750000  0.737132  0.885794  1
  P  P7  1  0.750000  0.237132  0.614206  1
  Ir  Ir8  1  0.750000  0.851647  0.566786  1
  Ir  Ir9  1  0.750000  0.351647  0.933214  1
  Ru  Ru10  1  0.250000  0.140559  0.439708  1
  Ru  Ru11  1  0.250000  0.640559  0.060292  1
