# generated using pymatgen
data_Ti19Si16Au
_symmetry_space_group_name_H-M   'P 1'
_cell_length_a   6.72180916
_cell_length_b   6.72180916
_cell_length_c   12.15461902
_cell_angle_alpha   89.75262670
_cell_angle_beta   90.24737330
_cell_angle_gamma   89.95220805
_symmetry_Int_Tables_number   1
_chemical_formula_structural   Ti19Si16Au
_chemical_formula_sum   'Ti19 Si16 Au1'
_cell_volume   549.16829201
_cell_formula_units_Z   1
loop_
 _symmetry_equiv_pos_site_id
 _symmetry_equiv_pos_as_xyz
  1  'x, y, z'
loop_
 _atom_site_type_symbol
 _atom_site_label
 _atom_site_symmetry_multiplicity
 _atom_site_fract_x
 _atom_site_fract_y
 _atom_site_fract_z
 _atom_site_occupancy
  Ti  Ti0  1  0.996138  0.146780  0.622544  1
  Ti  Ti1  1  0.355697  0.495931  0.870368  1
  Ti  Ti2  1  0.648174  0.504083  0.370876  1
  Ti  Ti3  1  0.495931  0.355697  0.129632  1
  Ti  Ti4  1  0.504083  0.648174  0.629124  1
  Ti  Ti5  1  0.003410  0.851969  0.120492  1
  Ti  Ti6  1  0.146780  0.996138  0.377456  1
  Ti  Ti7  1  0.851969  0.003410  0.879508  1
  Ti  Ti8  1  0.999326  0.349771  0.217849  1
  Ti  Ti9  1  0.153175  0.501655  0.467588  1
  Ti  Ti10  1  0.840547  0.498582  0.970156  1
  Ti  Ti11  1  0.501655  0.153175  0.532412  1
  Ti  Ti12  1  0.498582  0.840547  0.029844  1
  Ti  Ti13  1  0.995824  0.656874  0.717932  1
  Ti  Ti14  1  0.349771  0.999326  0.782151  1
  Ti  Ti15  1  0.656874  0.995824  0.282068  1
  Ti  Ti16  1  0.327917  0.671814  0.249812  1
  Ti  Ti17  1  0.671814  0.327917  0.750188  1
  Ti  Ti18  1  0.828967  0.828967  0.500000  1
  Si  Si19  1  0.043536  0.304249  0.810702  1
  Si  Si20  1  0.206054  0.556986  0.063216  1
  Si  Si21  1  0.800861  0.454587  0.563414  1
  Si  Si22  1  0.556986  0.206054  0.936784  1
  Si  Si23  1  0.454587  0.800861  0.436586  1
  Si  Si24  1  0.955087  0.699611  0.313581  1
  Si  Si25  1  0.304249  0.043536  0.189298  1
  Si  Si26  1  0.699611  0.955087  0.686419  1
  Si  Si27  1  0.294466  0.355962  0.672457  1
  Si  Si28  1  0.133890  0.778851  0.917414  1
  Si  Si29  1  0.856952  0.205962  0.423072  1
  Si  Si30  1  0.778851  0.133890  0.082586  1
  Si  Si31  1  0.205962  0.856952  0.576928  1
  Si  Si32  1  0.705761  0.644258  0.172738  1
  Si  Si33  1  0.355962  0.294466  0.327543  1
  Si  Si34  1  0.644258  0.705761  0.827262  1
  Au  Au35  1  0.176293  0.176293  0.000000  1
