# generated using pymatgen
data_Tb6As(P3Rh5)4
_symmetry_space_group_name_H-M   'P 1'
_cell_length_a   13.41494700
_cell_length_b   13.41494548
_cell_length_c   3.92646400
_cell_angle_alpha   90.00000000
_cell_angle_beta   90.00000000
_cell_angle_gamma   119.99999636
_symmetry_Int_Tables_number   1
_chemical_formula_structural   Tb6As(P3Rh5)4
_chemical_formula_sum   'Tb6 As1 P12 Rh20'
_cell_volume   611.94182966
_cell_formula_units_Z   1
loop_
 _symmetry_equiv_pos_site_id
 _symmetry_equiv_pos_as_xyz
  1  'x, y, z'
loop_
 _atom_site_type_symbol
 _atom_site_label
 _atom_site_symmetry_multiplicity
 _atom_site_fract_x
 _atom_site_fract_y
 _atom_site_fract_z
 _atom_site_occupancy
  Tb  Tb0  1  0.529837  0.716822  0.248013  1
  Tb  Tb1  1  0.283178  0.813016  0.248013  1
  Tb  Tb2  1  0.186984  0.470163  0.248013  1
  Tb  Tb3  1  0.470163  0.283178  0.751987  1
  Tb  Tb4  1  0.716822  0.186984  0.751987  1
  Tb  Tb5  1  0.813016  0.529837  0.751987  1
  As  As6  1  0.000000  0.000000  0.000000  1
  P  P7  1  0.526255  0.139261  0.250699  1
  P  P8  1  0.860739  0.386995  0.250699  1
  P  P9  1  0.613005  0.473745  0.250699  1
  P  P10  1  0.946311  0.715194  0.253482  1
  P  P11  1  0.284806  0.231117  0.253482  1
  P  P12  1  0.768883  0.053689  0.253482  1
  P  P13  1  0.386995  0.526255  0.749301  1
  P  P14  1  0.473745  0.860739  0.749301  1
  P  P15  1  0.139261  0.613005  0.749301  1
  P  P16  1  0.715194  0.768883  0.746518  1
  P  P17  1  0.231117  0.946311  0.746518  1
  P  P18  1  0.053689  0.284806  0.746518  1
  Rh  Rh19  1  0.333333  0.666667  0.752454  1
  Rh  Rh20  1  0.919920  0.250910  0.251293  1
  Rh  Rh21  1  0.749090  0.669009  0.251293  1
  Rh  Rh22  1  0.330991  0.080080  0.251293  1
  Rh  Rh23  1  0.439962  0.023901  0.750826  1
  Rh  Rh24  1  0.976099  0.416062  0.750826  1
  Rh  Rh25  1  0.583938  0.560038  0.750826  1
  Rh  Rh26  1  0.666667  0.333333  0.247546  1
  Rh  Rh27  1  0.096245  0.194414  0.254019  1
  Rh  Rh28  1  0.805586  0.901831  0.254019  1
  Rh  Rh29  1  0.098169  0.903755  0.254019  1
  Rh  Rh30  1  0.023901  0.583938  0.249174  1
  Rh  Rh31  1  0.416062  0.439962  0.249174  1
  Rh  Rh32  1  0.560038  0.976099  0.249174  1
  Rh  Rh33  1  0.669009  0.919920  0.748707  1
  Rh  Rh34  1  0.080080  0.749090  0.748707  1
  Rh  Rh35  1  0.250910  0.330991  0.748707  1
  Rh  Rh36  1  0.903755  0.805586  0.745981  1
  Rh  Rh37  1  0.194414  0.098169  0.745981  1
  Rh  Rh38  1  0.901831  0.096245  0.745981  1
