# generated using pymatgen
data_Ce4Pr(FeB3)2
_symmetry_space_group_name_H-M   'P 1'
_cell_length_a   5.31682452
_cell_length_b   5.31682589
_cell_length_c   8.82637418
_cell_angle_alpha   72.47092137
_cell_angle_beta   72.47092613
_cell_angle_gamma   59.99999290
_symmetry_Int_Tables_number   1
_chemical_formula_structural   Ce4Pr(FeB3)2
_chemical_formula_sum   'Ce4 Pr1 Fe2 B6'
_cell_volume   202.59260168
_cell_formula_units_Z   1
loop_
 _symmetry_equiv_pos_site_id
 _symmetry_equiv_pos_as_xyz
  1  'x, y, z'
loop_
 _atom_site_type_symbol
 _atom_site_label
 _atom_site_symmetry_multiplicity
 _atom_site_fract_x
 _atom_site_fract_y
 _atom_site_fract_z
 _atom_site_occupancy
  Ce  Ce0  1  0.750505  0.750505  0.748486  1
  Ce  Ce1  1  0.249495  0.249495  0.251514  1
  Ce  Ce2  1  0.582362  0.582362  0.252914  1
  Ce  Ce3  1  0.417638  0.417638  0.747086  1
  Pr  Pr4  1  0.000000  0.000000  0.000000  1
  Fe  Fe5  1  0.879771  0.879771  0.360689  1
  Fe  Fe6  1  0.120229  0.120229  0.639312  1
  B  B7  1  0.500000  0.168039  0.500000  1
  B  B8  1  0.831961  0.500000  0.500000  1
  B  B9  1  0.168039  0.831961  0.500000  1
  B  B10  1  0.168039  0.500000  0.500000  1
  B  B11  1  0.831961  0.168039  0.500000  1
  B  B12  1  0.500000  0.831961  0.500000  1
