# generated using pymatgen
data_LiTb3As6Rh7
_symmetry_space_group_name_H-M   'P 1'
_cell_length_a   7.21810065
_cell_length_b   7.21810053
_cell_length_c   7.27368800
_cell_angle_alpha   109.62730132
_cell_angle_beta   109.62730098
_cell_angle_gamma   109.31469463
_symmetry_Int_Tables_number   1
_chemical_formula_structural   LiTb3As6Rh7
_chemical_formula_sum   'Li1 Tb3 As6 Rh7'
_cell_volume   291.16450396
_cell_formula_units_Z   1
loop_
 _symmetry_equiv_pos_site_id
 _symmetry_equiv_pos_as_xyz
  1  'x, y, z'
loop_
 _atom_site_type_symbol
 _atom_site_label
 _atom_site_symmetry_multiplicity
 _atom_site_fract_x
 _atom_site_fract_y
 _atom_site_fract_z
 _atom_site_occupancy
  Li  Li0  1  0.000000  0.000000  0.500000  1
  Tb  Tb1  1  0.500000  0.000000  0.000000  1
  Tb  Tb2  1  0.000000  0.500000  0.000000  1
  Tb  Tb3  1  0.500000  0.500000  0.500000  1
  As  As4  1  0.685991  0.685991  0.009705  1
  As  As5  1  0.314009  0.314009  0.990295  1
  As  As6  1  0.000000  0.685991  0.676286  1
  As  As7  1  0.000000  0.314009  0.323714  1
  As  As8  1  0.685991  0.000000  0.676286  1
  As  As9  1  0.314009  0.000000  0.323714  1
  Rh  Rh10  1  0.000000  0.000000  0.000000  1
  Rh  Rh11  1  0.248549  0.497098  0.748549  1
  Rh  Rh12  1  0.751451  0.248549  0.500000  1
  Rh  Rh13  1  0.497098  0.248549  0.748549  1
  Rh  Rh14  1  0.502902  0.751451  0.251451  1
  Rh  Rh15  1  0.751451  0.502902  0.251451  1
  Rh  Rh16  1  0.248549  0.751451  0.500000  1
