# generated using pymatgen
data_TbP4N7
_symmetry_space_group_name_H-M   'P 1'
_cell_length_a   5.12679763
_cell_length_b   7.55843076
_cell_length_c   8.53146168
_cell_angle_alpha   72.41120609
_cell_angle_beta   108.73636437
_cell_angle_gamma   100.06525905
_symmetry_Int_Tables_number   1
_chemical_formula_structural   TbP4N7
_chemical_formula_sum   'Tb2 P8 N14'
_cell_volume   297.33505445
_cell_formula_units_Z   2
loop_
 _symmetry_equiv_pos_site_id
 _symmetry_equiv_pos_as_xyz
  1  'x, y, z'
loop_
 _atom_site_type_symbol
 _atom_site_label
 _atom_site_symmetry_multiplicity
 _atom_site_fract_x
 _atom_site_fract_y
 _atom_site_fract_z
 _atom_site_occupancy
  Tb  Tb0  1  0.332271  0.784227  0.187145  1
  Tb  Tb1  1  0.666301  0.217299  0.811735  1
  P  P2  1  0.271911  0.284124  0.073731  1
  P  P3  1  0.813168  0.126529  0.236242  1
  P  P4  1  0.722525  0.484600  0.261639  1
  P  P5  1  0.018981  0.238132  0.576937  1
  P  P6  1  0.980511  0.761638  0.422955  1
  P  P7  1  0.277069  0.515404  0.738536  1
  P  P8  1  0.187412  0.873355  0.763736  1
  P  P9  1  0.728473  0.715783  0.926401  1
  N  N10  1  0.520461  0.163906  0.081926  1
  N  N11  1  0.885301  0.625057  0.127321  1
  N  N12  1  0.038382  0.128400  0.138631  1
  N  N13  1  0.397107  0.444998  0.173854  1
  N  N14  1  0.882965  0.285964  0.348315  1
  N  N15  1  0.762972  0.925424  0.363066  1
  N  N16  1  0.732280  0.584381  0.405372  1
  N  N17  1  0.267647  0.415128  0.595162  1
  N  N18  1  0.236493  0.074424  0.636599  1
  N  N19  1  0.116805  0.713945  0.651662  1
  N  N20  1  0.602664  0.555043  0.826058  1
  N  N21  1  0.963489  0.870657  0.862418  1
  N  N22  1  0.114345  0.374958  0.872944  1
  N  N23  1  0.480462  0.836623  0.917615  1
