# generated using pymatgen
data_Tb3Ho2Cd2(InPd)2
_symmetry_space_group_name_H-M   'P 1'
_cell_length_a   3.61775400
_cell_length_b   8.10710000
_cell_length_c   18.38135900
_cell_angle_alpha   90.00000000
_cell_angle_beta   90.00000000
_cell_angle_gamma   90.00000000
_symmetry_Int_Tables_number   1
_chemical_formula_structural   Tb3Ho2Cd2(InPd)2
_chemical_formula_sum   'Tb6 Ho4 Cd4 In4 Pd4'
_cell_volume   539.11594846
_cell_formula_units_Z   2
loop_
 _symmetry_equiv_pos_site_id
 _symmetry_equiv_pos_as_xyz
  1  'x, y, z'
loop_
 _atom_site_type_symbol
 _atom_site_label
 _atom_site_symmetry_multiplicity
 _atom_site_fract_x
 _atom_site_fract_y
 _atom_site_fract_z
 _atom_site_occupancy
  Tb  Tb0  1  0.000000  0.500000  0.500000  1
  Tb  Tb1  1  0.000000  0.000000  0.000000  1
  Tb  Tb2  1  0.000000  0.741138  0.280984  1
  Tb  Tb3  1  0.000000  0.258862  0.719016  1
  Tb  Tb4  1  0.000000  0.758862  0.780984  1
  Tb  Tb5  1  0.000000  0.241138  0.219016  1
  Ho  Ho6  1  0.000000  0.612322  0.083492  1
  Ho  Ho7  1  0.000000  0.387678  0.916508  1
  Ho  Ho8  1  0.000000  0.887678  0.583492  1
  Ho  Ho9  1  0.000000  0.112322  0.416508  1
  Cd  Cd10  1  0.500000  0.711297  0.931588  1
  Cd  Cd11  1  0.500000  0.288703  0.068412  1
  Cd  Cd12  1  0.500000  0.788703  0.431588  1
  Cd  Cd13  1  0.500000  0.211297  0.568412  1
  In  In14  1  0.500000  0.577585  0.647922  1
  In  In15  1  0.500000  0.422415  0.352078  1
  In  In16  1  0.500000  0.922415  0.147922  1
  In  In17  1  0.500000  0.077585  0.852078  1
  Pd  Pd18  1  0.500000  0.525005  0.196144  1
  Pd  Pd19  1  0.500000  0.474995  0.803856  1
  Pd  Pd20  1  0.500000  0.974995  0.696144  1
  Pd  Pd21  1  0.500000  0.025005  0.303856  1
