# generated using pymatgen
data_Er16ZnIn3(IrRh)2
_symmetry_space_group_name_H-M   'P 1'
_cell_length_a   9.53146404
_cell_length_b   9.52873412
_cell_length_c   9.54325039
_cell_angle_alpha   60.06193475
_cell_angle_beta   60.04084827
_cell_angle_gamma   59.99052453
_symmetry_Int_Tables_number   1
_chemical_formula_structural   Er16ZnIn3(IrRh)2
_chemical_formula_sum   'Er16 Zn1 In3 Ir2 Rh2'
_cell_volume   613.31257897
_cell_formula_units_Z   1
loop_
 _symmetry_equiv_pos_site_id
 _symmetry_equiv_pos_as_xyz
  1  'x, y, z'
loop_
 _atom_site_type_symbol
 _atom_site_label
 _atom_site_symmetry_multiplicity
 _atom_site_fract_x
 _atom_site_fract_y
 _atom_site_fract_z
 _atom_site_occupancy
  Er  Er0  1  0.189636  0.191497  0.809908  1
  Er  Er1  1  0.437709  0.056951  0.067630  1
  Er  Er2  1  0.438598  0.056562  0.436607  1
  Er  Er3  1  0.062564  0.435380  0.062300  1
  Er  Er4  1  0.650429  0.051120  0.648021  1
  Er  Er5  1  0.189986  0.810441  0.809589  1
  Er  Er6  1  0.068234  0.056562  0.436607  1
  Er  Er7  1  0.808990  0.191137  0.190883  1
  Er  Er8  1  0.808997  0.810967  0.190603  1
  Er  Er9  1  0.649158  0.648266  0.053419  1
  Er  Er10  1  0.651316  0.649657  0.648756  1
  Er  Er11  1  0.062327  0.436190  0.439157  1
  Er  Er12  1  0.050272  0.649657  0.648756  1
  Er  Er13  1  0.808959  0.191497  0.809908  1
  Er  Er14  1  0.439756  0.435380  0.062300  1
  Er  Er15  1  0.189434  0.810967  0.190603  1
  Zn  Zn16  1  0.415605  0.752568  0.416220  1
  In  In17  1  0.416232  0.421839  0.745696  1
  In  In18  1  0.745694  0.421486  0.416629  1
  In  In19  1  0.416191  0.421486  0.416629  1
  Ir  Ir20  1  0.857437  0.426792  0.858336  1
  Ir  Ir21  1  0.858164  0.858219  0.425454  1
  Rh  Rh22  1  0.426795  0.857690  0.857997  1
  Rh  Rh23  1  0.857519  0.857690  0.857997  1
