# generated using pymatgen
data_NdTm2(ZnPt)4
_symmetry_space_group_name_H-M   'P 1'
_cell_length_a   8.22082713
_cell_length_b   8.22082727
_cell_length_c   8.22082733
_cell_angle_alpha   151.95090692
_cell_angle_beta   124.95014105
_cell_angle_gamma   62.90878789
_symmetry_Int_Tables_number   1
_chemical_formula_structural   NdTm2(ZnPt)4
_chemical_formula_sum   'Nd1 Tm2 Zn4 Pt4'
_cell_volume   212.31131151
_cell_formula_units_Z   1
loop_
 _symmetry_equiv_pos_site_id
 _symmetry_equiv_pos_as_xyz
  1  'x, y, z'
loop_
 _atom_site_type_symbol
 _atom_site_label
 _atom_site_symmetry_multiplicity
 _atom_site_fract_x
 _atom_site_fract_y
 _atom_site_fract_z
 _atom_site_occupancy
  Nd  Nd0  1  0.500000  0.000000  0.500000  1
  Tm  Tm1  1  0.877155  0.877155  0.000000  1
  Tm  Tm2  1  0.122845  0.122845  0.000000  1
  Zn  Zn3  1  0.476272  0.674100  0.802173  1
  Zn  Zn4  1  0.871927  0.674100  0.197827  1
  Zn  Zn5  1  0.128073  0.325900  0.802173  1
  Zn  Zn6  1  0.523728  0.325900  0.197827  1
  Pt  Pt7  1  0.274388  0.774388  0.500000  1
  Pt  Pt8  1  0.725612  0.225612  0.500000  1
  Pt  Pt9  1  0.812132  0.500000  0.312132  1
  Pt  Pt10  1  0.187868  0.500000  0.687868  1
