# generated using pymatgen
data_Tb11Nd5Cd3InIr4
_symmetry_space_group_name_H-M   'P 1'
_cell_length_a   9.76329897
_cell_length_b   9.76340505
_cell_length_c   9.76340579
_cell_angle_alpha   60.08946125
_cell_angle_beta   60.00879136
_cell_angle_gamma   60.00879673
_symmetry_Int_Tables_number   1
_chemical_formula_structural   Tb11Nd5Cd3InIr4
_chemical_formula_sum   'Tb11 Nd5 Cd3 In1 Ir4'
_cell_volume   658.61982344
_cell_formula_units_Z   1
loop_
 _symmetry_equiv_pos_site_id
 _symmetry_equiv_pos_as_xyz
  1  'x, y, z'
loop_
 _atom_site_type_symbol
 _atom_site_label
 _atom_site_symmetry_multiplicity
 _atom_site_fract_x
 _atom_site_fract_y
 _atom_site_fract_z
 _atom_site_occupancy
  Tb  Tb0  1  0.347470  0.348164  0.348164  1
  Tb  Tb1  1  0.348322  0.351061  0.954031  1
  Tb  Tb2  1  0.348322  0.954031  0.351061  1
  Tb  Tb3  1  0.954322  0.349108  0.349108  1
  Tb  Tb4  1  0.812155  0.187652  0.187652  1
  Tb  Tb5  1  0.190118  0.810203  0.810203  1
  Tb  Tb6  1  0.188318  0.810935  0.187827  1
  Tb  Tb7  1  0.810521  0.189615  0.809234  1
  Tb  Tb8  1  0.188318  0.187827  0.810935  1
  Tb  Tb9  1  0.810521  0.809234  0.189615  1
  Tb  Tb10  1  0.943115  0.557427  0.557427  1
  Nd  Nd11  1  0.557561  0.942460  0.942460  1
  Nd  Nd12  1  0.561215  0.941891  0.558702  1
  Nd  Nd13  1  0.941057  0.558435  0.939519  1
  Nd  Nd14  1  0.561215  0.558702  0.941891  1
  Nd  Nd15  1  0.941057  0.939519  0.558435  1
  Cd  Cd16  1  0.579287  0.579235  0.260579  1
  Cd  Cd17  1  0.579287  0.260579  0.579235  1
  Cd  Cd18  1  0.258903  0.578522  0.578522  1
  In  In19  1  0.583207  0.580278  0.580278  1
  Ir  Ir20  1  0.141495  0.142303  0.142303  1
  Ir  Ir21  1  0.139647  0.144868  0.575806  1
  Ir  Ir22  1  0.139647  0.575806  0.144868  1
  Ir  Ir23  1  0.574917  0.142143  0.142143  1
