# generated using pymatgen
data_ErTmU8(Re3C8)2
_symmetry_space_group_name_H-M   'P 1'
_cell_length_a   11.35257551
_cell_length_b   11.35257551
_cell_length_c   3.25905200
_cell_angle_alpha   90.00000000
_cell_angle_beta   90.00000000
_cell_angle_gamma   90.03434948
_symmetry_Int_Tables_number   1
_chemical_formula_structural   ErTmU8(Re3C8)2
_chemical_formula_sum   'Er1 Tm1 U8 Re6 C16'
_cell_volume   420.02970988
_cell_formula_units_Z   1
loop_
 _symmetry_equiv_pos_site_id
 _symmetry_equiv_pos_as_xyz
  1  'x, y, z'
loop_
 _atom_site_type_symbol
 _atom_site_label
 _atom_site_symmetry_multiplicity
 _atom_site_fract_x
 _atom_site_fract_y
 _atom_site_fract_z
 _atom_site_occupancy
  Er  Er0  1  0.000000  0.500000  0.000000  1
  Tm  Tm1  1  0.500000  0.000000  0.000000  1
  U  U2  1  0.270803  0.542457  0.500000  1
  U  U3  1  0.729197  0.457543  0.500000  1
  U  U4  1  0.542303  0.729492  0.500000  1
  U  U5  1  0.770508  0.957697  0.500000  1
  U  U6  1  0.229492  0.042303  0.500000  1
  U  U7  1  0.957543  0.229197  0.500000  1
  U  U8  1  0.457697  0.270508  0.500000  1
  U  U9  1  0.042457  0.770803  0.500000  1
  Re  Re10  1  0.202849  0.297151  0.000000  1
  Re  Re11  1  0.702724  0.202724  0.000000  1
  Re  Re12  1  0.297276  0.797276  0.000000  1
  Re  Re13  1  0.500000  0.500000  0.000000  1
  Re  Re14  1  0.797151  0.702849  0.000000  1
  Re  Re15  1  0.000000  0.000000  0.000000  1
  C  C16  1  0.347295  0.402541  0.000000  1
  C  C17  1  0.616887  0.116887  0.500000  1
  C  C18  1  0.902541  0.847295  0.000000  1
  C  C19  1  0.654304  0.845696  0.000000  1
  C  C20  1  0.345696  0.154304  0.000000  1
  C  C21  1  0.117434  0.382566  0.500000  1
  C  C22  1  0.152922  0.902641  0.000000  1
  C  C23  1  0.845274  0.345274  0.000000  1
  C  C24  1  0.652705  0.597459  0.000000  1
  C  C25  1  0.597359  0.347078  0.000000  1
  C  C26  1  0.882566  0.617434  0.500000  1
  C  C27  1  0.847078  0.097359  0.000000  1
  C  C28  1  0.383113  0.883113  0.500000  1
  C  C29  1  0.154726  0.654726  0.000000  1
  C  C30  1  0.097459  0.152705  0.000000  1
  C  C31  1  0.402641  0.652922  0.000000  1
