# generated using pymatgen
data_Gd11Ho(GaCo2)2
_symmetry_space_group_name_H-M   'P 1'
_cell_length_a   8.40815502
_cell_length_b   8.40815562
_cell_length_c   8.40997200
_cell_angle_alpha   111.95929320
_cell_angle_beta   109.58486258
_cell_angle_gamma   106.89964632
_symmetry_Int_Tables_number   1
_chemical_formula_structural   Gd11Ho(GaCo2)2
_chemical_formula_sum   'Gd11 Ho1 Ga2 Co4'
_cell_volume   456.85357298
_cell_formula_units_Z   1
loop_
 _symmetry_equiv_pos_site_id
 _symmetry_equiv_pos_as_xyz
  1  'x, y, z'
loop_
 _atom_site_type_symbol
 _atom_site_label
 _atom_site_symmetry_multiplicity
 _atom_site_fract_x
 _atom_site_fract_y
 _atom_site_fract_z
 _atom_site_occupancy
  Gd  Gd0  1  0.959147  0.262056  0.697518  1
  Gd  Gd1  1  0.039967  0.736869  0.302287  1
  Gd  Gd2  1  0.673477  0.860420  0.186372  1
  Gd  Gd3  1  0.325952  0.512895  0.186372  1
  Gd  Gd4  1  0.327370  0.140175  0.813857  1
  Gd  Gd5  1  0.673680  0.486486  0.813857  1
  Gd  Gd6  1  0.565417  0.262319  0.302287  1
  Gd  Gd7  1  0.435462  0.738372  0.697518  1
  Gd  Gd8  1  0.180012  0.780360  0.960373  1
  Gd  Gd9  1  0.819771  0.780915  0.600687  1
  Gd  Gd10  1  0.179378  0.219417  0.398794  1
  Ho  Ho11  1  0.820428  0.220015  0.040443  1
  Ga  Ga12  1  0.999536  0.499493  0.499029  1
  Ga  Ga13  1  0.500110  0.000159  0.500269  1
  Co  Co14  1  0.112994  0.113506  0.000250  1
  Co  Co15  1  0.886744  0.887257  0.000250  1
  Co  Co16  1  0.664409  0.499465  0.163874  1
  Co  Co17  1  0.336144  0.499819  0.835963  1
