# generated using pymatgen
data_Tb4Mg3ZnIr4
_symmetry_space_group_name_H-M   'P 1'
_cell_length_a   4.10352300
_cell_length_b   7.07283061
_cell_length_c   8.48013718
_cell_angle_alpha   89.87359934
_cell_angle_beta   90.00000000
_cell_angle_gamma   90.00000000
_symmetry_Int_Tables_number   1
_chemical_formula_structural   Tb4Mg3ZnIr4
_chemical_formula_sum   'Tb4 Mg3 Zn1 Ir4'
_cell_volume   246.12285822
_cell_formula_units_Z   1
loop_
 _symmetry_equiv_pos_site_id
 _symmetry_equiv_pos_as_xyz
  1  'x, y, z'
loop_
 _atom_site_type_symbol
 _atom_site_label
 _atom_site_symmetry_multiplicity
 _atom_site_fract_x
 _atom_site_fract_y
 _atom_site_fract_z
 _atom_site_occupancy
  Tb  Tb0  1  0.250000  0.535737  0.181135  1
  Tb  Tb1  1  0.750000  0.458433  0.821831  1
  Tb  Tb2  1  0.250000  0.046999  0.328282  1
  Tb  Tb3  1  0.750000  0.962472  0.673870  1
  Mg  Mg4  1  0.250000  0.135713  0.938752  1
  Mg  Mg5  1  0.750000  0.863843  0.060866  1
  Mg  Mg6  1  0.250000  0.631224  0.556897  1
  Zn  Zn7  1  0.750000  0.365896  0.438293  1
  Ir  Ir8  1  0.750000  0.747359  0.372475  1
  Ir  Ir9  1  0.250000  0.254712  0.625454  1
  Ir  Ir10  1  0.750000  0.248331  0.132176  1
  Ir  Ir11  1  0.250000  0.749279  0.869970  1
