# generated using pymatgen
data_Er10Tl(C2I9)2
_symmetry_space_group_name_H-M   'P 1'
_cell_length_a   11.38521178
_cell_length_b   11.38710699
_cell_length_c   11.42648200
_cell_angle_alpha   113.54459627
_cell_angle_beta   86.71630009
_cell_angle_gamma   119.97832399
_symmetry_Int_Tables_number   1
_chemical_formula_structural   Er10Tl(C2I9)2
_chemical_formula_sum   'Er10 Tl1 C4 I18'
_cell_volume   1157.32089428
_cell_formula_units_Z   1
loop_
 _symmetry_equiv_pos_site_id
 _symmetry_equiv_pos_as_xyz
  1  'x, y, z'
loop_
 _atom_site_type_symbol
 _atom_site_label
 _atom_site_symmetry_multiplicity
 _atom_site_fract_x
 _atom_site_fract_y
 _atom_site_fract_z
 _atom_site_occupancy
  Er  Er0  1  0.682556  0.727189  0.714939  1
  Er  Er1  1  0.275983  0.350933  0.014898  1
  Er  Er2  1  0.093039  0.386244  0.289030  1
  Er  Er3  1  0.964008  0.036338  0.321727  1
  Er  Er4  1  0.906961  0.613756  0.710970  1
  Er  Er5  1  0.103189  0.944829  0.000521  1
  Er  Er6  1  0.035992  0.963662  0.678273  1
  Er  Er7  1  0.317444  0.272811  0.285061  1
  Er  Er8  1  0.724017  0.649067  0.985102  1
  Er  Er9  1  0.896811  0.055171  0.999479  1
  Tl  Tl10  1  0.500000  0.000000  0.500000  1
  C  C11  1  0.150719  0.217762  0.117877  1
  C  C12  1  0.849281  0.782238  0.882123  1
  C  C13  1  0.926326  0.859700  0.805323  1
  C  C14  1  0.073674  0.140300  0.194677  1
  I  I15  1  0.451323  0.530671  0.832469  1
  I  I16  1  0.382179  0.040576  0.157565  1
  I  I17  1  0.778668  0.857150  0.503408  1
  I  I18  1  0.839442  0.309473  0.153065  1
  I  I19  1  0.548677  0.469329  0.167531  1
  I  I20  1  0.221332  0.142850  0.496592  1
  I  I21  1  0.317835  0.096708  0.828044  1
  I  I22  1  0.682165  0.903292  0.171956  1
  I  I23  1  0.972946  0.754141  0.168793  1
  I  I24  1  0.933859  0.296803  0.499072  1
  I  I25  1  0.027054  0.245859  0.831207  1
  I  I26  1  0.066141  0.703197  0.500928  1
  I  I27  1  0.262383  0.623011  0.186141  1
  I  I28  1  0.737617  0.376989  0.813859  1
  I  I29  1  0.644818  0.437470  0.503020  1
  I  I30  1  0.160558  0.690527  0.846935  1
  I  I31  1  0.617821  0.959424  0.842435  1
  I  I32  1  0.355182  0.562530  0.496980  1
