# generated using pymatgen
data_Ho5Er(Cu3Sb4)2
_symmetry_space_group_name_H-M   'P 1'
_cell_length_a   8.29020464
_cell_length_b   8.29017711
_cell_length_c   8.29019806
_cell_angle_alpha   109.47779004
_cell_angle_beta   109.47873708
_cell_angle_gamma   109.45711350
_symmetry_Int_Tables_number   1
_chemical_formula_structural   Ho5Er(Cu3Sb4)2
_chemical_formula_sum   'Ho5 Er1 Cu6 Sb8'
_cell_volume   438.60358263
_cell_formula_units_Z   1
loop_
 _symmetry_equiv_pos_site_id
 _symmetry_equiv_pos_as_xyz
  1  'x, y, z'
loop_
 _atom_site_type_symbol
 _atom_site_label
 _atom_site_symmetry_multiplicity
 _atom_site_fract_x
 _atom_site_fract_y
 _atom_site_fract_z
 _atom_site_occupancy
  Ho  Ho0  1  0.875015  0.249997  0.125021  1
  Ho  Ho1  1  0.624976  0.749994  0.374980  1
  Ho  Ho2  1  0.250007  0.124989  0.874984  1
  Ho  Ho3  1  0.750003  0.375023  0.625018  1
  Ho  Ho4  1  0.125001  0.874999  0.250001  1
  Er  Er5  1  0.375000  0.624993  0.749990  1
  Cu  Cu6  1  0.374996  0.250118  0.625037  1
  Cu  Cu7  1  0.125077  0.749959  0.874962  1
  Cu  Cu8  1  0.250041  0.625007  0.375120  1
  Cu  Cu9  1  0.749885  0.874920  0.124881  1
  Cu  Cu10  1  0.625001  0.375000  0.250000  1
  Cu  Cu11  1  0.875001  0.125001  0.750001  1
  Sb  Sb12  1  0.659966  0.500045  0.999962  1
  Sb  Sb13  1  0.499972  0.999956  0.660018  1
  Sb  Sb14  1  0.000084  0.660004  0.500039  1
  Sb  Sb15  1  0.839938  0.839953  0.839982  1
  Sb  Sb16  1  0.499954  0.999916  0.159922  1
  Sb  Sb17  1  0.160046  0.500028  0.999986  1
  Sb  Sb18  1  0.000044  0.160063  0.500016  1
  Sb  Sb19  1  0.339995  0.340034  0.340080  1
