# generated using pymatgen
data_Pr12Hg(RhI4)3
_symmetry_space_group_name_H-M   'P 1'
_cell_length_a   11.08819519
_cell_length_b   11.08819567
_cell_length_c   11.08819483
_cell_angle_alpha   110.05470914
_cell_angle_beta   110.05470534
_cell_angle_gamma   110.05470158
_symmetry_Int_Tables_number   1
_chemical_formula_structural   Pr12Hg(RhI4)3
_chemical_formula_sum   'Pr12 Hg1 Rh3 I12'
_cell_volume   1026.15070583
_cell_formula_units_Z   1
loop_
 _symmetry_equiv_pos_site_id
 _symmetry_equiv_pos_as_xyz
  1  'x, y, z'
loop_
 _atom_site_type_symbol
 _atom_site_label
 _atom_site_symmetry_multiplicity
 _atom_site_fract_x
 _atom_site_fract_y
 _atom_site_fract_z
 _atom_site_occupancy
  Pr  Pr0  1  0.462582  0.492846  0.222083  1
  Pr  Pr1  1  0.750000  0.227550  0.272450  1
  Pr  Pr2  1  0.750000  0.019072  0.480928  1
  Pr  Pr3  1  0.222083  0.462582  0.492846  1
  Pr  Pr4  1  0.272450  0.750000  0.227550  1
  Pr  Pr5  1  0.037418  0.277917  0.007154  1
  Pr  Pr6  1  0.007154  0.037418  0.277917  1
  Pr  Pr7  1  0.480928  0.750000  0.019072  1
  Pr  Pr8  1  0.492846  0.222083  0.462582  1
  Pr  Pr9  1  0.019072  0.480928  0.750000  1
  Pr  Pr10  1  0.277917  0.007154  0.037418  1
  Pr  Pr11  1  0.227550  0.272450  0.750000  1
  Hg  Hg12  1  0.250000  0.250000  0.250000  1
  Rh  Rh13  1  0.503206  0.996794  0.250000  1
  Rh  Rh14  1  0.996794  0.250000  0.503206  1
  Rh  Rh15  1  0.250000  0.503206  0.996794  1
  I  I16  1  0.250000  0.761392  0.738608  1
  I  I17  1  0.513836  0.504404  0.754399  1
  I  I18  1  0.986164  0.745601  0.995596  1
  I  I19  1  0.738608  0.250000  0.761392  1
  I  I20  1  0.995596  0.986164  0.745601  1
  I  I21  1  0.250000  0.995242  0.504758  1
  I  I22  1  0.754399  0.513836  0.504404  1
  I  I23  1  0.504758  0.250000  0.995242  1
  I  I24  1  0.761392  0.738608  0.250000  1
  I  I25  1  0.745601  0.995596  0.986164  1
  I  I26  1  0.995242  0.504758  0.250000  1
  I  I27  1  0.504404  0.754399  0.513836  1
