# generated using pymatgen
data_Y2TmB6Ir7Os
_symmetry_space_group_name_H-M   'P 1'
_cell_length_a   9.99908461
_cell_length_b   9.17757066
_cell_length_c   5.57797016
_cell_angle_alpha   81.37183582
_cell_angle_beta   65.15579753
_cell_angle_gamma   33.47236979
_symmetry_Int_Tables_number   1
_chemical_formula_structural   Y2TmB6Ir7Os
_chemical_formula_sum   'Y2 Tm1 B6 Ir7 Os1'
_cell_volume   234.74518784
_cell_formula_units_Z   1
loop_
 _symmetry_equiv_pos_site_id
 _symmetry_equiv_pos_as_xyz
  1  'x, y, z'
loop_
 _atom_site_type_symbol
 _atom_site_label
 _atom_site_symmetry_multiplicity
 _atom_site_fract_x
 _atom_site_fract_y
 _atom_site_fract_z
 _atom_site_occupancy
  Y  Y0  1  0.178710  0.178710  0.821290  1
  Y  Y1  1  0.821290  0.821290  0.178710  1
  Tm  Tm2  1  0.000000  0.000000  0.000000  1
  B  B3  1  0.821409  0.528874  0.482874  1
  B  B4  1  0.166842  0.482874  0.528874  1
  B  B5  1  0.482874  0.166842  0.821409  1
  B  B6  1  0.670423  0.329577  0.670423  1
  B  B7  1  0.528874  0.821409  0.166842  1
  B  B8  1  0.329577  0.670423  0.329577  1
  Ir  Ir9  1  0.414495  0.414495  0.585505  1
  Ir  Ir10  1  0.585403  0.585403  0.914597  1
  Ir  Ir11  1  0.085696  0.085696  0.414304  1
  Ir  Ir12  1  0.914597  0.914597  0.585403  1
  Ir  Ir13  1  0.585505  0.585505  0.414495  1
  Ir  Ir14  1  0.250000  0.250000  0.250000  1
  Ir  Ir15  1  0.414304  0.414304  0.085696  1
  Os  Os16  1  0.750000  0.750000  0.750000  1
