# generated using pymatgen
data_Sr2PuO5
_symmetry_space_group_name_H-M   'P 1'
_cell_length_a   5.66133100
_cell_length_b   8.13443281
_cell_length_c   11.95634047
_cell_angle_alpha   70.79198077
_cell_angle_beta   90.00000000
_cell_angle_gamma   90.00000000
_symmetry_Int_Tables_number   1
_chemical_formula_structural   Sr2PuO5
_chemical_formula_sum   'Sr8 Pu4 O20'
_cell_volume   519.95772703
_cell_formula_units_Z   4
loop_
 _symmetry_equiv_pos_site_id
 _symmetry_equiv_pos_as_xyz
  1  'x, y, z'
loop_
 _atom_site_type_symbol
 _atom_site_label
 _atom_site_symmetry_multiplicity
 _atom_site_fract_x
 _atom_site_fract_y
 _atom_site_fract_z
 _atom_site_occupancy
  Sr  Sr0  1  0.924884  0.158705  0.681052  1
  Sr  Sr1  1  0.424884  0.841295  0.818948  1
  Sr  Sr2  1  0.075116  0.841295  0.318948  1
  Sr  Sr3  1  0.575116  0.158705  0.181052  1
  Sr  Sr4  1  0.500062  0.338804  0.861570  1
  Sr  Sr5  1  0.000062  0.661196  0.638430  1
  Sr  Sr6  1  0.499938  0.661196  0.138430  1
  Sr  Sr7  1  0.999938  0.338804  0.361570  1
  Pu  Pu8  1  0.000000  0.000000  0.000000  1
  Pu  Pu9  1  0.500000  0.000000  0.500000  1
  Pu  Pu10  1  0.000000  0.500000  0.000000  1
  Pu  Pu11  1  0.500000  0.500000  0.500000  1
  O  O12  1  0.645832  0.249383  0.499501  1
  O  O13  1  0.145832  0.750617  0.000499  1
  O  O14  1  0.354168  0.750617  0.500499  1
  O  O15  1  0.854168  0.249383  0.999501  1
  O  O16  1  0.761161  0.014161  0.381383  1
  O  O17  1  0.261161  0.985839  0.118617  1
  O  O18  1  0.238839  0.985839  0.618617  1
  O  O19  1  0.738839  0.014161  0.881383  1
  O  O20  1  0.793165  0.601111  0.423270  1
  O  O21  1  0.293165  0.398889  0.076730  1
  O  O22  1  0.206835  0.398889  0.576730  1
  O  O23  1  0.706835  0.601111  0.923270  1
  O  O24  1  0.677362  0.440290  0.665689  1
  O  O25  1  0.177362  0.559710  0.834311  1
  O  O26  1  0.322638  0.559710  0.334311  1
  O  O27  1  0.822638  0.440290  0.165689  1
  O  O28  1  0.705142  0.892970  0.640697  1
  O  O29  1  0.205142  0.107030  0.859303  1
  O  O30  1  0.294858  0.107030  0.359303  1
  O  O31  1  0.794858  0.892970  0.140697  1
