# generated using pymatgen
data_Y3Zn3Pd2Rh
_symmetry_space_group_name_H-M   'P 1'
_cell_length_a   7.27804700
_cell_length_b   7.27804624
_cell_length_c   3.87450800
_cell_angle_alpha   90.00000000
_cell_angle_beta   90.00000000
_cell_angle_gamma   119.99999892
_symmetry_Int_Tables_number   1
_chemical_formula_structural   Y3Zn3Pd2Rh
_chemical_formula_sum   'Y3 Zn3 Pd2 Rh1'
_cell_volume   177.73659854
_cell_formula_units_Z   1
loop_
 _symmetry_equiv_pos_site_id
 _symmetry_equiv_pos_as_xyz
  1  'x, y, z'
loop_
 _atom_site_type_symbol
 _atom_site_label
 _atom_site_symmetry_multiplicity
 _atom_site_fract_x
 _atom_site_fract_y
 _atom_site_fract_z
 _atom_site_occupancy
  Y  Y0  1  0.588426  0.597569  0.000000  1
  Y  Y1  1  0.402431  0.990857  0.000000  1
  Y  Y2  1  0.009143  0.411574  0.000000  1
  Zn  Zn3  1  0.252429  0.254137  0.500000  1
  Zn  Zn4  1  0.745863  0.998292  0.500000  1
  Zn  Zn5  1  0.001708  0.747571  0.500000  1
  Pd  Pd6  1  0.000000  0.000000  0.000000  1
  Pd  Pd7  1  0.666667  0.333333  0.500000  1
  Rh  Rh8  1  0.333333  0.666667  0.500000  1
