# generated using pymatgen
data_Lu5ScFe4Si5As
_symmetry_space_group_name_H-M   'P 1'
_cell_length_a   5.48848410
_cell_length_b   5.48848371
_cell_length_c   13.21293000
_cell_angle_alpha   90.00000000
_cell_angle_beta   90.00000000
_cell_angle_gamma   136.82462114
_symmetry_Int_Tables_number   1
_chemical_formula_structural   Lu5ScFe4Si5As
_chemical_formula_sum   'Lu5 Sc1 Fe4 Si5 As1'
_cell_volume   272.33812413
_cell_formula_units_Z   1
loop_
 _symmetry_equiv_pos_site_id
 _symmetry_equiv_pos_as_xyz
  1  'x, y, z'
loop_
 _atom_site_type_symbol
 _atom_site_label
 _atom_site_symmetry_multiplicity
 _atom_site_fract_x
 _atom_site_fract_y
 _atom_site_fract_z
 _atom_site_occupancy
  Lu  Lu0  1  0.920859  0.079141  0.615332  1
  Lu  Lu1  1  0.920859  0.079141  0.884668  1
  Lu  Lu2  1  0.077600  0.922400  0.107782  1
  Lu  Lu3  1  0.361475  0.638525  0.250000  1
  Lu  Lu4  1  0.077600  0.922400  0.392218  1
  Sc  Sc5  1  0.643226  0.356774  0.750000  1
  Fe  Fe6  1  0.790123  0.209877  0.078119  1
  Fe  Fe7  1  0.212880  0.787120  0.582063  1
  Fe  Fe8  1  0.790123  0.209877  0.421881  1
  Fe  Fe9  1  0.212880  0.787120  0.917937  1
  Si  Si10  1  0.380097  0.619903  0.462411  1
  Si  Si11  1  0.380097  0.619903  0.037589  1
  Si  Si12  1  0.622356  0.377644  0.543716  1
  Si  Si13  1  0.322862  0.677138  0.750000  1
  Si  Si14  1  0.622356  0.377644  0.956284  1
  As  As15  1  0.664606  0.335394  0.250000  1
