# generated using pymatgen
data_Yb12Er8Si15Sn
_symmetry_space_group_name_H-M   'P 1'
_cell_length_a   7.38252595
_cell_length_b   7.82793058
_cell_length_c   15.12460661
_cell_angle_alpha   89.72128739
_cell_angle_beta   90.27454359
_cell_angle_gamma   90.04106693
_symmetry_Int_Tables_number   1
_chemical_formula_structural   Yb12Er8Si15Sn
_chemical_formula_sum   'Yb12 Er8 Si15 Sn1'
_cell_volume   874.02892800
_cell_formula_units_Z   1
loop_
 _symmetry_equiv_pos_site_id
 _symmetry_equiv_pos_as_xyz
  1  'x, y, z'
loop_
 _atom_site_type_symbol
 _atom_site_label
 _atom_site_symmetry_multiplicity
 _atom_site_fract_x
 _atom_site_fract_y
 _atom_site_fract_z
 _atom_site_occupancy
  Yb  Yb0  1  0.977716  0.819956  0.401612  1
  Yb  Yb1  1  0.473383  0.683906  0.095716  1
  Yb  Yb2  1  0.514334  0.310010  0.596980  1
  Yb  Yb3  1  0.026584  0.184127  0.905116  1
  Yb  Yb4  1  0.027433  0.179039  0.596462  1
  Yb  Yb5  1  0.526528  0.316340  0.904708  1
  Yb  Yb6  1  0.476800  0.683714  0.403299  1
  Yb  Yb7  1  0.973395  0.815365  0.095665  1
  Yb  Yb8  1  0.350184  0.021713  0.752528  1
  Yb  Yb9  1  0.851462  0.480484  0.753113  1
  Yb  Yb10  1  0.149078  0.519986  0.249764  1
  Yb  Yb11  1  0.647826  0.978135  0.248848  1
  Er  Er12  1  0.315063  0.176434  0.120429  1
  Er  Er13  1  0.816814  0.316091  0.374004  1
  Er  Er14  1  0.185871  0.676846  0.879458  1
  Er  Er15  1  0.678543  0.837075  0.625821  1
  Er  Er16  1  0.317324  0.175603  0.376940  1
  Er  Er17  1  0.814332  0.323722  0.120534  1
  Er  Er18  1  0.191244  0.678238  0.621970  1
  Er  Er19  1  0.686065  0.823862  0.879710  1
  Si  Si20  1  0.357331  0.966592  0.961806  1
  Si  Si21  1  0.643296  0.033791  0.461275  1
  Si  Si22  1  0.142767  0.466578  0.038666  1
  Si  Si23  1  0.155214  0.463915  0.459515  1
  Si  Si24  1  0.643255  0.033421  0.038435  1
  Si  Si25  1  0.356717  0.965944  0.536793  1
  Si  Si26  1  0.857604  0.533766  0.961733  1
  Si  Si27  1  0.977301  0.881176  0.751227  1
  Si  Si28  1  0.477508  0.620677  0.751876  1
  Si  Si29  1  0.523315  0.379928  0.247820  1
  Si  Si30  1  0.024058  0.117118  0.248342  1
  Si  Si31  1  0.248792  0.397425  0.750999  1
  Si  Si32  1  0.749543  0.106220  0.752241  1
  Si  Si33  1  0.252019  0.895465  0.248925  1
  Si  Si34  1  0.751560  0.602873  0.248936  1
  Sn  Sn35  1  0.839736  0.534464  0.538734  1
