# generated using pymatgen
data_YHo7Te12
_symmetry_space_group_name_H-M   'P 1'
_cell_length_a   14.43687999
_cell_length_b   13.76708922
_cell_length_c   7.52513489
_cell_angle_alpha   79.50619921
_cell_angle_beta   69.66158402
_cell_angle_gamma   30.83735031
_symmetry_Int_Tables_number   1
_chemical_formula_structural   YHo7Te12
_chemical_formula_sum   'Y1 Ho7 Te12'
_cell_volume   697.51521792
_cell_formula_units_Z   1
loop_
 _symmetry_equiv_pos_site_id
 _symmetry_equiv_pos_as_xyz
  1  'x, y, z'
loop_
 _atom_site_type_symbol
 _atom_site_label
 _atom_site_symmetry_multiplicity
 _atom_site_fract_x
 _atom_site_fract_y
 _atom_site_fract_z
 _atom_site_occupancy
  Y  Y0  1  0.332743  0.332743  0.167257  1
  Ho  Ho1  1  0.167290  0.167290  0.332710  1
  Ho  Ho2  1  0.917276  0.917276  0.082724  1
  Ho  Ho3  1  0.082705  0.082705  0.917295  1
  Ho  Ho4  1  0.999950  0.999950  0.500050  1
  Ho  Ho5  1  0.500094  0.500094  0.999906  1
  Ho  Ho6  1  0.250085  0.250085  0.749915  1
  Ho  Ho7  1  0.749912  0.749912  0.250088  1
  Te  Te8  1  0.997452  0.502231  0.502648  1
  Te  Te9  1  0.502231  0.997452  0.997669  1
  Te  Te10  1  0.251998  0.747999  0.747915  1
  Te  Te11  1  0.747999  0.251998  0.252088  1
  Te  Te12  1  0.666427  0.168066  0.833099  1
  Te  Te13  1  0.833610  0.332191  0.665928  1
  Te  Te14  1  0.332191  0.833610  0.168271  1
  Te  Te15  1  0.168066  0.666427  0.332408  1
  Te  Te16  1  0.584562  0.081206  0.416811  1
  Te  Te17  1  0.416379  0.917826  0.584064  1
  Te  Te18  1  0.917826  0.416379  0.081731  1
  Te  Te19  1  0.081206  0.584562  0.917421  1
