# generated using pymatgen
data_Hf6Ti2Al15Ir4PtRh2
_symmetry_space_group_name_H-M   'P 1'
_cell_length_a   8.78924539
_cell_length_b   8.78708931
_cell_length_c   8.79205400
_cell_angle_alpha   120.23940335
_cell_angle_beta   119.67838256
_cell_angle_gamma   89.98899905
_symmetry_Int_Tables_number   1
_chemical_formula_structural   Hf6Ti2Al15Ir4PtRh2
_chemical_formula_sum   'Hf6 Ti2 Al15 Ir4 Pt1 Rh2'
_cell_volume   480.77494172
_cell_formula_units_Z   1
loop_
 _symmetry_equiv_pos_site_id
 _symmetry_equiv_pos_as_xyz
  1  'x, y, z'
loop_
 _atom_site_type_symbol
 _atom_site_label
 _atom_site_symmetry_multiplicity
 _atom_site_fract_x
 _atom_site_fract_y
 _atom_site_fract_z
 _atom_site_occupancy
  Hf  Hf0  1  0.792844  0.291457  0.079783  1
  Hf  Hf1  1  0.213061  0.293346  0.498428  1
  Hf  Hf2  1  0.206699  0.706355  0.502123  1
  Hf  Hf3  1  0.214885  0.716082  0.921050  1
  Hf  Hf4  1  0.794381  0.714388  0.500908  1
  Hf  Hf5  1  0.783275  0.283755  0.496699  1
  Ti  Ti6  1  0.379150  0.122351  0.743562  1
  Ti  Ti7  1  0.384027  0.637097  0.259527  1
  Al  Al8  1  0.995214  0.495180  0.500388  1
  Al  Al9  1  0.160912  0.336847  0.178363  1
  Al  Al10  1  0.160252  0.983421  0.823433  1
  Al  Al11  1  0.156718  0.341755  0.813376  1
  Al  Al12  1  0.526579  0.341567  0.185017  1
  Al  Al13  1  0.839372  0.661354  0.818352  1
  Al  Al14  1  0.840429  0.019508  0.179856  1
  Al  Al15  1  0.837312  0.661221  0.178991  1
  Al  Al16  1  0.483863  0.660706  0.823035  1
  Al  Al17  1  0.379659  0.120755  0.258631  1
  Al  Al18  1  0.860513  0.117170  0.738467  1
  Al  Al19  1  0.619920  0.877182  0.256517  1
  Al  Al20  1  0.616367  0.361858  0.740246  1
  Al  Al21  1  0.618043  0.878139  0.740511  1
  Al  Al22  1  0.139205  0.881860  0.262195  1
  Ir  Ir23  1  0.002006  0.000494  0.502982  1
  Ir  Ir24  1  0.498179  0.000366  0.998392  1
  Ir  Ir25  1  0.497858  0.497291  0.999740  1
  Ir  Ir26  1  0.498673  0.499596  0.498193  1
  Pt  Pt27  1  0.001337  0.500086  0.001317  1
  Rh  Rh28  1  0.000192  0.000119  0.999676  1
  Rh  Rh29  1  0.499069  0.998687  0.500243  1
