# generated using pymatgen
data_Mn2Nb2SiGe
_symmetry_space_group_name_H-M   'P 1'
_cell_length_a   3.58055700
_cell_length_b   6.44299344
_cell_length_c   7.59922518
_cell_angle_alpha   90.44705841
_cell_angle_beta   90.00000000
_cell_angle_gamma   90.00000000
_symmetry_Int_Tables_number   1
_chemical_formula_structural   Mn2Nb2SiGe
_chemical_formula_sum   'Mn4 Nb4 Si2 Ge2'
_cell_volume   175.30502874
_cell_formula_units_Z   2
loop_
 _symmetry_equiv_pos_site_id
 _symmetry_equiv_pos_as_xyz
  1  'x, y, z'
loop_
 _atom_site_type_symbol
 _atom_site_label
 _atom_site_symmetry_multiplicity
 _atom_site_fract_x
 _atom_site_fract_y
 _atom_site_fract_z
 _atom_site_occupancy
  Mn  Mn0  1  0.750000  0.865197  0.557990  1
  Mn  Mn1  1  0.250000  0.134803  0.442010  1
  Mn  Mn2  1  0.750000  0.360282  0.933278  1
  Mn  Mn3  1  0.250000  0.639718  0.066722  1
  Nb  Nb4  1  0.250000  0.530256  0.667217  1
  Nb  Nb5  1  0.750000  0.469744  0.332783  1
  Nb  Nb6  1  0.250000  0.039955  0.821915  1
  Nb  Nb7  1  0.750000  0.960045  0.178085  1
  Si  Si8  1  0.250000  0.765297  0.372260  1
  Si  Si9  1  0.750000  0.234703  0.627740  1
  Ge  Ge10  1  0.250000  0.262192  0.132517  1
  Ge  Ge11  1  0.750000  0.737808  0.867483  1
