# generated using pymatgen
data_Tb4Nd2NiBr10
_symmetry_space_group_name_H-M   'P 1'
_cell_length_a   7.41134142
_cell_length_b   9.29568480
_cell_length_c   9.45386190
_cell_angle_alpha   108.16116674
_cell_angle_beta   96.31748566
_cell_angle_gamma   106.20861809
_symmetry_Int_Tables_number   1
_chemical_formula_structural   Tb4Nd2NiBr10
_chemical_formula_sum   'Tb4 Nd2 Ni1 Br10'
_cell_volume   580.24203131
_cell_formula_units_Z   1
loop_
 _symmetry_equiv_pos_site_id
 _symmetry_equiv_pos_as_xyz
  1  'x, y, z'
loop_
 _atom_site_type_symbol
 _atom_site_label
 _atom_site_symmetry_multiplicity
 _atom_site_fract_x
 _atom_site_fract_y
 _atom_site_fract_z
 _atom_site_occupancy
  Tb  Tb0  1  0.973611  0.294151  0.092660  1
  Tb  Tb1  1  0.026389  0.705849  0.907340  1
  Tb  Tb2  1  0.355349  0.133732  0.172142  1
  Tb  Tb3  1  0.644651  0.866268  0.827858  1
  Nd  Nd4  1  0.127199  0.046998  0.754616  1
  Nd  Nd5  1  0.872801  0.953002  0.245384  1
  Ni  Ni6  1  0.000000  0.000000  0.000000  1
  Br  Br7  1  0.554470  0.176722  0.919907  1
  Br  Br8  1  0.445530  0.823278  0.080093  1
  Br  Br9  1  0.354401  0.452772  0.269124  1
  Br  Br10  1  0.645599  0.547228  0.730876  1
  Br  Br11  1  0.262290  0.085516  0.449680  1
  Br  Br12  1  0.737710  0.914484  0.550320  1
  Br  Br13  1  0.782046  0.261975  0.340410  1
  Br  Br14  1  0.217954  0.738025  0.659590  1
  Br  Br15  1  0.081693  0.373909  0.832928  1
  Br  Br16  1  0.918307  0.626091  0.167072  1
