# generated using pymatgen
data_TmSc2Co8P6Os
_symmetry_space_group_name_H-M   'P 1'
_cell_length_a   3.65253400
_cell_length_b   10.38797600
_cell_length_c   12.07412700
_cell_angle_alpha   90.00000000
_cell_angle_beta   90.00000000
_cell_angle_gamma   90.00000000
_symmetry_Int_Tables_number   1
_chemical_formula_structural   TmSc2Co8P6Os
_chemical_formula_sum   'Tm2 Sc4 Co16 P12 Os2'
_cell_volume   458.12178529
_cell_formula_units_Z   2
loop_
 _symmetry_equiv_pos_site_id
 _symmetry_equiv_pos_as_xyz
  1  'x, y, z'
loop_
 _atom_site_type_symbol
 _atom_site_label
 _atom_site_symmetry_multiplicity
 _atom_site_fract_x
 _atom_site_fract_y
 _atom_site_fract_z
 _atom_site_occupancy
  Tm  Tm0  1  0.000000  0.500000  0.527406  1
  Tm  Tm1  1  0.500000  0.000000  0.472594  1
  Sc  Sc2  1  0.500000  0.818691  0.207302  1
  Sc  Sc3  1  0.500000  0.181309  0.207302  1
  Sc  Sc4  1  0.000000  0.681309  0.792698  1
  Sc  Sc5  1  0.000000  0.318691  0.792698  1
  Co  Co6  1  0.500000  0.500000  0.704598  1
  Co  Co7  1  0.000000  0.000000  0.295402  1
  Co  Co8  1  0.000000  0.500000  0.986763  1
  Co  Co9  1  0.500000  0.000000  0.013237  1
  Co  Co10  1  0.500000  0.332371  0.988773  1
  Co  Co11  1  0.500000  0.667629  0.988773  1
  Co  Co12  1  0.000000  0.167629  0.011227  1
  Co  Co13  1  0.000000  0.832371  0.011227  1
  Co  Co14  1  0.500000  0.297341  0.431178  1
  Co  Co15  1  0.500000  0.702659  0.431178  1
  Co  Co16  1  0.000000  0.202659  0.568822  1
  Co  Co17  1  0.000000  0.797341  0.568822  1
  Co  Co18  1  0.500000  0.876819  0.708623  1
  Co  Co19  1  0.500000  0.123181  0.708623  1
  Co  Co20  1  0.000000  0.623181  0.291377  1
  Co  Co21  1  0.000000  0.376819  0.291377  1
  P  P22  1  0.500000  0.500000  0.878546  1
  P  P23  1  0.000000  0.000000  0.121454  1
  P  P24  1  0.500000  0.500000  0.352965  1
  P  P25  1  0.000000  0.000000  0.647035  1
  P  P26  1  0.500000  0.313980  0.619348  1
  P  P27  1  0.500000  0.686020  0.619348  1
  P  P28  1  0.000000  0.186020  0.380652  1
  P  P29  1  0.000000  0.813980  0.380652  1
  P  P30  1  0.500000  0.843503  0.890712  1
  P  P31  1  0.500000  0.156497  0.890712  1
  P  P32  1  0.000000  0.656497  0.109288  1
  P  P33  1  0.000000  0.343503  0.109288  1
  Os  Os34  1  0.500000  0.500000  0.159011  1
  Os  Os35  1  0.000000  0.000000  0.840989  1
