# generated using pymatgen
data_Sc2Mn3Cr3P7Ir6
_symmetry_space_group_name_H-M   'P 1'
_cell_length_a   9.35020100
_cell_length_b   9.35020110
_cell_length_c   3.76268400
_cell_angle_alpha   90.00000000
_cell_angle_beta   90.00000000
_cell_angle_gamma   119.99999611
_symmetry_Int_Tables_number   1
_chemical_formula_structural   Sc2Mn3Cr3P7Ir6
_chemical_formula_sum   'Sc2 Mn3 Cr3 P7 Ir6'
_cell_volume   284.88546632
_cell_formula_units_Z   1
loop_
 _symmetry_equiv_pos_site_id
 _symmetry_equiv_pos_as_xyz
  1  'x, y, z'
loop_
 _atom_site_type_symbol
 _atom_site_label
 _atom_site_symmetry_multiplicity
 _atom_site_fract_x
 _atom_site_fract_y
 _atom_site_fract_z
 _atom_site_occupancy
  Sc  Sc0  1  0.000000  0.000000  0.000000  1
  Sc  Sc1  1  0.666667  0.333333  0.500000  1
  Mn  Mn2  1  0.604641  0.780282  0.000000  1
  Mn  Mn3  1  0.175642  0.395359  0.000000  1
  Mn  Mn4  1  0.219718  0.824358  0.000000  1
  Cr  Cr5  1  0.429002  0.555012  0.500000  1
  Cr  Cr6  1  0.126011  0.570998  0.500000  1
  Cr  Cr7  1  0.444988  0.873989  0.500000  1
  P  P8  1  0.632116  0.556417  0.000000  1
  P  P9  1  0.924302  0.367884  0.000000  1
  P  P10  1  0.443583  0.075698  0.000000  1
  P  P11  1  0.728262  0.943755  0.500000  1
  P  P12  1  0.215493  0.271738  0.500000  1
  P  P13  1  0.056245  0.784507  0.500000  1
  P  P14  1  0.333333  0.666667  0.000000  1
  Ir  Ir15  1  0.403184  0.305620  0.000000  1
  Ir  Ir16  1  0.902436  0.596816  0.000000  1
  Ir  Ir17  1  0.694380  0.097564  0.000000  1
  Ir  Ir18  1  0.780897  0.728245  0.500000  1
  Ir  Ir19  1  0.947348  0.219103  0.500000  1
  Ir  Ir20  1  0.271755  0.052652  0.500000  1
