# generated using pymatgen
data_Nb2TcB2
_symmetry_space_group_name_H-M   'P 1'
_cell_length_a   6.05689500
_cell_length_b   6.05689500
_cell_length_c   3.31455800
_cell_angle_alpha   90.00000000
_cell_angle_beta   90.00000000
_cell_angle_gamma   90.00000000
_symmetry_Int_Tables_number   1
_chemical_formula_structural   Nb2TcB2
_chemical_formula_sum   'Nb4 Tc2 B4'
_cell_volume   121.59779869
_cell_formula_units_Z   2
loop_
 _symmetry_equiv_pos_site_id
 _symmetry_equiv_pos_as_xyz
  1  'x, y, z'
loop_
 _atom_site_type_symbol
 _atom_site_label
 _atom_site_symmetry_multiplicity
 _atom_site_fract_x
 _atom_site_fract_y
 _atom_site_fract_z
 _atom_site_occupancy
  Nb  Nb0  1  0.676602  0.176602  0.500000  1
  Nb  Nb1  1  0.323398  0.823398  0.500000  1
  Nb  Nb2  1  0.176602  0.323398  0.500000  1
  Nb  Nb3  1  0.823398  0.676602  0.500000  1
  Tc  Tc4  1  0.500000  0.500000  0.000000  1
  Tc  Tc5  1  0.000000  0.000000  0.000000  1
  B  B6  1  0.110049  0.610049  0.000000  1
  B  B7  1  0.889951  0.389951  0.000000  1
  B  B8  1  0.610049  0.889951  0.000000  1
  B  B9  1  0.389951  0.110049  0.000000  1
