# generated using pymatgen
data_NdY(NbSe2)8
_symmetry_space_group_name_H-M   'P 1'
_cell_length_a   7.01907400
_cell_length_b   7.01907589
_cell_length_c   14.35568900
_cell_angle_alpha   90.00000000
_cell_angle_beta   90.00000000
_cell_angle_gamma   120.00000052
_symmetry_Int_Tables_number   1
_chemical_formula_structural   NdY(NbSe2)8
_chemical_formula_sum   'Nd1 Y1 Nb8 Se16'
_cell_volume   612.51175768
_cell_formula_units_Z   1
loop_
 _symmetry_equiv_pos_site_id
 _symmetry_equiv_pos_as_xyz
  1  'x, y, z'
loop_
 _atom_site_type_symbol
 _atom_site_label
 _atom_site_symmetry_multiplicity
 _atom_site_fract_x
 _atom_site_fract_y
 _atom_site_fract_z
 _atom_site_occupancy
  Nd  Nd0  1  0.000000  0.000000  0.000000  1
  Y  Y1  1  0.000000  0.000000  0.500000  1
  Nb  Nb2  1  0.000000  0.000000  0.254846  1
  Nb  Nb3  1  0.000000  0.000000  0.745154  1
  Nb  Nb4  1  0.508978  0.017956  0.254988  1
  Nb  Nb5  1  0.491022  0.982044  0.745012  1
  Nb  Nb6  1  0.982044  0.491022  0.254988  1
  Nb  Nb7  1  0.017956  0.508978  0.745012  1
  Nb  Nb8  1  0.508978  0.491022  0.254988  1
  Nb  Nb9  1  0.491022  0.508978  0.745012  1
  Se  Se10  1  0.333333  0.666667  0.623175  1
  Se  Se11  1  0.666667  0.333333  0.376825  1
  Se  Se12  1  0.666667  0.333333  0.132836  1
  Se  Se13  1  0.333333  0.666667  0.867164  1
  Se  Se14  1  0.170859  0.341720  0.140694  1
  Se  Se15  1  0.829141  0.658280  0.859306  1
  Se  Se16  1  0.658280  0.829141  0.140694  1
  Se  Se17  1  0.829030  0.658059  0.630395  1
  Se  Se18  1  0.341720  0.170859  0.859306  1
  Se  Se19  1  0.170970  0.341941  0.369605  1
  Se  Se20  1  0.170859  0.829141  0.140694  1
  Se  Se21  1  0.341941  0.170970  0.630395  1
  Se  Se22  1  0.829141  0.170859  0.859306  1
  Se  Se23  1  0.658059  0.829030  0.369605  1
  Se  Se24  1  0.829030  0.170970  0.630395  1
  Se  Se25  1  0.170970  0.829030  0.369605  1
