# generated using pymatgen
data_Hf3NbFe4SiP3
_symmetry_space_group_name_H-M   'P 1'
_cell_length_a   3.73729200
_cell_length_b   6.24171522
_cell_length_c   7.03566840
_cell_angle_alpha   90.14244130
_cell_angle_beta   90.00000000
_cell_angle_gamma   90.00000000
_symmetry_Int_Tables_number   1
_chemical_formula_structural   Hf3NbFe4SiP3
_chemical_formula_sum   'Hf3 Nb1 Fe4 Si1 P3'
_cell_volume   164.12132007
_cell_formula_units_Z   1
loop_
 _symmetry_equiv_pos_site_id
 _symmetry_equiv_pos_as_xyz
  1  'x, y, z'
loop_
 _atom_site_type_symbol
 _atom_site_label
 _atom_site_symmetry_multiplicity
 _atom_site_fract_x
 _atom_site_fract_y
 _atom_site_fract_z
 _atom_site_occupancy
  Hf  Hf0  1  0.750000  0.486490  0.316867  1
  Hf  Hf1  1  0.250000  0.019732  0.811475  1
  Hf  Hf2  1  0.750000  0.983871  0.189968  1
  Nb  Nb3  1  0.250000  0.516191  0.676718  1
  Fe  Fe4  1  0.750000  0.856698  0.561991  1
  Fe  Fe5  1  0.250000  0.149159  0.436544  1
  Fe  Fe6  1  0.750000  0.342670  0.939269  1
  Fe  Fe7  1  0.250000  0.647526  0.064424  1
  Si  Si8  1  0.750000  0.710642  0.880445  1
  P  P9  1  0.250000  0.282976  0.116473  1
  P  P10  1  0.250000  0.780354  0.391427  1
  P  P11  1  0.750000  0.223689  0.614400  1
