# generated using pymatgen
data_Nd3Mg3Cu2Ir
_symmetry_space_group_name_H-M   'P 1'
_cell_length_a   7.63933000
_cell_length_b   7.63932963
_cell_length_c   4.05699600
_cell_angle_alpha   90.00000000
_cell_angle_beta   90.00000000
_cell_angle_gamma   119.99999293
_symmetry_Int_Tables_number   1
_chemical_formula_structural   Nd3Mg3Cu2Ir
_chemical_formula_sum   'Nd3 Mg3 Cu2 Ir1'
_cell_volume   205.04338503
_cell_formula_units_Z   1
loop_
 _symmetry_equiv_pos_site_id
 _symmetry_equiv_pos_as_xyz
  1  'x, y, z'
loop_
 _atom_site_type_symbol
 _atom_site_label
 _atom_site_symmetry_multiplicity
 _atom_site_fract_x
 _atom_site_fract_y
 _atom_site_fract_z
 _atom_site_occupancy
  Nd  Nd0  1  0.015339  0.592944  0.500000  1
  Nd  Nd1  1  0.407056  0.422395  0.500000  1
  Nd  Nd2  1  0.577605  0.984661  0.500000  1
  Mg  Mg3  1  0.757742  0.757830  0.000000  1
  Mg  Mg4  1  0.000087  0.242258  0.000000  1
  Mg  Mg5  1  0.242170  0.999913  0.000000  1
  Cu  Cu6  1  0.000000  0.000000  0.500000  1
  Cu  Cu7  1  0.666667  0.333333  0.000000  1
  Ir  Ir8  1  0.333333  0.666667  0.000000  1
