# generated using pymatgen
data_Dy5BTe4
_symmetry_space_group_name_H-M   'P 1'
_cell_length_a   7.48072354
_cell_length_b   7.48072505
_cell_length_c   10.60955505
_cell_angle_alpha   61.24028757
_cell_angle_beta   61.24028289
_cell_angle_gamma   32.25195083
_symmetry_Int_Tables_number   1
_chemical_formula_structural   Dy5BTe4
_chemical_formula_sum   'Dy5 B1 Te4'
_cell_volume   274.23411263
_cell_formula_units_Z   1
loop_
 _symmetry_equiv_pos_site_id
 _symmetry_equiv_pos_as_xyz
  1  'x, y, z'
loop_
 _atom_site_type_symbol
 _atom_site_label
 _atom_site_symmetry_multiplicity
 _atom_site_fract_x
 _atom_site_fract_y
 _atom_site_fract_z
 _atom_site_occupancy
  Dy  Dy0  1  0.000000  0.000000  0.500000  1
  Dy  Dy1  1  0.576848  0.576848  0.082173  1
  Dy  Dy2  1  0.171979  0.171979  0.750205  1
  Dy  Dy3  1  0.828021  0.828021  0.249795  1
  Dy  Dy4  1  0.423152  0.423152  0.917827  1
  B  B5  1  0.000000  0.000000  0.000000  1
  Te  Te6  1  0.612285  0.612285  0.586851  1
  Te  Te7  1  0.193314  0.193314  0.192070  1
  Te  Te8  1  0.806686  0.806686  0.807930  1
  Te  Te9  1  0.387715  0.387715  0.413149  1
