# generated using pymatgen
data_Ac2PrNd(Zn5Ge)2
_symmetry_space_group_name_H-M   'P 1'
_cell_length_a   8.54966481
_cell_length_b   8.54966589
_cell_length_c   8.99707800
_cell_angle_alpha   90.00000000
_cell_angle_beta   90.00000000
_cell_angle_gamma   149.24628020
_symmetry_Int_Tables_number   1
_chemical_formula_structural   Ac2PrNd(Zn5Ge)2
_chemical_formula_sum   'Ac2 Pr1 Nd1 Zn10 Ge2'
_cell_volume   336.29237966
_cell_formula_units_Z   1
loop_
 _symmetry_equiv_pos_site_id
 _symmetry_equiv_pos_as_xyz
  1  'x, y, z'
loop_
 _atom_site_type_symbol
 _atom_site_label
 _atom_site_symmetry_multiplicity
 _atom_site_fract_x
 _atom_site_fract_y
 _atom_site_fract_z
 _atom_site_occupancy
  Ac  Ac0  1  0.000118  0.999882  0.499451  1
  Ac  Ac1  1  0.000118  0.999882  0.000549  1
  Pr  Pr2  1  0.793803  0.206197  0.750000  1
  Nd  Nd3  1  0.205837  0.794163  0.250000  1
  Zn  Zn4  1  0.811684  0.188316  0.390975  1
  Zn  Zn5  1  0.187930  0.812070  0.607758  1
  Zn  Zn6  1  0.811684  0.188316  0.109025  1
  Zn  Zn7  1  0.187930  0.812070  0.892242  1
  Zn  Zn8  1  0.655211  0.344789  0.479676  1
  Zn  Zn9  1  0.345169  0.654831  0.518679  1
  Zn  Zn10  1  0.655211  0.344789  0.020324  1
  Zn  Zn11  1  0.345169  0.654831  0.981321  1
  Zn  Zn12  1  0.404220  0.595780  0.250000  1
  Zn  Zn13  1  0.595740  0.404260  0.750000  1
  Ge  Ge14  1  0.563111  0.436889  0.250000  1
  Ge  Ge15  1  0.437065  0.562935  0.750000  1
