# generated using pymatgen
data_Yb2Mg2As(PN2)6
_symmetry_space_group_name_H-M   'P 1'
_cell_length_a   7.41871305
_cell_length_b   7.42331804
_cell_length_c   7.41871434
_cell_angle_alpha   109.91192914
_cell_angle_beta   108.56781550
_cell_angle_gamma   109.91192845
_symmetry_Int_Tables_number   1
_chemical_formula_structural   Yb2Mg2As(PN2)6
_chemical_formula_sum   'Yb2 Mg2 As1 P6 N12'
_cell_volume   314.55142490
_cell_formula_units_Z   1
loop_
 _symmetry_equiv_pos_site_id
 _symmetry_equiv_pos_as_xyz
  1  'x, y, z'
loop_
 _atom_site_type_symbol
 _atom_site_label
 _atom_site_symmetry_multiplicity
 _atom_site_fract_x
 _atom_site_fract_y
 _atom_site_fract_z
 _atom_site_occupancy
  Yb  Yb0  1  0.352148  0.000000  0.014111  1
  Yb  Yb1  1  0.014111  0.000000  0.352148  1
  Mg  Mg2  1  0.000833  0.382387  0.000833  1
  Mg  Mg3  1  0.618446  0.617613  0.618446  1
  As  As4  1  0.948123  0.000000  0.948123  1
  P  P5  1  0.756964  0.253530  0.508534  1
  P  P6  1  0.255004  0.746470  0.503434  1
  P  P7  1  0.503434  0.746470  0.255004  1
  P  P8  1  0.508534  0.253530  0.756964  1
  P  P9  1  0.752439  0.500000  0.252439  1
  P  P10  1  0.252439  0.500000  0.752439  1
  N  N11  1  0.583880  0.291605  0.003561  1
  N  N12  1  0.418384  0.414580  0.701989  1
  N  N13  1  0.003561  0.291605  0.583880  1
  N  N14  1  0.302076  0.000000  0.588657  1
  N  N15  1  0.701989  0.414580  0.418384  1
  N  N16  1  0.003804  0.585420  0.287409  1
  N  N17  1  0.588657  0.000000  0.302076  1
  N  N18  1  0.417528  0.691520  0.417528  1
  N  N19  1  0.287409  0.585420  0.003804  1
  N  N20  1  0.726008  0.308480  0.726008  1
  N  N21  1  0.711956  0.708395  0.292276  1
  N  N22  1  0.292276  0.708395  0.711956  1
