# generated using pymatgen
data_Ho2Er10GaTc2Ni2Sn
_symmetry_space_group_name_H-M   'P 1'
_cell_length_a   8.28603681
_cell_length_b   8.28600077
_cell_length_c   8.28600000
_cell_angle_alpha   113.20398757
_cell_angle_beta   111.22515579
_cell_angle_gamma   104.12023687
_symmetry_Int_Tables_number   1
_chemical_formula_structural   Ho2Er10GaTc2Ni2Sn
_chemical_formula_sum   'Ho2 Er10 Ga1 Tc2 Ni2 Sn1'
_cell_volume   434.96855251
_cell_formula_units_Z   1
loop_
 _symmetry_equiv_pos_site_id
 _symmetry_equiv_pos_as_xyz
  1  'x, y, z'
loop_
 _atom_site_type_symbol
 _atom_site_label
 _atom_site_symmetry_multiplicity
 _atom_site_fract_x
 _atom_site_fract_y
 _atom_site_fract_z
 _atom_site_occupancy
  Ho  Ho0  1  0.045314  0.739277  0.306036  1
  Ho  Ho1  1  0.954686  0.260723  0.693964  1
  Er  Er2  1  0.566433  0.260628  0.305803  1
  Er  Er3  1  0.433567  0.739372  0.694197  1
  Er  Er4  1  0.668383  0.853124  0.183931  1
  Er  Er5  1  0.331617  0.515549  0.184741  1
  Er  Er6  1  0.331617  0.146876  0.816069  1
  Er  Er7  1  0.668383  0.484451  0.815259  1
  Er  Er8  1  0.179983  0.218715  0.398178  1
  Er  Er9  1  0.820017  0.218195  0.038732  1
  Er  Er10  1  0.179983  0.781805  0.961268  1
  Er  Er11  1  0.820017  0.781285  0.601822  1
  Ga  Ga12  1  0.000000  0.500000  0.500000  1
  Tc  Tc13  1  0.678451  0.499896  0.178555  1
  Tc  Tc14  1  0.321549  0.500104  0.821445  1
  Ni  Ni15  1  0.881441  0.882605  0.998834  1
  Ni  Ni16  1  0.118559  0.117395  0.001166  1
  Sn  Sn17  1  0.500000  0.000000  0.500000  1
