# generated using pymatgen
data_YbEu3Tm4(B6Ru)4
_symmetry_space_group_name_H-M   'P 1'
_cell_length_a   3.65906100
_cell_length_b   9.16786619
_cell_length_c   11.59305723
_cell_angle_alpha   90.02297723
_cell_angle_beta   90.00000000
_cell_angle_gamma   90.00000000
_symmetry_Int_Tables_number   1
_chemical_formula_structural   YbEu3Tm4(B6Ru)4
_chemical_formula_sum   'Yb1 Eu3 Tm4 B24 Ru4'
_cell_volume   388.89813484
_cell_formula_units_Z   1
loop_
 _symmetry_equiv_pos_site_id
 _symmetry_equiv_pos_as_xyz
  1  'x, y, z'
loop_
 _atom_site_type_symbol
 _atom_site_label
 _atom_site_symmetry_multiplicity
 _atom_site_fract_x
 _atom_site_fract_y
 _atom_site_fract_z
 _atom_site_occupancy
  Yb  Yb0  1  0.000000  0.176288  0.914908  1
  Eu  Eu1  1  0.000000  0.323133  0.415046  1
  Eu  Eu2  1  0.000000  0.676452  0.585619  1
  Eu  Eu3  1  0.000000  0.824039  0.084348  1
  Tm  Tm4  1  0.000000  0.943052  0.368710  1
  Tm  Tm5  1  0.000000  0.057798  0.632181  1
  Tm  Tm6  1  0.000000  0.441409  0.130167  1
  Tm  Tm7  1  0.000000  0.557010  0.869037  1
  B  B8  1  0.500000  0.555384  0.431038  1
  B  B9  1  0.500000  0.444486  0.569345  1
  B  B10  1  0.500000  0.056064  0.067473  1
  B  B11  1  0.500000  0.946278  0.931172  1
  B  B12  1  0.500000  0.749598  0.416532  1
  B  B13  1  0.500000  0.250473  0.584311  1
  B  B14  1  0.500000  0.249112  0.082013  1
  B  B15  1  0.500000  0.751133  0.916195  1
  B  B16  1  0.500000  0.791031  0.264811  1
  B  B17  1  0.500000  0.208431  0.736375  1
  B  B18  1  0.500000  0.290814  0.234166  1
  B  B19  1  0.500000  0.709010  0.765257  1
  B  B20  1  0.500000  0.630214  0.184885  1
  B  B21  1  0.500000  0.368596  0.815627  1
  B  B22  1  0.500000  0.130500  0.314336  1
  B  B23  1  0.500000  0.869922  0.685933  1
  B  B24  1  0.500000  0.984937  0.212003  1
  B  B25  1  0.500000  0.016854  0.788393  1
  B  B26  1  0.500000  0.484219  0.286992  1
  B  B27  1  0.500000  0.515050  0.712961  1
  B  B28  1  0.500000  0.596859  0.026393  1
  B  B29  1  0.500000  0.401294  0.972918  1
  B  B30  1  0.500000  0.097510  0.473747  1
  B  B31  1  0.500000  0.902712  0.526914  1
  Ru  Ru32  1  0.000000  0.639890  0.318449  1
  Ru  Ru33  1  0.000000  0.359586  0.682076  1
  Ru  Ru34  1  0.000000  0.140144  0.180646  1
  Ru  Ru35  1  0.000000  0.860719  0.819027  1
