# generated using pymatgen
data_Ho2Fe7Co5P7
_symmetry_space_group_name_H-M   'P 1'
_cell_length_a   8.96530391
_cell_length_b   8.96652024
_cell_length_c   3.60306700
_cell_angle_alpha   90.00000000
_cell_angle_beta   90.00000000
_cell_angle_gamma   120.11517086
_symmetry_Int_Tables_number   1
_chemical_formula_structural   Ho2Fe7Co5P7
_chemical_formula_sum   'Ho2 Fe7 Co5 P7'
_cell_volume   250.54557287
_cell_formula_units_Z   1
loop_
 _symmetry_equiv_pos_site_id
 _symmetry_equiv_pos_as_xyz
  1  'x, y, z'
loop_
 _atom_site_type_symbol
 _atom_site_label
 _atom_site_symmetry_multiplicity
 _atom_site_fract_x
 _atom_site_fract_y
 _atom_site_fract_z
 _atom_site_occupancy
  Ho  Ho0  1  0.000070  0.000373  0.000000  1
  Ho  Ho1  1  0.332676  0.666015  0.500000  1
  Fe  Fe2  1  0.098438  0.391652  0.000000  1
  Fe  Fe3  1  0.785834  0.179591  0.000000  1
  Fe  Fe4  1  0.393857  0.214173  0.000000  1
  Fe  Fe5  1  0.821374  0.608234  0.000000  1
  Fe  Fe6  1  0.538108  0.101724  0.500000  1
  Fe  Fe7  1  0.565100  0.462156  0.500000  1
  Fe  Fe8  1  0.894333  0.434875  0.500000  1
  Co  Co9  1  0.293350  0.900319  0.000000  1
  Co  Co10  1  0.607067  0.706770  0.000000  1
  Co  Co11  1  0.718796  0.948815  0.500000  1
  Co  Co12  1  0.230654  0.280493  0.500000  1
  Co  Co13  1  0.052473  0.770142  0.500000  1
  P  P14  1  0.554375  0.926507  0.000000  1
  P  P15  1  0.370305  0.444979  0.000000  1
  P  P16  1  0.072895  0.625512  0.000000  1
  P  P17  1  0.956872  0.223587  0.500000  1
  P  P18  1  0.265867  0.045265  0.500000  1
  P  P19  1  0.780162  0.734626  0.500000  1
  P  P20  1  0.667395  0.334190  0.000000  1
