# generated using pymatgen
data_Pd4Pt4W
_symmetry_space_group_name_H-M   'P 1'
_cell_length_a   6.25275979
_cell_length_b   6.25276023
_cell_length_c   6.27971836
_cell_angle_alpha   95.48357259
_cell_angle_beta   95.83965265
_cell_angle_gamma   143.30655810
_symmetry_Int_Tables_number   1
_chemical_formula_structural   Pd4Pt4W
_chemical_formula_sum   'Pd4 Pt4 W1'
_cell_volume   139.31293037
_cell_formula_units_Z   1
loop_
 _symmetry_equiv_pos_site_id
 _symmetry_equiv_pos_as_xyz
  1  'x, y, z'
loop_
 _atom_site_type_symbol
 _atom_site_label
 _atom_site_symmetry_multiplicity
 _atom_site_fract_x
 _atom_site_fract_y
 _atom_site_fract_z
 _atom_site_occupancy
  Pd  Pd0  1  0.336446  0.660711  0.997157  1
  Pd  Pd1  1  0.661453  0.335742  0.997195  1
  Pd  Pd2  1  0.338598  0.339967  0.678565  1
  Pd  Pd3  1  0.671742  0.999388  0.671131  1
  Pt  Pt4  1  0.998864  0.674353  0.673217  1
  Pt  Pt5  1  0.999859  0.327911  0.327770  1
  Pt  Pt6  1  0.329554  0.000146  0.329698  1
  Pt  Pt7  1  0.659236  0.660144  0.319379  1
  W  W8  1  0.004249  0.001639  0.005888  1
