# generated using pymatgen
data_RbZn(In4Rh)2
_symmetry_space_group_name_H-M   'P 1'
_cell_length_a   9.12880700
_cell_length_b   9.03343112
_cell_length_c   4.17986100
_cell_angle_alpha   90.00000000
_cell_angle_beta   90.00000000
_cell_angle_gamma   120.34987444
_symmetry_Int_Tables_number   1
_chemical_formula_structural   RbZn(In4Rh)2
_chemical_formula_sum   'Rb1 Zn1 In8 Rh2'
_cell_volume   297.45226360
_cell_formula_units_Z   1
loop_
 _symmetry_equiv_pos_site_id
 _symmetry_equiv_pos_as_xyz
  1  'x, y, z'
loop_
 _atom_site_type_symbol
 _atom_site_label
 _atom_site_symmetry_multiplicity
 _atom_site_fract_x
 _atom_site_fract_y
 _atom_site_fract_z
 _atom_site_occupancy
  Rb  Rb0  1  0.000000  0.000000  0.000000  1
  Zn  Zn1  1  0.500000  0.000000  0.000000  1
  In  In2  1  0.583192  0.802029  0.500000  1
  In  In3  1  0.218838  0.802029  0.500000  1
  In  In4  1  0.206256  0.412510  0.500000  1
  In  In5  1  0.793744  0.587490  0.500000  1
  In  In6  1  0.781162  0.197971  0.500000  1
  In  In7  1  0.416808  0.197971  0.500000  1
  In  In8  1  0.000000  0.500000  0.000000  1
  In  In9  1  0.500000  0.500000  0.000000  1
  Rh  Rh10  1  0.336631  0.673263  0.000000  1
  Rh  Rh11  1  0.663369  0.326737  0.000000  1
