# generated using pymatgen
data_Ba3WBr2O5
_symmetry_space_group_name_H-M   'P 1'
_cell_length_a   7.79669360
_cell_length_b   7.79669398
_cell_length_c   11.87052800
_cell_angle_alpha   90.00000000
_cell_angle_beta   90.00000000
_cell_angle_gamma   134.72174428
_symmetry_Int_Tables_number   1
_chemical_formula_structural   Ba3WBr2O5
_chemical_formula_sum   'Ba6 W2 Br4 O10'
_cell_volume   512.71370566
_cell_formula_units_Z   2
loop_
 _symmetry_equiv_pos_site_id
 _symmetry_equiv_pos_as_xyz
  1  'x, y, z'
loop_
 _atom_site_type_symbol
 _atom_site_label
 _atom_site_symmetry_multiplicity
 _atom_site_fract_x
 _atom_site_fract_y
 _atom_site_fract_z
 _atom_site_occupancy
  Ba  Ba0  1  0.341694  0.658306  0.958654  1
  Ba  Ba1  1  0.658306  0.341694  0.458654  1
  Ba  Ba2  1  0.341694  0.658306  0.541346  1
  Ba  Ba3  1  0.100196  0.899804  0.750000  1
  Ba  Ba4  1  0.658306  0.341694  0.041346  1
  Ba  Ba5  1  0.899804  0.100196  0.250000  1
  W  W6  1  0.245158  0.754842  0.250000  1
  W  W7  1  0.754842  0.245158  0.750000  1
  Br  Br8  1  0.503020  0.496980  0.750000  1
  Br  Br9  1  0.000000  0.000000  0.000000  1
  Br  Br10  1  0.000000  0.000000  0.500000  1
  Br  Br11  1  0.496980  0.503020  0.250000  1
  O  O12  1  0.500245  0.943054  0.137584  1
  O  O13  1  0.878259  0.121741  0.750000  1
  O  O14  1  0.943054  0.500245  0.637584  1
  O  O15  1  0.499755  0.056946  0.862416  1
  O  O16  1  0.121741  0.878259  0.250000  1
  O  O17  1  0.499755  0.056946  0.637584  1
  O  O18  1  0.943054  0.500245  0.862416  1
  O  O19  1  0.056946  0.499755  0.137584  1
  O  O20  1  0.500245  0.943054  0.362416  1
  O  O21  1  0.056946  0.499755  0.362416  1
