# generated using pymatgen
data_Pr8Gd7Ho5Si16
_symmetry_space_group_name_H-M   'P 1'
_cell_length_a   7.52731512
_cell_length_b   7.81164408
_cell_length_c   14.85238200
_cell_angle_alpha   89.99992665
_cell_angle_beta   89.98970135
_cell_angle_gamma   90.00819281
_symmetry_Int_Tables_number   1
_chemical_formula_structural   Pr8Gd7Ho5Si16
_chemical_formula_sum   'Pr8 Gd7 Ho5 Si16'
_cell_volume   873.33053336
_cell_formula_units_Z   1
loop_
 _symmetry_equiv_pos_site_id
 _symmetry_equiv_pos_as_xyz
  1  'x, y, z'
loop_
 _atom_site_type_symbol
 _atom_site_label
 _atom_site_symmetry_multiplicity
 _atom_site_fract_x
 _atom_site_fract_y
 _atom_site_fract_z
 _atom_site_occupancy
  Pr  Pr0  1  0.974273  0.819509  0.098522  1
  Pr  Pr1  1  0.474276  0.680530  0.401662  1
  Pr  Pr2  1  0.526242  0.320945  0.901997  1
  Pr  Pr3  1  0.024552  0.180372  0.598105  1
  Pr  Pr4  1  0.024858  0.180902  0.901455  1
  Pr  Pr5  1  0.526210  0.320583  0.598255  1
  Pr  Pr6  1  0.473803  0.680733  0.098869  1
  Pr  Pr7  1  0.973053  0.818647  0.401070  1
  Gd  Gd8  1  0.648851  0.988574  0.249744  1
  Gd  Gd9  1  0.148209  0.510921  0.249568  1
  Gd  Gd10  1  0.851375  0.490024  0.750079  1
  Gd  Gd11  1  0.681092  0.820125  0.877514  1
  Gd  Gd12  1  0.179954  0.678268  0.622718  1
  Gd  Gd13  1  0.820358  0.320512  0.122492  1
  Gd  Gd14  1  0.320405  0.180030  0.377734  1
  Ho  Ho15  1  0.351578  0.009972  0.750098  1
  Ho  Ho16  1  0.319090  0.178786  0.123246  1
  Ho  Ho17  1  0.818890  0.320582  0.376631  1
  Ho  Ho18  1  0.180698  0.678515  0.876900  1
  Ho  Ho19  1  0.681071  0.820406  0.623112  1
  Si  Si20  1  0.764299  0.617194  0.250561  1
  Si  Si21  1  0.264335  0.883407  0.250013  1
  Si  Si22  1  0.732973  0.116443  0.749280  1
  Si  Si23  1  0.236712  0.379444  0.750433  1
  Si  Si24  1  0.027143  0.109569  0.249690  1
  Si  Si25  1  0.526135  0.390243  0.250505  1
  Si  Si26  1  0.473581  0.610885  0.750546  1
  Si  Si27  1  0.975826  0.890817  0.749453  1
  Si  Si28  1  0.860692  0.531214  0.959861  1
  Si  Si29  1  0.359611  0.970070  0.541581  1
  Si  Si30  1  0.639425  0.031571  0.039990  1
  Si  Si31  1  0.139721  0.468185  0.459889  1
  Si  Si32  1  0.147198  0.468484  0.038610  1
  Si  Si33  1  0.646395  0.031807  0.461640  1
  Si  Si34  1  0.353573  0.970144  0.959919  1
  Si  Si35  1  0.853545  0.531584  0.538257  1
