# generated using pymatgen
data_Pr7P6
_symmetry_space_group_name_H-M   'P 1'
_cell_length_a   7.26746860
_cell_length_b   7.26561363
_cell_length_c   10.26818078
_cell_angle_alpha   61.92652654
_cell_angle_beta   61.84376752
_cell_angle_gamma   99.61452405
_symmetry_Int_Tables_number   1
_chemical_formula_structural   Pr7P6
_chemical_formula_sum   'Pr7 P6'
_cell_volume   365.23846517
_cell_formula_units_Z   1
loop_
 _symmetry_equiv_pos_site_id
 _symmetry_equiv_pos_as_xyz
  1  'x, y, z'
loop_
 _atom_site_type_symbol
 _atom_site_label
 _atom_site_symmetry_multiplicity
 _atom_site_fract_x
 _atom_site_fract_y
 _atom_site_fract_z
 _atom_site_occupancy
  Pr  Pr0  1  0.388750  0.170675  0.602298  1
  Pr  Pr1  1  0.789875  0.313948  0.753921  1
  Pr  Pr2  1  0.084576  0.761440  0.158655  1
  Pr  Pr3  1  0.684059  0.618213  0.006556  1
  Pr  Pr4  1  0.236760  0.466019  0.880403  1
  Pr  Pr5  1  0.532569  0.914239  0.306692  1
  Pr  Pr6  1  0.941362  0.018184  0.453871  1
  P  P7  1  0.666269  0.607821  0.521658  1
  P  P8  1  0.094506  0.753568  0.663809  1
  P  P9  1  0.524514  0.895625  0.809541  1
  P  P10  1  0.807407  0.324652  0.239194  1
  P  P11  1  0.948979  0.036201  0.951375  1
  P  P12  1  0.379258  0.178527  0.096818  1
