# generated using pymatgen
data_Pr8Ho12Sn11Pb5
_symmetry_space_group_name_H-M   'P 1'
_cell_length_a   8.09978301
_cell_length_b   8.25173349
_cell_length_c   15.57995000
_cell_angle_alpha   90.02935705
_cell_angle_beta   89.99738272
_cell_angle_gamma   89.98207327
_symmetry_Int_Tables_number   1
_chemical_formula_structural   Pr8Ho12Sn11Pb5
_chemical_formula_sum   'Pr8 Ho12 Sn11 Pb5'
_cell_volume   1041.32083512
_cell_formula_units_Z   1
loop_
 _symmetry_equiv_pos_site_id
 _symmetry_equiv_pos_as_xyz
  1  'x, y, z'
loop_
 _atom_site_type_symbol
 _atom_site_label
 _atom_site_symmetry_multiplicity
 _atom_site_fract_x
 _atom_site_fract_y
 _atom_site_fract_z
 _atom_site_occupancy
  Pr  Pr0  1  0.518963  0.323637  0.901612  1
  Pr  Pr1  1  0.019523  0.178684  0.597710  1
  Pr  Pr2  1  0.481022  0.678857  0.402335  1
  Pr  Pr3  1  0.982365  0.819907  0.099070  1
  Pr  Pr4  1  0.485063  0.675899  0.098867  1
  Pr  Pr5  1  0.986304  0.822563  0.401865  1
  Pr  Pr6  1  0.513382  0.322752  0.597821  1
  Pr  Pr7  1  0.016067  0.179714  0.901303  1
  Ho  Ho8  1  0.361369  0.836761  0.874951  1
  Ho  Ho9  1  0.863298  0.663093  0.624323  1
  Ho  Ho10  1  0.636532  0.163003  0.375550  1
  Ho  Ho11  1  0.136099  0.336732  0.124460  1
  Ho  Ho12  1  0.639014  0.165490  0.124637  1
  Ho  Ho13  1  0.139389  0.335555  0.376889  1
  Ho  Ho14  1  0.360066  0.836096  0.623346  1
  Ho  Ho15  1  0.861702  0.661478  0.875973  1
  Ho  Ho16  1  0.194625  0.503107  0.748357  1
  Ho  Ho17  1  0.693901  0.996871  0.749537  1
  Ho  Ho18  1  0.805504  0.496764  0.248719  1
  Ho  Ho19  1  0.305591  0.003141  0.251803  1
  Sn  Sn20  1  0.196588  0.541516  0.541723  1
  Sn  Sn21  1  0.302860  0.041199  0.458131  1
  Sn  Sn22  1  0.802429  0.458489  0.041898  1
  Sn  Sn23  1  0.560015  0.624422  0.749665  1
  Sn  Sn24  1  0.059227  0.876199  0.750274  1
  Sn  Sn25  1  0.439505  0.376395  0.250376  1
  Sn  Sn26  1  0.940026  0.123852  0.250173  1
  Sn  Sn27  1  0.324996  0.142907  0.750162  1
  Sn  Sn28  1  0.824225  0.356992  0.749218  1
  Sn  Sn29  1  0.675511  0.857153  0.250429  1
  Sn  Sn30  1  0.175774  0.641789  0.250101  1
  Pb  Pb31  1  0.301522  0.040685  0.042020  1
  Pb  Pb32  1  0.801106  0.459143  0.458231  1
  Pb  Pb33  1  0.698981  0.959231  0.541515  1
  Pb  Pb34  1  0.199166  0.541302  0.958435  1
  Pb  Pb35  1  0.698290  0.958624  0.958520  1
