# generated using pymatgen
data_Pr6MgCd22Sb
_symmetry_space_group_name_H-M   'P 1'
_cell_length_a   10.13356413
_cell_length_b   10.13356454
_cell_length_c   10.13356400
_cell_angle_alpha   60.00000176
_cell_angle_beta   60.00000041
_cell_angle_gamma   60.00000162
_symmetry_Int_Tables_number   1
_chemical_formula_structural   Pr6MgCd22Sb
_chemical_formula_sum   'Pr6 Mg1 Cd22 Sb1'
_cell_volume   735.82016784
_cell_formula_units_Z   1
loop_
 _symmetry_equiv_pos_site_id
 _symmetry_equiv_pos_as_xyz
  1  'x, y, z'
loop_
 _atom_site_type_symbol
 _atom_site_label
 _atom_site_symmetry_multiplicity
 _atom_site_fract_x
 _atom_site_fract_y
 _atom_site_fract_z
 _atom_site_occupancy
  Pr  Pr0  1  0.781701  0.781701  0.218299  1
  Pr  Pr1  1  0.218299  0.781701  0.218299  1
  Pr  Pr2  1  0.781701  0.218299  0.218299  1
  Pr  Pr3  1  0.218299  0.218299  0.781701  1
  Pr  Pr4  1  0.781701  0.218299  0.781701  1
  Pr  Pr5  1  0.218299  0.781701  0.781701  1
  Mg  Mg6  1  0.500000  0.500000  0.500000  1
  Cd  Cd7  1  0.834568  0.834568  0.496294  1
  Cd  Cd8  1  0.834568  0.496294  0.834568  1
  Cd  Cd9  1  0.496294  0.834568  0.834568  1
  Cd  Cd10  1  0.834568  0.834568  0.834568  1
  Cd  Cd11  1  0.165432  0.165432  0.503706  1
  Cd  Cd12  1  0.165432  0.503706  0.165432  1
  Cd  Cd13  1  0.503706  0.165432  0.165432  1
  Cd  Cd14  1  0.165432  0.165432  0.165432  1
  Cd  Cd15  1  0.622844  0.622844  0.131470  1
  Cd  Cd16  1  0.622844  0.131470  0.622844  1
  Cd  Cd17  1  0.131470  0.622844  0.622844  1
  Cd  Cd18  1  0.622844  0.622844  0.622844  1
  Cd  Cd19  1  0.377156  0.377156  0.868530  1
  Cd  Cd20  1  0.377156  0.868530  0.377156  1
  Cd  Cd21  1  0.868530  0.377156  0.377156  1
  Cd  Cd22  1  0.377156  0.377156  0.377156  1
  Cd  Cd23  1  0.000000  0.000000  0.500000  1
  Cd  Cd24  1  0.500000  0.000000  0.500000  1
  Cd  Cd25  1  0.000000  0.500000  0.500000  1
  Cd  Cd26  1  0.500000  0.500000  0.000000  1
  Cd  Cd27  1  0.000000  0.500000  0.000000  1
  Cd  Cd28  1  0.500000  0.000000  0.000000  1
  Sb  Sb29  1  0.000000  0.000000  0.000000  1
