# generated using pymatgen
data_Eu5Er15Sn16
_symmetry_space_group_name_H-M   'P 1'
_cell_length_a   8.02308175
_cell_length_b   8.17365836
_cell_length_c   15.43134200
_cell_angle_alpha   90.08902460
_cell_angle_beta   89.67666570
_cell_angle_gamma   89.78561262
_symmetry_Int_Tables_number   1
_chemical_formula_structural   Eu5Er15Sn16
_chemical_formula_sum   'Eu5 Er15 Sn16'
_cell_volume   1011.93100075
_cell_formula_units_Z   1
loop_
 _symmetry_equiv_pos_site_id
 _symmetry_equiv_pos_as_xyz
  1  'x, y, z'
loop_
 _atom_site_type_symbol
 _atom_site_label
 _atom_site_symmetry_multiplicity
 _atom_site_fract_x
 _atom_site_fract_y
 _atom_site_fract_z
 _atom_site_occupancy
  Eu  Eu0  1  0.990699  0.821261  0.092835  1
  Eu  Eu1  1  0.488158  0.675329  0.092889  1
  Eu  Eu2  1  0.987069  0.821858  0.407470  1
  Eu  Eu3  1  0.513848  0.321895  0.593711  1
  Eu  Eu4  1  0.010283  0.176004  0.906130  1
  Er  Er5  1  0.347973  0.834667  0.873912  1
  Er  Er6  1  0.855114  0.659323  0.622126  1
  Er  Er7  1  0.643778  0.160693  0.378439  1
  Er  Er8  1  0.148084  0.338573  0.122354  1
  Er  Er9  1  0.648023  0.164257  0.126231  1
  Er  Er10  1  0.142141  0.337711  0.378830  1
  Er  Er11  1  0.358254  0.837824  0.624850  1
  Er  Er12  1  0.853515  0.663708  0.876441  1
  Er  Er13  1  0.513648  0.321932  0.901420  1
  Er  Er14  1  0.013336  0.181615  0.596543  1
  Er  Er15  1  0.486859  0.680591  0.406214  1
  Er  Er16  1  0.190882  0.499012  0.747586  1
  Er  Er17  1  0.688240  0.000214  0.749689  1
  Er  Er18  1  0.809941  0.500933  0.250467  1
  Er  Er19  1  0.309153  0.999864  0.251896  1
  Sn  Sn20  1  0.323761  0.045174  0.039525  1
  Sn  Sn21  1  0.804572  0.460505  0.456170  1
  Sn  Sn22  1  0.693788  0.960277  0.544143  1
  Sn  Sn23  1  0.192152  0.534883  0.954072  1
  Sn  Sn24  1  0.675406  0.966457  0.956649  1
  Sn  Sn25  1  0.195112  0.542215  0.541749  1
  Sn  Sn26  1  0.306054  0.039911  0.460034  1
  Sn  Sn27  1  0.809250  0.454629  0.039681  1
  Sn  Sn28  1  0.554971  0.620860  0.751614  1
  Sn  Sn29  1  0.049822  0.878944  0.748107  1
  Sn  Sn30  1  0.446017  0.379182  0.253416  1
  Sn  Sn31  1  0.947671  0.123889  0.249770  1
  Sn  Sn32  1  0.319471  0.144098  0.750573  1
  Sn  Sn33  1  0.822018  0.355809  0.748914  1
  Sn  Sn34  1  0.675056  0.856455  0.253627  1
  Sn  Sn35  1  0.185881  0.639451  0.251925  1
