# generated using pymatgen
data_Y10BiPb5
_symmetry_space_group_name_H-M   'P 1'
_cell_length_a   9.10400801
_cell_length_b   9.09908187
_cell_length_c   6.61956600
_cell_angle_alpha   90.00007738
_cell_angle_beta   90.00032416
_cell_angle_gamma   120.01724959
_symmetry_Int_Tables_number   1
_chemical_formula_structural   Y10BiPb5
_chemical_formula_sum   'Y10 Bi1 Pb5'
_cell_volume   474.80451228
_cell_formula_units_Z   1
loop_
 _symmetry_equiv_pos_site_id
 _symmetry_equiv_pos_as_xyz
  1  'x, y, z'
loop_
 _atom_site_type_symbol
 _atom_site_label
 _atom_site_symmetry_multiplicity
 _atom_site_fract_x
 _atom_site_fract_y
 _atom_site_fract_z
 _atom_site_occupancy
  Y  Y0  1  0.667071  0.335409  0.999225  1
  Y  Y1  1  0.331664  0.664583  0.999232  1
  Y  Y2  1  0.762392  0.758940  0.249997  1
  Y  Y3  1  0.003442  0.241065  0.250029  1
  Y  Y4  1  0.237373  0.000008  0.249981  1
  Y  Y5  1  0.667082  0.335393  0.500752  1
  Y  Y6  1  0.331672  0.664588  0.500768  1
  Y  Y7  1  0.238650  0.239321  0.749978  1
  Y  Y8  1  0.761149  0.000020  0.750026  1
  Y  Y9  1  0.999304  0.760660  0.750002  1
  Bi  Bi10  1  0.606568  0.999994  0.249989  1
  Pb  Pb11  1  0.000157  0.605375  0.250007  1
  Pb  Pb12  1  0.394780  0.394623  0.250003  1
  Pb  Pb13  1  0.394048  0.000005  0.750000  1
  Pb  Pb14  1  0.999173  0.393697  0.750010  1
  Pb  Pb15  1  0.605474  0.606316  0.750006  1
