# generated using pymatgen
data_Er9Th(PPb3)2
_symmetry_space_group_name_H-M   'P 1'
_cell_length_a   9.15118927
_cell_length_b   9.15118901
_cell_length_c   6.74954400
_cell_angle_alpha   90.00000000
_cell_angle_beta   90.00000000
_cell_angle_gamma   120.20236006
_symmetry_Int_Tables_number   1
_chemical_formula_structural   Er9Th(PPb3)2
_chemical_formula_sum   'Er9 Th1 P2 Pb6'
_cell_volume   488.50716195
_cell_formula_units_Z   1
loop_
 _symmetry_equiv_pos_site_id
 _symmetry_equiv_pos_as_xyz
  1  'x, y, z'
loop_
 _atom_site_type_symbol
 _atom_site_label
 _atom_site_symmetry_multiplicity
 _atom_site_fract_x
 _atom_site_fract_y
 _atom_site_fract_z
 _atom_site_occupancy
  Er  Er0  1  0.238147  0.000531  0.250000  1
  Er  Er1  1  0.000531  0.238147  0.250000  1
  Er  Er2  1  0.239089  0.239089  0.750000  1
  Er  Er3  1  0.762852  0.000688  0.750000  1
  Er  Er4  1  0.000688  0.762852  0.750000  1
  Er  Er5  1  0.667400  0.332841  0.500728  1
  Er  Er6  1  0.332841  0.667400  0.500728  1
  Er  Er7  1  0.332841  0.667400  0.999272  1
  Er  Er8  1  0.667400  0.332841  0.999272  1
  Th  Th9  1  0.759444  0.759444  0.250000  1
  P  P10  1  0.002681  0.002681  0.502437  1
  P  P11  1  0.002681  0.002681  0.997563  1
  Pb  Pb12  1  0.395283  0.395283  0.250000  1
  Pb  Pb13  1  0.597469  0.003642  0.250000  1
  Pb  Pb14  1  0.003642  0.597469  0.250000  1
  Pb  Pb15  1  0.599081  0.599081  0.750000  1
  Pb  Pb16  1  0.398516  0.999414  0.750000  1
  Pb  Pb17  1  0.999414  0.398516  0.750000  1
