# generated using pymatgen
data_Th3ZnCd2Pd3
_symmetry_space_group_name_H-M   'P 1'
_cell_length_a   7.75960661
_cell_length_b   7.77758340
_cell_length_c   3.93581700
_cell_angle_alpha   90.00000000
_cell_angle_beta   90.00000000
_cell_angle_gamma   120.07665886
_symmetry_Int_Tables_number   1
_chemical_formula_structural   Th3ZnCd2Pd3
_chemical_formula_sum   'Th3 Zn1 Cd2 Pd3'
_cell_volume   205.54831158
_cell_formula_units_Z   1
loop_
 _symmetry_equiv_pos_site_id
 _symmetry_equiv_pos_as_xyz
  1  'x, y, z'
loop_
 _atom_site_type_symbol
 _atom_site_label
 _atom_site_symmetry_multiplicity
 _atom_site_fract_x
 _atom_site_fract_y
 _atom_site_fract_z
 _atom_site_occupancy
  Th  Th0  1  0.399320  0.403798  0.000000  1
  Th  Th1  1  0.600680  0.004478  0.000000  1
  Th  Th2  1  0.000000  0.580294  0.000000  1
  Zn  Zn3  1  0.000000  0.255946  0.500000  1
  Cd  Cd4  1  0.751481  0.746325  0.500000  1
  Cd  Cd5  1  0.248519  0.994844  0.500000  1
  Pd  Pd6  1  0.000000  0.025837  0.000000  1
  Pd  Pd7  1  0.671354  0.329915  0.500000  1
  Pd  Pd8  1  0.328646  0.658563  0.500000  1
