# generated using pymatgen
data_Dy7Ho3(GePb3)2
_symmetry_space_group_name_H-M   'P 1'
_cell_length_a   9.33743700
_cell_length_b   9.33743705
_cell_length_c   6.54188000
_cell_angle_alpha   90.00000000
_cell_angle_beta   90.00000000
_cell_angle_gamma   119.99999626
_symmetry_Int_Tables_number   1
_chemical_formula_structural   Dy7Ho3(GePb3)2
_chemical_formula_sum   'Dy7 Ho3 Ge2 Pb6'
_cell_volume   493.95637329
_cell_formula_units_Z   1
loop_
 _symmetry_equiv_pos_site_id
 _symmetry_equiv_pos_as_xyz
  1  'x, y, z'
loop_
 _atom_site_type_symbol
 _atom_site_label
 _atom_site_symmetry_multiplicity
 _atom_site_fract_x
 _atom_site_fract_y
 _atom_site_fract_z
 _atom_site_occupancy
  Dy  Dy0  1  0.251460  0.000011  0.250065  1
  Dy  Dy1  1  0.748551  0.000011  0.749935  1
  Dy  Dy2  1  0.999989  0.251449  0.250065  1
  Dy  Dy3  1  0.999989  0.748540  0.749935  1
  Dy  Dy4  1  0.748551  0.748540  0.250065  1
  Dy  Dy5  1  0.251460  0.251449  0.749935  1
  Dy  Dy6  1  0.333333  0.666667  0.500000  1
  Ho  Ho7  1  0.333333  0.666667  0.000000  1
  Ho  Ho8  1  0.666667  0.333333  0.000000  1
  Ho  Ho9  1  0.666667  0.333333  0.500000  1
  Ge  Ge10  1  0.000000  0.000000  0.000000  1
  Ge  Ge11  1  0.000000  0.000000  0.500000  1
  Pb  Pb12  1  0.607684  0.000030  0.250013  1
  Pb  Pb13  1  0.392345  0.000030  0.749987  1
  Pb  Pb14  1  0.999970  0.607655  0.250013  1
  Pb  Pb15  1  0.999970  0.392316  0.749987  1
  Pb  Pb16  1  0.392345  0.392316  0.250013  1
  Pb  Pb17  1  0.607684  0.607655  0.749987  1
