# generated using pymatgen
data_Ca6YbThAs6
_symmetry_space_group_name_H-M   'P 1'
_cell_length_a   7.70084364
_cell_length_b   7.79548306
_cell_length_c   7.79534100
_cell_angle_alpha   109.71782877
_cell_angle_beta   109.22170157
_cell_angle_gamma   109.23463177
_symmetry_Int_Tables_number   1
_chemical_formula_structural   Ca6YbThAs6
_chemical_formula_sum   'Ca6 Yb1 Th1 As6'
_cell_volume   361.29642855
_cell_formula_units_Z   1
loop_
 _symmetry_equiv_pos_site_id
 _symmetry_equiv_pos_as_xyz
  1  'x, y, z'
loop_
 _atom_site_type_symbol
 _atom_site_label
 _atom_site_symmetry_multiplicity
 _atom_site_fract_x
 _atom_site_fract_y
 _atom_site_fract_z
 _atom_site_occupancy
  Ca  Ca0  1  0.637398  0.500043  0.999963  1
  Ca  Ca1  1  0.499252  0.999834  0.638212  1
  Ca  Ca2  1  0.368440  0.364448  0.375860  1
  Ca  Ca3  1  0.505437  0.011420  0.136208  1
  Ca  Ca4  1  0.999335  0.638786  0.500093  1
  Ca  Ca5  1  0.861051  0.861843  0.861694  1
  Yb  Yb6  1  0.993619  0.124843  0.489566  1
  Th  Th7  1  0.141294  0.499427  0.998919  1
  As  As8  1  0.368228  0.623061  0.756311  1
  As  As9  1  0.882798  0.254482  0.125142  1
  As  As10  1  0.613459  0.744372  0.367718  1
  As  As11  1  0.127082  0.870040  0.245810  1
  As  As12  1  0.245075  0.132349  0.875086  1
  As  As13  1  0.757532  0.375048  0.629422  1
