# generated using pymatgen
data_NdDyGe4(AsRh4)3
_symmetry_space_group_name_H-M   'P 1'
_cell_length_a   9.99197900
_cell_length_b   9.99197955
_cell_length_c   3.94914800
_cell_angle_alpha   90.00000000
_cell_angle_beta   90.00000000
_cell_angle_gamma   120.00000147
_symmetry_Int_Tables_number   1
_chemical_formula_structural   NdDyGe4(AsRh4)3
_chemical_formula_sum   'Nd1 Dy1 Ge4 As3 Rh12'
_cell_volume   341.45783663
_cell_formula_units_Z   1
loop_
 _symmetry_equiv_pos_site_id
 _symmetry_equiv_pos_as_xyz
  1  'x, y, z'
loop_
 _atom_site_type_symbol
 _atom_site_label
 _atom_site_symmetry_multiplicity
 _atom_site_fract_x
 _atom_site_fract_y
 _atom_site_fract_z
 _atom_site_occupancy
  Nd  Nd0  1  0.333333  0.666667  0.751313  1
  Dy  Dy1  1  0.666667  0.333333  0.249178  1
  Ge  Ge2  1  0.000000  0.000000  0.582204  1
  Ge  Ge3  1  0.883287  0.595638  0.751282  1
  Ge  Ge4  1  0.404362  0.287649  0.751282  1
  Ge  Ge5  1  0.712351  0.116713  0.751282  1
  As  As6  1  0.112616  0.401740  0.250099  1
  As  As7  1  0.598260  0.710875  0.250099  1
  As  As8  1  0.289125  0.887384  0.250099  1
  Rh  Rh9  1  0.618779  0.555252  0.751874  1
  Rh  Rh10  1  0.444748  0.063525  0.751874  1
  Rh  Rh11  1  0.936475  0.381221  0.751874  1
  Rh  Rh12  1  0.382850  0.441888  0.250112  1
  Rh  Rh13  1  0.558112  0.940962  0.250112  1
  Rh  Rh14  1  0.059038  0.617150  0.250112  1
  Rh  Rh15  1  0.121552  0.850475  0.751186  1
  Rh  Rh16  1  0.149525  0.271078  0.751186  1
  Rh  Rh17  1  0.728922  0.878448  0.751186  1
  Rh  Rh18  1  0.884300  0.142693  0.252643  1
  Rh  Rh19  1  0.857307  0.741607  0.252643  1
  Rh  Rh20  1  0.258393  0.115700  0.252643  1
