# generated using pymatgen
data_Er8Ti12Si15Pb
_symmetry_space_group_name_H-M   'P 1'
_cell_length_a   7.09762283
_cell_length_b   7.05287499
_cell_length_c   12.97761733
_cell_angle_alpha   89.98951020
_cell_angle_beta   89.68884250
_cell_angle_gamma   89.89561597
_symmetry_Int_Tables_number   1
_chemical_formula_structural   Er8Ti12Si15Pb
_chemical_formula_sum   'Er8 Ti12 Si15 Pb1'
_cell_volume   649.63129183
_cell_formula_units_Z   1
loop_
 _symmetry_equiv_pos_site_id
 _symmetry_equiv_pos_as_xyz
  1  'x, y, z'
loop_
 _atom_site_type_symbol
 _atom_site_label
 _atom_site_symmetry_multiplicity
 _atom_site_fract_x
 _atom_site_fract_y
 _atom_site_fract_z
 _atom_site_occupancy
  Er  Er0  1  0.345232  0.997916  0.460088  1
  Er  Er1  1  0.507542  0.834437  0.718474  1
  Er  Er2  1  0.501856  0.159584  0.216773  1
  Er  Er3  1  0.841347  0.497899  0.282092  1
  Er  Er4  1  0.158678  0.511242  0.786683  1
  Er  Er5  1  0.660901  0.996595  0.969207  1
  Er  Er6  1  0.990626  0.350803  0.526141  1
  Er  Er7  1  0.999067  0.658619  0.034315  1
  Ti  Ti8  1  0.325917  0.326886  0.001272  1
  Ti  Ti9  1  0.173887  0.826197  0.249746  1
  Ti  Ti10  1  0.813644  0.175209  0.752570  1
  Ti  Ti11  1  0.672864  0.673024  0.499458  1
  Ti  Ti12  1  0.151961  0.007184  0.884210  1
  Ti  Ti13  1  0.492481  0.650248  0.126383  1
  Ti  Ti14  1  0.517529  0.355473  0.626149  1
  Ti  Ti15  1  0.653818  0.493424  0.875985  1
  Ti  Ti16  1  0.348162  0.509054  0.373095  1
  Ti  Ti17  1  0.847514  0.992490  0.375415  1
  Ti  Ti18  1  0.009173  0.151609  0.123824  1
  Ti  Ti19  1  0.977877  0.832209  0.618473  1
  Si  Si20  1  0.370400  0.703338  0.935562  1
  Si  Si21  1  0.628685  0.296789  0.431832  1
  Si  Si22  1  0.703609  0.369007  0.067148  1
  Si  Si23  1  0.297157  0.631427  0.566121  1
  Si  Si24  1  0.796983  0.869439  0.183725  1
  Si  Si25  1  0.130498  0.203172  0.315670  1
  Si  Si26  1  0.869739  0.799591  0.817110  1
  Si  Si27  1  0.292607  0.952273  0.067292  1
  Si  Si28  1  0.549889  0.789354  0.313231  1
  Si  Si29  1  0.460512  0.210380  0.821488  1
  Si  Si30  1  0.794964  0.544124  0.687273  1
  Si  Si31  1  0.209137  0.452937  0.185279  1
  Si  Si32  1  0.706841  0.047953  0.564350  1
  Si  Si33  1  0.952567  0.291802  0.935447  1
  Si  Si34  1  0.048643  0.711319  0.432452  1
  Pb  Pb35  1  0.197693  0.126993  0.675668  1
