# generated using pymatgen
data_Dy15HoIn4NiIr3
_symmetry_space_group_name_H-M   'P 1'
_cell_length_a   9.62947371
_cell_length_b   9.64584677
_cell_length_c   9.65541878
_cell_angle_alpha   60.03278923
_cell_angle_beta   59.98659319
_cell_angle_gamma   59.94374633
_symmetry_Int_Tables_number   1
_chemical_formula_structural   Dy15HoIn4NiIr3
_chemical_formula_sum   'Dy15 Ho1 In4 Ni1 Ir3'
_cell_volume   633.98277462
_cell_formula_units_Z   1
loop_
 _symmetry_equiv_pos_site_id
 _symmetry_equiv_pos_as_xyz
  1  'x, y, z'
loop_
 _atom_site_type_symbol
 _atom_site_label
 _atom_site_symmetry_multiplicity
 _atom_site_fract_x
 _atom_site_fract_y
 _atom_site_fract_z
 _atom_site_occupancy
  Dy  Dy0  1  0.439513  0.436117  0.062233  1
  Dy  Dy1  1  0.648540  0.652578  0.046306  1
  Dy  Dy2  1  0.190732  0.810281  0.188706  1
  Dy  Dy3  1  0.058568  0.440897  0.059637  1
  Dy  Dy4  1  0.191035  0.810389  0.810230  1
  Dy  Dy5  1  0.058718  0.440817  0.440651  1
  Dy  Dy6  1  0.810471  0.189761  0.190326  1
  Dy  Dy7  1  0.649240  0.652972  0.652418  1
  Dy  Dy8  1  0.810662  0.189964  0.809411  1
  Dy  Dy9  1  0.191035  0.188344  0.810230  1
  Dy  Dy10  1  0.050288  0.650212  0.649287  1
  Dy  Dy11  1  0.439513  0.062136  0.062233  1
  Dy  Dy12  1  0.058718  0.059813  0.440651  1
  Dy  Dy13  1  0.649240  0.045372  0.652418  1
  Dy  Dy14  1  0.810471  0.809443  0.190326  1
  Ho  Ho15  1  0.439649  0.062167  0.436017  1
  In  In16  1  0.418613  0.415757  0.416000  1
  In  In17  1  0.418607  0.416079  0.749236  1
  In  In18  1  0.418613  0.749631  0.416000  1
  In  In19  1  0.746891  0.417745  0.417621  1
  Ni  Ni20  1  0.423875  0.858678  0.858768  1
  Ir  Ir21  1  0.859059  0.857865  0.857945  1
  Ir  Ir22  1  0.859059  0.425128  0.857945  1
  Ir  Ir23  1  0.858888  0.857852  0.425406  1
