# generated using pymatgen
data_Rb4MoRhCl12
_symmetry_space_group_name_H-M   'P 1'
_cell_length_a   7.20458434
_cell_length_b   7.20458434
_cell_length_c   10.45876000
_cell_angle_alpha   90.00000000
_cell_angle_beta   90.00000000
_cell_angle_gamma   89.96478552
_symmetry_Int_Tables_number   1
_chemical_formula_structural   Rb4MoRhCl12
_chemical_formula_sum   'Rb4 Mo1 Rh1 Cl12'
_cell_volume   542.87266547
_cell_formula_units_Z   1
loop_
 _symmetry_equiv_pos_site_id
 _symmetry_equiv_pos_as_xyz
  1  'x, y, z'
loop_
 _atom_site_type_symbol
 _atom_site_label
 _atom_site_symmetry_multiplicity
 _atom_site_fract_x
 _atom_site_fract_y
 _atom_site_fract_z
 _atom_site_occupancy
  Rb  Rb0  1  0.500000  0.000000  0.780739  1
  Rb  Rb1  1  0.000000  0.500000  0.219261  1
  Rb  Rb2  1  0.500000  0.000000  0.219261  1
  Rb  Rb3  1  0.000000  0.500000  0.780739  1
  Mo  Mo4  1  0.500000  0.500000  0.500000  1
  Rh  Rh5  1  0.000000  0.000000  0.000000  1
  Cl  Cl6  1  0.000000  0.000000  0.774096  1
  Cl  Cl7  1  0.500000  0.500000  0.272151  1
  Cl  Cl8  1  0.732169  0.732169  0.500000  1
  Cl  Cl9  1  0.232344  0.232344  0.000000  1
  Cl  Cl10  1  0.732211  0.267789  0.500000  1
  Cl  Cl11  1  0.232341  0.767659  0.000000  1
  Cl  Cl12  1  0.000000  0.000000  0.225904  1
  Cl  Cl13  1  0.500000  0.500000  0.727849  1
  Cl  Cl14  1  0.267831  0.267831  0.500000  1
  Cl  Cl15  1  0.767656  0.767656  0.000000  1
  Cl  Cl16  1  0.267789  0.732211  0.500000  1
  Cl  Cl17  1  0.767659  0.232341  0.000000  1
