# generated using pymatgen
data_KRb3(ThS3)2
_symmetry_space_group_name_H-M   'P 1'
_cell_length_a   7.45041057
_cell_length_b   7.45041068
_cell_length_c   8.20413800
_cell_angle_alpha   81.32983614
_cell_angle_beta   81.32982823
_cell_angle_gamma   119.98963853
_symmetry_Int_Tables_number   1
_chemical_formula_structural   KRb3(ThS3)2
_chemical_formula_sum   'K1 Rb3 Th2 S6'
_cell_volume   376.08200167
_cell_formula_units_Z   1
loop_
 _symmetry_equiv_pos_site_id
 _symmetry_equiv_pos_as_xyz
  1  'x, y, z'
loop_
 _atom_site_type_symbol
 _atom_site_label
 _atom_site_symmetry_multiplicity
 _atom_site_fract_x
 _atom_site_fract_y
 _atom_site_fract_z
 _atom_site_occupancy
  K  K0  1  0.500000  0.500000  0.000000  1
  Rb  Rb1  1  0.655229  0.344771  0.500000  1
  Rb  Rb2  1  0.344771  0.655229  0.500000  1
  Rb  Rb3  1  0.000000  0.000000  0.500000  1
  Th  Th4  1  0.832602  0.167398  0.000000  1
  Th  Th5  1  0.167398  0.832602  0.000000  1
  S  S6  1  0.807459  0.807459  0.197411  1
  S  S7  1  0.192541  0.192541  0.802589  1
  S  S8  1  0.432302  0.056165  0.201349  1
  S  S9  1  0.567698  0.943835  0.798651  1
  S  S10  1  0.943835  0.567698  0.798651  1
  S  S11  1  0.056165  0.432302  0.201349  1
