# generated using pymatgen
data_La3Mg3NiSn2
_symmetry_space_group_name_H-M   'P 1'
_cell_length_a   7.55831243
_cell_length_b   7.55831108
_cell_length_c   4.80295100
_cell_angle_alpha   90.00000000
_cell_angle_beta   90.00000000
_cell_angle_gamma   120.00152775
_symmetry_Int_Tables_number   1
_chemical_formula_structural   La3Mg3NiSn2
_chemical_formula_sum   'La3 Mg3 Ni1 Sn2'
_cell_volume   237.61929531
_cell_formula_units_Z   1
loop_
 _symmetry_equiv_pos_site_id
 _symmetry_equiv_pos_as_xyz
  1  'x, y, z'
loop_
 _atom_site_type_symbol
 _atom_site_label
 _atom_site_symmetry_multiplicity
 _atom_site_fract_x
 _atom_site_fract_y
 _atom_site_fract_z
 _atom_site_occupancy
  La  La0  1  0.000027  0.610934  0.000000  1
  La  La1  1  0.388888  0.388888  0.000000  1
  La  La2  1  0.610934  0.000027  0.000000  1
  Mg  Mg3  1  0.999950  0.227528  0.500000  1
  Mg  Mg4  1  0.772514  0.772514  0.500000  1
  Mg  Mg5  1  0.227528  0.999950  0.500000  1
  Ni  Ni6  1  0.000058  0.000058  0.000000  1
  Sn  Sn7  1  0.333447  0.666653  0.500000  1
  Sn  Sn8  1  0.666653  0.333447  0.500000  1
