# generated using pymatgen
data_LuPaPt6
_symmetry_space_group_name_H-M   'P 1'
_cell_length_a   5.79884100
_cell_length_b   5.79884021
_cell_length_c   4.85003800
_cell_angle_alpha   90.00000000
_cell_angle_beta   90.00000000
_cell_angle_gamma   119.99999878
_symmetry_Int_Tables_number   1
_chemical_formula_structural   LuPaPt6
_chemical_formula_sum   'Lu1 Pa1 Pt6'
_cell_volume   141.24013411
_cell_formula_units_Z   1
loop_
 _symmetry_equiv_pos_site_id
 _symmetry_equiv_pos_as_xyz
  1  'x, y, z'
loop_
 _atom_site_type_symbol
 _atom_site_label
 _atom_site_symmetry_multiplicity
 _atom_site_fract_x
 _atom_site_fract_y
 _atom_site_fract_z
 _atom_site_occupancy
  Lu  Lu0  1  0.666667  0.333333  0.250000  1
  Pa  Pa1  1  0.333333  0.666667  0.750000  1
  Pt  Pt2  1  0.837017  0.162983  0.750000  1
  Pt  Pt3  1  0.325967  0.162983  0.750000  1
  Pt  Pt4  1  0.837017  0.674033  0.750000  1
  Pt  Pt5  1  0.163797  0.836203  0.250000  1
  Pt  Pt6  1  0.672406  0.836203  0.250000  1
  Pt  Pt7  1  0.163797  0.327594  0.250000  1
