# generated using pymatgen
data_Tm12RuRh3
_symmetry_space_group_name_H-M   'P 1'
_cell_length_a   7.15021507
_cell_length_b   9.12993000
_cell_length_c   6.28066506
_cell_angle_alpha   90.00000000
_cell_angle_beta   90.01538098
_cell_angle_gamma   90.00000000
_symmetry_Int_Tables_number   1
_chemical_formula_structural   Tm12RuRh3
_chemical_formula_sum   'Tm12 Ru1 Rh3'
_cell_volume   410.00784855
_cell_formula_units_Z   1
loop_
 _symmetry_equiv_pos_site_id
 _symmetry_equiv_pos_as_xyz
  1  'x, y, z'
loop_
 _atom_site_type_symbol
 _atom_site_label
 _atom_site_symmetry_multiplicity
 _atom_site_fract_x
 _atom_site_fract_y
 _atom_site_fract_z
 _atom_site_occupancy
  Tm  Tm0  1  0.465045  0.250000  0.129879  1
  Tm  Tm1  1  0.176827  0.563985  0.173397  1
  Tm  Tm2  1  0.176827  0.936015  0.173397  1
  Tm  Tm3  1  0.680416  0.563898  0.323351  1
  Tm  Tm4  1  0.680416  0.936102  0.323351  1
  Tm  Tm5  1  0.964116  0.250000  0.372536  1
  Tm  Tm6  1  0.035124  0.750000  0.628028  1
  Tm  Tm7  1  0.321484  0.062362  0.674013  1
  Tm  Tm8  1  0.321484  0.437638  0.674013  1
  Tm  Tm9  1  0.821614  0.060068  0.829023  1
  Tm  Tm10  1  0.821614  0.439932  0.829023  1
  Tm  Tm11  1  0.536158  0.750000  0.872203  1
  Ru  Ru12  1  0.884953  0.750000  0.038058  1
  Rh  Rh13  1  0.386403  0.750000  0.457588  1
  Rh  Rh14  1  0.613226  0.250000  0.546626  1
  Rh  Rh15  1  0.114289  0.250000  0.955527  1
