# generated using pymatgen
data_Ca3CdHg2Pd3
_symmetry_space_group_name_H-M   'P 1'
_cell_length_a   7.70481858
_cell_length_b   7.70481908
_cell_length_c   4.05166500
_cell_angle_alpha   90.00000000
_cell_angle_beta   90.00000000
_cell_angle_gamma   120.63763717
_symmetry_Int_Tables_number   1
_chemical_formula_structural   Ca3CdHg2Pd3
_chemical_formula_sum   'Ca3 Cd1 Hg2 Pd3'
_cell_volume   206.94863068
_cell_formula_units_Z   1
loop_
 _symmetry_equiv_pos_site_id
 _symmetry_equiv_pos_as_xyz
  1  'x, y, z'
loop_
 _atom_site_type_symbol
 _atom_site_label
 _atom_site_symmetry_multiplicity
 _atom_site_fract_x
 _atom_site_fract_y
 _atom_site_fract_z
 _atom_site_occupancy
  Ca  Ca0  1  0.395862  0.395862  0.500000  1
  Ca  Ca1  1  0.598352  0.004064  0.500000  1
  Ca  Ca2  1  0.004064  0.598352  0.500000  1
  Cd  Cd3  1  0.740550  0.740550  0.000000  1
  Hg  Hg4  1  0.261645  0.996724  0.000000  1
  Hg  Hg5  1  0.996724  0.261645  0.000000  1
  Pd  Pd6  1  0.666953  0.339757  0.000000  1
  Pd  Pd7  1  0.339757  0.666953  0.000000  1
  Pd  Pd8  1  0.996093  0.996093  0.500000  1
