# generated using pymatgen
data_Tb5Dy6TmRu4
_symmetry_space_group_name_H-M   'P 1'
_cell_length_a   6.32508807
_cell_length_b   7.30597437
_cell_length_c   9.20001888
_cell_angle_alpha   89.98045852
_cell_angle_beta   90.10409391
_cell_angle_gamma   89.93631741
_symmetry_Int_Tables_number   1
_chemical_formula_structural   Tb5Dy6TmRu4
_chemical_formula_sum   'Tb5 Dy6 Tm1 Ru4'
_cell_volume   425.14045156
_cell_formula_units_Z   1
loop_
 _symmetry_equiv_pos_site_id
 _symmetry_equiv_pos_as_xyz
  1  'x, y, z'
loop_
 _atom_site_type_symbol
 _atom_site_label
 _atom_site_symmetry_multiplicity
 _atom_site_fract_x
 _atom_site_fract_y
 _atom_site_fract_z
 _atom_site_occupancy
  Tb  Tb0  1  0.633991  0.040237  0.250706  1
  Tb  Tb1  1  0.367118  0.960160  0.749410  1
  Tb  Tb2  1  0.132752  0.459458  0.749175  1
  Tb  Tb3  1  0.866097  0.539946  0.250734  1
  Tb  Tb4  1  0.170206  0.177155  0.064742  1
  Dy  Dy5  1  0.829926  0.823277  0.934917  1
  Dy  Dy6  1  0.669667  0.322958  0.934209  1
  Dy  Dy7  1  0.829666  0.823141  0.564779  1
  Dy  Dy8  1  0.330498  0.676718  0.064970  1
  Dy  Dy9  1  0.169889  0.177001  0.435806  1
  Dy  Dy10  1  0.330791  0.676170  0.435722  1
  Tm  Tm11  1  0.669438  0.323848  0.565308  1
  Ru  Ru12  1  0.461331  0.385719  0.251520  1
  Ru  Ru13  1  0.539714  0.613812  0.749260  1
  Ru  Ru14  1  0.959266  0.114818  0.748906  1
  Ru  Ru15  1  0.039649  0.885581  0.249834  1
