# generated using pymatgen
data_Cs(Sc3Te4)2
_symmetry_space_group_name_H-M   'P 1'
_cell_length_a   4.20311600
_cell_length_b   11.26216697
_cell_length_c   11.25878605
_cell_angle_alpha   60.00518220
_cell_angle_beta   89.99841668
_cell_angle_gamma   90.00034285
_symmetry_Int_Tables_number   1
_chemical_formula_structural   Cs(Sc3Te4)2
_chemical_formula_sum   'Cs1 Sc6 Te8'
_cell_volume   461.57067866
_cell_formula_units_Z   1
loop_
 _symmetry_equiv_pos_site_id
 _symmetry_equiv_pos_as_xyz
  1  'x, y, z'
loop_
 _atom_site_type_symbol
 _atom_site_label
 _atom_site_symmetry_multiplicity
 _atom_site_fract_x
 _atom_site_fract_y
 _atom_site_fract_z
 _atom_site_occupancy
  Cs  Cs0  1  0.500000  0.000000  0.000000  1
  Sc  Sc1  1  0.748964  0.350263  0.512696  1
  Sc  Sc2  1  0.748988  0.136961  0.350303  1
  Sc  Sc3  1  0.748918  0.512541  0.136992  1
  Sc  Sc4  1  0.251036  0.649737  0.487304  1
  Sc  Sc5  1  0.251012  0.863039  0.649697  1
  Sc  Sc6  1  0.251082  0.487459  0.863008  1
  Te  Te7  1  0.750503  0.666781  0.666652  1
  Te  Te8  1  0.249497  0.333219  0.333348  1
  Te  Te9  1  0.751838  0.045765  0.644719  1
  Te  Te10  1  0.751918  0.309549  0.045692  1
  Te  Te11  1  0.751829  0.644573  0.309596  1
  Te  Te12  1  0.248162  0.954235  0.355281  1
  Te  Te13  1  0.248082  0.690451  0.954308  1
  Te  Te14  1  0.248171  0.355427  0.690404  1
