# generated using pymatgen
data_Ho7Er(Si3Pt)4
_symmetry_space_group_name_H-M   'P 1'
_cell_length_a   8.12948900
_cell_length_b   8.12686707
_cell_length_c   8.10125600
_cell_angle_alpha   90.00000000
_cell_angle_beta   90.00000000
_cell_angle_gamma   120.01067699
_symmetry_Int_Tables_number   1
_chemical_formula_structural   Ho7Er(Si3Pt)4
_chemical_formula_sum   'Ho7 Er1 Si12 Pt4'
_cell_volume   463.47109788
_cell_formula_units_Z   1
loop_
 _symmetry_equiv_pos_site_id
 _symmetry_equiv_pos_as_xyz
  1  'x, y, z'
loop_
 _atom_site_type_symbol
 _atom_site_label
 _atom_site_symmetry_multiplicity
 _atom_site_fract_x
 _atom_site_fract_y
 _atom_site_fract_z
 _atom_site_occupancy
  Ho  Ho0  1  0.999999  0.999997  0.250000  1
  Ho  Ho1  1  0.000001  0.000003  0.750000  1
  Ho  Ho2  1  0.497578  0.502422  0.250000  1
  Ho  Ho3  1  0.497573  0.995145  0.250000  1
  Ho  Ho4  1  0.004845  0.502422  0.250000  1
  Ho  Ho5  1  0.502425  0.497547  0.750000  1
  Ho  Ho6  1  0.995121  0.497547  0.750000  1
  Er  Er7  1  0.502474  0.004947  0.750000  1
  Si  Si8  1  0.834603  0.165300  0.498770  1
  Si  Si9  1  0.834654  0.669311  0.498644  1
  Si  Si10  1  0.330695  0.165300  0.498770  1
  Si  Si11  1  0.834603  0.165300  0.001230  1
  Si  Si12  1  0.834654  0.669311  0.001356  1
  Si  Si13  1  0.330695  0.165300  0.001230  1
  Si  Si14  1  0.165381  0.834692  0.998547  1
  Si  Si15  1  0.669313  0.834692  0.998547  1
  Si  Si16  1  0.165345  0.330688  0.998649  1
  Si  Si17  1  0.165381  0.834692  0.501453  1
  Si  Si18  1  0.669313  0.834692  0.501453  1
  Si  Si19  1  0.165345  0.330688  0.501351  1
  Pt  Pt20  1  0.666565  0.333129  0.495367  1
  Pt  Pt21  1  0.666565  0.333129  0.004633  1
  Pt  Pt22  1  0.333436  0.666873  0.994740  1
  Pt  Pt23  1  0.333436  0.666873  0.505260  1
