# generated using pymatgen
data_Sc12Fe3Ag2
_symmetry_space_group_name_H-M   'P 1'
_cell_length_a   7.69264288
_cell_length_b   7.69264195
_cell_length_c   7.69264245
_cell_angle_alpha   108.30396481
_cell_angle_beta   108.30396264
_cell_angle_gamma   111.83183803
_symmetry_Int_Tables_number   1
_chemical_formula_structural   Sc12Fe3Ag2
_chemical_formula_sum   'Sc12 Fe3 Ag2'
_cell_volume   349.98462807
_cell_formula_units_Z   1
loop_
 _symmetry_equiv_pos_site_id
 _symmetry_equiv_pos_as_xyz
  1  'x, y, z'
loop_
 _atom_site_type_symbol
 _atom_site_label
 _atom_site_symmetry_multiplicity
 _atom_site_fract_x
 _atom_site_fract_y
 _atom_site_fract_z
 _atom_site_occupancy
  Sc  Sc0  1  0.308547  0.308547  0.617093  1
  Sc  Sc1  1  0.691453  0.691453  0.382907  1
  Sc  Sc2  1  0.691453  0.308547  0.000000  1
  Sc  Sc3  1  0.308547  0.691453  0.000000  1
  Sc  Sc4  1  0.190695  0.431341  0.240646  1
  Sc  Sc5  1  0.809305  0.568659  0.759354  1
  Sc  Sc6  1  0.190695  0.950048  0.759354  1
  Sc  Sc7  1  0.950048  0.190695  0.759354  1
  Sc  Sc8  1  0.809305  0.049952  0.240646  1
  Sc  Sc9  1  0.049952  0.809305  0.240646  1
  Sc  Sc10  1  0.431341  0.190695  0.240646  1
  Sc  Sc11  1  0.568659  0.809305  0.759354  1
  Fe  Fe12  1  0.373988  0.373988  0.000000  1
  Fe  Fe13  1  0.626012  0.626012  0.000000  1
  Fe  Fe14  1  0.000000  0.000000  0.000000  1
  Ag  Ag15  1  0.000000  0.500000  0.500000  1
  Ag  Ag16  1  0.500000  0.000000  0.500000  1
