# generated using pymatgen
data_Mn8Nb8Si13As
_symmetry_space_group_name_H-M   'P 1'
_cell_length_a   9.40794424
_cell_length_b   9.40810953
_cell_length_c   9.40780706
_cell_angle_alpha   94.08222784
_cell_angle_beta   94.08115292
_cell_angle_gamma   149.05469606
_symmetry_Int_Tables_number   1
_chemical_formula_structural   Mn8Nb8Si13As
_chemical_formula_sum   'Mn8 Nb8 Si13 As1'
_cell_volume   412.66564647
_cell_formula_units_Z   1
loop_
 _symmetry_equiv_pos_site_id
 _symmetry_equiv_pos_as_xyz
  1  'x, y, z'
loop_
 _atom_site_type_symbol
 _atom_site_label
 _atom_site_symmetry_multiplicity
 _atom_site_fract_x
 _atom_site_fract_y
 _atom_site_fract_z
 _atom_site_occupancy
  Mn  Mn0  1  0.399147  0.898645  0.799691  1
  Mn  Mn1  1  0.101304  0.601515  0.201644  1
  Mn  Mn2  1  0.098910  0.898618  0.499479  1
  Mn  Mn3  1  0.399887  0.601533  0.500199  1
  Mn  Mn4  1  0.600886  0.400538  0.499495  1
  Mn  Mn5  1  0.898680  0.100325  0.500210  1
  Mn  Mn6  1  0.901121  0.400571  0.799679  1
  Mn  Mn7  1  0.600133  0.100325  0.201676  1
  Nb  Nb8  1  0.135076  0.135805  0.270997  1
  Nb  Nb9  1  0.864867  0.864839  0.729588  1
  Nb  Nb10  1  0.864881  0.135869  0.000711  1
  Nb  Nb11  1  0.135158  0.864753  0.999954  1
  Nb  Nb12  1  0.500003  0.310984  0.810964  1
  Nb  Nb13  1  0.500030  0.689691  0.189693  1
  Nb  Nb14  1  0.690858  0.499999  0.190844  1
  Nb  Nb15  1  0.309100  0.499934  0.809104  1
  Si  Si16  1  0.499889  0.902279  0.402375  1
  Si  Si17  1  0.905260  0.498629  0.403769  1
  Si  Si18  1  0.094784  0.498564  0.593361  1
  Si  Si19  1  0.751391  0.751701  0.000296  1
  Si  Si20  1  0.248602  0.248910  0.000312  1
  Si  Si21  1  0.293532  0.294350  0.587777  1
  Si  Si22  1  0.705135  0.706168  0.411407  1
  Si  Si23  1  0.706594  0.294420  0.000815  1
  Si  Si24  1  0.294744  0.706099  0.001037  1
  Si  Si25  1  0.000050  0.291915  0.291840  1
  Si  Si26  1  0.999960  0.711563  0.711612  1
  Si  Si27  1  0.711374  0.999372  0.710679  1
  Si  Si28  1  0.288606  0.999269  0.287993  1
  As  As29  1  0.500037  0.092817  0.592799  1
