# generated using pymatgen
data_Er3TmSi4OsRh3
_symmetry_space_group_name_H-M   'P 1'
_cell_length_a   4.25428300
_cell_length_b   6.85908130
_cell_length_c   7.28917676
_cell_angle_alpha   89.87686705
_cell_angle_beta   90.00000000
_cell_angle_gamma   90.00000000
_symmetry_Int_Tables_number   1
_chemical_formula_structural   Er3TmSi4OsRh3
_chemical_formula_sum   'Er3 Tm1 Si4 Os1 Rh3'
_cell_volume   212.70113419
_cell_formula_units_Z   1
loop_
 _symmetry_equiv_pos_site_id
 _symmetry_equiv_pos_as_xyz
  1  'x, y, z'
loop_
 _atom_site_type_symbol
 _atom_site_label
 _atom_site_symmetry_multiplicity
 _atom_site_fract_x
 _atom_site_fract_y
 _atom_site_fract_z
 _atom_site_occupancy
  Er  Er0  1  0.250000  0.497915  0.690425  1
  Er  Er1  1  0.250000  0.998991  0.813026  1
  Er  Er2  1  0.750000  0.000576  0.186834  1
  Tm  Tm3  1  0.750000  0.505840  0.310580  1
  Si  Si4  1  0.250000  0.297356  0.107962  1
  Si  Si5  1  0.750000  0.705158  0.886235  1
  Si  Si6  1  0.250000  0.797041  0.400821  1
  Si  Si7  1  0.750000  0.199978  0.604261  1
  Os  Os8  1  0.750000  0.843065  0.567302  1
  Rh  Rh9  1  0.250000  0.155487  0.431258  1
  Rh  Rh10  1  0.750000  0.343488  0.932120  1
  Rh  Rh11  1  0.250000  0.655103  0.069177  1
