# generated using pymatgen
data_Zr2Fe3Co9As7
_symmetry_space_group_name_H-M   'P 1'
_cell_length_a   3.71942300
_cell_length_b   9.26547425
_cell_length_c   9.26547400
_cell_angle_alpha   120.00000101
_cell_angle_beta   90.00000000
_cell_angle_gamma   90.00000000
_symmetry_Int_Tables_number   1
_chemical_formula_structural   Zr2Fe3Co9As7
_chemical_formula_sum   'Zr2 Fe3 Co9 As7'
_cell_volume   276.52951688
_cell_formula_units_Z   1
loop_
 _symmetry_equiv_pos_site_id
 _symmetry_equiv_pos_as_xyz
  1  'x, y, z'
loop_
 _atom_site_type_symbol
 _atom_site_label
 _atom_site_symmetry_multiplicity
 _atom_site_fract_x
 _atom_site_fract_y
 _atom_site_fract_z
 _atom_site_occupancy
  Zr  Zr0  1  0.000000  0.666667  0.333333  1
  Zr  Zr1  1  0.500000  0.333333  0.666667  1
  Fe  Fe2  1  0.500000  0.782273  0.905195  1
  Fe  Fe3  1  0.500000  0.122922  0.217727  1
  Fe  Fe4  1  0.500000  0.094805  0.877078  1
  Co  Co5  1  0.000000  0.563707  0.938896  1
  Co  Co6  1  0.000000  0.375189  0.436293  1
  Co  Co7  1  0.000000  0.061104  0.624811  1
  Co  Co8  1  0.000000  0.878618  0.159336  1
  Co  Co9  1  0.000000  0.280716  0.121382  1
  Co  Co10  1  0.000000  0.840664  0.719284  1
  Co  Co11  1  0.500000  0.949414  0.384052  1
  Co  Co12  1  0.500000  0.434637  0.050586  1
  Co  Co13  1  0.500000  0.615948  0.565363  1
  As  As14  1  0.000000  0.000000  0.000000  1
  As  As15  1  0.500000  0.708599  0.117617  1
  As  As16  1  0.500000  0.409019  0.291401  1
  As  As17  1  0.500000  0.882383  0.590981  1
  As  As18  1  0.000000  0.588147  0.707417  1
  As  As19  1  0.000000  0.119271  0.411853  1
  As  As20  1  0.000000  0.292583  0.880729  1
