# generated using pymatgen
data_Gd8Ho12Sn13Sb3
_symmetry_space_group_name_H-M   'P 1'
_cell_length_a   8.12884894
_cell_length_b   8.19512162
_cell_length_c   15.46131000
_cell_angle_alpha   90.03607588
_cell_angle_beta   89.95128816
_cell_angle_gamma   89.99959021
_symmetry_Int_Tables_number   1
_chemical_formula_structural   Gd8Ho12Sn13Sb3
_chemical_formula_sum   'Gd8 Ho12 Sn13 Sb3'
_cell_volume   1029.98405405
_cell_formula_units_Z   1
loop_
 _symmetry_equiv_pos_site_id
 _symmetry_equiv_pos_as_xyz
  1  'x, y, z'
loop_
 _atom_site_type_symbol
 _atom_site_label
 _atom_site_symmetry_multiplicity
 _atom_site_fract_x
 _atom_site_fract_y
 _atom_site_fract_z
 _atom_site_occupancy
  Gd  Gd0  1  0.519906  0.323700  0.902546  1
  Gd  Gd1  1  0.025237  0.177455  0.597349  1
  Gd  Gd2  1  0.475038  0.676592  0.400458  1
  Gd  Gd3  1  0.976877  0.822628  0.099917  1
  Gd  Gd4  1  0.481481  0.678619  0.098223  1
  Gd  Gd5  1  0.980778  0.820691  0.401854  1
  Gd  Gd6  1  0.516322  0.320998  0.597077  1
  Gd  Gd7  1  0.017469  0.179388  0.902517  1
  Ho  Ho8  1  0.364911  0.838059  0.877479  1
  Ho  Ho9  1  0.866632  0.660331  0.622011  1
  Ho  Ho10  1  0.633915  0.159439  0.377721  1
  Ho  Ho11  1  0.136842  0.338953  0.124577  1
  Ho  Ho12  1  0.637384  0.163182  0.122776  1
  Ho  Ho13  1  0.135865  0.337521  0.377067  1
  Ho  Ho14  1  0.363951  0.838849  0.621089  1
  Ho  Ho15  1  0.863545  0.661596  0.875590  1
  Ho  Ho16  1  0.195600  0.501707  0.749486  1
  Ho  Ho17  1  0.694401  0.999317  0.752330  1
  Ho  Ho18  1  0.805708  0.498817  0.249076  1
  Ho  Ho19  1  0.305970  0.000876  0.251343  1
  Sn  Sn20  1  0.202473  0.539586  0.958976  1
  Sn  Sn21  1  0.707882  0.960615  0.958713  1
  Sn  Sn22  1  0.206698  0.538631  0.541393  1
  Sn  Sn23  1  0.292071  0.036384  0.456161  1
  Sn  Sn24  1  0.798489  0.464083  0.043005  1
  Sn  Sn25  1  0.560970  0.623064  0.747736  1
  Sn  Sn26  1  0.061363  0.878326  0.748943  1
  Sn  Sn27  1  0.440817  0.377734  0.250960  1
  Sn  Sn28  1  0.938895  0.121285  0.250811  1
  Sn  Sn29  1  0.328191  0.146223  0.749707  1
  Sn  Sn30  1  0.829538  0.352999  0.748055  1
  Sn  Sn31  1  0.671343  0.852874  0.251142  1
  Sn  Sn32  1  0.171674  0.646636  0.250454  1
  Sb  Sb33  1  0.291878  0.037068  0.043637  1
  Sb  Sb34  1  0.789904  0.462654  0.456572  1
  Sb  Sb35  1  0.709982  0.963119  0.543255  1
