# generated using pymatgen
data_Y20Cd5InRu2
_symmetry_space_group_name_H-M   'P 1'
_cell_length_a   9.67762026
_cell_length_b   9.67761197
_cell_length_c   9.86273000
_cell_angle_alpha   90.00000000
_cell_angle_beta   90.00000000
_cell_angle_gamma   120.02683832
_symmetry_Int_Tables_number   1
_chemical_formula_structural   Y20Cd5InRu2
_chemical_formula_sum   'Y20 Cd5 In1 Ru2'
_cell_volume   799.73673088
_cell_formula_units_Z   1
loop_
 _symmetry_equiv_pos_site_id
 _symmetry_equiv_pos_as_xyz
  1  'x, y, z'
loop_
 _atom_site_type_symbol
 _atom_site_label
 _atom_site_symmetry_multiplicity
 _atom_site_fract_x
 _atom_site_fract_y
 _atom_site_fract_z
 _atom_site_occupancy
  Y  Y0  1  0.001244  0.998755  0.501753  1
  Y  Y1  1  0.001244  0.998755  0.998247  1
  Y  Y2  1  0.209814  0.790186  0.439705  1
  Y  Y3  1  0.209012  0.418909  0.439148  1
  Y  Y4  1  0.581091  0.790988  0.439148  1
  Y  Y5  1  0.790375  0.209626  0.559237  1
  Y  Y6  1  0.789780  0.580118  0.560555  1
  Y  Y7  1  0.419883  0.210220  0.560554  1
  Y  Y8  1  0.790375  0.209626  0.940763  1
  Y  Y9  1  0.789780  0.580118  0.939445  1
  Y  Y10  1  0.419883  0.210220  0.939446  1
  Y  Y11  1  0.209814  0.790186  0.060295  1
  Y  Y12  1  0.209012  0.418909  0.060852  1
  Y  Y13  1  0.581091  0.790988  0.060852  1
  Y  Y14  1  0.540213  0.459788  0.250000  1
  Y  Y15  1  0.538457  0.082371  0.250000  1
  Y  Y16  1  0.917629  0.461543  0.250000  1
  Y  Y17  1  0.458326  0.541674  0.750000  1
  Y  Y18  1  0.459230  0.917971  0.750000  1
  Y  Y19  1  0.082030  0.540770  0.750000  1
  Cd  Cd20  1  0.885469  0.769803  0.250000  1
  Cd  Cd21  1  0.230198  0.114531  0.250000  1
  Cd  Cd22  1  0.115272  0.884728  0.750000  1
  Cd  Cd23  1  0.114865  0.229840  0.750000  1
  Cd  Cd24  1  0.770160  0.885135  0.750000  1
  In  In25  1  0.884919  0.115080  0.250000  1
  Ru  Ru26  1  0.333562  0.666437  0.250000  1
  Ru  Ru27  1  0.667276  0.332725  0.750000  1
