# generated using pymatgen
data_Pr16Er4Ir7Ru5
_symmetry_space_group_name_H-M   'P 1'
_cell_length_a   11.21215470
_cell_length_b   11.21215470
_cell_length_c   6.60487424
_cell_angle_alpha   89.97788906
_cell_angle_beta   89.97788906
_cell_angle_gamma   90.03374527
_symmetry_Int_Tables_number   1
_chemical_formula_structural   Pr16Er4Ir7Ru5
_chemical_formula_sum   'Pr16 Er4 Ir7 Ru5'
_cell_volume   830.31441066
_cell_formula_units_Z   1
loop_
 _symmetry_equiv_pos_site_id
 _symmetry_equiv_pos_as_xyz
  1  'x, y, z'
loop_
 _atom_site_type_symbol
 _atom_site_label
 _atom_site_symmetry_multiplicity
 _atom_site_fract_x
 _atom_site_fract_y
 _atom_site_fract_z
 _atom_site_occupancy
  Pr  Pr0  1  0.290896  0.086237  0.380085  1
  Pr  Pr1  1  0.290522  0.913604  0.880221  1
  Pr  Pr2  1  0.710017  0.086673  0.881695  1
  Pr  Pr3  1  0.709690  0.914190  0.379249  1
  Pr  Pr4  1  0.586058  0.791107  0.879951  1
  Pr  Pr5  1  0.587016  0.209239  0.380242  1
  Pr  Pr6  1  0.413846  0.790908  0.380341  1
  Pr  Pr7  1  0.413531  0.208853  0.879359  1
  Pr  Pr8  1  0.208893  0.413942  0.620049  1
  Pr  Pr9  1  0.209092  0.586154  0.119659  1
  Pr  Pr10  1  0.790761  0.412984  0.119758  1
  Pr  Pr11  1  0.791147  0.586469  0.620641  1
  Pr  Pr12  1  0.913763  0.709104  0.119915  1
  Pr  Pr13  1  0.913327  0.289983  0.618305  1
  Pr  Pr14  1  0.086396  0.709478  0.619779  1
  Pr  Pr15  1  0.085810  0.290310  0.120751  1
  Er  Er16  1  0.999854  0.000714  0.499309  1
  Er  Er17  1  0.999286  0.000146  0.000691  1
  Er  Er18  1  0.500055  0.500020  0.000119  1
  Er  Er19  1  0.499980  0.499945  0.499881  1
  Ir  Ir20  1  0.853458  0.853071  0.749944  1
  Ir  Ir21  1  0.146929  0.146542  0.750056  1
  Ir  Ir22  1  0.146803  0.853197  0.250000  1
  Ir  Ir23  1  0.645566  0.354434  0.750000  1
  Ir  Ir24  1  0.646736  0.646289  0.249670  1
  Ir  Ir25  1  0.353711  0.353264  0.250330  1
  Ir  Ir26  1  0.353994  0.646006  0.750000  1
  Ru  Ru27  1  0.853378  0.146622  0.250000  1
  Ru  Ru28  1  0.500097  0.000064  0.117217  1
  Ru  Ru29  1  0.499613  0.000161  0.617516  1
  Ru  Ru30  1  0.999839  0.500387  0.882484  1
  Ru  Ru31  1  0.999936  0.499903  0.382783  1
