# generated using pymatgen
data_Yb12Er7TmSi16
_symmetry_space_group_name_H-M   'P 1'
_cell_length_a   7.36678603
_cell_length_b   7.78227702
_cell_length_c   15.04318203
_cell_angle_alpha   90.00101430
_cell_angle_beta   89.99259961
_cell_angle_gamma   89.99188349
_symmetry_Int_Tables_number   1
_chemical_formula_structural   Yb12Er7TmSi16
_chemical_formula_sum   'Yb12 Er7 Tm1 Si16'
_cell_volume   862.43117079
_cell_formula_units_Z   1
loop_
 _symmetry_equiv_pos_site_id
 _symmetry_equiv_pos_as_xyz
  1  'x, y, z'
loop_
 _atom_site_type_symbol
 _atom_site_label
 _atom_site_symmetry_multiplicity
 _atom_site_fract_x
 _atom_site_fract_y
 _atom_site_fract_z
 _atom_site_occupancy
  Yb  Yb0  1  0.972859  0.816372  0.403734  1
  Yb  Yb1  1  0.472888  0.683639  0.096240  1
  Yb  Yb2  1  0.527149  0.316377  0.596277  1
  Yb  Yb3  1  0.027088  0.183589  0.903727  1
  Yb  Yb4  1  0.027133  0.183610  0.596281  1
  Yb  Yb5  1  0.527196  0.316359  0.903732  1
  Yb  Yb6  1  0.472848  0.683635  0.403733  1
  Yb  Yb7  1  0.972821  0.816391  0.096245  1
  Yb  Yb8  1  0.352547  0.019780  0.750023  1
  Yb  Yb9  1  0.852469  0.480245  0.750033  1
  Yb  Yb10  1  0.147486  0.519795  0.250003  1
  Yb  Yb11  1  0.647502  0.980194  0.249996  1
  Er  Er12  1  0.314343  0.176461  0.121068  1
  Er  Er13  1  0.814302  0.323513  0.378903  1
  Er  Er14  1  0.185685  0.676532  0.878873  1
  Er  Er15  1  0.685678  0.823519  0.621149  1
  Er  Er16  1  0.314309  0.176490  0.378901  1
  Er  Er17  1  0.814314  0.323525  0.121084  1
  Er  Er18  1  0.185703  0.676504  0.621124  1
  Tm  Tm19  1  0.685678  0.823592  0.878891  1
  Si  Si20  1  0.857155  0.533753  0.538373  1
  Si  Si21  1  0.357347  0.966118  0.961552  1
  Si  Si22  1  0.642851  0.033767  0.461629  1
  Si  Si23  1  0.142822  0.466292  0.038361  1
  Si  Si24  1  0.142857  0.466242  0.461626  1
  Si  Si25  1  0.642963  0.033624  0.038257  1
  Si  Si26  1  0.357130  0.966231  0.538369  1
  Si  Si27  1  0.856925  0.533908  0.961546  1
  Si  Si28  1  0.977590  0.880502  0.750101  1
  Si  Si29  1  0.477887  0.619580  0.750054  1
  Si  Si30  1  0.522270  0.380584  0.249995  1
  Si  Si31  1  0.022279  0.119414  0.249998  1
  Si  Si32  1  0.249301  0.395942  0.750019  1
  Si  Si33  1  0.749161  0.103933  0.750108  1
  Si  Si34  1  0.250735  0.895922  0.249996  1
  Si  Si35  1  0.750728  0.604067  0.249997  1
