# generated using pymatgen
data_Dy7Pa(Si3Pt)4
_symmetry_space_group_name_H-M   'P 1'
_cell_length_a   8.11387000
_cell_length_b   8.11386990
_cell_length_c   8.13021900
_cell_angle_alpha   90.00000000
_cell_angle_beta   90.00000000
_cell_angle_gamma   119.99999227
_symmetry_Int_Tables_number   1
_chemical_formula_structural   Dy7Pa(Si3Pt)4
_chemical_formula_sum   'Dy7 Pa1 Si12 Pt4'
_cell_volume   463.54189775
_cell_formula_units_Z   1
loop_
 _symmetry_equiv_pos_site_id
 _symmetry_equiv_pos_as_xyz
  1  'x, y, z'
loop_
 _atom_site_type_symbol
 _atom_site_label
 _atom_site_symmetry_multiplicity
 _atom_site_fract_x
 _atom_site_fract_y
 _atom_site_fract_z
 _atom_site_occupancy
  Dy  Dy0  1  0.000000  0.000000  0.750000  1
  Dy  Dy1  1  0.001844  0.500922  0.250000  1
  Dy  Dy2  1  0.499078  0.500922  0.250000  1
  Dy  Dy3  1  0.500860  0.001721  0.750000  1
  Dy  Dy4  1  0.499078  0.998156  0.250000  1
  Dy  Dy5  1  0.500860  0.499140  0.750000  1
  Dy  Dy6  1  0.998279  0.499140  0.750000  1
  Pa  Pa7  1  0.000000  0.000000  0.250000  1
  Si  Si8  1  0.165171  0.330341  0.000991  1
  Si  Si9  1  0.669659  0.834829  0.000991  1
  Si  Si10  1  0.165171  0.330341  0.499009  1
  Si  Si11  1  0.330305  0.165153  0.002512  1
  Si  Si12  1  0.165171  0.834829  0.000991  1
  Si  Si13  1  0.669659  0.834829  0.499009  1
  Si  Si14  1  0.834847  0.669695  0.002512  1
  Si  Si15  1  0.330305  0.165153  0.497488  1
  Si  Si16  1  0.165171  0.834829  0.499009  1
  Si  Si17  1  0.834847  0.669695  0.497488  1
  Si  Si18  1  0.834847  0.165153  0.002512  1
  Si  Si19  1  0.834847  0.165153  0.497488  1
  Pt  Pt20  1  0.333333  0.666667  0.996916  1
  Pt  Pt21  1  0.333333  0.666667  0.503084  1
  Pt  Pt22  1  0.666667  0.333333  0.000862  1
  Pt  Pt23  1  0.666667  0.333333  0.499138  1
