# generated using pymatgen
data_Hf2Zr4NiBiTe
_symmetry_space_group_name_H-M   'P 1'
_cell_length_a   3.69755000
_cell_length_b   7.80181370
_cell_length_c   7.79648363
_cell_angle_alpha   119.93144701
_cell_angle_beta   90.00000000
_cell_angle_gamma   90.00000000
_symmetry_Int_Tables_number   1
_chemical_formula_structural   Hf2Zr4NiBiTe
_chemical_formula_sum   'Hf2 Zr4 Ni1 Bi1 Te1'
_cell_volume   194.91202089
_cell_formula_units_Z   1
loop_
 _symmetry_equiv_pos_site_id
 _symmetry_equiv_pos_as_xyz
  1  'x, y, z'
loop_
 _atom_site_type_symbol
 _atom_site_label
 _atom_site_symmetry_multiplicity
 _atom_site_fract_x
 _atom_site_fract_y
 _atom_site_fract_z
 _atom_site_occupancy
  Hf  Hf0  1  0.500000  0.000832  0.235794  1
  Hf  Hf1  1  0.500000  0.235983  0.001527  1
  Zr  Zr2  1  0.500000  0.761711  0.761300  1
  Zr  Zr3  1  0.000000  0.402281  0.394632  1
  Zr  Zr4  1  0.000000  0.992325  0.596818  1
  Zr  Zr5  1  0.000000  0.604781  0.007646  1
  Ni  Ni6  1  0.000000  0.002578  0.002504  1
  Bi  Bi7  1  0.500000  0.332628  0.667083  1
  Te  Te8  1  0.500000  0.666880  0.332696  1
