# generated using pymatgen
data_Ba3FeO4
_symmetry_space_group_name_H-M   'P 1'
_cell_length_a   7.28576472
_cell_length_b   7.28576452
_cell_length_c   7.28576476
_cell_angle_alpha   66.89015268
_cell_angle_beta   66.89016233
_cell_angle_gamma   66.89015103
_symmetry_Int_Tables_number   1
_chemical_formula_structural   Ba3FeO4
_chemical_formula_sum   'Ba6 Fe2 O8'
_cell_volume   313.90128556
_cell_formula_units_Z   2
loop_
 _symmetry_equiv_pos_site_id
 _symmetry_equiv_pos_as_xyz
  1  'x, y, z'
loop_
 _atom_site_type_symbol
 _atom_site_label
 _atom_site_symmetry_multiplicity
 _atom_site_fract_x
 _atom_site_fract_y
 _atom_site_fract_z
 _atom_site_occupancy
  Ba  Ba0  1  0.750000  0.334452  0.165549  1
  Ba  Ba1  1  0.165549  0.750000  0.334451  1
  Ba  Ba2  1  0.250001  0.665549  0.834451  1
  Ba  Ba3  1  0.665549  0.834451  0.250000  1
  Ba  Ba4  1  0.834451  0.250000  0.665549  1
  Ba  Ba5  1  0.334452  0.165548  0.750000  1
  Fe  Fe6  1  0.750000  0.749999  0.750000  1
  Fe  Fe7  1  0.250001  0.250000  0.249999  1
  O  O8  1  0.750000  0.986440  0.513559  1
  O  O9  1  0.486440  0.250000  0.013561  1
  O  O10  1  0.000000  0.000000  0.000000  1
  O  O11  1  0.500000  0.499999  0.500000  1
  O  O12  1  0.013560  0.486439  0.250000  1
  O  O13  1  0.513561  0.749999  0.986439  1
  O  O14  1  0.250000  0.013560  0.486439  1
  O  O15  1  0.986439  0.513560  0.750000  1
