# generated using pymatgen
data_TbHoAl20Ru3Rh
_symmetry_space_group_name_H-M   'P 1'
_cell_length_a   6.84388838
_cell_length_b   6.85261494
_cell_length_c   9.13942400
_cell_angle_alpha   90.13944560
_cell_angle_beta   90.16165376
_cell_angle_gamma   96.80365907
_symmetry_Int_Tables_number   1
_chemical_formula_structural   TbHoAl20Ru3Rh
_chemical_formula_sum   'Tb1 Ho1 Al20 Ru3 Rh1'
_cell_volume   425.60381399
_cell_formula_units_Z   1
loop_
 _symmetry_equiv_pos_site_id
 _symmetry_equiv_pos_as_xyz
  1  'x, y, z'
loop_
 _atom_site_type_symbol
 _atom_site_label
 _atom_site_symmetry_multiplicity
 _atom_site_fract_x
 _atom_site_fract_y
 _atom_site_fract_z
 _atom_site_occupancy
  Tb  Tb0  1  0.871414  0.126864  0.750633  1
  Ho  Ho1  1  0.128812  0.872958  0.249330  1
  Al  Al2  1  0.620846  0.376176  0.550968  1
  Al  Al3  1  0.379039  0.623932  0.448988  1
  Al  Al4  1  0.377263  0.623304  0.049736  1
  Al  Al5  1  0.622620  0.376811  0.950310  1
  Al  Al6  1  0.226986  0.225392  0.499182  1
  Al  Al7  1  0.773075  0.774548  0.500666  1
  Al  Al8  1  0.774217  0.774637  0.999935  1
  Al  Al9  1  0.225848  0.225299  0.000220  1
  Al  Al10  1  0.844519  0.156096  0.099811  1
  Al  Al11  1  0.155612  0.843780  0.900290  1
  Al  Al12  1  0.157195  0.844909  0.601145  1
  Al  Al13  1  0.842930  0.154952  0.398762  1
  Al  Al14  1  0.858032  0.587240  0.750814  1
  Al  Al15  1  0.142031  0.412978  0.249184  1
  Al  Al16  1  0.412755  0.141093  0.750462  1
  Al  Al17  1  0.587024  0.858858  0.249537  1
  Al  Al18  1  0.222735  0.480682  0.752440  1
  Al  Al19  1  0.777406  0.519561  0.247557  1
  Al  Al20  1  0.519150  0.779109  0.749803  1
  Al  Al21  1  0.480607  0.220747  0.250190  1
  Ru  Ru22  1  0.000023  0.500073  0.000157  1
  Ru  Ru23  1  0.499939  0.999986  0.000174  1
  Ru  Ru24  1  0.499931  0.999991  0.499820  1
  Rh  Rh25  1  0.999993  0.500024  0.499882  1
