# generated using pymatgen
data_Dy20GaBi8Te3
_symmetry_space_group_name_H-M   'P 1'
_cell_length_a   8.17299617
_cell_length_b   9.43002800
_cell_length_c   11.97664497
_cell_angle_alpha   90.00000000
_cell_angle_beta   90.24791631
_cell_angle_gamma   90.00000000
_symmetry_Int_Tables_number   1
_chemical_formula_structural   Dy20GaBi8Te3
_chemical_formula_sum   'Dy20 Ga1 Bi8 Te3'
_cell_volume   923.05034236
_cell_formula_units_Z   1
loop_
 _symmetry_equiv_pos_site_id
 _symmetry_equiv_pos_as_xyz
  1  'x, y, z'
loop_
 _atom_site_type_symbol
 _atom_site_label
 _atom_site_symmetry_multiplicity
 _atom_site_fract_x
 _atom_site_fract_y
 _atom_site_fract_z
 _atom_site_occupancy
  Dy  Dy0  1  0.353902  0.750000  0.207153  1
  Dy  Dy1  1  0.854391  0.750000  0.286162  1
  Dy  Dy2  1  0.647293  0.250000  0.785776  1
  Dy  Dy3  1  0.147204  0.250000  0.714070  1
  Dy  Dy4  1  0.683603  0.567802  0.054863  1
  Dy  Dy5  1  0.190273  0.937322  0.441875  1
  Dy  Dy6  1  0.310699  0.053077  0.941488  1
  Dy  Dy7  1  0.810557  0.436950  0.557993  1
  Dy  Dy8  1  0.310699  0.446923  0.941488  1
  Dy  Dy9  1  0.810557  0.063050  0.557993  1
  Dy  Dy10  1  0.683603  0.932198  0.054863  1
  Dy  Dy11  1  0.190273  0.562678  0.441875  1
  Dy  Dy12  1  0.474636  0.250000  0.488080  1
  Dy  Dy13  1  0.978000  0.250000  0.011853  1
  Dy  Dy14  1  0.524024  0.750000  0.511421  1
  Dy  Dy15  1  0.034365  0.750000  0.989253  1
  Dy  Dy16  1  0.320519  0.250000  0.217520  1
  Dy  Dy17  1  0.819798  0.250000  0.282773  1
  Dy  Dy18  1  0.671275  0.750000  0.787684  1
  Dy  Dy19  1  0.182697  0.750000  0.720289  1
  Ga  Ga20  1  0.408691  0.750000  0.960451  1
  Bi  Bi21  1  0.568409  0.995871  0.325662  1
  Bi  Bi22  1  0.067060  0.503487  0.175732  1
  Bi  Bi23  1  0.432454  0.495883  0.674365  1
  Bi  Bi24  1  0.932085  0.003447  0.825291  1
  Bi  Bi25  1  0.432454  0.004117  0.674365  1
  Bi  Bi26  1  0.932085  0.496553  0.825291  1
  Bi  Bi27  1  0.568409  0.504129  0.325662  1
  Bi  Bi28  1  0.067060  0.996513  0.175732  1
  Te  Te29  1  0.907449  0.750000  0.542416  1
  Te  Te30  1  0.592856  0.250000  0.041533  1
  Te  Te31  1  0.092626  0.250000  0.459030  1
