# generated using pymatgen
data_Ce2SnIrPd
_symmetry_space_group_name_H-M   'P 1'
_cell_length_a   7.75980313
_cell_length_b   7.75980313
_cell_length_c   3.77075200
_cell_angle_alpha   90.00000000
_cell_angle_beta   90.00000000
_cell_angle_gamma   90.16586669
_symmetry_Int_Tables_number   1
_chemical_formula_structural   Ce2SnIrPd
_chemical_formula_sum   'Ce4 Sn2 Ir2 Pd2'
_cell_volume   227.05316306
_cell_formula_units_Z   2
loop_
 _symmetry_equiv_pos_site_id
 _symmetry_equiv_pos_as_xyz
  1  'x, y, z'
loop_
 _atom_site_type_symbol
 _atom_site_label
 _atom_site_symmetry_multiplicity
 _atom_site_fract_x
 _atom_site_fract_y
 _atom_site_fract_z
 _atom_site_occupancy
  Ce  Ce0  1  0.681978  0.181978  0.500000  1
  Ce  Ce1  1  0.318022  0.818022  0.500000  1
  Ce  Ce2  1  0.168036  0.331964  0.500000  1
  Ce  Ce3  1  0.831964  0.668036  0.500000  1
  Sn  Sn4  1  0.000000  0.000000  0.000000  1
  Sn  Sn5  1  0.500000  0.500000  0.000000  1
  Ir  Ir6  1  0.132101  0.632101  0.000000  1
  Ir  Ir7  1  0.867899  0.367899  0.000000  1
  Pd  Pd8  1  0.628339  0.871661  0.000000  1
  Pd  Pd9  1  0.371661  0.128339  0.000000  1
