# generated using pymatgen
data_TbY7Tc(B8Ru)3
_symmetry_space_group_name_H-M   'P 1'
_cell_length_a   3.67669500
_cell_length_b   9.16543392
_cell_length_c   11.55329201
_cell_angle_alpha   89.90977139
_cell_angle_beta   90.00000000
_cell_angle_gamma   90.00000000
_symmetry_Int_Tables_number   1
_chemical_formula_structural   TbY7Tc(B8Ru)3
_chemical_formula_sum   'Tb1 Y7 Tc1 B24 Ru3'
_cell_volume   389.32818641
_cell_formula_units_Z   1
loop_
 _symmetry_equiv_pos_site_id
 _symmetry_equiv_pos_as_xyz
  1  'x, y, z'
loop_
 _atom_site_type_symbol
 _atom_site_label
 _atom_site_symmetry_multiplicity
 _atom_site_fract_x
 _atom_site_fract_y
 _atom_site_fract_z
 _atom_site_occupancy
  Tb  Tb0  1  0.000000  0.324663  0.413121  1
  Y  Y1  1  0.000000  0.676514  0.583679  1
  Y  Y2  1  0.000000  0.821053  0.088104  1
  Y  Y3  1  0.000000  0.176638  0.914821  1
  Y  Y4  1  0.000000  0.943289  0.372553  1
  Y  Y5  1  0.000000  0.057128  0.628099  1
  Y  Y6  1  0.000000  0.444147  0.127889  1
  Y  Y7  1  0.000000  0.556804  0.871608  1
  Tc  Tc8  1  0.000000  0.637741  0.321188  1
  B  B9  1  0.500000  0.552935  0.432904  1
  B  B10  1  0.500000  0.446375  0.567671  1
  B  B11  1  0.500000  0.053618  0.067366  1
  B  B12  1  0.500000  0.946199  0.932908  1
  B  B13  1  0.500000  0.747624  0.419526  1
  B  B14  1  0.500000  0.252686  0.580608  1
  B  B15  1  0.500000  0.247413  0.080323  1
  B  B16  1  0.500000  0.752413  0.919580  1
  B  B17  1  0.500000  0.791218  0.266385  1
  B  B18  1  0.500000  0.209466  0.733617  1
  B  B19  1  0.500000  0.290529  0.232856  1
  B  B20  1  0.500000  0.709835  0.766363  1
  B  B21  1  0.500000  0.631837  0.185881  1
  B  B22  1  0.500000  0.367883  0.814439  1
  B  B23  1  0.500000  0.131904  0.313879  1
  B  B24  1  0.500000  0.868491  0.685692  1
  B  B25  1  0.500000  0.983502  0.212648  1
  B  B26  1  0.500000  0.016456  0.787796  1
  B  B27  1  0.500000  0.482802  0.287295  1
  B  B28  1  0.500000  0.516219  0.712604  1
  B  B29  1  0.500000  0.608906  0.029574  1
  B  B30  1  0.500000  0.390618  0.969381  1
  B  B31  1  0.500000  0.109364  0.470058  1
  B  B32  1  0.500000  0.891853  0.530638  1
  Ru  Ru33  1  0.000000  0.361892  0.679346  1
  Ru  Ru34  1  0.000000  0.137625  0.178323  1
  Ru  Ru35  1  0.000000  0.862364  0.821275  1
