# generated using pymatgen
data_Lu4MgZn2Te
_symmetry_space_group_name_H-M   'P 1'
_cell_length_a   8.36409189
_cell_length_b   8.36409139
_cell_length_c   8.36409300
_cell_angle_alpha   125.53838178
_cell_angle_beta   125.53837935
_cell_angle_gamma   80.64817728
_symmetry_Int_Tables_number   1
_chemical_formula_structural   Lu4MgZn2Te
_chemical_formula_sum   'Lu8 Mg2 Zn4 Te2'
_cell_volume   373.61467548
_cell_formula_units_Z   2
loop_
 _symmetry_equiv_pos_site_id
 _symmetry_equiv_pos_as_xyz
  1  'x, y, z'
loop_
 _atom_site_type_symbol
 _atom_site_label
 _atom_site_symmetry_multiplicity
 _atom_site_fract_x
 _atom_site_fract_y
 _atom_site_fract_z
 _atom_site_occupancy
  Lu  Lu0  1  0.511278  0.699989  0.500000  1
  Lu  Lu1  1  0.011278  0.511278  0.811289  1
  Lu  Lu2  1  0.699989  0.199989  0.188711  1
  Lu  Lu3  1  0.988722  0.488722  0.188711  1
  Lu  Lu4  1  0.199989  0.011278  0.500000  1
  Lu  Lu5  1  0.488722  0.300011  0.500000  1
  Lu  Lu6  1  0.800011  0.988722  0.500000  1
  Lu  Lu7  1  0.300011  0.800011  0.811289  1
  Mg  Mg8  1  0.000000  0.000000  0.000000  1
  Mg  Mg9  1  0.500000  0.500000  0.000000  1
  Zn  Zn10  1  0.363916  0.863916  0.227832  1
  Zn  Zn11  1  0.863916  0.636084  0.500000  1
  Zn  Zn12  1  0.636084  0.136084  0.772168  1
  Zn  Zn13  1  0.136084  0.363916  0.500000  1
  Te  Te14  1  0.750000  0.750000  0.000000  1
  Te  Te15  1  0.250000  0.250000  0.000000  1
