# generated using pymatgen
data_Sc8Nb12Si15B
_symmetry_space_group_name_H-M   'P 1'
_cell_length_a   6.67625311
_cell_length_b   6.86357522
_cell_length_c   13.13428000
_cell_angle_alpha   90.00000000
_cell_angle_beta   90.00000000
_cell_angle_gamma   89.60774301
_symmetry_Int_Tables_number   1
_chemical_formula_structural   Sc8Nb12Si15B
_chemical_formula_sum   'Sc8 Nb12 Si15 B1'
_cell_volume   601.83755344
_cell_formula_units_Z   1
loop_
 _symmetry_equiv_pos_site_id
 _symmetry_equiv_pos_as_xyz
  1  'x, y, z'
loop_
 _atom_site_type_symbol
 _atom_site_label
 _atom_site_symmetry_multiplicity
 _atom_site_fract_x
 _atom_site_fract_y
 _atom_site_fract_z
 _atom_site_occupancy
  Sc  Sc0  1  0.501445  0.669031  0.597190  1
  Sc  Sc1  1  0.003095  0.823752  0.902439  1
  Sc  Sc2  1  0.499399  0.326387  0.095262  1
  Sc  Sc3  1  0.999149  0.174877  0.405400  1
  Sc  Sc4  1  0.499399  0.326387  0.404738  1
  Sc  Sc5  1  0.999149  0.174877  0.094600  1
  Sc  Sc6  1  0.501445  0.669031  0.902810  1
  Sc  Sc7  1  0.003095  0.823752  0.597561  1
  Nb  Nb8  1  0.650691  0.186992  0.629323  1
  Nb  Nb9  1  0.170631  0.326394  0.872280  1
  Nb  Nb10  1  0.338772  0.825044  0.124153  1
  Nb  Nb11  1  0.837940  0.675775  0.375825  1
  Nb  Nb12  1  0.338772  0.825044  0.375847  1
  Nb  Nb13  1  0.837940  0.675775  0.124175  1
  Nb  Nb14  1  0.650691  0.186992  0.870677  1
  Nb  Nb15  1  0.170631  0.326394  0.627720  1
  Nb  Nb16  1  0.828286  0.493882  0.750000  1
  Nb  Nb17  1  0.336563  0.007728  0.750000  1
  Nb  Nb18  1  0.163325  0.505915  0.250000  1
  Nb  Nb19  1  0.663213  0.994714  0.250000  1
  Si  Si20  1  0.668861  0.969161  0.464082  1
  Si  Si21  1  0.169717  0.532843  0.037567  1
  Si  Si22  1  0.330934  0.031656  0.960740  1
  Si  Si23  1  0.833140  0.467203  0.540004  1
  Si  Si24  1  0.330934  0.031656  0.539260  1
  Si  Si25  1  0.833140  0.467203  0.959996  1
  Si  Si26  1  0.668861  0.969161  0.035918  1
  Si  Si27  1  0.169717  0.532843  0.462433  1
  Si  Si28  1  0.956826  0.115935  0.750000  1
  Si  Si29  1  0.542008  0.614325  0.250000  1
  Si  Si30  1  0.041594  0.886549  0.250000  1
  Si  Si31  1  0.704615  0.864984  0.750000  1
  Si  Si32  1  0.218895  0.624932  0.750000  1
  Si  Si33  1  0.294497  0.137432  0.250000  1
  Si  Si34  1  0.795917  0.362065  0.250000  1
  B  B35  1  0.446713  0.373309  0.750000  1
