# generated using pymatgen
data_Tb3HoGa18Ir5Pd
_symmetry_space_group_name_H-M   'P 1'
_cell_length_a   7.61075849
_cell_length_b   7.61093159
_cell_length_c   9.50437980
_cell_angle_alpha   89.98275765
_cell_angle_beta   89.96636080
_cell_angle_gamma   119.88496346
_symmetry_Int_Tables_number   1
_chemical_formula_structural   Tb3HoGa18Ir5Pd
_chemical_formula_sum   'Tb3 Ho1 Ga18 Ir5 Pd1'
_cell_volume   477.33387695
_cell_formula_units_Z   1
loop_
 _symmetry_equiv_pos_site_id
 _symmetry_equiv_pos_as_xyz
  1  'x, y, z'
loop_
 _atom_site_type_symbol
 _atom_site_label
 _atom_site_symmetry_multiplicity
 _atom_site_fract_x
 _atom_site_fract_y
 _atom_site_fract_z
 _atom_site_occupancy
  Tb  Tb0  1  0.996127  0.668857  0.251395  1
  Tb  Tb1  1  0.002739  0.330387  0.748325  1
  Tb  Tb2  1  0.669645  0.997391  0.251698  1
  Ho  Ho3  1  0.330865  0.003776  0.748415  1
  Ga  Ga4  1  0.128985  0.127660  0.250372  1
  Ga  Ga5  1  0.872499  0.871218  0.749685  1
  Ga  Ga6  1  0.002073  0.334130  0.081392  1
  Ga  Ga7  1  0.004359  0.668778  0.918175  1
  Ga  Ga8  1  0.001473  0.666082  0.580094  1
  Ga  Ga9  1  0.334135  0.998775  0.420904  1
  Ga  Ga10  1  0.998966  0.334362  0.420031  1
  Ga  Ga11  1  0.665130  0.001061  0.580556  1
  Ga  Ga12  1  0.665176  0.998086  0.918088  1
  Ga  Ga13  1  0.332091  0.996510  0.080723  1
  Ga  Ga14  1  0.332172  0.331810  0.564267  1
  Ga  Ga15  1  0.667664  0.667823  0.436588  1
  Ga  Ga16  1  0.667507  0.670361  0.067410  1
  Ga  Ga17  1  0.329728  0.332116  0.931748  1
  Ga  Ga18  1  0.340245  0.547393  0.250655  1
  Ga  Ga19  1  0.659979  0.454188  0.748199  1
  Ga  Ga20  1  0.545173  0.339551  0.251886  1
  Ga  Ga21  1  0.452561  0.659948  0.749267  1
  Ir  Ir22  1  0.329313  0.670656  0.999808  1
  Ir  Ir23  1  0.328232  0.671674  0.500219  1
  Ir  Ir24  1  0.671503  0.328379  0.500225  1
  Ir  Ir25  1  0.000635  0.999623  0.999727  1
  Ir  Ir26  1  0.999777  0.000404  0.500301  1
  Pd  Pd27  1  0.671248  0.329001  0.999849  1
