# generated using pymatgen
data_Pr5Nd5Bi4(PbBr)2
_symmetry_space_group_name_H-M   'P 1'
_cell_length_a   9.73395300
_cell_length_b   9.66921045
_cell_length_c   6.77430900
_cell_angle_alpha   90.00000000
_cell_angle_beta   90.00000000
_cell_angle_gamma   120.22173825
_symmetry_Int_Tables_number   1
_chemical_formula_structural   Pr5Nd5Bi4(PbBr)2
_chemical_formula_sum   'Pr5 Nd5 Bi4 Pb2 Br2'
_cell_volume   550.93602270
_cell_formula_units_Z   1
loop_
 _symmetry_equiv_pos_site_id
 _symmetry_equiv_pos_as_xyz
  1  'x, y, z'
loop_
 _atom_site_type_symbol
 _atom_site_label
 _atom_site_symmetry_multiplicity
 _atom_site_fract_x
 _atom_site_fract_y
 _atom_site_fract_z
 _atom_site_occupancy
  Pr  Pr0  1  0.727809  0.000000  0.250000  1
  Pr  Pr1  1  0.997732  0.269348  0.750000  1
  Pr  Pr2  1  0.002233  0.730912  0.250000  1
  Pr  Pr3  1  0.728384  0.730652  0.750000  1
  Pr  Pr4  1  0.271322  0.269088  0.250000  1
  Nd  Nd5  1  0.272516  0.000000  0.750000  1
  Nd  Nd6  1  0.333738  0.667761  0.500101  1
  Nd  Nd7  1  0.665978  0.332239  0.500101  1
  Nd  Nd8  1  0.665978  0.332239  0.999899  1
  Nd  Nd9  1  0.333738  0.667761  0.999899  1
  Bi  Bi10  1  0.000636  0.616581  0.750000  1
  Bi  Bi11  1  0.000031  0.384372  0.250000  1
  Bi  Bi12  1  0.384054  0.383419  0.750000  1
  Bi  Bi13  1  0.615659  0.615628  0.250000  1
  Pb  Pb14  1  0.613395  0.000000  0.750000  1
  Pb  Pb15  1  0.385575  0.000000  0.250000  1
  Br  Br16  1  0.000611  0.000000  0.500473  1
  Br  Br17  1  0.000611  0.000000  0.999527  1
