# generated using pymatgen
data_TaNbCo9W
_symmetry_space_group_name_H-M   'P 1'
_cell_length_a   6.89280594
_cell_length_b   6.89280614
_cell_length_c   6.89280663
_cell_angle_alpha   43.81009093
_cell_angle_beta   43.81008700
_cell_angle_gamma   43.81009024
_symmetry_Int_Tables_number   1
_chemical_formula_structural   TaNbCo9W
_chemical_formula_sum   'Ta1 Nb1 Co9 W1'
_cell_volume   142.48986003
_cell_formula_units_Z   1
loop_
 _symmetry_equiv_pos_site_id
 _symmetry_equiv_pos_as_xyz
  1  'x, y, z'
loop_
 _atom_site_type_symbol
 _atom_site_label
 _atom_site_symmetry_multiplicity
 _atom_site_fract_x
 _atom_site_fract_y
 _atom_site_fract_z
 _atom_site_occupancy
  Ta  Ta0  1  0.000377  0.000377  0.000377  1
  Nb  Nb1  1  0.780783  0.780783  0.780783  1
  Co  Co2  1  0.285753  0.762475  0.285753  1
  Co  Co3  1  0.762475  0.285753  0.285753  1
  Co  Co4  1  0.285753  0.285753  0.762475  1
  Co  Co5  1  0.713867  0.241808  0.713867  1
  Co  Co6  1  0.241808  0.713867  0.713867  1
  Co  Co7  1  0.713867  0.713867  0.241808  1
  Co  Co8  1  0.002935  0.496816  0.496816  1
  Co  Co9  1  0.496816  0.496816  0.002935  1
  Co  Co10  1  0.496816  0.002935  0.496816  1
  W  W11  1  0.218752  0.218752  0.218752  1
