# generated using pymatgen
data_Yb2Pr2Cu2Sn5
_symmetry_space_group_name_H-M   'P 1'
_cell_length_a   4.52147400
_cell_length_b   8.74659100
_cell_length_c   14.49678300
_cell_angle_alpha   90.00000000
_cell_angle_beta   90.00000000
_cell_angle_gamma   90.00000000
_symmetry_Int_Tables_number   1
_chemical_formula_structural   Yb2Pr2Cu2Sn5
_chemical_formula_sum   'Yb4 Pr4 Cu4 Sn10'
_cell_volume   573.31129077
_cell_formula_units_Z   2
loop_
 _symmetry_equiv_pos_site_id
 _symmetry_equiv_pos_as_xyz
  1  'x, y, z'
loop_
 _atom_site_type_symbol
 _atom_site_label
 _atom_site_symmetry_multiplicity
 _atom_site_fract_x
 _atom_site_fract_y
 _atom_site_fract_z
 _atom_site_occupancy
  Yb  Yb0  1  0.500000  0.792254  0.744912  1
  Yb  Yb1  1  0.000000  0.207746  0.755088  1
  Yb  Yb2  1  0.000000  0.207746  0.244912  1
  Yb  Yb3  1  0.500000  0.792254  0.255088  1
  Pr  Pr4  1  0.500000  0.693267  0.000000  1
  Pr  Pr5  1  0.000000  0.306733  0.500000  1
  Pr  Pr6  1  0.500000  0.146718  0.000000  1
  Pr  Pr7  1  0.000000  0.853282  0.500000  1
  Cu  Cu8  1  0.500000  0.380330  0.648820  1
  Cu  Cu9  1  0.000000  0.619670  0.851180  1
  Cu  Cu10  1  0.000000  0.619670  0.148820  1
  Cu  Cu11  1  0.500000  0.380330  0.351180  1
  Sn  Sn12  1  0.500000  0.081879  0.397137  1
  Sn  Sn13  1  0.000000  0.559024  0.666438  1
  Sn  Sn14  1  0.000000  0.416033  0.000000  1
  Sn  Sn15  1  0.500000  0.440976  0.166438  1
  Sn  Sn16  1  0.500000  0.583967  0.500000  1
  Sn  Sn17  1  0.500000  0.440976  0.833562  1
  Sn  Sn18  1  0.000000  0.918121  0.897137  1
  Sn  Sn19  1  0.000000  0.559024  0.333562  1
  Sn  Sn20  1  0.500000  0.081879  0.602863  1
  Sn  Sn21  1  0.000000  0.918121  0.102863  1
