# generated using pymatgen
data_Mn3CuCl7O
_symmetry_space_group_name_H-M   'P 1'
_cell_length_a   7.50010061
_cell_length_b   7.61372168
_cell_length_c   7.21945777
_cell_angle_alpha   58.96642047
_cell_angle_beta   58.44611285
_cell_angle_gamma   54.58482225
_symmetry_Int_Tables_number   1
_chemical_formula_structural   Mn3CuCl7O
_chemical_formula_sum   'Mn3 Cu1 Cl7 O1'
_cell_volume   272.59997025
_cell_formula_units_Z   1
loop_
 _symmetry_equiv_pos_site_id
 _symmetry_equiv_pos_as_xyz
  1  'x, y, z'
loop_
 _atom_site_type_symbol
 _atom_site_label
 _atom_site_symmetry_multiplicity
 _atom_site_fract_x
 _atom_site_fract_y
 _atom_site_fract_z
 _atom_site_occupancy
  Mn  Mn0  1  0.519935  0.984435  0.525535  1
  Mn  Mn1  1  0.527783  0.521095  0.978211  1
  Mn  Mn2  1  0.974657  0.511307  0.512839  1
  Cu  Cu3  1  0.494980  0.501821  0.505749  1
  Cl  Cl4  1  0.261481  0.284611  0.261324  1
  Cl  Cl5  1  0.731655  0.254177  0.286065  1
  Cl  Cl6  1  0.210611  0.255686  0.759811  1
  Cl  Cl7  1  0.262275  0.733336  0.273490  1
  Cl  Cl8  1  0.736220  0.261748  0.729781  1
  Cl  Cl9  1  0.778673  0.757388  0.239244  1
  Cl  Cl10  1  0.268109  0.748009  0.721739  1
  O  O11  1  0.733619  0.686388  0.706211  1
