# generated using pymatgen
data_Tb20Si12O
_symmetry_space_group_name_H-M   'P 1'
_cell_length_a   14.72846000
_cell_length_b   6.37854346
_cell_length_c   8.44814112
_cell_angle_alpha   89.91624043
_cell_angle_beta   90.00000000
_cell_angle_gamma   90.00000000
_symmetry_Int_Tables_number   1
_chemical_formula_structural   Tb20Si12O
_chemical_formula_sum   'Tb20 Si12 O1'
_cell_volume   793.66925009
_cell_formula_units_Z   1
loop_
 _symmetry_equiv_pos_site_id
 _symmetry_equiv_pos_as_xyz
  1  'x, y, z'
loop_
 _atom_site_type_symbol
 _atom_site_label
 _atom_site_symmetry_multiplicity
 _atom_site_fract_x
 _atom_site_fract_y
 _atom_site_fract_z
 _atom_site_occupancy
  Tb  Tb0  1  0.665123  0.500000  0.500000  1
  Tb  Tb1  1  0.169660  0.500000  0.000000  1
  Tb  Tb2  1  0.830340  0.500000  0.000000  1
  Tb  Tb3  1  0.334877  0.500000  0.500000  1
  Tb  Tb4  1  0.837678  0.000000  0.000000  1
  Tb  Tb5  1  0.329771  0.000000  0.500000  1
  Tb  Tb6  1  0.670229  0.000000  0.500000  1
  Tb  Tb7  1  0.162322  0.000000  0.000000  1
  Tb  Tb8  1  0.500000  0.247744  0.754807  1
  Tb  Tb9  1  0.000000  0.267937  0.264073  1
  Tb  Tb10  1  0.620866  0.249296  0.122540  1
  Tb  Tb11  1  0.117811  0.259719  0.620325  1
  Tb  Tb12  1  0.882189  0.259719  0.620325  1
  Tb  Tb13  1  0.379134  0.249296  0.122540  1
  Tb  Tb14  1  0.000000  0.732063  0.735927  1
  Tb  Tb15  1  0.500000  0.752256  0.245193  1
  Tb  Tb16  1  0.882189  0.740281  0.379675  1
  Tb  Tb17  1  0.379134  0.750704  0.877460  1
  Tb  Tb18  1  0.620866  0.750704  0.877460  1
  Tb  Tb19  1  0.117811  0.740281  0.379675  1
  Si  Si20  1  0.000000  0.260687  0.899627  1
  Si  Si21  1  0.500000  0.244667  0.395604  1
  Si  Si22  1  0.801671  0.252702  0.301841  1
  Si  Si23  1  0.301534  0.247108  0.801800  1
  Si  Si24  1  0.698466  0.247108  0.801800  1
  Si  Si25  1  0.198329  0.252702  0.301841  1
  Si  Si26  1  0.500000  0.755333  0.604396  1
  Si  Si27  1  0.000000  0.739313  0.100373  1
  Si  Si28  1  0.698466  0.752892  0.198200  1
  Si  Si29  1  0.198329  0.747298  0.698159  1
  Si  Si30  1  0.801671  0.747298  0.698159  1
  Si  Si31  1  0.301534  0.752892  0.198200  1
  O  O32  1  0.000000  0.500000  0.500000  1
