# generated using pymatgen
data_Ca4Y4AgHg7
_symmetry_space_group_name_H-M   'P 1'
_cell_length_a   7.54356259
_cell_length_b   7.51810513
_cell_length_c   7.42082900
_cell_angle_alpha   90.00157904
_cell_angle_beta   90.00156138
_cell_angle_gamma   90.16552060
_symmetry_Int_Tables_number   1
_chemical_formula_structural   Ca4Y4AgHg7
_chemical_formula_sum   'Ca4 Y4 Ag1 Hg7'
_cell_volume   420.85791962
_cell_formula_units_Z   1
loop_
 _symmetry_equiv_pos_site_id
 _symmetry_equiv_pos_as_xyz
  1  'x, y, z'
loop_
 _atom_site_type_symbol
 _atom_site_label
 _atom_site_symmetry_multiplicity
 _atom_site_fract_x
 _atom_site_fract_y
 _atom_site_fract_z
 _atom_site_occupancy
  Ca  Ca0  1  0.751357  0.251402  0.001674  1
  Ca  Ca1  1  0.247661  0.748625  0.498340  1
  Ca  Ca2  1  0.752311  0.251360  0.498572  1
  Ca  Ca3  1  0.248631  0.748595  0.001462  1
  Y  Y4  1  0.249357  0.250539  0.001383  1
  Y  Y5  1  0.750646  0.749471  0.001401  1
  Y  Y6  1  0.751975  0.749488  0.498601  1
  Y  Y7  1  0.248029  0.250521  0.498635  1
  Ag  Ag8  1  0.000249  0.500114  0.248558  1
  Hg  Hg9  1  0.000167  0.999882  0.248710  1
  Hg  Hg10  1  0.500160  0.000097  0.251200  1
  Hg  Hg11  1  0.500154  0.499898  0.251285  1
  Hg  Hg12  1  0.499816  0.500102  0.748706  1
  Hg  Hg13  1  0.499826  0.999905  0.748748  1
  Hg  Hg14  1  0.999828  0.000103  0.751342  1
  Hg  Hg15  1  0.999834  0.499903  0.751386  1
