# generated using pymatgen
data_CaDyZr2(NiAs)4
_symmetry_space_group_name_H-M   'P 1'
_cell_length_a   4.01775900
_cell_length_b   4.01775980
_cell_length_c   15.18499600
_cell_angle_alpha   90.00000000
_cell_angle_beta   90.00000000
_cell_angle_gamma   120.00000161
_symmetry_Int_Tables_number   1
_chemical_formula_structural   CaDyZr2(NiAs)4
_chemical_formula_sum   'Ca1 Dy1 Zr2 Ni4 As4'
_cell_volume   212.28199412
_cell_formula_units_Z   1
loop_
 _symmetry_equiv_pos_site_id
 _symmetry_equiv_pos_as_xyz
  1  'x, y, z'
loop_
 _atom_site_type_symbol
 _atom_site_label
 _atom_site_symmetry_multiplicity
 _atom_site_fract_x
 _atom_site_fract_y
 _atom_site_fract_z
 _atom_site_occupancy
  Ca  Ca0  1  0.000000  0.000000  0.000000  1
  Dy  Dy1  1  0.000000  0.000000  0.500000  1
  Zr  Zr2  1  0.000000  0.000000  0.250957  1
  Zr  Zr3  1  0.000000  0.000000  0.749043  1
  Ni  Ni4  1  0.333333  0.666667  0.161844  1
  Ni  Ni5  1  0.666667  0.333333  0.838156  1
  Ni  Ni6  1  0.666667  0.333333  0.650424  1
  Ni  Ni7  1  0.333333  0.666667  0.349576  1
  As  As8  1  0.333333  0.666667  0.620523  1
  As  As9  1  0.666667  0.333333  0.379477  1
  As  As10  1  0.666667  0.333333  0.128844  1
  As  As11  1  0.333333  0.666667  0.871156  1
