# generated using pymatgen
data_Tb6CeSmSb20
_symmetry_space_group_name_H-M   'P 1'
_cell_length_a   4.24721200
_cell_length_b   13.28513179
_cell_length_c   14.81916960
_cell_angle_alpha   78.36417007
_cell_angle_beta   90.00000000
_cell_angle_gamma   90.00000000
_symmetry_Int_Tables_number   1
_chemical_formula_structural   Tb6CeSmSb20
_chemical_formula_sum   'Tb6 Ce1 Sm1 Sb20'
_cell_volume   818.98442205
_cell_formula_units_Z   1
loop_
 _symmetry_equiv_pos_site_id
 _symmetry_equiv_pos_as_xyz
  1  'x, y, z'
loop_
 _atom_site_type_symbol
 _atom_site_label
 _atom_site_symmetry_multiplicity
 _atom_site_fract_x
 _atom_site_fract_y
 _atom_site_fract_z
 _atom_site_occupancy
  Tb  Tb0  1  0.750000  0.328684  0.424421  1
  Tb  Tb1  1  0.250000  0.394914  0.771180  1
  Tb  Tb2  1  0.750000  0.601557  0.230317  1
  Tb  Tb3  1  0.250000  0.950830  0.359341  1
  Tb  Tb4  1  0.750000  0.052128  0.638282  1
  Tb  Tb5  1  0.750000  0.334780  0.144335  1
  Ce  Ce6  1  0.250000  0.669830  0.574197  1
  Sm  Sm7  1  0.250000  0.666146  0.857355  1
  Sb  Sb8  1  0.250000  0.426548  0.552674  1
  Sb  Sb9  1  0.750000  0.571718  0.447337  1
  Sb  Sb10  1  0.250000  0.717051  0.066434  1
  Sb  Sb11  1  0.750000  0.281773  0.936510  1
  Sb  Sb12  1  0.250000  0.420049  0.976536  1
  Sb  Sb13  1  0.750000  0.579168  0.025182  1
  Sb  Sb14  1  0.250000  0.865746  0.677624  1
  Sb  Sb15  1  0.750000  0.136857  0.322357  1
  Sb  Sb16  1  0.250000  0.149315  0.174820  1
  Sb  Sb17  1  0.750000  0.855037  0.824144  1
  Sb  Sb18  1  0.250000  0.709792  0.348980  1
  Sb  Sb19  1  0.750000  0.289410  0.651087  1
  Sb  Sb20  1  0.250000  0.146261  0.778919  1
  Sb  Sb21  1  0.750000  0.853796  0.220870  1
  Sb  Sb22  1  0.250000  0.420377  0.266519  1
  Sb  Sb23  1  0.750000  0.577824  0.731688  1
  Sb  Sb24  1  0.250000  0.141875  0.481309  1
  Sb  Sb25  1  0.750000  0.855354  0.516457  1
  Sb  Sb26  1  0.250000  0.967257  0.097493  1
  Sb  Sb27  1  0.750000  0.035920  0.903632  1
