# generated using pymatgen
data_Ho6Al24Ru2PtRh5
_symmetry_space_group_name_H-M   'P 1'
_cell_length_a   8.80475177
_cell_length_b   8.80475117
_cell_length_c   9.47385032
_cell_angle_alpha   89.97428661
_cell_angle_beta   90.02571049
_cell_angle_gamma   119.91274809
_symmetry_Int_Tables_number   1
_chemical_formula_structural   Ho6Al24Ru2PtRh5
_chemical_formula_sum   'Ho6 Al24 Ru2 Pt1 Rh5'
_cell_volume   636.60853993
_cell_formula_units_Z   1
loop_
 _symmetry_equiv_pos_site_id
 _symmetry_equiv_pos_as_xyz
  1  'x, y, z'
loop_
 _atom_site_type_symbol
 _atom_site_label
 _atom_site_symmetry_multiplicity
 _atom_site_fract_x
 _atom_site_fract_y
 _atom_site_fract_z
 _atom_site_occupancy
  Ho  Ho0  1  0.190480  0.382222  0.249866  1
  Ho  Ho1  1  0.809520  0.617778  0.750134  1
  Ho  Ho2  1  0.617778  0.809520  0.249866  1
  Ho  Ho3  1  0.382222  0.190480  0.750134  1
  Ho  Ho4  1  0.191432  0.808568  0.249953  1
  Ho  Ho5  1  0.808568  0.191432  0.750047  1
  Al  Al6  1  0.331548  0.668452  0.031854  1
  Al  Al7  1  0.668452  0.331548  0.968146  1
  Al  Al8  1  0.666831  0.333169  0.531050  1
  Al  Al9  1  0.333169  0.666831  0.468950  1
  Al  Al10  1  0.163335  0.326370  0.576016  1
  Al  Al11  1  0.836665  0.673630  0.423984  1
  Al  Al12  1  0.673630  0.836665  0.576016  1
  Al  Al13  1  0.839720  0.674515  0.076476  1
  Al  Al14  1  0.326370  0.163335  0.423984  1
  Al  Al15  1  0.160280  0.325485  0.923524  1
  Al  Al16  1  0.163399  0.836601  0.576054  1
  Al  Al17  1  0.325485  0.160280  0.076476  1
  Al  Al18  1  0.836601  0.163399  0.423946  1
  Al  Al19  1  0.674515  0.839720  0.923524  1
  Al  Al20  1  0.836683  0.163317  0.076345  1
  Al  Al21  1  0.163317  0.836683  0.923655  1
  Al  Al22  1  0.561848  0.123800  0.249650  1
  Al  Al23  1  0.438152  0.876200  0.750350  1
  Al  Al24  1  0.876200  0.438152  0.249650  1
  Al  Al25  1  0.123800  0.561848  0.750350  1
  Al  Al26  1  0.562711  0.437289  0.252560  1
  Al  Al27  1  0.437289  0.562711  0.747440  1
  Al  Al28  1  0.999741  0.000259  0.250075  1
  Al  Al29  1  0.000259  0.999741  0.749925  1
  Ru  Ru30  1  0.000000  0.000000  0.000000  1
  Ru  Ru31  1  0.000000  0.000000  0.500000  1
  Pt  Pt32  1  0.500000  0.500000  0.000000  1
  Rh  Rh33  1  0.500000  0.000000  0.000000  1
  Rh  Rh34  1  0.000000  0.500000  0.000000  1
  Rh  Rh35  1  0.500000  0.000000  0.500000  1
  Rh  Rh36  1  0.000000  0.500000  0.500000  1
  Rh  Rh37  1  0.500000  0.500000  0.500000  1
