# generated using pymatgen
data_Li2Tm16InCo4Ag
_symmetry_space_group_name_H-M   'P 1'
_cell_length_a   9.36570812
_cell_length_b   9.34534276
_cell_length_c   9.34196269
_cell_angle_alpha   59.78704068
_cell_angle_beta   59.91588716
_cell_angle_gamma   59.92788497
_symmetry_Int_Tables_number   1
_chemical_formula_structural   Li2Tm16InCo4Ag
_chemical_formula_sum   'Li2 Tm16 In1 Co4 Ag1'
_cell_volume   576.55799166
_cell_formula_units_Z   1
loop_
 _symmetry_equiv_pos_site_id
 _symmetry_equiv_pos_as_xyz
  1  'x, y, z'
loop_
 _atom_site_type_symbol
 _atom_site_label
 _atom_site_symmetry_multiplicity
 _atom_site_fract_x
 _atom_site_fract_y
 _atom_site_fract_z
 _atom_site_occupancy
  Li  Li0  1  0.424922  0.432547  0.425203  1
  Li  Li1  1  0.717327  0.432547  0.425203  1
  Tm  Tm2  1  0.062043  0.058915  0.440768  1
  Tm  Tm3  1  0.438275  0.058915  0.440768  1
  Tm  Tm4  1  0.062063  0.435619  0.065120  1
  Tm  Tm5  1  0.042859  0.652177  0.654630  1
  Tm  Tm6  1  0.437198  0.435619  0.065120  1
  Tm  Tm7  1  0.654289  0.034101  0.657324  1
  Tm  Tm8  1  0.188213  0.813434  0.184543  1
  Tm  Tm9  1  0.188923  0.186566  0.813245  1
  Tm  Tm10  1  0.813810  0.813434  0.184543  1
  Tm  Tm11  1  0.436436  0.057203  0.069923  1
  Tm  Tm12  1  0.816464  0.183915  0.183157  1
  Tm  Tm13  1  0.060043  0.439250  0.440664  1
  Tm  Tm14  1  0.811266  0.186566  0.813245  1
  Tm  Tm15  1  0.189478  0.809714  0.811330  1
  Tm  Tm16  1  0.657122  0.657016  0.028741  1
  Tm  Tm17  1  0.650335  0.652177  0.654630  1
  In  In18  1  0.420830  0.417682  0.740658  1
  Co  Co19  1  0.861124  0.854024  0.423730  1
  Co  Co20  1  0.863288  0.858182  0.854333  1
  Co  Co21  1  0.424198  0.858182  0.854333  1
  Co  Co22  1  0.861540  0.423107  0.853813  1
  Ag  Ag23  1  0.417955  0.749111  0.414977  1
