# generated using pymatgen
data_AgP6RhO18
_symmetry_space_group_name_H-M   'P 1'
_cell_length_a   5.13106814
_cell_length_b   7.13042109
_cell_length_c   10.77598293
_cell_angle_alpha   96.57716187
_cell_angle_beta   91.00892592
_cell_angle_gamma   89.50502996
_symmetry_Int_Tables_number   1
_chemical_formula_structural   AgP6RhO18
_chemical_formula_sum   'Ag1 P6 Rh1 O18'
_cell_volume   391.59317190
_cell_formula_units_Z   1
loop_
 _symmetry_equiv_pos_site_id
 _symmetry_equiv_pos_as_xyz
  1  'x, y, z'
loop_
 _atom_site_type_symbol
 _atom_site_label
 _atom_site_symmetry_multiplicity
 _atom_site_fract_x
 _atom_site_fract_y
 _atom_site_fract_z
 _atom_site_occupancy
  Ag  Ag0  1  0.000000  0.000000  0.000000  1
  P  P1  1  0.524972  0.956534  0.187682  1
  P  P2  1  0.239395  0.324407  0.234429  1
  P  P3  1  0.506287  0.333245  0.635928  1
  P  P4  1  0.475028  0.043466  0.812318  1
  P  P5  1  0.760605  0.675593  0.765571  1
  P  P6  1  0.493713  0.666755  0.364072  1
  Rh  Rh7  1  0.000000  0.500000  0.500000  1
  O  O8  1  0.473194  0.174385  0.238425  1
  O  O9  1  0.090520  0.303741  0.114583  1
  O  O10  1  0.348750  0.883726  0.080697  1
  O  O11  1  0.213078  0.347288  0.612643  1
  O  O12  1  0.676882  0.340927  0.522971  1
  O  O13  1  0.186219  0.071575  0.828689  1
  O  O14  1  0.595272  0.481726  0.751005  1
  O  O15  1  0.909480  0.696259  0.885417  1
  O  O16  1  0.554825  0.135889  0.686434  1
  O  O17  1  0.786922  0.652712  0.387357  1
  O  O18  1  0.916262  0.686721  0.645923  1
  O  O19  1  0.813781  0.928425  0.171311  1
  O  O20  1  0.526806  0.825615  0.761575  1
  O  O21  1  0.651250  0.116274  0.919303  1
  O  O22  1  0.445175  0.864111  0.313566  1
  O  O23  1  0.083738  0.313279  0.354077  1
  O  O24  1  0.404728  0.518274  0.248995  1
  O  O25  1  0.323118  0.659073  0.477029  1
