# generated using pymatgen
data_Ta3Be2ReSiRu2
_symmetry_space_group_name_H-M   'P 1'
_cell_length_a   7.41130729
_cell_length_b   7.41120521
_cell_length_c   7.41120576
_cell_angle_alpha   126.08320224
_cell_angle_beta   128.95154841
_cell_angle_gamma   77.43024444
_symmetry_Int_Tables_number   1
_chemical_formula_structural   Ta3Be2ReSiRu2
_chemical_formula_sum   'Ta6 Be4 Re2 Si2 Ru4'
_cell_volume   248.18258832
_cell_formula_units_Z   2
loop_
 _symmetry_equiv_pos_site_id
 _symmetry_equiv_pos_as_xyz
  1  'x, y, z'
loop_
 _atom_site_type_symbol
 _atom_site_label
 _atom_site_symmetry_multiplicity
 _atom_site_fract_x
 _atom_site_fract_y
 _atom_site_fract_z
 _atom_site_occupancy
  Ta  Ta0  1  0.946732  0.903849  0.457287  1
  Ta  Ta1  1  0.053268  0.510555  0.957117  1
  Ta  Ta2  1  0.553413  0.510565  0.457309  1
  Ta  Ta3  1  0.446587  0.903896  0.957152  1
  Ta  Ta4  1  0.738381  0.098620  0.837051  1
  Ta  Ta5  1  0.261619  0.098670  0.360239  1
  Be  Be6  1  0.749634  0.497783  0.247435  1
  Be  Be7  1  0.250366  0.497801  0.748149  1
  Be  Be8  1  0.670064  0.173163  0.503212  1
  Be  Be9  1  0.329936  0.833148  0.503098  1
  Re  Re10  1  0.500000  0.752943  0.252943  1
  Re  Re11  1  0.000000  0.750079  0.750079  1
  Si  Si12  1  0.166708  0.175577  0.008811  1
  Si  Si13  1  0.833292  0.842104  0.008869  1
  Ru  Ru14  1  0.874532  0.252975  0.378468  1
  Ru  Ru15  1  0.125468  0.503937  0.378443  1
  Ru  Ru16  1  0.374914  0.250995  0.876055  1
  Ru  Ru17  1  0.625086  0.501140  0.876080  1
