# generated using pymatgen
data_Ti3CuIrS8
_symmetry_space_group_name_H-M   'P 1'
_cell_length_a   6.90732878
_cell_length_b   6.90732881
_cell_length_c   6.90732897
_cell_angle_alpha   60.43858040
_cell_angle_beta   60.43857773
_cell_angle_gamma   60.43857710
_symmetry_Int_Tables_number   1
_chemical_formula_structural   Ti3CuIrS8
_chemical_formula_sum   'Ti3 Cu1 Ir1 S8'
_cell_volume   235.34260972
_cell_formula_units_Z   1
loop_
 _symmetry_equiv_pos_site_id
 _symmetry_equiv_pos_as_xyz
  1  'x, y, z'
loop_
 _atom_site_type_symbol
 _atom_site_label
 _atom_site_symmetry_multiplicity
 _atom_site_fract_x
 _atom_site_fract_y
 _atom_site_fract_z
 _atom_site_occupancy
  Ti  Ti0  1  0.124366  0.650914  0.124366  1
  Ti  Ti1  1  0.650914  0.124366  0.124366  1
  Ti  Ti2  1  0.124366  0.124366  0.650914  1
  Cu  Cu3  1  0.505605  0.505605  0.505605  1
  Ir  Ir4  1  0.107665  0.107665  0.107665  1
  S  S5  1  0.354479  0.906714  0.354479  1
  S  S6  1  0.354479  0.354479  0.906714  1
  S  S7  1  0.906714  0.354479  0.354479  1
  S  S8  1  0.880354  0.880354  0.880354  1
  S  S9  1  0.373706  0.373706  0.373706  1
  S  S10  1  0.863685  0.389980  0.863685  1
  S  S11  1  0.389980  0.863685  0.863685  1
  S  S12  1  0.863685  0.863685  0.389980  1
