# generated using pymatgen
data_TbHoRuC2
_symmetry_space_group_name_H-M   'P 1'
_cell_length_a   5.12234000
_cell_length_b   6.45550800
_cell_length_c   9.78642600
_cell_angle_alpha   90.00000000
_cell_angle_beta   90.00000000
_cell_angle_gamma   90.00000000
_symmetry_Int_Tables_number   1
_chemical_formula_structural   TbHoRuC2
_chemical_formula_sum   'Tb4 Ho4 Ru4 C8'
_cell_volume   323.61075149
_cell_formula_units_Z   4
loop_
 _symmetry_equiv_pos_site_id
 _symmetry_equiv_pos_as_xyz
  1  'x, y, z'
loop_
 _atom_site_type_symbol
 _atom_site_label
 _atom_site_symmetry_multiplicity
 _atom_site_fract_x
 _atom_site_fract_y
 _atom_site_fract_z
 _atom_site_occupancy
  Tb  Tb0  1  0.750000  0.474029  0.783470  1
  Tb  Tb1  1  0.250000  0.025971  0.283470  1
  Tb  Tb2  1  0.750000  0.974029  0.716530  1
  Tb  Tb3  1  0.250000  0.525971  0.216530  1
  Ho  Ho4  1  0.750000  0.821447  0.054364  1
  Ho  Ho5  1  0.250000  0.678553  0.554364  1
  Ho  Ho6  1  0.750000  0.321447  0.445636  1
  Ho  Ho7  1  0.250000  0.178553  0.945636  1
  Ru  Ru8  1  0.750000  0.278670  0.134752  1
  Ru  Ru9  1  0.250000  0.221330  0.634752  1
  Ru  Ru10  1  0.750000  0.778670  0.365248  1
  Ru  Ru11  1  0.250000  0.721330  0.865248  1
  C  C12  1  0.750000  0.173440  0.947155  1
  C  C13  1  0.250000  0.826560  0.052845  1
  C  C14  1  0.750000  0.673440  0.552845  1
  C  C15  1  0.250000  0.326560  0.447155  1
  C  C16  1  0.750000  0.042789  0.257166  1
  C  C17  1  0.250000  0.457211  0.757166  1
  C  C18  1  0.750000  0.542789  0.242834  1
  C  C19  1  0.250000  0.957211  0.742834  1
