# generated using pymatgen
data_Mg3GePIr2
_symmetry_space_group_name_H-M   'P 1'
_cell_length_a   5.20235700
_cell_length_b   7.35545300
_cell_length_c   12.47972000
_cell_angle_alpha   90.00000000
_cell_angle_beta   90.00000000
_cell_angle_gamma   90.00000000
_symmetry_Int_Tables_number   1
_chemical_formula_structural   Mg3GePIr2
_chemical_formula_sum   'Mg12 Ge4 P4 Ir8'
_cell_volume   477.54512679
_cell_formula_units_Z   4
loop_
 _symmetry_equiv_pos_site_id
 _symmetry_equiv_pos_as_xyz
  1  'x, y, z'
loop_
 _atom_site_type_symbol
 _atom_site_label
 _atom_site_symmetry_multiplicity
 _atom_site_fract_x
 _atom_site_fract_y
 _atom_site_fract_z
 _atom_site_occupancy
  Mg  Mg0  1  0.632223  0.247015  0.250000  1
  Mg  Mg1  1  0.367777  0.752985  0.750000  1
  Mg  Mg2  1  0.367777  0.747015  0.250000  1
  Mg  Mg3  1  0.632223  0.252985  0.750000  1
  Mg  Mg4  1  0.142582  0.392041  0.102200  1
  Mg  Mg5  1  0.857418  0.607959  0.897800  1
  Mg  Mg6  1  0.857418  0.607959  0.602200  1
  Mg  Mg7  1  0.857418  0.892041  0.397800  1
  Mg  Mg8  1  0.142582  0.392041  0.397800  1
  Mg  Mg9  1  0.142582  0.107959  0.602200  1
  Mg  Mg10  1  0.142582  0.107959  0.897800  1
  Mg  Mg11  1  0.857418  0.892041  0.102200  1
  Ge  Ge12  1  0.641898  0.250000  0.000000  1
  Ge  Ge13  1  0.358102  0.750000  0.000000  1
  Ge  Ge14  1  0.358102  0.750000  0.500000  1
  Ge  Ge15  1  0.641898  0.250000  0.500000  1
  P  P16  1  0.110151  0.104520  0.250000  1
  P  P17  1  0.889849  0.895480  0.750000  1
  P  P18  1  0.889849  0.604520  0.250000  1
  P  P19  1  0.110151  0.395480  0.750000  1
  Ir  Ir20  1  0.348328  0.037243  0.098869  1
  Ir  Ir21  1  0.651672  0.962757  0.901131  1
  Ir  Ir22  1  0.651672  0.962757  0.598869  1
  Ir  Ir23  1  0.651672  0.537243  0.401131  1
  Ir  Ir24  1  0.348328  0.037243  0.401131  1
  Ir  Ir25  1  0.348328  0.462757  0.598869  1
  Ir  Ir26  1  0.348328  0.462757  0.901131  1
  Ir  Ir27  1  0.651672  0.537243  0.098869  1
