# generated using pymatgen
data_Y3Lu3Fe2(Co4P3)4
_symmetry_space_group_name_H-M   'P 1'
_cell_length_a   3.67686700
_cell_length_b   10.48604689
_cell_length_c   12.13827601
_cell_angle_alpha   90.02556016
_cell_angle_beta   90.00000000
_cell_angle_gamma   90.00000000
_symmetry_Int_Tables_number   1
_chemical_formula_structural   Y3Lu3Fe2(Co4P3)4
_chemical_formula_sum   'Y3 Lu3 Fe2 Co16 P12'
_cell_volume   468.00089274
_cell_formula_units_Z   1
loop_
 _symmetry_equiv_pos_site_id
 _symmetry_equiv_pos_as_xyz
  1  'x, y, z'
loop_
 _atom_site_type_symbol
 _atom_site_label
 _atom_site_symmetry_multiplicity
 _atom_site_fract_x
 _atom_site_fract_y
 _atom_site_fract_z
 _atom_site_occupancy
  Y  Y0  1  0.000000  0.500223  0.522162  1
  Y  Y1  1  0.500000  0.999964  0.477179  1
  Y  Y2  1  0.000000  0.318116  0.795011  1
  Lu  Lu3  1  0.500000  0.818490  0.205621  1
  Lu  Lu4  1  0.500000  0.181362  0.204754  1
  Lu  Lu5  1  0.000000  0.682087  0.794998  1
  Fe  Fe6  1  0.500000  0.500448  0.157635  1
  Fe  Fe7  1  0.000000  0.999564  0.842623  1
  Co  Co8  1  0.500000  0.501960  0.703551  1
  Co  Co9  1  0.000000  0.999597  0.296040  1
  Co  Co10  1  0.000000  0.500920  0.987337  1
  Co  Co11  1  0.500000  0.999038  0.014660  1
  Co  Co12  1  0.500000  0.332741  0.995280  1
  Co  Co13  1  0.500000  0.668033  0.994805  1
  Co  Co14  1  0.000000  0.166242  0.006965  1
  Co  Co15  1  0.000000  0.832650  0.006177  1
  Co  Co16  1  0.500000  0.296751  0.428918  1
  Co  Co17  1  0.500000  0.703553  0.430213  1
  Co  Co18  1  0.000000  0.203154  0.568166  1
  Co  Co19  1  0.000000  0.796929  0.569798  1
  Co  Co20  1  0.500000  0.877679  0.710252  1
  Co  Co21  1  0.500000  0.120593  0.708816  1
  Co  Co22  1  0.000000  0.622117  0.290092  1
  Co  Co23  1  0.000000  0.377981  0.289307  1
  P  P24  1  0.500000  0.501688  0.882907  1
  P  P25  1  0.000000  0.999409  0.118633  1
  P  P26  1  0.500000  0.500030  0.342740  1
  P  P27  1  0.000000  0.000125  0.656913  1
  P  P28  1  0.500000  0.310750  0.615507  1
  P  P29  1  0.500000  0.689806  0.617585  1
  P  P30  1  0.000000  0.189032  0.381343  1
  P  P31  1  0.000000  0.810755  0.382417  1
  P  P32  1  0.500000  0.846318  0.892114  1
  P  P33  1  0.500000  0.151580  0.892976  1
  P  P34  1  0.000000  0.654243  0.108641  1
  P  P35  1  0.000000  0.346071  0.107866  1
