# generated using pymatgen
data_Sc4Fe3CoP4
_symmetry_space_group_name_H-M   'P 1'
_cell_length_a   3.78890500
_cell_length_b   6.23935598
_cell_length_c   6.97492827
_cell_angle_alpha   89.90809978
_cell_angle_beta   90.00000000
_cell_angle_gamma   90.00000000
_symmetry_Int_Tables_number   1
_chemical_formula_structural   Sc4Fe3CoP4
_chemical_formula_sum   'Sc4 Fe3 Co1 P4'
_cell_volume   164.88937355
_cell_formula_units_Z   1
loop_
 _symmetry_equiv_pos_site_id
 _symmetry_equiv_pos_as_xyz
  1  'x, y, z'
loop_
 _atom_site_type_symbol
 _atom_site_label
 _atom_site_symmetry_multiplicity
 _atom_site_fract_x
 _atom_site_fract_y
 _atom_site_fract_z
 _atom_site_occupancy
  Sc  Sc0  1  0.250000  0.012085  0.814906  1
  Sc  Sc1  1  0.250000  0.513292  0.687596  1
  Sc  Sc2  1  0.750000  0.985355  0.185390  1
  Sc  Sc3  1  0.750000  0.488013  0.311322  1
  Fe  Fe4  1  0.250000  0.150710  0.439190  1
  Fe  Fe5  1  0.250000  0.650950  0.063547  1
  Fe  Fe6  1  0.750000  0.849951  0.562722  1
  Co  Co7  1  0.750000  0.349729  0.935574  1
  P  P8  1  0.250000  0.284698  0.118261  1
  P  P9  1  0.250000  0.787843  0.385818  1
  P  P10  1  0.750000  0.715073  0.884419  1
  P  P11  1  0.750000  0.212300  0.611256  1
