# generated using pymatgen
data_Y4Pa(TcB3)2
_symmetry_space_group_name_H-M   'P 1'
_cell_length_a   5.54919386
_cell_length_b   5.54919278
_cell_length_c   8.34345115
_cell_angle_alpha   70.57651881
_cell_angle_beta   70.57651204
_cell_angle_gamma   59.99999414
_symmetry_Int_Tables_number   1
_chemical_formula_structural   Y4Pa(TcB3)2
_chemical_formula_sum   'Y4 Pa1 Tc2 B6'
_cell_volume   205.44511078
_cell_formula_units_Z   1
loop_
 _symmetry_equiv_pos_site_id
 _symmetry_equiv_pos_as_xyz
  1  'x, y, z'
loop_
 _atom_site_type_symbol
 _atom_site_label
 _atom_site_symmetry_multiplicity
 _atom_site_fract_x
 _atom_site_fract_y
 _atom_site_fract_z
 _atom_site_occupancy
  Y  Y0  1  0.749774  0.749774  0.750680  1
  Y  Y1  1  0.250226  0.250226  0.249320  1
  Y  Y2  1  0.584053  0.584053  0.247843  1
  Y  Y3  1  0.415947  0.415947  0.752157  1
  Pa  Pa4  1  0.000000  0.000000  0.000000  1
  Tc  Tc5  1  0.893051  0.893051  0.320845  1
  Tc  Tc6  1  0.106949  0.106949  0.679155  1
  B  B7  1  0.500000  0.170841  0.500000  1
  B  B8  1  0.829159  0.500000  0.500000  1
  B  B9  1  0.170841  0.829159  0.500000  1
  B  B10  1  0.170841  0.500000  0.500000  1
  B  B11  1  0.829159  0.170841  0.500000  1
  B  B12  1  0.500000  0.829159  0.500000  1
