# generated using pymatgen
data_Ta10Si5Ge
_symmetry_space_group_name_H-M   'P 1'
_cell_length_a   7.56228159
_cell_length_b   7.56228135
_cell_length_c   7.56228167
_cell_angle_alpha   128.31704414
_cell_angle_beta   128.31703624
_cell_angle_gamma   76.11199203
_symmetry_Int_Tables_number   1
_chemical_formula_structural   Ta10Si5Ge
_chemical_formula_sum   'Ta10 Si5 Ge1'
_cell_volume   258.79634693
_cell_formula_units_Z   1
loop_
 _symmetry_equiv_pos_site_id
 _symmetry_equiv_pos_as_xyz
  1  'x, y, z'
loop_
 _atom_site_type_symbol
 _atom_site_label
 _atom_site_symmetry_multiplicity
 _atom_site_fract_x
 _atom_site_fract_y
 _atom_site_fract_z
 _atom_site_occupancy
  Ta  Ta0  1  0.011663  0.183170  0.494645  1
  Ta  Ta1  1  0.517018  0.011663  0.828494  1
  Ta  Ta2  1  0.183170  0.688525  0.171506  1
  Ta  Ta3  1  0.488337  0.982982  0.171506  1
  Ta  Ta4  1  0.688525  0.517018  0.505355  1
  Ta  Ta5  1  0.982982  0.811475  0.494645  1
  Ta  Ta6  1  0.316830  0.488337  0.505355  1
  Ta  Ta7  1  0.811475  0.316830  0.828494  1
  Ta  Ta8  1  0.500654  0.500654  0.000000  1
  Ta  Ta9  1  0.999346  0.999346  0.000000  1
  Si  Si10  1  0.130446  0.630446  0.760894  1
  Si  Si11  1  0.630446  0.869554  0.500000  1
  Si  Si12  1  0.369554  0.130446  0.500000  1
  Si  Si13  1  0.869554  0.369554  0.239106  1
  Si  Si14  1  0.750000  0.750000  0.000000  1
  Ge  Ge15  1  0.250000  0.250000  0.000000  1
