# generated using pymatgen
data_Pu2PaSe5
_symmetry_space_group_name_H-M   'P 1'
_cell_length_a   7.77387200
_cell_length_b   8.40906900
_cell_length_c   12.13724300
_cell_angle_alpha   90.00000000
_cell_angle_beta   90.00000000
_cell_angle_gamma   90.00000000
_symmetry_Int_Tables_number   1
_chemical_formula_structural   Pu2PaSe5
_chemical_formula_sum   'Pu8 Pa4 Se20'
_cell_volume   793.42402827
_cell_formula_units_Z   4
loop_
 _symmetry_equiv_pos_site_id
 _symmetry_equiv_pos_as_xyz
  1  'x, y, z'
loop_
 _atom_site_type_symbol
 _atom_site_label
 _atom_site_symmetry_multiplicity
 _atom_site_fract_x
 _atom_site_fract_y
 _atom_site_fract_z
 _atom_site_occupancy
  Pu  Pu0  1  0.526943  0.501557  0.322841  1
  Pu  Pu1  1  0.973057  0.998443  0.822841  1
  Pu  Pu2  1  0.473057  0.001557  0.677159  1
  Pu  Pu3  1  0.026943  0.498443  0.177159  1
  Pu  Pu4  1  0.473057  0.498443  0.677159  1
  Pu  Pu5  1  0.026943  0.001557  0.177159  1
  Pu  Pu6  1  0.526943  0.998443  0.322841  1
  Pu  Pu7  1  0.973057  0.501557  0.822841  1
  Pa  Pa8  1  0.079421  0.750000  0.489112  1
  Pa  Pa9  1  0.420579  0.750000  0.989112  1
  Pa  Pa10  1  0.920579  0.250000  0.510888  1
  Pa  Pa11  1  0.579421  0.250000  0.010888  1
  Se  Se12  1  0.831793  0.951779  0.592142  1
  Se  Se13  1  0.668207  0.548221  0.092142  1
  Se  Se14  1  0.168207  0.451779  0.407858  1
  Se  Se15  1  0.331793  0.048221  0.907858  1
  Se  Se16  1  0.168207  0.048221  0.407858  1
  Se  Se17  1  0.331793  0.451779  0.907858  1
  Se  Se18  1  0.831793  0.548221  0.592142  1
  Se  Se19  1  0.668207  0.951779  0.092142  1
  Se  Se20  1  0.836392  0.750000  0.312424  1
  Se  Se21  1  0.663608  0.750000  0.812424  1
  Se  Se22  1  0.163608  0.250000  0.687576  1
  Se  Se23  1  0.336392  0.250000  0.187576  1
  Se  Se24  1  0.459315  0.750000  0.499512  1
  Se  Se25  1  0.040685  0.750000  0.999512  1
  Se  Se26  1  0.540685  0.250000  0.500488  1
  Se  Se27  1  0.959315  0.250000  0.000488  1
  Se  Se28  1  0.196216  0.750000  0.717074  1
  Se  Se29  1  0.303784  0.750000  0.217074  1
  Se  Se30  1  0.803784  0.250000  0.282926  1
  Se  Se31  1  0.696216  0.250000  0.782926  1
