# generated using pymatgen
data_Sr6TcBiO12
_symmetry_space_group_name_H-M   'P 1'
_cell_length_a   7.00265370
_cell_length_b   7.00265427
_cell_length_c   7.00265393
_cell_angle_alpha   92.04354699
_cell_angle_beta   92.04354487
_cell_angle_gamma   92.04353668
_symmetry_Int_Tables_number   1
_chemical_formula_structural   Sr6TcBiO12
_chemical_formula_sum   'Sr6 Tc1 Bi1 O12'
_cell_volume   342.71909129
_cell_formula_units_Z   1
loop_
 _symmetry_equiv_pos_site_id
 _symmetry_equiv_pos_as_xyz
  1  'x, y, z'
loop_
 _atom_site_type_symbol
 _atom_site_label
 _atom_site_symmetry_multiplicity
 _atom_site_fract_x
 _atom_site_fract_y
 _atom_site_fract_z
 _atom_site_occupancy
  Sr  Sr0  1  0.065565  0.254542  0.564978  1
  Sr  Sr1  1  0.435022  0.934435  0.745458  1
  Sr  Sr2  1  0.745458  0.435022  0.934435  1
  Sr  Sr3  1  0.254542  0.564978  0.065565  1
  Sr  Sr4  1  0.564978  0.065565  0.254542  1
  Sr  Sr5  1  0.934435  0.745458  0.435022  1
  Tc  Tc6  1  0.500000  0.500000  0.500000  1
  Bi  Bi7  1  0.000000  0.000000  0.000000  1
  O  O8  1  0.068356  0.293057  0.928625  1
  O  O9  1  0.071375  0.931644  0.706943  1
  O  O10  1  0.454613  0.570593  0.761116  1
  O  O11  1  0.706943  0.071375  0.931644  1
  O  O12  1  0.238884  0.545387  0.429407  1
  O  O13  1  0.429407  0.238884  0.545387  1
  O  O14  1  0.570593  0.761116  0.454613  1
  O  O15  1  0.761116  0.454613  0.570593  1
  O  O16  1  0.293057  0.928625  0.068356  1
  O  O17  1  0.545387  0.429407  0.238884  1
  O  O18  1  0.928625  0.068356  0.293057  1
  O  O19  1  0.931644  0.706943  0.071375  1
