# generated using pymatgen
data_Er4Zn4Ir3Pd
_symmetry_space_group_name_H-M   'P 1'
_cell_length_a   4.03473000
_cell_length_b   6.98354868
_cell_length_c   8.12965613
_cell_angle_alpha   90.14197800
_cell_angle_beta   90.00000000
_cell_angle_gamma   90.00000000
_symmetry_Int_Tables_number   1
_chemical_formula_structural   Er4Zn4Ir3Pd
_chemical_formula_sum   'Er4 Zn4 Ir3 Pd1'
_cell_volume   229.06644999
_cell_formula_units_Z   1
loop_
 _symmetry_equiv_pos_site_id
 _symmetry_equiv_pos_as_xyz
  1  'x, y, z'
loop_
 _atom_site_type_symbol
 _atom_site_label
 _atom_site_symmetry_multiplicity
 _atom_site_fract_x
 _atom_site_fract_y
 _atom_site_fract_z
 _atom_site_occupancy
  Er  Er0  1  0.750000  0.466015  0.175650  1
  Er  Er1  1  0.750000  0.948929  0.316725  1
  Er  Er2  1  0.250000  0.541439  0.817834  1
  Er  Er3  1  0.250000  0.036332  0.688730  1
  Zn  Zn4  1  0.750000  0.864692  0.935491  1
  Zn  Zn5  1  0.750000  0.366407  0.565883  1
  Zn  Zn6  1  0.250000  0.135822  0.062670  1
  Zn  Zn7  1  0.250000  0.636662  0.435610  1
  Ir  Ir8  1  0.750000  0.248657  0.876777  1
  Ir  Ir9  1  0.750000  0.747277  0.621587  1
  Ir  Ir10  1  0.250000  0.754735  0.124452  1
  Pd  Pd11  1  0.250000  0.253035  0.378592  1
