# generated using pymatgen
data_Ti4I5Br7
_symmetry_space_group_name_H-M   'P 1'
_cell_length_a   6.21811700
_cell_length_b   7.64299064
_cell_length_c   13.25293854
_cell_angle_alpha   89.45592132
_cell_angle_beta   90.00000000
_cell_angle_gamma   90.00000000
_symmetry_Int_Tables_number   1
_chemical_formula_structural   Ti4I5Br7
_chemical_formula_sum   'Ti4 I5 Br7'
_cell_volume   629.81763928
_cell_formula_units_Z   1
loop_
 _symmetry_equiv_pos_site_id
 _symmetry_equiv_pos_as_xyz
  1  'x, y, z'
loop_
 _atom_site_type_symbol
 _atom_site_label
 _atom_site_symmetry_multiplicity
 _atom_site_fract_x
 _atom_site_fract_y
 _atom_site_fract_z
 _atom_site_occupancy
  Ti  Ti0  1  0.276728  0.251410  0.500748  1
  Ti  Ti1  1  0.723272  0.251410  0.500748  1
  Ti  Ti2  1  0.774269  0.749528  0.998032  1
  Ti  Ti3  1  0.225731  0.749528  0.998032  1
  I  I4  1  0.000000  0.105207  0.353871  1
  I  I5  1  0.000000  0.103422  0.648267  1
  I  I6  1  0.500000  0.896851  0.145978  1
  I  I7  1  0.500000  0.452391  0.998068  1
  I  I8  1  0.000000  0.546401  0.499844  1
  Br  Br9  1  0.500000  0.391310  0.360768  1
  Br  Br10  1  0.000000  0.621457  0.856214  1
  Br  Br11  1  0.000000  0.610420  0.137026  1
  Br  Br12  1  0.500000  0.388447  0.639648  1
  Br  Br13  1  0.500000  0.881335  0.868151  1
  Br  Br14  1  0.500000  0.973401  0.502566  1
  Br  Br15  1  0.000000  0.027482  0.992039  1
