# generated using pymatgen
data_Rb2TaAgTe4
_symmetry_space_group_name_H-M   'P 1'
_cell_length_a   15.36166566
_cell_length_b   13.72665636
_cell_length_c   8.25432902
_cell_angle_alpha   84.79082998
_cell_angle_beta   62.85755492
_cell_angle_gamma   32.35161864
_symmetry_Int_Tables_number   1
_chemical_formula_structural   Rb2TaAgTe4
_chemical_formula_sum   'Rb4 Ta2 Ag2 Te8'
_cell_volume   651.16364634
_cell_formula_units_Z   2
loop_
 _symmetry_equiv_pos_site_id
 _symmetry_equiv_pos_as_xyz
  1  'x, y, z'
loop_
 _atom_site_type_symbol
 _atom_site_label
 _atom_site_symmetry_multiplicity
 _atom_site_fract_x
 _atom_site_fract_y
 _atom_site_fract_z
 _atom_site_occupancy
  Rb  Rb0  1  0.429927  0.429927  0.070073  1
  Rb  Rb1  1  0.820073  0.820073  0.179927  1
  Rb  Rb2  1  0.070073  0.070073  0.429927  1
  Rb  Rb3  1  0.179927  0.179927  0.820073  1
  Ta  Ta4  1  0.000000  0.000000  0.000000  1
  Ta  Ta5  1  0.250000  0.250000  0.250000  1
  Ag  Ag6  1  0.500000  0.500000  0.500000  1
  Ag  Ag7  1  0.750000  0.750000  0.750000  1
  Te  Te8  1  0.727848  0.388709  0.066495  1
  Te  Te9  1  0.816946  0.066495  0.388709  1
  Te  Te10  1  0.066495  0.816946  0.727848  1
  Te  Te11  1  0.388709  0.727848  0.816946  1
  Te  Te12  1  0.522152  0.861291  0.183505  1
  Te  Te13  1  0.861291  0.522152  0.433054  1
  Te  Te14  1  0.183505  0.433054  0.522152  1
  Te  Te15  1  0.433054  0.183505  0.861291  1
