# generated using pymatgen
data_Li3Al3Pt5Rh
_symmetry_space_group_name_H-M   'P 1'
_cell_length_a   4.21519200
_cell_length_b   6.06179400
_cell_length_c   12.64250700
_cell_angle_alpha   90.00016664
_cell_angle_beta   89.99964202
_cell_angle_gamma   89.99972229
_symmetry_Int_Tables_number   1
_chemical_formula_structural   Li3Al3Pt5Rh
_chemical_formula_sum   'Li6 Al6 Pt10 Rh2'
_cell_volume   323.03660518
_cell_formula_units_Z   2
loop_
 _symmetry_equiv_pos_site_id
 _symmetry_equiv_pos_as_xyz
  1  'x, y, z'
loop_
 _atom_site_type_symbol
 _atom_site_label
 _atom_site_symmetry_multiplicity
 _atom_site_fract_x
 _atom_site_fract_y
 _atom_site_fract_z
 _atom_site_occupancy
  Li  Li0  1  0.999996  0.999988  0.997759  1
  Li  Li1  1  0.499675  0.499998  0.165610  1
  Li  Li2  1  0.999664  0.000001  0.333330  1
  Li  Li3  1  0.499998  0.499998  0.501049  1
  Li  Li4  1  0.000302  0.999991  0.668905  1
  Li  Li5  1  0.500302  0.500020  0.833332  1
  Al  Al6  1  0.000007  0.500004  0.993672  1
  Al  Al7  1  0.499779  0.000002  0.165550  1
  Al  Al8  1  0.999749  0.499998  0.333330  1
  Al  Al9  1  0.499996  0.000002  0.501117  1
  Al  Al10  1  0.000349  0.500005  0.673008  1
  Al  Al11  1  0.500192  0.999991  0.833331  1
  Pt  Pt12  1  0.499997  0.249852  0.000365  1
  Pt  Pt13  1  0.499994  0.750149  0.000366  1
  Pt  Pt14  1  0.999808  0.250903  0.166464  1
  Pt  Pt15  1  0.999803  0.749096  0.166464  1
  Pt  Pt16  1  0.499796  0.249976  0.333329  1
  Pt  Pt17  1  0.499796  0.750023  0.333329  1
  Pt  Pt18  1  0.999990  0.250919  0.500195  1
  Pt  Pt19  1  0.999992  0.749085  0.500196  1
  Pt  Pt20  1  0.500217  0.249867  0.666303  1
  Pt  Pt21  1  0.500216  0.750133  0.666301  1
  Rh  Rh22  1  0.000182  0.248386  0.833349  1
  Rh  Rh23  1  0.000190  0.751607  0.833350  1
