# generated using pymatgen
data_RhI29
_symmetry_space_group_name_H-M   'P 1'
_cell_length_a   12.11383006
_cell_length_b   14.54738519
_cell_length_c   17.49222400
_cell_angle_alpha   46.82660592
_cell_angle_beta   56.29537274
_cell_angle_gamma   62.84875093
_symmetry_Int_Tables_number   1
_chemical_formula_structural   RhI29
_chemical_formula_sum   'Rh1 I29'
_cell_volume   1855.19745426
_cell_formula_units_Z   1
loop_
 _symmetry_equiv_pos_site_id
 _symmetry_equiv_pos_as_xyz
  1  'x, y, z'
loop_
 _atom_site_type_symbol
 _atom_site_label
 _atom_site_symmetry_multiplicity
 _atom_site_fract_x
 _atom_site_fract_y
 _atom_site_fract_z
 _atom_site_occupancy
  Rh  Rh0  1  0.000000  0.000000  0.000000  1
  I  I1  1  0.500000  0.000000  0.000000  1
  I  I2  1  0.113582  0.194632  0.177286  1
  I  I3  1  0.694946  0.452729  0.387832  1
  I  I4  1  0.305054  0.547271  0.612168  1
  I  I5  1  0.608306  0.086154  0.232576  1
  I  I6  1  0.886418  0.805368  0.822714  1
  I  I7  1  0.295611  0.334827  0.401451  1
  I  I8  1  0.704389  0.665173  0.598549  1
  I  I9  1  0.391694  0.913846  0.767424  1
  I  I10  1  0.215234  0.126726  0.842109  1
  I  I11  1  0.567534  0.786824  0.989761  1
  I  I12  1  0.860587  0.193835  0.021348  1
  I  I13  1  0.108131  0.903515  0.145668  1
  I  I14  1  0.414857  0.565116  0.215236  1
  I  I15  1  0.891869  0.096485  0.854332  1
  I  I16  1  0.853491  0.145564  0.336373  1
  I  I17  1  0.139413  0.806165  0.978652  1
  I  I18  1  0.929394  0.748107  0.374840  1
  I  I19  1  0.432466  0.213176  0.010239  1
  I  I20  1  0.784766  0.873274  0.157891  1
  I  I21  1  0.497093  0.283511  0.602708  1
  I  I22  1  0.637875  0.011044  0.590971  1
  I  I23  1  0.898884  0.600569  0.179914  1
  I  I24  1  0.101116  0.399431  0.820086  1
  I  I25  1  0.362125  0.988956  0.409029  1
  I  I26  1  0.502907  0.716489  0.397292  1
  I  I27  1  0.070606  0.251893  0.625160  1
  I  I28  1  0.146509  0.854436  0.663627  1
  I  I29  1  0.585143  0.434884  0.784764  1
