# generated using pymatgen
data_YHf2Zr(Al3Ir)6
_symmetry_space_group_name_H-M   'P 1'
_cell_length_a   7.49120203
_cell_length_b   7.48300341
_cell_length_c   9.29744700
_cell_angle_alpha   90.00000000
_cell_angle_beta   90.00000000
_cell_angle_gamma   119.79071326
_symmetry_Int_Tables_number   1
_chemical_formula_structural   YHf2Zr(Al3Ir)6
_chemical_formula_sum   'Y1 Hf2 Zr1 Al18 Ir6'
_cell_volume   452.30753938
_cell_formula_units_Z   1
loop_
 _symmetry_equiv_pos_site_id
 _symmetry_equiv_pos_as_xyz
  1  'x, y, z'
loop_
 _atom_site_type_symbol
 _atom_site_label
 _atom_site_symmetry_multiplicity
 _atom_site_fract_x
 _atom_site_fract_y
 _atom_site_fract_z
 _atom_site_occupancy
  Y  Y0  1  0.329249  0.005712  0.750000  1
  Hf  Hf1  1  0.994154  0.671811  0.250000  1
  Hf  Hf2  1  0.672053  0.994432  0.250000  1
  Zr  Zr3  1  0.005411  0.329350  0.750000  1
  Al  Al4  1  0.123466  0.124663  0.250000  1
  Al  Al5  1  0.871649  0.875127  0.750000  1
  Al  Al6  1  0.997652  0.334672  0.077737  1
  Al  Al7  1  0.999670  0.662889  0.926104  1
  Al  Al8  1  0.999670  0.662889  0.573896  1
  Al  Al9  1  0.334912  0.998083  0.419015  1
  Al  Al10  1  0.997652  0.334672  0.422263  1
  Al  Al11  1  0.667840  0.001834  0.573958  1
  Al  Al12  1  0.667840  0.001834  0.926042  1
  Al  Al13  1  0.334912  0.998083  0.080985  1
  Al  Al14  1  0.331424  0.333665  0.555025  1
  Al  Al15  1  0.668231  0.668192  0.439604  1
  Al  Al16  1  0.668231  0.668192  0.060396  1
  Al  Al17  1  0.331424  0.333665  0.944975  1
  Al  Al18  1  0.338633  0.552563  0.250000  1
  Al  Al19  1  0.666100  0.452567  0.750000  1
  Al  Al20  1  0.553618  0.339815  0.250000  1
  Al  Al21  1  0.447158  0.656422  0.750000  1
  Ir  Ir22  1  0.672881  0.327934  0.001916  1
  Ir  Ir23  1  0.328268  0.673507  0.002191  1
  Ir  Ir24  1  0.328268  0.673507  0.497809  1
  Ir  Ir25  1  0.672881  0.327934  0.498084  1
  Ir  Ir26  1  0.998378  0.997992  0.002371  1
  Ir  Ir27  1  0.998378  0.997992  0.497629  1
