# generated using pymatgen
data_Sr4NdPN5
_symmetry_space_group_name_H-M   'P 1'
_cell_length_a   7.48460177
_cell_length_b   7.48460148
_cell_length_c   8.61277956
_cell_angle_alpha   76.31563501
_cell_angle_beta   76.31564248
_cell_angle_gamma   94.89244739
_symmetry_Int_Tables_number   1
_chemical_formula_structural   Sr4NdPN5
_chemical_formula_sum   'Sr8 Nd2 P2 N10'
_cell_volume   450.35111346
_cell_formula_units_Z   2
loop_
 _symmetry_equiv_pos_site_id
 _symmetry_equiv_pos_as_xyz
  1  'x, y, z'
loop_
 _atom_site_type_symbol
 _atom_site_label
 _atom_site_symmetry_multiplicity
 _atom_site_fract_x
 _atom_site_fract_y
 _atom_site_fract_z
 _atom_site_occupancy
  Sr  Sr0  1  0.678289  0.678289  0.000385  1
  Sr  Sr1  1  0.321711  0.321711  0.999615  1
  Sr  Sr2  1  0.927724  0.927724  0.205672  1
  Sr  Sr3  1  0.072276  0.072276  0.794328  1
  Sr  Sr4  1  0.559547  0.085043  0.755845  1
  Sr  Sr5  1  0.914957  0.440453  0.244155  1
  Sr  Sr6  1  0.440453  0.914957  0.244155  1
  Sr  Sr7  1  0.085043  0.559547  0.755845  1
  Nd  Nd8  1  0.408769  0.408769  0.364107  1
  Nd  Nd9  1  0.591231  0.591231  0.635893  1
  P  P10  1  0.757007  0.242993  0.000000  1
  P  P11  1  0.242993  0.757007  0.000000  1
  N  N12  1  0.643089  0.643089  0.339624  1
  N  N13  1  0.356911  0.356911  0.660376  1
  N  N14  1  0.720904  0.024414  0.988593  1
  N  N15  1  0.975586  0.279096  0.011407  1
  N  N16  1  0.279096  0.975586  0.011407  1
  N  N17  1  0.024414  0.720904  0.988593  1
  N  N18  1  0.395196  0.723819  0.832148  1
  N  N19  1  0.276181  0.604804  0.167851  1
  N  N20  1  0.604804  0.276181  0.167851  1
  N  N21  1  0.723819  0.395196  0.832148  1
