# generated using pymatgen
data_CuTcO4F
_symmetry_space_group_name_H-M   'P 1'
_cell_length_a   5.89446199
_cell_length_b   5.76103096
_cell_length_c   8.43629310
_cell_angle_alpha   114.15960382
_cell_angle_beta   114.22206652
_cell_angle_gamma   94.04210325
_symmetry_Int_Tables_number   1
_chemical_formula_structural   CuTcO4F
_chemical_formula_sum   'Cu2 Tc2 O8 F2'
_cell_volume   228.38198227
_cell_formula_units_Z   2
loop_
 _symmetry_equiv_pos_site_id
 _symmetry_equiv_pos_as_xyz
  1  'x, y, z'
loop_
 _atom_site_type_symbol
 _atom_site_label
 _atom_site_symmetry_multiplicity
 _atom_site_fract_x
 _atom_site_fract_y
 _atom_site_fract_z
 _atom_site_occupancy
  Cu  Cu0  1  0.000000  0.000000  0.000000  1
  Cu  Cu1  1  0.500000  0.500000  0.500000  1
  Tc  Tc2  1  0.443964  0.111862  0.764401  1
  Tc  Tc3  1  0.556036  0.888138  0.235599  1
  O  O4  1  0.215357  0.793677  0.087723  1
  O  O5  1  0.701539  0.851169  0.088891  1
  O  O6  1  0.663378  0.221726  0.422792  1
  O  O7  1  0.637782  0.688612  0.345042  1
  O  O8  1  0.298461  0.148831  0.911109  1
  O  O9  1  0.336622  0.778274  0.577208  1
  O  O10  1  0.362218  0.311388  0.654958  1
  O  O11  1  0.784643  0.206323  0.912277  1
  F  F12  1  0.181625  0.296856  0.259481  1
  F  F13  1  0.818375  0.703144  0.740519  1
