# generated using pymatgen
data_Er2V2Ni10As7
_symmetry_space_group_name_H-M   'P 1'
_cell_length_a   9.44798933
_cell_length_b   9.39447235
_cell_length_c   3.79280500
_cell_angle_alpha   90.00000000
_cell_angle_beta   90.00000000
_cell_angle_gamma   120.01183936
_symmetry_Int_Tables_number   1
_chemical_formula_structural   Er2V2Ni10As7
_chemical_formula_sum   'Er2 V2 Ni10 As7'
_cell_volume   291.50842361
_cell_formula_units_Z   1
loop_
 _symmetry_equiv_pos_site_id
 _symmetry_equiv_pos_as_xyz
  1  'x, y, z'
loop_
 _atom_site_type_symbol
 _atom_site_label
 _atom_site_symmetry_multiplicity
 _atom_site_fract_x
 _atom_site_fract_y
 _atom_site_fract_z
 _atom_site_occupancy
  Er  Er0  1  0.339100  0.667110  0.000000  1
  Er  Er1  1  0.664424  0.334107  0.500001  1
  V  V2  1  0.213753  0.097876  0.500001  1
  V  V3  1  0.901315  0.114313  0.500001  1
  Ni  Ni4  1  0.432553  0.059351  0.000000  1
  Ni  Ni5  1  0.154082  0.282846  0.000000  1
  Ni  Ni6  1  0.940656  0.375399  0.000000  1
  Ni  Ni7  1  0.625074  0.563671  0.000000  1
  Ni  Ni8  1  0.126533  0.841219  0.000000  1
  Ni  Ni9  1  0.718919  0.874290  0.000000  1
  Ni  Ni10  1  0.380690  0.434301  0.500001  1
  Ni  Ni11  1  0.046979  0.618544  0.500001  1
  Ni  Ni12  1  0.886816  0.788682  0.500001  1
  Ni  Ni13  1  0.566971  0.947269  0.500001  1
  As  As14  1  0.999886  0.997508  0.000000  1
  As  As15  1  0.705987  0.117387  0.000000  1
  As  As16  1  0.407170  0.292759  0.000000  1
  As  As17  1  0.881781  0.591612  0.000000  1
  As  As18  1  0.114397  0.408847  0.500001  1
  As  As19  1  0.598075  0.708567  0.500001  1
  As  As20  1  0.294840  0.884346  0.500001  1
