# generated using pymatgen
data_DyEr2Zn2In3Rh
_symmetry_space_group_name_H-M   'P 1'
_cell_length_a   7.75583005
_cell_length_b   7.74313769
_cell_length_c   3.80434600
_cell_angle_alpha   90.00000000
_cell_angle_beta   90.00000000
_cell_angle_gamma   120.04183371
_symmetry_Int_Tables_number   1
_chemical_formula_structural   DyEr2Zn2In3Rh
_chemical_formula_sum   'Dy1 Er2 Zn2 In3 Rh1'
_cell_volume   197.77558469
_cell_formula_units_Z   1
loop_
 _symmetry_equiv_pos_site_id
 _symmetry_equiv_pos_as_xyz
  1  'x, y, z'
loop_
 _atom_site_type_symbol
 _atom_site_label
 _atom_site_symmetry_multiplicity
 _atom_site_fract_x
 _atom_site_fract_y
 _atom_site_fract_z
 _atom_site_occupancy
  Dy  Dy0  1  0.024581  0.609131  0.500000  1
  Er  Er1  1  0.390343  0.416030  0.500000  1
  Er  Er2  1  0.584083  0.974160  0.500000  1
  Zn  Zn3  1  0.665782  0.332802  0.000000  1
  Zn  Zn4  1  0.999941  0.000237  0.500000  1
  In  In5  1  0.266856  0.005960  0.000000  1
  In  In6  1  0.738553  0.733810  0.000000  1
  In  In7  1  0.994654  0.260571  0.000000  1
  Rh  Rh8  1  0.335209  0.667298  0.000000  1
