# generated using pymatgen
data_Ac5B4N9
_symmetry_space_group_name_H-M   'P 1'
_cell_length_a   9.98279600
_cell_length_b   12.83766300
_cell_length_c   7.82312200
_cell_angle_alpha   90.00000000
_cell_angle_beta   90.00000000
_cell_angle_gamma   90.00000000
_symmetry_Int_Tables_number   1
_chemical_formula_structural   Ac5B4N9
_chemical_formula_sum   'Ac20 B16 N36'
_cell_volume   1002.57823033
_cell_formula_units_Z   4
loop_
 _symmetry_equiv_pos_site_id
 _symmetry_equiv_pos_as_xyz
  1  'x, y, z'
loop_
 _atom_site_type_symbol
 _atom_site_label
 _atom_site_symmetry_multiplicity
 _atom_site_fract_x
 _atom_site_fract_y
 _atom_site_fract_z
 _atom_site_occupancy
  Ac  Ac0  1  0.347315  0.412495  0.497328  1
  Ac  Ac1  1  0.652685  0.587504  0.997327  1
  Ac  Ac2  1  0.347315  0.087504  0.502672  1
  Ac  Ac3  1  0.652685  0.912495  0.002673  1
  Ac  Ac4  1  0.652685  0.587504  0.502672  1
  Ac  Ac5  1  0.347315  0.412495  0.002673  1
  Ac  Ac6  1  0.652685  0.912495  0.497328  1
  Ac  Ac7  1  0.347315  0.087504  0.997327  1
  Ac  Ac8  1  0.641816  0.178799  0.250000  1
  Ac  Ac9  1  0.358184  0.821201  0.749999  1
  Ac  Ac10  1  0.641816  0.321201  0.749999  1
  Ac  Ac11  1  0.358184  0.678799  0.250000  1
  Ac  Ac12  1  0.004045  0.495085  0.250000  1
  Ac  Ac13  1  0.995955  0.504915  0.749999  1
  Ac  Ac14  1  0.004045  0.004914  0.749999  1
  Ac  Ac15  1  0.995955  0.995086  0.250000  1
  Ac  Ac16  1  0.010503  0.250000  0.000000  1
  Ac  Ac17  1  0.989497  0.750000  0.500000  1
  Ac  Ac18  1  0.989497  0.750000  0.000000  1
  Ac  Ac19  1  0.010503  0.250000  0.500000  1
  B  B20  1  0.243388  0.243404  0.250000  1
  B  B21  1  0.756611  0.756597  0.749999  1
  B  B22  1  0.243388  0.256596  0.749999  1
  B  B23  1  0.756611  0.743404  0.250000  1
  B  B24  1  0.569269  0.415375  0.250000  1
  B  B25  1  0.430730  0.584625  0.749999  1
  B  B26  1  0.569269  0.084625  0.749999  1
  B  B27  1  0.430730  0.915375  0.250000  1
  B  B28  1  0.228132  0.628113  0.595029  1
  B  B29  1  0.771868  0.371887  0.095028  1
  B  B30  1  0.228132  0.871886  0.404972  1
  B  B31  1  0.771868  0.128114  0.904971  1
  B  B32  1  0.771868  0.371887  0.404972  1
  B  B33  1  0.228132  0.628113  0.904971  1
  B  B34  1  0.771868  0.128114  0.595029  1
  B  B35  1  0.228132  0.871886  0.095028  1
  N  N36  1  0.389592  0.234194  0.250000  1
  N  N37  1  0.610408  0.765807  0.749999  1
  N  N38  1  0.389592  0.265807  0.749999  1
  N  N39  1  0.610408  0.734193  0.250000  1
  N  N40  1  0.375676  0.621019  0.584745  1
  N  N41  1  0.624325  0.378980  0.084746  1
  N  N42  1  0.375676  0.878981  0.415255  1
  N  N43  1  0.624325  0.121020  0.915255  1
  N  N44  1  0.624325  0.378980  0.415255  1
  N  N45  1  0.375676  0.621019  0.915255  1
  N  N46  1  0.624325  0.121020  0.584745  1
  N  N47  1  0.375676  0.878981  0.084746  1
  N  N48  1  0.146938  0.586285  0.461550  1
  N  N49  1  0.853063  0.413715  0.961549  1
  N  N50  1  0.146938  0.913715  0.538450  1
  N  N51  1  0.853063  0.086285  0.038451  1
  N  N52  1  0.853063  0.413715  0.538450  1
  N  N53  1  0.146938  0.586285  0.038451  1
  N  N54  1  0.853063  0.086285  0.461550  1
  N  N55  1  0.146938  0.913715  0.961549  1
  N  N56  1  0.161546  0.826811  0.250000  1
  N  N57  1  0.838454  0.173189  0.749999  1
  N  N58  1  0.161546  0.673188  0.749999  1
  N  N59  1  0.838454  0.326812  0.250000  1
  N  N60  1  0.174904  0.345707  0.250000  1
  N  N61  1  0.825095  0.654293  0.749999  1
  N  N62  1  0.174904  0.154294  0.749999  1
  N  N63  1  0.825095  0.845706  0.250000  1
  N  N64  1  0.157968  0.148017  0.250000  1
  N  N65  1  0.842031  0.851983  0.749999  1
  N  N66  1  0.157968  0.351983  0.749999  1
  N  N67  1  0.842031  0.648017  0.250000  1
  N  N68  1  0.476168  0.500953  0.250000  1
  N  N69  1  0.523833  0.499048  0.749999  1
  N  N70  1  0.476168  0.999047  0.749999  1
  N  N71  1  0.523833  0.000953  0.250000  1
