# generated using pymatgen
data_Nd8Hg2OsPd
_symmetry_space_group_name_H-M   'P 1'
_cell_length_a   9.95439647
_cell_length_b   9.95439784
_cell_length_c   10.04366700
_cell_angle_alpha   59.70290449
_cell_angle_beta   59.70289986
_cell_angle_gamma   59.69262076
_symmetry_Int_Tables_number   1
_chemical_formula_structural   Nd8Hg2OsPd
_chemical_formula_sum   'Nd16 Hg4 Os2 Pd2'
_cell_volume   698.92791469
_cell_formula_units_Z   2
loop_
 _symmetry_equiv_pos_site_id
 _symmetry_equiv_pos_as_xyz
  1  'x, y, z'
loop_
 _atom_site_type_symbol
 _atom_site_label
 _atom_site_symmetry_multiplicity
 _atom_site_fract_x
 _atom_site_fract_y
 _atom_site_fract_z
 _atom_site_occupancy
  Nd  Nd0  1  0.350363  0.350363  0.356922  1
  Nd  Nd1  1  0.350363  0.350363  0.942353  1
  Nd  Nd2  1  0.345687  0.951082  0.351615  1
  Nd  Nd3  1  0.951082  0.345687  0.351615  1
  Nd  Nd4  1  0.814679  0.189261  0.192836  1
  Nd  Nd5  1  0.189261  0.814679  0.803225  1
  Nd  Nd6  1  0.189261  0.814679  0.192836  1
  Nd  Nd7  1  0.814679  0.189261  0.803225  1
  Nd  Nd8  1  0.189705  0.189705  0.810295  1
  Nd  Nd9  1  0.804567  0.804567  0.195433  1
  Nd  Nd10  1  0.938746  0.556108  0.565628  1
  Nd  Nd11  1  0.556108  0.938746  0.939516  1
  Nd  Nd12  1  0.556108  0.938746  0.565628  1
  Nd  Nd13  1  0.938746  0.556108  0.939516  1
  Nd  Nd14  1  0.562995  0.562995  0.937005  1
  Nd  Nd15  1  0.939799  0.939799  0.560201  1
  Hg  Hg16  1  0.584114  0.584114  0.584106  1
  Hg  Hg17  1  0.584114  0.584114  0.247667  1
  Hg  Hg18  1  0.585280  0.245789  0.584466  1
  Hg  Hg19  1  0.245789  0.585280  0.584466  1
  Os  Os20  1  0.144535  0.144535  0.136879  1
  Os  Os21  1  0.144535  0.144535  0.574050  1
  Pd  Pd22  1  0.146859  0.572624  0.140257  1
  Pd  Pd23  1  0.572624  0.146859  0.140257  1
