# generated using pymatgen
data_Ho4Ti3Co17As12
_symmetry_space_group_name_H-M   'P 1'
_cell_length_a   3.79497500
_cell_length_b   10.78722876
_cell_length_c   12.34535820
_cell_angle_alpha   90.00670236
_cell_angle_beta   90.00000000
_cell_angle_gamma   90.00000000
_symmetry_Int_Tables_number   1
_chemical_formula_structural   Ho4Ti3Co17As12
_chemical_formula_sum   'Ho4 Ti3 Co17 As12'
_cell_volume   505.38517774
_cell_formula_units_Z   1
loop_
 _symmetry_equiv_pos_site_id
 _symmetry_equiv_pos_as_xyz
  1  'x, y, z'
loop_
 _atom_site_type_symbol
 _atom_site_label
 _atom_site_symmetry_multiplicity
 _atom_site_fract_x
 _atom_site_fract_y
 _atom_site_fract_z
 _atom_site_occupancy
  Ho  Ho0  1  0.250000  0.577111  0.703577  1
  Ho  Ho1  1  0.250000  0.919998  0.204060  1
  Ho  Ho2  1  0.750000  0.419130  0.295132  1
  Ho  Ho3  1  0.750000  0.078248  0.793521  1
  Ti  Ti4  1  0.250000  0.698281  0.991350  1
  Ti  Ti5  1  0.250000  0.798949  0.491809  1
  Ti  Ti6  1  0.750000  0.301542  0.007627  1
  Co  Co7  1  0.750000  0.206859  0.508913  1
  Co  Co8  1  0.250000  0.404671  0.487974  1
  Co  Co9  1  0.250000  0.094733  0.989852  1
  Co  Co10  1  0.750000  0.593923  0.512181  1
  Co  Co11  1  0.750000  0.906476  0.013589  1
  Co  Co12  1  0.250000  0.217458  0.178084  1
  Co  Co13  1  0.250000  0.282077  0.674096  1
  Co  Co14  1  0.750000  0.783987  0.825816  1
  Co  Co15  1  0.750000  0.716921  0.325324  1
  Co  Co16  1  0.250000  0.885210  0.698616  1
  Co  Co17  1  0.250000  0.615937  0.198402  1
  Co  Co18  1  0.750000  0.116930  0.303389  1
  Co  Co19  1  0.750000  0.382898  0.799677  1
  Co  Co20  1  0.250000  0.463976  0.933414  1
  Co  Co21  1  0.250000  0.034415  0.431824  1
  Co  Co22  1  0.750000  0.535036  0.065577  1
  Co  Co23  1  0.750000  0.968440  0.566597  1
  As  As24  1  0.250000  0.419354  0.118250  1
  As  As25  1  0.250000  0.083607  0.612909  1
  As  As26  1  0.750000  0.579597  0.880674  1
  As  As27  1  0.750000  0.919233  0.382790  1
  As  As28  1  0.250000  0.264364  0.862220  1
  As  As29  1  0.250000  0.233599  0.368387  1
  As  As30  1  0.750000  0.733932  0.137327  1
  As  As31  1  0.750000  0.768173  0.637846  1
  As  As32  1  0.250000  0.592882  0.389801  1
  As  As33  1  0.250000  0.906809  0.891135  1
  As  As34  1  0.750000  0.398696  0.606204  1
  As  As35  1  0.750000  0.096544  0.112053  1
