# generated using pymatgen
data_Tb6Tm6InCo4Ni
_symmetry_space_group_name_H-M   'P 1'
_cell_length_a   8.24841270
_cell_length_b   8.24841326
_cell_length_c   8.22737349
_cell_angle_alpha   111.09438349
_cell_angle_beta   110.38020673
_cell_angle_gamma   107.07674963
_symmetry_Int_Tables_number   1
_chemical_formula_structural   Tb6Tm6InCo4Ni
_chemical_formula_sum   'Tb6 Tm6 In1 Co4 Ni1'
_cell_volume   429.72263704
_cell_formula_units_Z   1
loop_
 _symmetry_equiv_pos_site_id
 _symmetry_equiv_pos_as_xyz
  1  'x, y, z'
loop_
 _atom_site_type_symbol
 _atom_site_label
 _atom_site_symmetry_multiplicity
 _atom_site_fract_x
 _atom_site_fract_y
 _atom_site_fract_z
 _atom_site_occupancy
  Tb  Tb0  1  0.406788  0.210328  0.193961  1
  Tb  Tb1  1  0.593212  0.789672  0.806039  1
  Tb  Tb2  1  0.016368  0.212827  0.806039  1
  Tb  Tb3  1  0.983632  0.787173  0.193961  1
  Tb  Tb4  1  0.185391  0.294203  0.479594  1
  Tb  Tb5  1  0.814609  0.705797  0.520406  1
  Tm  Tm6  1  0.187034  0.706153  0.893187  1
  Tm  Tm7  1  0.812966  0.293847  0.106813  1
  Tm  Tm8  1  0.314791  0.621756  0.304139  1
  Tm  Tm9  1  0.685209  0.378244  0.695861  1
  Tm  Tm10  1  0.317617  0.010652  0.695861  1
  Tm  Tm11  1  0.682383  0.989348  0.304139  1
  In  In12  1  0.500000  0.500000  0.000000  1
  Co  Co13  1  0.378161  0.998556  0.376716  1
  Co  Co14  1  0.621839  0.001444  0.623284  1
  Co  Co15  1  0.113212  0.613212  0.500000  1
  Co  Co16  1  0.886788  0.386788  0.500000  1
  Ni  Ni17  1  0.000000  0.000000  0.000000  1
