# generated using pymatgen
data_Tb3Mg3CuAgOs
_symmetry_space_group_name_H-M   'P 1'
_cell_length_a   7.64139500
_cell_length_b   7.64139372
_cell_length_c   3.96568500
_cell_angle_alpha   90.00000000
_cell_angle_beta   90.00000000
_cell_angle_gamma   120.00000122
_symmetry_Int_Tables_number   1
_chemical_formula_structural   Tb3Mg3CuAgOs
_chemical_formula_sum   'Tb3 Mg3 Cu1 Ag1 Os1'
_cell_volume   200.53679417
_cell_formula_units_Z   1
loop_
 _symmetry_equiv_pos_site_id
 _symmetry_equiv_pos_as_xyz
  1  'x, y, z'
loop_
 _atom_site_type_symbol
 _atom_site_label
 _atom_site_symmetry_multiplicity
 _atom_site_fract_x
 _atom_site_fract_y
 _atom_site_fract_z
 _atom_site_occupancy
  Tb  Tb0  1  0.573222  0.966971  0.000000  1
  Tb  Tb1  1  0.033029  0.606251  0.000000  1
  Tb  Tb2  1  0.393749  0.426778  0.000000  1
  Mg  Mg3  1  0.246886  0.998450  0.500000  1
  Mg  Mg4  1  0.001550  0.248436  0.500000  1
  Mg  Mg5  1  0.751564  0.753114  0.500000  1
  Cu  Cu6  1  0.000000  0.000000  0.000000  1
  Ag  Ag7  1  0.666667  0.333333  0.500000  1
  Os  Os8  1  0.333333  0.666667  0.500000  1
