# generated using pymatgen
data_Ac8AgAu7
_symmetry_space_group_name_H-M   'P 1'
_cell_length_a   6.54582796
_cell_length_b   6.54582868
_cell_length_c   11.90031245
_cell_angle_alpha   90.00427900
_cell_angle_beta   90.00426773
_cell_angle_gamma   100.59571028
_symmetry_Int_Tables_number   1
_chemical_formula_structural   Ac8AgAu7
_chemical_formula_sum   'Ac8 Ag1 Au7'
_cell_volume   501.20872231
_cell_formula_units_Z   1
loop_
 _symmetry_equiv_pos_site_id
 _symmetry_equiv_pos_as_xyz
  1  'x, y, z'
loop_
 _atom_site_type_symbol
 _atom_site_label
 _atom_site_symmetry_multiplicity
 _atom_site_fract_x
 _atom_site_fract_y
 _atom_site_fract_z
 _atom_site_occupancy
  Ac  Ac0  1  0.374624  0.871860  0.275783  1
  Ac  Ac1  1  0.127897  0.127897  0.001783  1
  Ac  Ac2  1  0.871860  0.374624  0.275783  1
  Ac  Ac3  1  0.127223  0.624279  0.774301  1
  Ac  Ac4  1  0.374366  0.374366  0.504125  1
  Ac  Ac5  1  0.623751  0.623751  0.001403  1
  Ac  Ac6  1  0.624279  0.127223  0.774301  1
  Ac  Ac7  1  0.875811  0.875811  0.506926  1
  Ag  Ag8  1  0.875093  0.875093  0.218436  1
  Au  Au9  1  0.123701  0.123701  0.726167  1
  Au  Au10  1  0.370919  0.370919  0.226755  1
  Au  Au11  1  0.124383  0.627495  0.053755  1
  Au  Au12  1  0.627082  0.627082  0.726291  1
  Au  Au13  1  0.376479  0.875036  0.552216  1
  Au  Au14  1  0.875036  0.376479  0.552216  1
  Au  Au15  1  0.627495  0.124383  0.053755  1
