# generated using pymatgen
data_SrCaTa2(GaO5)2
_symmetry_space_group_name_H-M   'P 1'
_cell_length_a   5.77580176
_cell_length_b   5.77580127
_cell_length_c   7.55092041
_cell_angle_alpha   75.42825901
_cell_angle_beta   75.42825758
_cell_angle_gamma   105.96152590
_symmetry_Int_Tables_number   1
_chemical_formula_structural   SrCaTa2(GaO5)2
_chemical_formula_sum   'Sr1 Ca1 Ta2 Ga2 O10'
_cell_volume   220.02798445
_cell_formula_units_Z   1
loop_
 _symmetry_equiv_pos_site_id
 _symmetry_equiv_pos_as_xyz
  1  'x, y, z'
loop_
 _atom_site_type_symbol
 _atom_site_label
 _atom_site_symmetry_multiplicity
 _atom_site_fract_x
 _atom_site_fract_y
 _atom_site_fract_z
 _atom_site_occupancy
  Sr  Sr0  1  0.329246  0.670754  0.250000  1
  Ca  Ca1  1  0.672087  0.327913  0.750000  1
  Ta  Ta2  1  0.993847  0.995369  0.503421  1
  Ta  Ta3  1  0.004631  0.006153  0.996579  1
  Ga  Ga4  1  0.685568  0.314432  0.250000  1
  Ga  Ga5  1  0.315487  0.684513  0.750000  1
  O  O6  1  0.059401  0.940599  0.250000  1
  O  O7  1  0.930182  0.069818  0.750000  1
  O  O8  1  0.308773  0.906900  0.890720  1
  O  O9  1  0.093100  0.691227  0.609280  1
  O  O10  1  0.705518  0.115035  0.092403  1
  O  O11  1  0.884965  0.294482  0.407597  1
  O  O12  1  0.764426  0.645868  0.087823  1
  O  O13  1  0.354132  0.235574  0.412177  1
  O  O14  1  0.258441  0.359805  0.913498  1
  O  O15  1  0.640195  0.741559  0.586502  1
