# generated using pymatgen
data_Pr7Er(Si3Pt)4
_symmetry_space_group_name_H-M   'P 1'
_cell_length_a   8.25009600
_cell_length_b   8.24124399
_cell_length_c   8.62906600
_cell_angle_alpha   90.00000000
_cell_angle_beta   90.00000000
_cell_angle_gamma   120.03575947
_symmetry_Int_Tables_number   1
_chemical_formula_structural   Pr7Er(Si3Pt)4
_chemical_formula_sum   'Pr7 Er1 Si12 Pt4'
_cell_volume   507.91330771
_cell_formula_units_Z   1
loop_
 _symmetry_equiv_pos_site_id
 _symmetry_equiv_pos_as_xyz
  1  'x, y, z'
loop_
 _atom_site_type_symbol
 _atom_site_label
 _atom_site_symmetry_multiplicity
 _atom_site_fract_x
 _atom_site_fract_y
 _atom_site_fract_z
 _atom_site_occupancy
  Pr  Pr0  1  0.000168  0.000334  0.250000  1
  Pr  Pr1  1  0.999973  0.999948  0.750000  1
  Pr  Pr2  1  0.499085  0.500696  0.250000  1
  Pr  Pr3  1  0.499264  0.998524  0.250000  1
  Pr  Pr4  1  0.001627  0.500706  0.250000  1
  Pr  Pr5  1  0.501373  0.498653  0.750000  1
  Pr  Pr6  1  0.997288  0.498655  0.750000  1
  Er  Er7  1  0.500556  0.001134  0.750000  1
  Si  Si8  1  0.833326  0.165006  0.502255  1
  Si  Si9  1  0.833434  0.666868  0.498879  1
  Si  Si10  1  0.331682  0.165006  0.502254  1
  Si  Si11  1  0.833326  0.165006  0.997745  1
  Si  Si12  1  0.833434  0.666868  0.001121  1
  Si  Si13  1  0.331682  0.165006  0.997746  1
  Si  Si14  1  0.166578  0.834887  0.997965  1
  Si  Si15  1  0.668307  0.834887  0.997967  1
  Si  Si16  1  0.166806  0.333612  0.999861  1
  Si  Si17  1  0.166578  0.834887  0.502035  1
  Si  Si18  1  0.668307  0.834887  0.502033  1
  Si  Si19  1  0.166806  0.333612  0.500139  1
  Pt  Pt20  1  0.664926  0.329851  0.503604  1
  Pt  Pt21  1  0.664926  0.329851  0.996396  1
  Pt  Pt22  1  0.335275  0.670558  0.990177  1
  Pt  Pt23  1  0.335275  0.670558  0.509823  1
