# generated using pymatgen
data_Ac2Dy(HoRh6)3
_symmetry_space_group_name_H-M   'P 1'
_cell_length_a   5.29119800
_cell_length_b   5.29076320
_cell_length_c   17.54166400
_cell_angle_alpha   90.00070391
_cell_angle_beta   89.99945857
_cell_angle_gamma   119.98211235
_symmetry_Int_Tables_number   1
_chemical_formula_structural   Ac2Dy(HoRh6)3
_chemical_formula_sum   'Ac2 Dy1 Ho3 Rh18'
_cell_volume   425.35545816
_cell_formula_units_Z   1
loop_
 _symmetry_equiv_pos_site_id
 _symmetry_equiv_pos_as_xyz
  1  'x, y, z'
loop_
 _atom_site_type_symbol
 _atom_site_label
 _atom_site_symmetry_multiplicity
 _atom_site_fract_x
 _atom_site_fract_y
 _atom_site_fract_z
 _atom_site_occupancy
  Ac  Ac0  1  0.333335  0.666647  0.749960  1
  Ac  Ac1  1  0.666651  0.333341  0.250007  1
  Dy  Dy2  1  0.333323  0.666675  0.540401  1
  Ho  Ho3  1  0.333316  0.666675  0.959607  1
  Ho  Ho4  1  0.666675  0.333327  0.040508  1
  Ho  Ho5  1  0.666682  0.333329  0.459313  1
  Rh  Rh6  1  0.167755  0.832233  0.377172  1
  Rh  Rh7  1  0.167762  0.335519  0.377177  1
  Rh  Rh8  1  0.664490  0.832253  0.377176  1
  Rh  Rh9  1  0.832259  0.167750  0.622851  1
  Rh  Rh10  1  0.832258  0.664507  0.622850  1
  Rh  Rh11  1  0.335494  0.167738  0.622851  1
  Rh  Rh12  1  0.832196  0.167806  0.877360  1
  Rh  Rh13  1  0.832207  0.664407  0.877356  1
  Rh  Rh14  1  0.335589  0.167793  0.877357  1
  Rh  Rh15  1  0.167806  0.832185  0.122674  1
  Rh  Rh16  1  0.167799  0.335599  0.122674  1
  Rh  Rh17  1  0.664403  0.832199  0.122674  1
  Rh  Rh18  1  0.333342  0.666642  0.249951  1
  Rh  Rh19  1  0.666684  0.333351  0.750115  1
  Rh  Rh20  1  0.000040  0.000020  0.249906  1
  Rh  Rh21  1  0.999938  0.999995  0.750121  1
  Rh  Rh22  1  0.999995  0.000009  0.499984  1
  Rh  Rh23  1  0.000001  0.999999  0.999957  1
