# generated using pymatgen
data_Tm4GeI6
_symmetry_space_group_name_H-M   'P 1'
_cell_length_a   4.18601300
_cell_length_b   13.81372600
_cell_length_c   14.62236100
_cell_angle_alpha   90.00000000
_cell_angle_beta   90.00000000
_cell_angle_gamma   90.00000000
_symmetry_Int_Tables_number   1
_chemical_formula_structural   Tm4GeI6
_chemical_formula_sum   'Tm8 Ge2 I12'
_cell_volume   845.52978680
_cell_formula_units_Z   2
loop_
 _symmetry_equiv_pos_site_id
 _symmetry_equiv_pos_as_xyz
  1  'x, y, z'
loop_
 _atom_site_type_symbol
 _atom_site_label
 _atom_site_symmetry_multiplicity
 _atom_site_fract_x
 _atom_site_fract_y
 _atom_site_fract_z
 _atom_site_occupancy
  Tm  Tm0  1  0.500000  0.114117  0.347228  1
  Tm  Tm1  1  0.500000  0.885883  0.652772  1
  Tm  Tm2  1  0.500000  0.614117  0.152772  1
  Tm  Tm3  1  0.500000  0.385883  0.847228  1
  Tm  Tm4  1  0.000000  0.110347  0.573827  1
  Tm  Tm5  1  0.000000  0.889653  0.426173  1
  Tm  Tm6  1  0.000000  0.610347  0.926173  1
  Tm  Tm7  1  0.000000  0.389653  0.073827  1
  Ge  Ge8  1  0.500000  0.000000  0.500000  1
  Ge  Ge9  1  0.500000  0.500000  0.000000  1
  I  I10  1  0.500000  0.247503  0.162205  1
  I  I11  1  0.500000  0.752497  0.837795  1
  I  I12  1  0.500000  0.747503  0.337795  1
  I  I13  1  0.500000  0.252497  0.662205  1
  I  I14  1  0.000000  0.258364  0.414443  1
  I  I15  1  0.000000  0.741636  0.585557  1
  I  I16  1  0.000000  0.758364  0.085557  1
  I  I17  1  0.000000  0.241636  0.914443  1
  I  I18  1  0.000000  0.999592  0.240544  1
  I  I19  1  0.000000  0.000408  0.759456  1
  I  I20  1  0.000000  0.499592  0.259456  1
  I  I21  1  0.000000  0.500408  0.740544  1
