# generated using pymatgen
data_Dy2AlIrRu
_symmetry_space_group_name_H-M   'P 1'
_cell_length_a   5.54695822
_cell_length_b   5.54695610
_cell_length_c   5.54695794
_cell_angle_alpha   137.30828442
_cell_angle_beta   115.79996617
_cell_angle_gamma   80.19804627
_symmetry_Int_Tables_number   1
_chemical_formula_structural   Dy2AlIrRu
_chemical_formula_sum   'Dy2 Al1 Ir1 Ru1'
_cell_volume   101.01031069
_cell_formula_units_Z   1
loop_
 _symmetry_equiv_pos_site_id
 _symmetry_equiv_pos_as_xyz
  1  'x, y, z'
loop_
 _atom_site_type_symbol
 _atom_site_label
 _atom_site_symmetry_multiplicity
 _atom_site_fract_x
 _atom_site_fract_y
 _atom_site_fract_z
 _atom_site_occupancy
  Dy  Dy0  1  0.700070  0.202315  0.497755  1
  Dy  Dy1  1  0.295440  0.797686  0.497757  1
  Al  Al2  1  0.003595  0.000000  0.003595  1
  Ir  Ir3  1  0.737223  0.500000  0.237223  1
  Ru  Ru4  1  0.263670  0.500001  0.763671  1
