# generated using pymatgen
data_LuTa2B2Ru5
_symmetry_space_group_name_H-M   'P 1'
_cell_length_a   9.50816369
_cell_length_b   9.50816369
_cell_length_c   3.08618100
_cell_angle_alpha   90.00000000
_cell_angle_beta   90.00000000
_cell_angle_gamma   90.35911143
_symmetry_Int_Tables_number   1
_chemical_formula_structural   LuTa2B2Ru5
_chemical_formula_sum   'Lu2 Ta4 B4 Ru10'
_cell_volume   279.00125858
_cell_formula_units_Z   2
loop_
 _symmetry_equiv_pos_site_id
 _symmetry_equiv_pos_as_xyz
  1  'x, y, z'
loop_
 _atom_site_type_symbol
 _atom_site_label
 _atom_site_symmetry_multiplicity
 _atom_site_fract_x
 _atom_site_fract_y
 _atom_site_fract_z
 _atom_site_occupancy
  Lu  Lu0  1  0.824139  0.675861  0.000000  1
  Lu  Lu1  1  0.175861  0.324139  0.000000  1
  Ta  Ta2  1  0.323394  0.823394  0.000000  1
  Ta  Ta3  1  0.676606  0.176606  0.000000  1
  Ta  Ta4  1  0.500000  0.500000  0.000000  1
  Ta  Ta5  1  0.000000  0.000000  0.000000  1
  B  B6  1  0.621287  0.878713  0.000000  1
  B  B7  1  0.378713  0.121287  0.000000  1
  B  B8  1  0.120499  0.620499  0.000000  1
  B  B9  1  0.879501  0.379501  0.000000  1
  Ru  Ru10  1  0.560641  0.722373  0.500000  1
  Ru  Ru11  1  0.439359  0.277627  0.500000  1
  Ru  Ru12  1  0.080155  0.785037  0.500000  1
  Ru  Ru13  1  0.919845  0.214963  0.500000  1
  Ru  Ru14  1  0.285037  0.580155  0.500000  1
  Ru  Ru15  1  0.714963  0.419845  0.500000  1
  Ru  Ru16  1  0.222373  0.060641  0.500000  1
  Ru  Ru17  1  0.777627  0.939359  0.500000  1
  Ru  Ru18  1  0.500000  0.000000  0.500000  1
  Ru  Ru19  1  0.000000  0.500000  0.500000  1
