# generated using pymatgen
data_Tb2ZnRuPt
_symmetry_space_group_name_H-M   'P 1'
_cell_length_a   5.52443753
_cell_length_b   5.52443786
_cell_length_c   5.52443849
_cell_angle_alpha   135.66744332
_cell_angle_beta   115.12926184
_cell_angle_gamma   81.95460298
_symmetry_Int_Tables_number   1
_chemical_formula_structural   Tb2ZnRuPt
_chemical_formula_sum   'Tb2 Zn1 Ru1 Pt1'
_cell_volume   103.03439206
_cell_formula_units_Z   1
loop_
 _symmetry_equiv_pos_site_id
 _symmetry_equiv_pos_as_xyz
  1  'x, y, z'
loop_
 _atom_site_type_symbol
 _atom_site_label
 _atom_site_symmetry_multiplicity
 _atom_site_fract_x
 _atom_site_fract_y
 _atom_site_fract_z
 _atom_site_occupancy
  Tb  Tb0  1  0.698843  0.203267  0.495576  1
  Tb  Tb1  1  0.292309  0.796733  0.495576  1
  Zn  Zn2  1  0.012563  0.000000  0.012563  1
  Ru  Ru3  1  0.264618  0.500000  0.764618  1
  Pt  Pt4  1  0.731667  0.500000  0.231667  1
