# generated using pymatgen
data_Nd2Zn3Ga4Pd
_symmetry_space_group_name_H-M   'P 1'
_cell_length_a   4.29727900
_cell_length_b   4.29727900
_cell_length_c   10.53591000
_cell_angle_alpha   90.00000000
_cell_angle_beta   90.00000000
_cell_angle_gamma   90.00000000
_symmetry_Int_Tables_number   1
_chemical_formula_structural   Nd2Zn3Ga4Pd
_chemical_formula_sum   'Nd2 Zn3 Ga4 Pd1'
_cell_volume   194.56250729
_cell_formula_units_Z   1
loop_
 _symmetry_equiv_pos_site_id
 _symmetry_equiv_pos_as_xyz
  1  'x, y, z'
loop_
 _atom_site_type_symbol
 _atom_site_label
 _atom_site_symmetry_multiplicity
 _atom_site_fract_x
 _atom_site_fract_y
 _atom_site_fract_z
 _atom_site_occupancy
  Nd  Nd0  1  0.500000  0.000000  0.750702  1
  Nd  Nd1  1  0.000000  0.500000  0.249298  1
  Zn  Zn2  1  0.000000  0.000000  0.500000  1
  Zn  Zn3  1  0.000000  0.000000  0.000000  1
  Zn  Zn4  1  0.500000  0.500000  0.500000  1
  Ga  Ga5  1  0.000000  0.500000  0.871048  1
  Ga  Ga6  1  0.500000  0.000000  0.365513  1
  Ga  Ga7  1  0.500000  0.000000  0.128952  1
  Ga  Ga8  1  0.000000  0.500000  0.634487  1
  Pd  Pd9  1  0.500000  0.500000  0.000000  1
