# generated using pymatgen
data_Yb4Ga3Au5
_symmetry_space_group_name_H-M   'P 1'
_cell_length_a   5.84994123
_cell_length_b   5.84994093
_cell_length_c   10.70579178
_cell_angle_alpha   85.53629342
_cell_angle_beta   85.53629311
_cell_angle_gamma   45.45276039
_symmetry_Int_Tables_number   1
_chemical_formula_structural   Yb4Ga3Au5
_chemical_formula_sum   'Yb4 Ga3 Au5'
_cell_volume   260.17172538
_cell_formula_units_Z   1
loop_
 _symmetry_equiv_pos_site_id
 _symmetry_equiv_pos_as_xyz
  1  'x, y, z'
loop_
 _atom_site_type_symbol
 _atom_site_label
 _atom_site_symmetry_multiplicity
 _atom_site_fract_x
 _atom_site_fract_y
 _atom_site_fract_z
 _atom_site_occupancy
  Yb  Yb0  1  0.683530  0.683530  0.689259  1
  Yb  Yb1  1  0.189583  0.189583  0.185082  1
  Yb  Yb2  1  0.391036  0.391036  0.899382  1
  Yb  Yb3  1  0.896149  0.896149  0.398865  1
  Ga  Ga4  1  0.179108  0.179108  0.485463  1
  Ga  Ga5  1  0.982840  0.982840  0.668312  1
  Ga  Ga6  1  0.488049  0.488049  0.184940  1
  Au  Au7  1  0.682863  0.682863  0.991392  1
  Au  Au8  1  0.380422  0.380422  0.608208  1
  Au  Au9  1  0.904496  0.904496  0.111782  1
  Au  Au10  1  0.092941  0.092941  0.872902  1
  Au  Au11  1  0.610180  0.610180  0.385613  1
