# generated using pymatgen
data_Er10Cd5In3Au4
_symmetry_space_group_name_H-M   'P 1'
_cell_length_a   3.65180100
_cell_length_b   8.12330972
_cell_length_c   18.30959268
_cell_angle_alpha   89.95140389
_cell_angle_beta   90.00000000
_cell_angle_gamma   90.00000000
_symmetry_Int_Tables_number   1
_chemical_formula_structural   Er10Cd5In3Au4
_chemical_formula_sum   'Er10 Cd5 In3 Au4'
_cell_volume   543.14857165
_cell_formula_units_Z   1
loop_
 _symmetry_equiv_pos_site_id
 _symmetry_equiv_pos_as_xyz
  1  'x, y, z'
loop_
 _atom_site_type_symbol
 _atom_site_label
 _atom_site_symmetry_multiplicity
 _atom_site_fract_x
 _atom_site_fract_y
 _atom_site_fract_z
 _atom_site_occupancy
  Er  Er0  1  0.000000  0.499017  0.500878  1
  Er  Er1  1  0.000000  0.000817  0.000290  1
  Er  Er2  1  0.000000  0.740221  0.285434  1
  Er  Er3  1  0.000000  0.260950  0.714591  1
  Er  Er4  1  0.000000  0.758048  0.783559  1
  Er  Er5  1  0.000000  0.241659  0.215187  1
  Er  Er6  1  0.000000  0.613112  0.081385  1
  Er  Er7  1  0.000000  0.387206  0.917587  1
  Er  Er8  1  0.000000  0.887594  0.582072  1
  Er  Er9  1  0.000000  0.111003  0.418706  1
  Cd  Cd10  1  0.500000  0.711465  0.934568  1
  Cd  Cd11  1  0.500000  0.289018  0.065049  1
  Cd  Cd12  1  0.500000  0.788148  0.435654  1
  Cd  Cd13  1  0.500000  0.212119  0.565777  1
  Cd  Cd14  1  0.500000  0.578388  0.643446  1
  In  In15  1  0.500000  0.421076  0.355245  1
  In  In16  1  0.500000  0.922242  0.145500  1
  In  In17  1  0.500000  0.076195  0.855577  1
  Au  Au18  1  0.500000  0.528641  0.198040  1
  Au  Au19  1  0.500000  0.472488  0.801427  1
  Au  Au20  1  0.500000  0.973245  0.698451  1
  Au  Au21  1  0.500000  0.027347  0.301579  1
