# generated using pymatgen
data_TlIrBr6
_symmetry_space_group_name_H-M   'P 1'
_cell_length_a   6.93488628
_cell_length_b   6.93488562
_cell_length_c   7.15230461
_cell_angle_alpha   80.76642886
_cell_angle_beta   80.76642767
_cell_angle_gamma   119.74428469
_symmetry_Int_Tables_number   1
_chemical_formula_structural   TlIrBr6
_chemical_formula_sum   'Tl1 Ir1 Br6'
_cell_volume   282.98203594
_cell_formula_units_Z   1
loop_
 _symmetry_equiv_pos_site_id
 _symmetry_equiv_pos_as_xyz
  1  'x, y, z'
loop_
 _atom_site_type_symbol
 _atom_site_label
 _atom_site_symmetry_multiplicity
 _atom_site_fract_x
 _atom_site_fract_y
 _atom_site_fract_z
 _atom_site_occupancy
  Tl  Tl0  1  0.167599  0.832401  0.000000  1
  Ir  Ir1  1  0.833159  0.166841  0.000000  1
  Br  Br2  1  0.902123  0.529385  0.785933  1
  Br  Br3  1  0.470615  0.097877  0.214067  1
  Br  Br4  1  0.762578  0.803676  0.214327  1
  Br  Br5  1  0.196324  0.237422  0.785673  1
  Br  Br6  1  0.612995  0.945391  0.785606  1
  Br  Br7  1  0.054609  0.387005  0.214394  1
