# generated using pymatgen
data_Ca3SmLu4(B6Ru)4
_symmetry_space_group_name_H-M   'P 1'
_cell_length_a   3.63048400
_cell_length_b   9.11351902
_cell_length_c   11.52641829
_cell_angle_alpha   89.94581379
_cell_angle_beta   90.00000000
_cell_angle_gamma   90.00000000
_symmetry_Int_Tables_number   1
_chemical_formula_structural   Ca3SmLu4(B6Ru)4
_chemical_formula_sum   'Ca3 Sm1 Lu4 B24 Ru4'
_cell_volume   381.36849505
_cell_formula_units_Z   1
loop_
 _symmetry_equiv_pos_site_id
 _symmetry_equiv_pos_as_xyz
  1  'x, y, z'
loop_
 _atom_site_type_symbol
 _atom_site_label
 _atom_site_symmetry_multiplicity
 _atom_site_fract_x
 _atom_site_fract_y
 _atom_site_fract_z
 _atom_site_occupancy
  Ca  Ca0  1  0.000000  0.324537  0.414741  1
  Ca  Ca1  1  0.000000  0.675581  0.584486  1
  Ca  Ca2  1  0.000000  0.823013  0.085950  1
  Sm  Sm3  1  0.000000  0.175828  0.915152  1
  Lu  Lu4  1  0.000000  0.941539  0.367360  1
  Lu  Lu5  1  0.000000  0.057358  0.630990  1
  Lu  Lu6  1  0.000000  0.443789  0.132948  1
  Lu  Lu7  1  0.000000  0.558135  0.867950  1
  B  B8  1  0.500000  0.554143  0.432125  1
  B  B9  1  0.500000  0.445543  0.568061  1
  B  B10  1  0.500000  0.054486  0.068798  1
  B  B11  1  0.500000  0.944300  0.932135  1
  B  B12  1  0.500000  0.750088  0.416942  1
  B  B13  1  0.500000  0.249853  0.582753  1
  B  B14  1  0.500000  0.250620  0.083927  1
  B  B15  1  0.500000  0.749712  0.917119  1
  B  B16  1  0.500000  0.792075  0.264598  1
  B  B17  1  0.500000  0.208099  0.734725  1
  B  B18  1  0.500000  0.292306  0.235483  1
  B  B19  1  0.500000  0.708430  0.764784  1
  B  B20  1  0.500000  0.630628  0.185282  1
  B  B21  1  0.500000  0.369968  0.814815  1
  B  B22  1  0.500000  0.130601  0.314747  1
  B  B23  1  0.500000  0.869393  0.684397  1
  B  B24  1  0.500000  0.983326  0.212320  1
  B  B25  1  0.500000  0.015480  0.787085  1
  B  B26  1  0.500000  0.484079  0.288115  1
  B  B27  1  0.500000  0.516259  0.712195  1
  B  B28  1  0.500000  0.597486  0.026605  1
  B  B29  1  0.500000  0.403453  0.973814  1
  B  B30  1  0.500000  0.095755  0.473448  1
  B  B31  1  0.500000  0.903796  0.525727  1
  Ru  Ru32  1  0.000000  0.640416  0.318764  1
  Ru  Ru33  1  0.000000  0.358847  0.681956  1
  Ru  Ru34  1  0.000000  0.140030  0.181229  1
  Ru  Ru35  1  0.000000  0.861048  0.818476  1
