# generated using pymatgen
data_Dy4Si10OsRu5
_symmetry_space_group_name_H-M   'P 1'
_cell_length_a   8.27499613
_cell_length_b   8.22662333
_cell_length_c   8.22662433
_cell_angle_alpha   140.01429169
_cell_angle_beta   108.45831282
_cell_angle_gamma   85.17078393
_symmetry_Int_Tables_number   1
_chemical_formula_structural   Dy4Si10OsRu5
_chemical_formula_sum   'Dy4 Si10 Os1 Ru5'
_cell_volume   329.63057108
_cell_formula_units_Z   1
loop_
 _symmetry_equiv_pos_site_id
 _symmetry_equiv_pos_as_xyz
  1  'x, y, z'
loop_
 _atom_site_type_symbol
 _atom_site_label
 _atom_site_symmetry_multiplicity
 _atom_site_fract_x
 _atom_site_fract_y
 _atom_site_fract_z
 _atom_site_occupancy
  Dy  Dy0  1  0.899500  0.133750  0.765749  1
  Dy  Dy1  1  0.102547  0.867773  0.234774  1
  Dy  Dy2  1  0.632057  0.361567  0.270490  1
  Dy  Dy3  1  0.367145  0.637452  0.729693  1
  Si  Si4  1  0.999728  0.750084  0.749315  1
  Si  Si5  1  0.999728  0.250413  0.249644  1
  Si  Si6  1  0.701234  0.441561  0.728463  1
  Si  Si7  1  0.297337  0.030709  0.743279  1
  Si  Si8  1  0.297337  0.554058  0.266628  1
  Si  Si9  1  0.701234  0.972771  0.259673  1
  Si  Si10  1  0.242459  0.407759  0.834702  1
  Si  Si11  1  0.572966  0.901414  0.671552  1
  Si  Si12  1  0.425936  0.098454  0.327481  1
  Si  Si13  1  0.758885  0.591851  0.167033  1
  Os  Os14  1  0.762147  0.849854  0.912293  1
  Ru  Ru15  1  0.501459  0.248879  0.749449  1
  Ru  Ru16  1  0.956156  0.356459  0.599698  1
  Ru  Ru17  1  0.044924  0.644085  0.400839  1
  Ru  Ru18  1  0.235764  0.149098  0.086666  1
  Ru  Ru19  1  0.501459  0.752010  0.252580  1
