# generated using pymatgen
data_Ho16Tm4Si15Sb
_symmetry_space_group_name_H-M   'P 1'
_cell_length_a   7.46755731
_cell_length_b   7.59973764
_cell_length_c   14.54975500
_cell_angle_alpha   89.68137759
_cell_angle_beta   85.68221783
_cell_angle_gamma   89.89773642
_symmetry_Int_Tables_number   1
_chemical_formula_structural   Ho16Tm4Si15Sb
_chemical_formula_sum   'Ho16 Tm4 Si15 Sb1'
_cell_volume   823.36302677
_cell_formula_units_Z   1
loop_
 _symmetry_equiv_pos_site_id
 _symmetry_equiv_pos_as_xyz
  1  'x, y, z'
loop_
 _atom_site_type_symbol
 _atom_site_label
 _atom_site_symmetry_multiplicity
 _atom_site_fract_x
 _atom_site_fract_y
 _atom_site_fract_z
 _atom_site_occupancy
  Ho  Ho0  1  0.010344  0.824815  0.102247  1
  Ho  Ho1  1  0.474501  0.685251  0.398015  1
  Ho  Ho2  1  0.479232  0.313531  0.895463  1
  Ho  Ho3  1  0.025989  0.183489  0.600791  1
  Ho  Ho4  1  0.993052  0.171278  0.897813  1
  Ho  Ho5  1  0.524994  0.315215  0.600567  1
  Ho  Ho6  1  0.500040  0.687220  0.104690  1
  Ho  Ho7  1  0.974051  0.814762  0.398695  1
  Ho  Ho8  1  0.637142  0.846117  0.878226  1
  Ho  Ho9  1  0.175750  0.675760  0.621656  1
  Ho  Ho10  1  0.865103  0.325228  0.126548  1
  Ho  Ho11  1  0.326007  0.177223  0.378423  1
  Ho  Ho12  1  0.360283  0.167456  0.119687  1
  Ho  Ho13  1  0.825187  0.324429  0.377915  1
  Ho  Ho14  1  0.151389  0.666695  0.878525  1
  Ho  Ho15  1  0.675201  0.823054  0.621821  1
  Tm  Tm16  1  0.671489  0.995075  0.246725  1
  Tm  Tm17  1  0.171420  0.506551  0.246136  1
  Tm  Tm18  1  0.829864  0.493903  0.747910  1
  Tm  Tm19  1  0.326515  0.004249  0.751564  1
  Si  Si20  1  0.787599  0.631058  0.252059  1
  Si  Si21  1  0.286707  0.871663  0.253370  1
  Si  Si22  1  0.711031  0.132368  0.746527  1
  Si  Si23  1  0.209795  0.367606  0.747625  1
  Si  Si24  1  0.045808  0.107645  0.254129  1
  Si  Si25  1  0.544068  0.392379  0.251890  1
  Si  Si26  1  0.458318  0.607576  0.748227  1
  Si  Si27  1  0.955787  0.888711  0.747979  1
  Si  Si28  1  0.356282  0.971839  0.542399  1
  Si  Si29  1  0.708197  0.032378  0.043786  1
  Si  Si30  1  0.145454  0.472097  0.457554  1
  Si  Si31  1  0.209841  0.470115  0.044534  1
  Si  Si32  1  0.645637  0.027566  0.457227  1
  Si  Si33  1  0.292027  0.967527  0.957033  1
  Si  Si34  1  0.855906  0.527219  0.541939  1
  Sb  Sb35  1  0.789988  0.530952  0.960304  1
