# generated using pymatgen
data_Pr17Nd3Si15Os
_symmetry_space_group_name_H-M   'P 1'
_cell_length_a   7.92500628
_cell_length_b   7.92526119
_cell_length_c   15.25890476
_cell_angle_alpha   90.22046036
_cell_angle_beta   89.92037231
_cell_angle_gamma   90.02204550
_symmetry_Int_Tables_number   1
_chemical_formula_structural   Pr17Nd3Si15Os
_chemical_formula_sum   'Pr17 Nd3 Si15 Os1'
_cell_volume   958.36930488
_cell_formula_units_Z   1
loop_
 _symmetry_equiv_pos_site_id
 _symmetry_equiv_pos_as_xyz
  1  'x, y, z'
loop_
 _atom_site_type_symbol
 _atom_site_label
 _atom_site_symmetry_multiplicity
 _atom_site_fract_x
 _atom_site_fract_y
 _atom_site_fract_z
 _atom_site_occupancy
  Pr  Pr0  1  0.695131  0.688720  0.501958  1
  Pr  Pr1  1  0.371811  0.011808  0.450129  1
  Pr  Pr2  1  0.485368  0.880751  0.696780  1
  Pr  Pr3  1  0.510730  0.123755  0.198368  1
  Pr  Pr4  1  0.876064  0.488415  0.300464  1
  Pr  Pr5  1  0.126698  0.504212  0.798808  1
  Pr  Pr6  1  0.625607  0.988401  0.948465  1
  Pr  Pr7  1  0.008460  0.374541  0.552295  1
  Pr  Pr8  1  0.988188  0.624878  0.050856  1
  Pr  Pr9  1  0.132823  0.984800  0.872535  1
  Pr  Pr10  1  0.516606  0.630020  0.126022  1
  Pr  Pr11  1  0.472666  0.360243  0.628558  1
  Pr  Pr12  1  0.626871  0.515061  0.873979  1
  Pr  Pr13  1  0.374944  0.483808  0.373545  1
  Pr  Pr14  1  0.872973  0.020230  0.376210  1
  Pr  Pr15  1  0.982554  0.126884  0.124426  1
  Pr  Pr16  1  0.026048  0.881926  0.626531  1
  Nd  Nd17  1  0.306149  0.306512  0.998521  1
  Nd  Nd18  1  0.191243  0.809350  0.249577  1
  Nd  Nd19  1  0.824459  0.188599  0.749349  1
  Si  Si20  1  0.333614  0.694773  0.950923  1
  Si  Si21  1  0.664834  0.302436  0.451512  1
  Si  Si22  1  0.696062  0.334375  0.049883  1
  Si  Si23  1  0.303997  0.668177  0.547327  1
  Si  Si24  1  0.805714  0.832394  0.202890  1
  Si  Si25  1  0.167905  0.197226  0.298462  1
  Si  Si26  1  0.832200  0.802182  0.800076  1
  Si  Si27  1  0.288065  0.922318  0.058710  1
  Si  Si28  1  0.579142  0.787552  0.310459  1
  Si  Si29  1  0.423411  0.208736  0.812096  1
  Si  Si30  1  0.779661  0.583029  0.691287  1
  Si  Si31  1  0.212154  0.422135  0.190217  1
  Si  Si32  1  0.705126  0.074361  0.558582  1
  Si  Si33  1  0.919834  0.287802  0.941582  1
  Si  Si34  1  0.079779  0.715302  0.440466  1
  Os  Os35  1  0.193109  0.174289  0.698152  1
