# generated using pymatgen
data_Yb2Cu7
_symmetry_space_group_name_H-M   'P 1'
_cell_length_a   5.02739083
_cell_length_b   5.02739025
_cell_length_c   12.74476514
_cell_angle_alpha   78.62476266
_cell_angle_beta   78.62476350
_cell_angle_gamma   59.99999224
_symmetry_Int_Tables_number   1
_chemical_formula_structural   Yb2Cu7
_chemical_formula_sum   'Yb4 Cu14'
_cell_volume   271.63269992
_cell_formula_units_Z   2
loop_
 _symmetry_equiv_pos_site_id
 _symmetry_equiv_pos_as_xyz
  1  'x, y, z'
loop_
 _atom_site_type_symbol
 _atom_site_label
 _atom_site_symmetry_multiplicity
 _atom_site_fract_x
 _atom_site_fract_y
 _atom_site_fract_z
 _atom_site_occupancy
  Yb  Yb0  1  0.948943  0.948943  0.153171  1
  Yb  Yb1  1  0.051057  0.051057  0.846829  1
  Yb  Yb2  1  0.851977  0.851977  0.444068  1
  Yb  Yb3  1  0.148023  0.148023  0.555932  1
  Cu  Cu4  1  0.500000  0.500000  0.500000  1
  Cu  Cu5  1  0.722081  0.722081  0.833757  1
  Cu  Cu6  1  0.277919  0.277919  0.166243  1
  Cu  Cu7  1  0.611676  0.611676  0.164972  1
  Cu  Cu8  1  0.388324  0.388324  0.835028  1
  Cu  Cu9  1  0.000000  0.500000  0.000000  1
  Cu  Cu10  1  0.500000  0.000000  0.000000  1
  Cu  Cu11  1  0.500000  0.500000  0.000000  1
  Cu  Cu12  1  0.389042  0.389042  0.331138  1
  Cu  Cu13  1  0.890778  0.389042  0.331138  1
  Cu  Cu14  1  0.389042  0.890778  0.331138  1
  Cu  Cu15  1  0.610958  0.610958  0.668862  1
  Cu  Cu16  1  0.109222  0.610958  0.668862  1
  Cu  Cu17  1  0.610958  0.109222  0.668862  1
