# generated using pymatgen
data_DyLu(FeB)8
_symmetry_space_group_name_H-M   'P 1'
_cell_length_a   6.91620600
_cell_length_b   6.91620600
_cell_length_c   3.83197200
_cell_angle_alpha   90.00000000
_cell_angle_beta   90.00000000
_cell_angle_gamma   90.00000000
_symmetry_Int_Tables_number   1
_chemical_formula_structural   DyLu(FeB)8
_chemical_formula_sum   'Dy1 Lu1 Fe8 B8'
_cell_volume   183.29818628
_cell_formula_units_Z   1
loop_
 _symmetry_equiv_pos_site_id
 _symmetry_equiv_pos_as_xyz
  1  'x, y, z'
loop_
 _atom_site_type_symbol
 _atom_site_label
 _atom_site_symmetry_multiplicity
 _atom_site_fract_x
 _atom_site_fract_y
 _atom_site_fract_z
 _atom_site_occupancy
  Dy  Dy0  1  0.500000  0.500000  0.500000  1
  Lu  Lu1  1  0.000000  0.000000  0.000000  1
  Fe  Fe2  1  0.868588  0.383684  0.110567  1
  Fe  Fe3  1  0.131412  0.616316  0.110567  1
  Fe  Fe4  1  0.884139  0.632799  0.610851  1
  Fe  Fe5  1  0.115861  0.367201  0.610851  1
  Fe  Fe6  1  0.632799  0.115861  0.389149  1
  Fe  Fe7  1  0.367201  0.884139  0.389149  1
  Fe  Fe8  1  0.616316  0.868588  0.889433  1
  Fe  Fe9  1  0.383684  0.131412  0.889433  1
  B  B10  1  0.331834  0.803769  0.892943  1
  B  B11  1  0.668166  0.196231  0.892943  1
  B  B12  1  0.300063  0.166242  0.392276  1
  B  B13  1  0.699937  0.833758  0.392276  1
  B  B14  1  0.166242  0.699937  0.607724  1
  B  B15  1  0.833758  0.300063  0.607724  1
  B  B16  1  0.196231  0.331834  0.107057  1
  B  B17  1  0.803769  0.668166  0.107057  1
