# generated using pymatgen
data_Eu4Zn4PdAu3
_symmetry_space_group_name_H-M   'P 1'
_cell_length_a   4.57655100
_cell_length_b   7.40828981
_cell_length_c   8.01495610
_cell_angle_alpha   89.47013362
_cell_angle_beta   90.00000000
_cell_angle_gamma   90.00000000
_symmetry_Int_Tables_number   1
_chemical_formula_structural   Eu4Zn4PdAu3
_chemical_formula_sum   'Eu4 Zn4 Pd1 Au3'
_cell_volume   271.73078695
_cell_formula_units_Z   1
loop_
 _symmetry_equiv_pos_site_id
 _symmetry_equiv_pos_as_xyz
  1  'x, y, z'
loop_
 _atom_site_type_symbol
 _atom_site_label
 _atom_site_symmetry_multiplicity
 _atom_site_fract_x
 _atom_site_fract_y
 _atom_site_fract_z
 _atom_site_occupancy
  Eu  Eu0  1  0.250000  0.009733  0.298982  1
  Eu  Eu1  1  0.250000  0.508054  0.198655  1
  Eu  Eu2  1  0.750000  0.991968  0.698536  1
  Eu  Eu3  1  0.750000  0.486360  0.805072  1
  Zn  Zn4  1  0.250000  0.676401  0.580122  1
  Zn  Zn5  1  0.250000  0.177495  0.928172  1
  Zn  Zn6  1  0.750000  0.318953  0.413924  1
  Zn  Zn7  1  0.750000  0.834361  0.077538  1
  Pd  Pd8  1  0.750000  0.208151  0.097460  1
  Au  Au9  1  0.250000  0.290391  0.595190  1
  Au  Au10  1  0.250000  0.788792  0.902781  1
  Au  Au11  1  0.750000  0.709340  0.403567  1
