# generated using pymatgen
data_Yb6Hf2ReH27
_symmetry_space_group_name_H-M   'P 1'
_cell_length_a   8.79589700
_cell_length_b   8.79589753
_cell_length_c   5.07533200
_cell_angle_alpha   90.00000000
_cell_angle_beta   90.00000000
_cell_angle_gamma   120.00000928
_symmetry_Int_Tables_number   1
_chemical_formula_structural   Yb6Hf2ReH27
_chemical_formula_sum   'Yb6 Hf2 Re1 H27'
_cell_volume   340.05983854
_cell_formula_units_Z   1
loop_
 _symmetry_equiv_pos_site_id
 _symmetry_equiv_pos_as_xyz
  1  'x, y, z'
loop_
 _atom_site_type_symbol
 _atom_site_label
 _atom_site_symmetry_multiplicity
 _atom_site_fract_x
 _atom_site_fract_y
 _atom_site_fract_z
 _atom_site_occupancy
  Yb  Yb0  1  0.999693  0.258376  0.500000  1
  Yb  Yb1  1  0.741624  0.741317  0.500000  1
  Yb  Yb2  1  0.258683  0.000307  0.500000  1
  Yb  Yb3  1  0.930210  0.590291  0.000000  1
  Yb  Yb4  1  0.409709  0.339919  0.000000  1
  Yb  Yb5  1  0.660081  0.069790  0.000000  1
  Hf  Hf6  1  0.666667  0.333333  0.500000  1
  Hf  Hf7  1  0.000000  0.000000  0.000000  1
  Re  Re8  1  0.333333  0.666667  0.500000  1
  H  H9  1  0.827598  0.334797  0.769378  1
  H  H10  1  0.665203  0.492799  0.769378  1
  H  H11  1  0.507201  0.172402  0.769378  1
  H  H12  1  0.195725  0.533130  0.257133  1
  H  H13  1  0.507201  0.172402  0.230622  1
  H  H14  1  0.827598  0.334797  0.230622  1
  H  H15  1  0.665203  0.492799  0.230622  1
  H  H16  1  0.337403  0.804275  0.742867  1
  H  H17  1  0.466870  0.662597  0.742867  1
  H  H18  1  0.231043  0.011417  0.000000  1
  H  H19  1  0.780375  0.768957  0.000000  1
  H  H20  1  0.988583  0.219625  0.000000  1
  H  H21  1  0.838143  0.999016  0.266084  1
  H  H22  1  0.160873  0.161857  0.733916  1
  H  H23  1  0.000984  0.839127  0.733916  1
  H  H24  1  0.000984  0.839127  0.266084  1
  H  H25  1  0.160873  0.161857  0.266084  1
  H  H26  1  0.838143  0.999016  0.733916  1
  H  H27  1  0.143008  0.668198  0.500000  1
  H  H28  1  0.525189  0.856992  0.500000  1
  H  H29  1  0.331802  0.474811  0.500000  1
  H  H30  1  0.435979  0.313930  0.500000  1
  H  H31  1  0.877952  0.564021  0.500000  1
  H  H32  1  0.686070  0.122048  0.500000  1
  H  H33  1  0.195725  0.533130  0.742867  1
  H  H34  1  0.337403  0.804275  0.257133  1
  H  H35  1  0.466870  0.662597  0.257133  1
