# generated using pymatgen
data_Ba5Ca(HoBi3)2
_symmetry_space_group_name_H-M   'P 1'
_cell_length_a   8.72833809
_cell_length_b   9.99509366
_cell_length_c   8.85120500
_cell_angle_alpha   113.91250237
_cell_angle_beta   103.80906011
_cell_angle_gamma   113.25495212
_symmetry_Int_Tables_number   1
_chemical_formula_structural   Ba5Ca(HoBi3)2
_chemical_formula_sum   'Ba5 Ca1 Ho2 Bi6'
_cell_volume   570.81257467
_cell_formula_units_Z   1
loop_
 _symmetry_equiv_pos_site_id
 _symmetry_equiv_pos_as_xyz
  1  'x, y, z'
loop_
 _atom_site_type_symbol
 _atom_site_label
 _atom_site_symmetry_multiplicity
 _atom_site_fract_x
 _atom_site_fract_y
 _atom_site_fract_z
 _atom_site_occupancy
  Ba  Ba0  1  0.324884  0.326160  0.320283  1
  Ba  Ba1  1  0.002635  0.125822  0.585014  1
  Ba  Ba2  1  0.822245  0.823216  0.825517  1
  Ba  Ba3  1  0.078474  0.626432  0.499480  1
  Ba  Ba4  1  0.555464  0.017552  0.147183  1
  Ca  Ca5  1  0.634259  0.512828  0.030912  1
  Ho  Ho6  1  0.515295  0.068164  0.631959  1
  Ho  Ho7  1  0.128885  0.568000  0.015599  1
  Bi  Bi8  1  0.879772  0.250089  0.024079  1
  Bi  Bi9  1  0.112578  0.884323  0.256626  1
  Bi  Bi10  1  0.364559  0.573728  0.789326  1
  Bi  Bi11  1  0.296423  0.087572  0.868316  1
  Bi  Bi12  1  0.756828  0.392098  0.630693  1
  Bi  Bi13  1  0.527700  0.744015  0.375016  1
