# generated using pymatgen
data_Cs6Tm2ScIrBr18
_symmetry_space_group_name_H-M   'P 1'
_cell_length_a   7.96131200
_cell_length_b   7.96131865
_cell_length_c   20.10622700
_cell_angle_alpha   89.99997136
_cell_angle_beta   90.00005728
_cell_angle_gamma   119.99990205
_symmetry_Int_Tables_number   1
_chemical_formula_structural   Cs6Tm2ScIrBr18
_chemical_formula_sum   'Cs6 Tm2 Sc1 Ir1 Br18'
_cell_volume   1103.64980888
_cell_formula_units_Z   1
loop_
 _symmetry_equiv_pos_site_id
 _symmetry_equiv_pos_as_xyz
  1  'x, y, z'
loop_
 _atom_site_type_symbol
 _atom_site_label
 _atom_site_symmetry_multiplicity
 _atom_site_fract_x
 _atom_site_fract_y
 _atom_site_fract_z
 _atom_site_occupancy
  Cs  Cs0  1  0.333333  0.666667  0.063937  1
  Cs  Cs1  1  0.666666  0.333333  0.930288  1
  Cs  Cs2  1  0.666667  0.333333  0.576640  1
  Cs  Cs3  1  0.333333  0.666667  0.441816  1
  Cs  Cs4  1  0.000000  0.000000  0.251480  1
  Cs  Cs5  1  0.000000  0.000000  0.743740  1
  Tm  Tm6  1  0.666666  0.333331  0.346516  1
  Tm  Tm7  1  0.666668  0.333333  0.155000  1
  Sc  Sc8  1  0.333334  0.666668  0.834285  1
  Ir  Ir9  1  0.333334  0.666667  0.670646  1
  Br  Br10  1  0.184510  0.369018  0.599592  1
  Br  Br11  1  0.832482  0.664964  0.415581  1
  Br  Br12  1  0.630981  0.815490  0.599592  1
  Br  Br13  1  0.832129  0.664258  0.084937  1
  Br  Br14  1  0.335036  0.167518  0.415581  1
  Br  Br15  1  0.173531  0.347062  0.901383  1
  Br  Br16  1  0.184510  0.815490  0.599591  1
  Br  Br17  1  0.335742  0.167871  0.084937  1
  Br  Br18  1  0.832482  0.167518  0.415581  1
  Br  Br19  1  0.652938  0.826469  0.901384  1
  Br  Br20  1  0.832128  0.167871  0.084937  1
  Br  Br21  1  0.173531  0.826470  0.901384  1
  Br  Br22  1  0.510624  0.021248  0.250269  1
  Br  Br23  1  0.484865  0.969729  0.743455  1
  Br  Br24  1  0.978752  0.489376  0.250269  1
  Br  Br25  1  0.030272  0.515135  0.743455  1
  Br  Br26  1  0.510623  0.489376  0.250269  1
  Br  Br27  1  0.484864  0.515135  0.743455  1
