# generated using pymatgen
data_HoThTcB6
_symmetry_space_group_name_H-M   'P 1'
_cell_length_a   3.77466900
_cell_length_b   9.24904800
_cell_length_c   11.67323700
_cell_angle_alpha   90.00000000
_cell_angle_beta   90.00000000
_cell_angle_gamma   90.00000000
_symmetry_Int_Tables_number   1
_chemical_formula_structural   HoThTcB6
_chemical_formula_sum   'Ho4 Th4 Tc4 B24'
_cell_volume   407.53715636
_cell_formula_units_Z   4
loop_
 _symmetry_equiv_pos_site_id
 _symmetry_equiv_pos_as_xyz
  1  'x, y, z'
loop_
 _atom_site_type_symbol
 _atom_site_label
 _atom_site_symmetry_multiplicity
 _atom_site_fract_x
 _atom_site_fract_y
 _atom_site_fract_z
 _atom_site_occupancy
  Ho  Ho0  1  0.000000  0.944530  0.372113  1
  Ho  Ho1  1  0.000000  0.055470  0.627887  1
  Ho  Ho2  1  0.000000  0.444530  0.127887  1
  Ho  Ho3  1  0.000000  0.555470  0.872113  1
  Th  Th4  1  0.000000  0.322424  0.414070  1
  Th  Th5  1  0.000000  0.677576  0.585930  1
  Th  Th6  1  0.000000  0.822424  0.085930  1
  Th  Th7  1  0.000000  0.177576  0.914070  1
  Tc  Tc8  1  0.000000  0.639193  0.319989  1
  Tc  Tc9  1  0.000000  0.360807  0.680011  1
  Tc  Tc10  1  0.000000  0.139193  0.180011  1
  Tc  Tc11  1  0.000000  0.860807  0.819989  1
  B  B12  1  0.500000  0.556077  0.430103  1
  B  B13  1  0.500000  0.443923  0.569897  1
  B  B14  1  0.500000  0.056077  0.069897  1
  B  B15  1  0.500000  0.943923  0.930103  1
  B  B16  1  0.500000  0.749669  0.417245  1
  B  B17  1  0.500000  0.250331  0.582755  1
  B  B18  1  0.500000  0.249669  0.082755  1
  B  B19  1  0.500000  0.750331  0.917245  1
  B  B20  1  0.500000  0.790794  0.266756  1
  B  B21  1  0.500000  0.209206  0.733244  1
  B  B22  1  0.500000  0.290794  0.233244  1
  B  B23  1  0.500000  0.709206  0.766756  1
  B  B24  1  0.500000  0.630354  0.186144  1
  B  B25  1  0.500000  0.369646  0.813856  1
  B  B26  1  0.500000  0.130354  0.313856  1
  B  B27  1  0.500000  0.869646  0.686144  1
  B  B28  1  0.500000  0.985185  0.213798  1
  B  B29  1  0.500000  0.014815  0.786202  1
  B  B30  1  0.500000  0.485185  0.286202  1
  B  B31  1  0.500000  0.514815  0.713798  1
  B  B32  1  0.500000  0.602815  0.028391  1
  B  B33  1  0.500000  0.397185  0.971609  1
  B  B34  1  0.500000  0.102815  0.471609  1
  B  B35  1  0.500000  0.897185  0.528391  1
