# generated using pymatgen
data_Yb2Ir3Rh(PbO7)2
_symmetry_space_group_name_H-M   'P 1'
_cell_length_a   7.29643528
_cell_length_b   7.25850610
_cell_length_c   7.25850716
_cell_angle_alpha   59.62933366
_cell_angle_beta   59.74167147
_cell_angle_gamma   59.74166923
_symmetry_Int_Tables_number   1
_chemical_formula_structural   Yb2Ir3Rh(PbO7)2
_chemical_formula_sum   'Yb2 Ir3 Rh1 Pb2 O14'
_cell_volume   269.99864988
_cell_formula_units_Z   1
loop_
 _symmetry_equiv_pos_site_id
 _symmetry_equiv_pos_as_xyz
  1  'x, y, z'
loop_
 _atom_site_type_symbol
 _atom_site_label
 _atom_site_symmetry_multiplicity
 _atom_site_fract_x
 _atom_site_fract_y
 _atom_site_fract_z
 _atom_site_occupancy
  Yb  Yb0  1  0.625000  0.125000  0.125000  1
  Yb  Yb1  1  0.125000  0.125000  0.125000  1
  Ir  Ir2  1  0.125000  0.625000  0.625000  1
  Ir  Ir3  1  0.625000  0.125000  0.625000  1
  Ir  Ir4  1  0.625000  0.625000  0.125000  1
  Rh  Rh5  1  0.625000  0.625000  0.625000  1
  Pb  Pb6  1  0.125000  0.625000  0.125000  1
  Pb  Pb7  1  0.125000  0.125000  0.625000  1
  O  O8  1  0.712164  0.699250  0.291964  1
  O  O9  1  0.296360  0.298500  0.696112  1
  O  O10  1  0.712164  0.291964  0.699250  1
  O  O11  1  0.296360  0.696112  0.298500  1
  O  O12  1  0.291571  0.706746  0.706746  1
  O  O13  1  0.709286  0.295917  0.295917  1
  O  O14  1  0.537836  0.550750  0.958036  1
  O  O15  1  0.953640  0.951500  0.553888  1
  O  O16  1  0.537836  0.958036  0.550750  1
  O  O17  1  0.953640  0.553888  0.951500  1
  O  O18  1  0.958429  0.543254  0.543254  1
  O  O19  1  0.540714  0.954083  0.954083  1
  O  O20  1  0.248955  0.249551  0.249551  1
  O  O21  1  0.001045  0.000449  0.000449  1
