# generated using pymatgen
data_Th(NpSe2)3
_symmetry_space_group_name_H-M   'P 1'
_cell_length_a   11.33907500
_cell_length_b   4.12101500
_cell_length_c   10.93443500
_cell_angle_alpha   90.00000000
_cell_angle_beta   90.00000000
_cell_angle_gamma   90.00000000
_symmetry_Int_Tables_number   1
_chemical_formula_structural   Th(NpSe2)3
_chemical_formula_sum   'Th2 Np6 Se12'
_cell_volume   510.94972579
_cell_formula_units_Z   2
loop_
 _symmetry_equiv_pos_site_id
 _symmetry_equiv_pos_as_xyz
  1  'x, y, z'
loop_
 _atom_site_type_symbol
 _atom_site_label
 _atom_site_symmetry_multiplicity
 _atom_site_fract_x
 _atom_site_fract_y
 _atom_site_fract_z
 _atom_site_occupancy
  Th  Th0  1  0.307243  0.250000  0.499760  1
  Th  Th1  1  0.807243  0.250000  0.000240  1
  Np  Np2  1  0.488831  0.250000  0.184635  1
  Np  Np3  1  0.988831  0.250000  0.315365  1
  Np  Np4  1  0.509061  0.750000  0.815299  1
  Np  Np5  1  0.009061  0.750000  0.684701  1
  Np  Np6  1  0.694195  0.750000  0.492952  1
  Np  Np7  1  0.194195  0.750000  0.007048  1
  Se  Se8  1  0.550464  0.250000  0.627232  1
  Se  Se9  1  0.050464  0.250000  0.872768  1
  Se  Se10  1  0.452145  0.750000  0.371270  1
  Se  Se11  1  0.952145  0.750000  0.128730  1
  Se  Se12  1  0.619671  0.750000  0.056846  1
  Se  Se13  1  0.119671  0.750000  0.443154  1
  Se  Se14  1  0.376245  0.250000  0.942895  1
  Se  Se15  1  0.876245  0.250000  0.557105  1
  Se  Se16  1  0.728244  0.250000  0.293992  1
  Se  Se17  1  0.228244  0.250000  0.206008  1
  Se  Se18  1  0.273900  0.750000  0.698761  1
  Se  Se19  1  0.773900  0.750000  0.801239  1
