# generated using pymatgen
data_Ba3NdLu3O9
_symmetry_space_group_name_H-M   'P 1'
_cell_length_a   9.15132630
_cell_length_b   9.15132746
_cell_length_c   9.15132751
_cell_angle_alpha   39.09134417
_cell_angle_beta   39.09133981
_cell_angle_gamma   39.09135037
_symmetry_Int_Tables_number   1
_chemical_formula_structural   Ba3NdLu3O9
_chemical_formula_sum   'Ba3 Nd1 Lu3 O9'
_cell_volume   274.08794757
_cell_formula_units_Z   1
loop_
 _symmetry_equiv_pos_site_id
 _symmetry_equiv_pos_as_xyz
  1  'x, y, z'
loop_
 _atom_site_type_symbol
 _atom_site_label
 _atom_site_symmetry_multiplicity
 _atom_site_fract_x
 _atom_site_fract_y
 _atom_site_fract_z
 _atom_site_occupancy
  Ba  Ba0  1  0.997127  0.997127  0.997127  1
  Ba  Ba1  1  0.163759  0.163759  0.163759  1
  Ba  Ba2  1  0.593644  0.593644  0.593644  1
  Nd  Nd3  1  0.423038  0.423038  0.423038  1
  Lu  Lu4  1  0.861527  0.861527  0.861527  1
  Lu  Lu5  1  0.736450  0.736450  0.736450  1
  Lu  Lu6  1  0.296026  0.296026  0.296026  1
  O  O7  1  0.033857  0.122120  0.583913  1
  O  O8  1  0.122120  0.583913  0.033857  1
  O  O9  1  0.583913  0.033857  0.122120  1
  O  O10  1  0.569437  0.098332  0.732429  1
  O  O11  1  0.098332  0.732429  0.569437  1
  O  O12  1  0.732429  0.569437  0.098332  1
  O  O13  1  0.497133  0.022193  0.537716  1
  O  O14  1  0.022193  0.537716  0.497133  1
  O  O15  1  0.537716  0.497133  0.022193  1
