# generated using pymatgen
data_Ca7Pr5(GeRh)8
_symmetry_space_group_name_H-M   'P 1'
_cell_length_a   5.77738246
_cell_length_b   8.01566143
_cell_length_c   13.51692241
_cell_angle_alpha   89.91434691
_cell_angle_beta   90.15716613
_cell_angle_gamma   90.01708575
_symmetry_Int_Tables_number   1
_chemical_formula_structural   Ca7Pr5(GeRh)8
_chemical_formula_sum   'Ca7 Pr5 Ge8 Rh8'
_cell_volume   625.95940095
_cell_formula_units_Z   1
loop_
 _symmetry_equiv_pos_site_id
 _symmetry_equiv_pos_as_xyz
  1  'x, y, z'
loop_
 _atom_site_type_symbol
 _atom_site_label
 _atom_site_symmetry_multiplicity
 _atom_site_fract_x
 _atom_site_fract_y
 _atom_site_fract_z
 _atom_site_occupancy
  Ca  Ca0  1  0.134270  0.395444  0.098506  1
  Ca  Ca1  1  0.861948  0.600873  0.897190  1
  Ca  Ca2  1  0.863674  0.606265  0.599071  1
  Ca  Ca3  1  0.861484  0.894581  0.401921  1
  Ca  Ca4  1  0.134959  0.393790  0.403097  1
  Ca  Ca5  1  0.136820  0.104914  0.599015  1
  Ca  Ca6  1  0.144870  0.108959  0.897464  1
  Pr  Pr7  1  0.633596  0.254343  0.251617  1
  Pr  Pr8  1  0.363267  0.749673  0.749889  1
  Pr  Pr9  1  0.362712  0.750176  0.254303  1
  Pr  Pr10  1  0.638322  0.249499  0.748112  1
  Pr  Pr11  1  0.861234  0.891780  0.096476  1
  Ge  Ge12  1  0.138291  0.104421  0.251181  1
  Ge  Ge13  1  0.860973  0.895994  0.749863  1
  Ge  Ge14  1  0.859903  0.605660  0.250653  1
  Ge  Ge15  1  0.142398  0.396819  0.748616  1
  Ge  Ge16  1  0.617940  0.251483  0.999883  1
  Ge  Ge17  1  0.377728  0.748094  0.999393  1
  Ge  Ge18  1  0.385491  0.749914  0.500735  1
  Ge  Ge19  1  0.614509  0.248847  0.500618  1
  Rh  Rh20  1  0.372889  0.029214  0.091645  1
  Rh  Rh21  1  0.632034  0.969939  0.910128  1
  Rh  Rh22  1  0.628542  0.971221  0.590737  1
  Rh  Rh23  1  0.629290  0.527743  0.409897  1
  Rh  Rh24  1  0.368212  0.028712  0.410659  1
  Rh  Rh25  1  0.372838  0.470645  0.589976  1
  Rh  Rh26  1  0.373070  0.469795  0.909575  1
  Rh  Rh27  1  0.628733  0.531202  0.089777  1
