# generated using pymatgen
data_HoTm3Co12(Ni2P3)4
_symmetry_space_group_name_H-M   'P 1'
_cell_length_a   3.66332500
_cell_length_b   10.23310308
_cell_length_c   11.79564610
_cell_angle_alpha   89.98530409
_cell_angle_beta   90.00000000
_cell_angle_gamma   90.00000000
_symmetry_Int_Tables_number   1
_chemical_formula_structural   HoTm3Co12(Ni2P3)4
_chemical_formula_sum   'Ho1 Tm3 Co12 Ni8 P12'
_cell_volume   442.18552170
_cell_formula_units_Z   1
loop_
 _symmetry_equiv_pos_site_id
 _symmetry_equiv_pos_as_xyz
  1  'x, y, z'
loop_
 _atom_site_type_symbol
 _atom_site_label
 _atom_site_symmetry_multiplicity
 _atom_site_fract_x
 _atom_site_fract_y
 _atom_site_fract_z
 _atom_site_occupancy
  Ho  Ho0  1  0.750000  0.081681  0.796390  1
  Tm  Tm1  1  0.250000  0.581638  0.703591  1
  Tm  Tm2  1  0.250000  0.918359  0.203636  1
  Tm  Tm3  1  0.750000  0.418380  0.296369  1
  Co  Co4  1  0.250000  0.221788  0.176325  1
  Co  Co5  1  0.250000  0.278583  0.676108  1
  Co  Co6  1  0.750000  0.778074  0.823750  1
  Co  Co7  1  0.750000  0.721761  0.323686  1
  Co  Co8  1  0.250000  0.880850  0.697715  1
  Co  Co9  1  0.250000  0.618730  0.197924  1
  Co  Co10  1  0.750000  0.118737  0.302057  1
  Co  Co11  1  0.750000  0.381512  0.802095  1
  Co  Co12  1  0.250000  0.467389  0.932378  1
  Co  Co13  1  0.250000  0.032763  0.432169  1
  Co  Co14  1  0.750000  0.532780  0.067704  1
  Co  Co15  1  0.750000  0.967068  0.567394  1
  Ni  Ni16  1  0.250000  0.713614  0.989942  1
  Ni  Ni17  1  0.250000  0.786287  0.489844  1
  Ni  Ni18  1  0.750000  0.286409  0.010184  1
  Ni  Ni19  1  0.750000  0.213660  0.510145  1
  Ni  Ni20  1  0.250000  0.408433  0.484326  1
  Ni  Ni21  1  0.250000  0.091556  0.985014  1
  Ni  Ni22  1  0.750000  0.591571  0.515617  1
  Ni  Ni23  1  0.750000  0.908298  0.015798  1
  P  P24  1  0.250000  0.419841  0.113442  1
  P  P25  1  0.250000  0.080149  0.612941  1
  P  P26  1  0.750000  0.580146  0.886574  1
  P  P27  1  0.750000  0.919814  0.386517  1
  P  P28  1  0.250000  0.271597  0.865730  1
  P  P29  1  0.250000  0.229046  0.365537  1
  P  P30  1  0.750000  0.729020  0.134464  1
  P  P31  1  0.750000  0.770979  0.634470  1
  P  P32  1  0.250000  0.604280  0.387244  1
  P  P33  1  0.250000  0.895209  0.887440  1
  P  P34  1  0.750000  0.395715  0.612769  1
  P  P35  1  0.750000  0.104282  0.112708  1
