# generated using pymatgen
data_Lu20(Ir3Ru)3
_symmetry_space_group_name_H-M   'P 1'
_cell_length_a   10.60891400
_cell_length_b   10.60891400
_cell_length_c   6.30663900
_cell_angle_alpha   90.00000000
_cell_angle_beta   90.00000000
_cell_angle_gamma   90.00000000
_symmetry_Int_Tables_number   1
_chemical_formula_structural   Lu20(Ir3Ru)3
_chemical_formula_sum   'Lu20 Ir9 Ru3'
_cell_volume   709.80626762
_cell_formula_units_Z   1
loop_
 _symmetry_equiv_pos_site_id
 _symmetry_equiv_pos_as_xyz
  1  'x, y, z'
loop_
 _atom_site_type_symbol
 _atom_site_label
 _atom_site_symmetry_multiplicity
 _atom_site_fract_x
 _atom_site_fract_y
 _atom_site_fract_z
 _atom_site_occupancy
  Lu  Lu0  1  0.293644  0.086560  0.377829  1
  Lu  Lu1  1  0.293663  0.913653  0.878143  1
  Lu  Lu2  1  0.706337  0.086347  0.878143  1
  Lu  Lu3  1  0.706356  0.913440  0.377829  1
  Lu  Lu4  1  0.586347  0.793663  0.878143  1
  Lu  Lu5  1  0.586560  0.206356  0.377829  1
  Lu  Lu6  1  0.413440  0.793644  0.377829  1
  Lu  Lu7  1  0.413653  0.206337  0.878143  1
  Lu  Lu8  1  0.207990  0.412787  0.623698  1
  Lu  Lu9  1  0.207707  0.587265  0.120642  1
  Lu  Lu10  1  0.792293  0.412735  0.120642  1
  Lu  Lu11  1  0.792010  0.587213  0.623698  1
  Lu  Lu12  1  0.912735  0.707707  0.120642  1
  Lu  Lu13  1  0.912787  0.292010  0.623698  1
  Lu  Lu14  1  0.087213  0.707990  0.623698  1
  Lu  Lu15  1  0.087265  0.292293  0.120642  1
  Lu  Lu16  1  0.000000  0.000000  0.499515  1
  Lu  Lu17  1  0.000000  0.000000  0.999623  1
  Lu  Lu18  1  0.500000  0.500000  0.999623  1
  Lu  Lu19  1  0.500000  0.500000  0.499515  1
  Ir  Ir20  1  0.847349  0.153012  0.249913  1
  Ir  Ir21  1  0.846987  0.847178  0.749559  1
  Ir  Ir22  1  0.153013  0.152822  0.749559  1
  Ir  Ir23  1  0.152651  0.846988  0.249913  1
  Ir  Ir24  1  0.652822  0.346987  0.749559  1
  Ir  Ir25  1  0.653012  0.652651  0.249913  1
  Ir  Ir26  1  0.346988  0.347349  0.249913  1
  Ir  Ir27  1  0.347178  0.653013  0.749559  1
  Ir  Ir28  1  0.000000  0.500000  0.375900  1
  Ru  Ru29  1  0.500000  0.000000  0.125473  1
  Ru  Ru30  1  0.500000  0.000000  0.625469  1
  Ru  Ru31  1  0.000000  0.500000  0.875741  1
