# generated using pymatgen
data_Tb16Cd4Os3Pd
_symmetry_space_group_name_H-M   'P 1'
_cell_length_a   9.59152969
_cell_length_b   9.78059588
_cell_length_c   9.78059600
_cell_angle_alpha   59.99999960
_cell_angle_beta   59.34576824
_cell_angle_gamma   59.34576807
_symmetry_Int_Tables_number   1
_chemical_formula_structural   Tb16Cd4Os3Pd
_chemical_formula_sum   'Tb16 Cd4 Os3 Pd1'
_cell_volume   642.29916766
_cell_formula_units_Z   1
loop_
 _symmetry_equiv_pos_site_id
 _symmetry_equiv_pos_as_xyz
  1  'x, y, z'
loop_
 _atom_site_type_symbol
 _atom_site_label
 _atom_site_symmetry_multiplicity
 _atom_site_fract_x
 _atom_site_fract_y
 _atom_site_fract_z
 _atom_site_occupancy
  Tb  Tb0  1  0.345535  0.351777  0.351777  1
  Tb  Tb1  1  0.345535  0.351777  0.950912  1
  Tb  Tb2  1  0.345535  0.950912  0.351777  1
  Tb  Tb3  1  0.970298  0.343234  0.343234  1
  Tb  Tb4  1  0.816023  0.189746  0.189746  1
  Tb  Tb5  1  0.186066  0.810559  0.810559  1
  Tb  Tb6  1  0.186066  0.810559  0.192817  1
  Tb  Tb7  1  0.816023  0.189746  0.804484  1
  Tb  Tb8  1  0.186066  0.192817  0.810559  1
  Tb  Tb9  1  0.816023  0.804484  0.189746  1
  Tb  Tb10  1  0.933179  0.563671  0.563671  1
  Tb  Tb11  1  0.553694  0.939780  0.939780  1
  Tb  Tb12  1  0.553694  0.939780  0.566745  1
  Tb  Tb13  1  0.933179  0.563671  0.939479  1
  Tb  Tb14  1  0.553694  0.566745  0.939780  1
  Tb  Tb15  1  0.933179  0.939479  0.563671  1
  Cd  Cd16  1  0.580856  0.578845  0.578845  1
  Cd  Cd17  1  0.580856  0.578845  0.261454  1
  Cd  Cd18  1  0.580856  0.261454  0.578845  1
  Cd  Cd19  1  0.256414  0.581195  0.581195  1
  Os  Os20  1  0.150836  0.135716  0.135716  1
  Os  Os21  1  0.150836  0.135716  0.577733  1
  Os  Os22  1  0.150836  0.577733  0.135716  1
  Pd  Pd23  1  0.574720  0.141760  0.141760  1
