# generated using pymatgen
data_LiTi6Zn5Ir12
_symmetry_space_group_name_H-M   'P 1'
_cell_length_a   4.33555900
_cell_length_b   6.10201000
_cell_length_c   12.97136900
_cell_angle_alpha   90.00000000
_cell_angle_beta   89.99857522
_cell_angle_gamma   90.00000000
_symmetry_Int_Tables_number   1
_chemical_formula_structural   LiTi6Zn5Ir12
_chemical_formula_sum   'Li1 Ti6 Zn5 Ir12'
_cell_volume   343.16566582
_cell_formula_units_Z   1
loop_
 _symmetry_equiv_pos_site_id
 _symmetry_equiv_pos_as_xyz
  1  'x, y, z'
loop_
 _atom_site_type_symbol
 _atom_site_label
 _atom_site_symmetry_multiplicity
 _atom_site_fract_x
 _atom_site_fract_y
 _atom_site_fract_z
 _atom_site_occupancy
  Li  Li0  1  0.500395  0.500001  0.833349  1
  Ti  Ti1  1  0.000010  0.500000  0.998731  1
  Ti  Ti2  1  0.499605  0.000000  0.164239  1
  Ti  Ti3  1  0.999606  0.500000  0.333335  1
  Ti  Ti4  1  0.499998  0.999999  0.502423  1
  Ti  Ti5  1  0.000413  0.500000  0.667936  1
  Ti  Ti6  1  0.500393  0.000000  0.833334  1
  Zn  Zn7  1  0.000006  0.000000  0.999023  1
  Zn  Zn8  1  0.499541  0.500001  0.166141  1
  Zn  Zn9  1  0.999576  0.999998  0.333338  1
  Zn  Zn10  1  0.499993  0.500001  0.500510  1
  Zn  Zn11  1  0.000433  0.999999  0.667637  1
  Ir  Ir12  1  0.500019  0.252882  0.997911  1
  Ir  Ir13  1  0.500018  0.747118  0.997912  1
  Ir  Ir14  1  0.999598  0.249445  0.166793  1
  Ir  Ir15  1  0.999598  0.750555  0.166793  1
  Ir  Ir16  1  0.499602  0.249538  0.333325  1
  Ir  Ir17  1  0.499602  0.750461  0.333325  1
  Ir  Ir18  1  0.999992  0.249454  0.499880  1
  Ir  Ir19  1  0.999992  0.750546  0.499880  1
  Ir  Ir20  1  0.500409  0.252885  0.668759  1
  Ir  Ir21  1  0.500408  0.747114  0.668759  1
  Ir  Ir22  1  0.000392  0.255151  0.833333  1
  Ir  Ir23  1  0.000392  0.744849  0.833333  1
