# generated using pymatgen
data_TbHo3Al18ZnRh5
_symmetry_space_group_name_H-M   'P 1'
_cell_length_a   7.58180822
_cell_length_b   7.58104556
_cell_length_c   9.45373381
_cell_angle_alpha   90.00888026
_cell_angle_beta   89.98294700
_cell_angle_gamma   119.47652691
_symmetry_Int_Tables_number   1
_chemical_formula_structural   TbHo3Al18ZnRh5
_chemical_formula_sum   'Tb1 Ho3 Al18 Zn1 Rh5'
_cell_volume   473.04520393
_cell_formula_units_Z   1
loop_
 _symmetry_equiv_pos_site_id
 _symmetry_equiv_pos_as_xyz
  1  'x, y, z'
loop_
 _atom_site_type_symbol
 _atom_site_label
 _atom_site_symmetry_multiplicity
 _atom_site_fract_x
 _atom_site_fract_y
 _atom_site_fract_z
 _atom_site_occupancy
  Tb  Tb0  1  0.324484  0.004661  0.751144  1
  Ho  Ho1  1  0.995422  0.675541  0.249047  1
  Ho  Ho2  1  0.004561  0.324503  0.750860  1
  Ho  Ho3  1  0.675771  0.995430  0.249095  1
  Al  Al4  1  0.134694  0.134850  0.256960  1
  Al  Al5  1  0.864666  0.865002  0.742821  1
  Al  Al6  1  0.001880  0.344354  0.079421  1
  Al  Al7  1  0.997658  0.654997  0.921145  1
  Al  Al8  1  0.000817  0.663958  0.571901  1
  Al  Al9  1  0.335598  0.998668  0.426989  1
  Al  Al10  1  0.998666  0.335691  0.427453  1
  Al  Al11  1  0.664647  0.001291  0.572016  1
  Al  Al12  1  0.656040  0.998011  0.921200  1
  Al  Al13  1  0.344629  0.001913  0.079968  1
  Al  Al14  1  0.332444  0.332789  0.550523  1
  Al  Al15  1  0.667498  0.667548  0.448537  1
  Al  Al16  1  0.658479  0.658501  0.058429  1
  Al  Al17  1  0.341767  0.342155  0.942494  1
  Al  Al18  1  0.338810  0.551969  0.251645  1
  Al  Al19  1  0.661555  0.448615  0.748376  1
  Al  Al20  1  0.552003  0.338967  0.251668  1
  Al  Al21  1  0.448133  0.660724  0.748359  1
  Zn  Zn22  1  0.000116  0.000058  0.000028  1
  Rh  Rh23  1  0.672117  0.328100  0.000322  1
  Rh  Rh24  1  0.328011  0.671915  0.000299  1
  Rh  Rh25  1  0.328415  0.671724  0.499848  1
  Rh  Rh26  1  0.671587  0.328312  0.499753  1
  Rh  Rh27  1  0.999535  0.999751  0.499697  1
