# generated using pymatgen
data_YEr5(RuO7)2
_symmetry_space_group_name_H-M   'P 1'
_cell_length_a   6.39845735
_cell_length_b   6.39845650
_cell_length_c   7.37495200
_cell_angle_alpha   90.00064895
_cell_angle_beta   89.99935154
_cell_angle_gamma   108.94636594
_symmetry_Int_Tables_number   1
_chemical_formula_structural   YEr5(RuO7)2
_chemical_formula_sum   'Y1 Er5 Ru2 O14'
_cell_volume   285.57457183
_cell_formula_units_Z   1
loop_
 _symmetry_equiv_pos_site_id
 _symmetry_equiv_pos_as_xyz
  1  'x, y, z'
loop_
 _atom_site_type_symbol
 _atom_site_label
 _atom_site_symmetry_multiplicity
 _atom_site_fract_x
 _atom_site_fract_y
 _atom_site_fract_z
 _atom_site_occupancy
  Y  Y0  1  0.520074  0.520074  0.250000  1
  Er  Er1  1  0.476424  0.476424  0.750000  1
  Er  Er2  1  0.000607  0.463585  0.497048  1
  Er  Er3  1  0.536367  0.999213  0.504048  1
  Er  Er4  1  0.999213  0.536367  0.995952  1
  Er  Er5  1  0.463585  0.000607  0.002952  1
  Ru  Ru6  1  0.000589  0.000589  0.250000  1
  Ru  Ru7  1  0.999302  0.999302  0.750000  1
  O  O8  1  0.064446  0.316366  0.215106  1
  O  O9  1  0.684150  0.935634  0.784996  1
  O  O10  1  0.935634  0.684150  0.715004  1
  O  O11  1  0.316366  0.064446  0.284894  1
  O  O12  1  0.674762  0.922757  0.221865  1
  O  O13  1  0.079816  0.325966  0.777913  1
  O  O14  1  0.325966  0.079816  0.722087  1
  O  O15  1  0.922757  0.674762  0.278135  1
  O  O16  1  0.368567  0.631294  0.502532  1
  O  O17  1  0.631294  0.368567  0.997468  1
  O  O18  1  0.361517  0.638550  0.997587  1
  O  O19  1  0.638550  0.361517  0.502413  1
  O  O20  1  0.927248  0.072765  0.499977  1
  O  O21  1  0.072765  0.927248  0.000023  1
