# generated using pymatgen
data_Tm4CoSi12Ni19
_symmetry_space_group_name_H-M   'P 1'
_cell_length_a   3.77796100
_cell_length_b   6.57066932
_cell_length_c   18.68598202
_cell_angle_alpha   90.11770689
_cell_angle_beta   90.00000000
_cell_angle_gamma   90.00000000
_symmetry_Int_Tables_number   1
_chemical_formula_structural   Tm4CoSi12Ni19
_chemical_formula_sum   'Tm4 Co1 Si12 Ni19'
_cell_volume   463.85483909
_cell_formula_units_Z   1
loop_
 _symmetry_equiv_pos_site_id
 _symmetry_equiv_pos_as_xyz
  1  'x, y, z'
loop_
 _atom_site_type_symbol
 _atom_site_label
 _atom_site_symmetry_multiplicity
 _atom_site_fract_x
 _atom_site_fract_y
 _atom_site_fract_z
 _atom_site_occupancy
  Tm  Tm0  1  0.250000  0.875090  0.356179  1
  Tm  Tm1  1  0.750000  0.124303  0.643959  1
  Tm  Tm2  1  0.750000  0.376047  0.144277  1
  Tm  Tm3  1  0.250000  0.623849  0.856074  1
  Co  Co4  1  0.250000  0.064978  0.205396  1
  Si  Si5  1  0.250000  0.081976  0.086515  1
  Si  Si6  1  0.750000  0.919853  0.913596  1
  Si  Si7  1  0.750000  0.579445  0.413740  1
  Si  Si8  1  0.250000  0.419799  0.586561  1
  Si  Si9  1  0.250000  0.656333  0.075141  1
  Si  Si10  1  0.750000  0.346008  0.925608  1
  Si  Si11  1  0.750000  0.155419  0.425193  1
  Si  Si12  1  0.250000  0.844952  0.574460  1
  Si  Si13  1  0.250000  0.373601  0.260805  1
  Si  Si14  1  0.750000  0.620919  0.737818  1
  Si  Si15  1  0.750000  0.880184  0.238075  1
  Si  Si16  1  0.250000  0.121309  0.762160  1
  Ni  Ni17  1  0.750000  0.929107  0.793319  1
  Ni  Ni18  1  0.750000  0.569817  0.293562  1
  Ni  Ni19  1  0.250000  0.429486  0.707131  1
  Ni  Ni20  1  0.250000  0.615161  0.483937  1
  Ni  Ni21  1  0.750000  0.384476  0.516032  1
  Ni  Ni22  1  0.750000  0.116349  0.015673  1
  Ni  Ni23  1  0.250000  0.885259  0.984194  1
  Ni  Ni24  1  0.250000  0.682369  0.199864  1
  Ni  Ni25  1  0.750000  0.315581  0.800920  1
  Ni  Ni26  1  0.750000  0.184154  0.300206  1
  Ni  Ni27  1  0.250000  0.816059  0.699087  1
  Ni  Ni28  1  0.250000  0.354710  0.383330  1
  Ni  Ni29  1  0.750000  0.645766  0.615594  1
  Ni  Ni30  1  0.750000  0.859633  0.116795  1
  Ni  Ni31  1  0.250000  0.145491  0.884366  1
  Ni  Ni32  1  0.250000  0.366904  0.005506  1
  Ni  Ni33  1  0.750000  0.635233  0.995259  1
  Ni  Ni34  1  0.750000  0.866449  0.494587  1
  Ni  Ni35  1  0.250000  0.133930  0.505082  1
