# generated using pymatgen
data_Ho6Er2Sc11Si16Ru
_symmetry_space_group_name_H-M   'P 1'
_cell_length_a   6.98607003
_cell_length_b   7.34302015
_cell_length_c   13.86462607
_cell_angle_alpha   89.98948812
_cell_angle_beta   89.99550427
_cell_angle_gamma   90.09019495
_symmetry_Int_Tables_number   1
_chemical_formula_structural   Ho6Er2Sc11Si16Ru
_chemical_formula_sum   'Ho6 Er2 Sc11 Si16 Ru1'
_cell_volume   711.23851903
_cell_formula_units_Z   1
loop_
 _symmetry_equiv_pos_site_id
 _symmetry_equiv_pos_as_xyz
  1  'x, y, z'
loop_
 _atom_site_type_symbol
 _atom_site_label
 _atom_site_symmetry_multiplicity
 _atom_site_fract_x
 _atom_site_fract_y
 _atom_site_fract_z
 _atom_site_occupancy
  Ho  Ho0  1  0.488620  0.673203  0.902374  1
  Ho  Ho1  1  0.992579  0.817969  0.598902  1
  Ho  Ho2  1  0.511189  0.323331  0.094847  1
  Ho  Ho3  1  0.012005  0.178290  0.406569  1
  Ho  Ho4  1  0.511174  0.323357  0.405141  1
  Ho  Ho5  1  0.488628  0.673198  0.597639  1
  Er  Er6  1  0.012017  0.178318  0.093467  1
  Er  Er7  1  0.992585  0.817854  0.901043  1
  Sc  Sc8  1  0.841169  0.495837  0.249982  1
  Sc  Sc9  1  0.341767  0.003588  0.249986  1
  Sc  Sc10  1  0.657539  0.995914  0.750016  1
  Sc  Sc11  1  0.325974  0.177026  0.627133  1
  Sc  Sc12  1  0.672090  0.824726  0.374381  1
  Sc  Sc13  1  0.172735  0.674012  0.376583  1
  Sc  Sc14  1  0.672094  0.824740  0.125602  1
  Sc  Sc15  1  0.826182  0.330913  0.628269  1
  Sc  Sc16  1  0.325963  0.177023  0.872890  1
  Sc  Sc17  1  0.826201  0.330884  0.871741  1
  Sc  Sc18  1  0.172713  0.674058  0.123395  1
  Si  Si19  1  0.028959  0.116413  0.750031  1
  Si  Si20  1  0.973143  0.885905  0.249977  1
  Si  Si21  1  0.469161  0.615290  0.249996  1
  Si  Si22  1  0.515809  0.395399  0.750010  1
  Si  Si23  1  0.284738  0.863220  0.750044  1
  Si  Si24  1  0.716582  0.129807  0.249958  1
  Si  Si25  1  0.214742  0.370621  0.249961  1
  Si  Si26  1  0.794658  0.629660  0.750048  1
  Si  Si27  1  0.157093  0.465450  0.546993  1
  Si  Si28  1  0.843067  0.535788  0.463316  1
  Si  Si29  1  0.344933  0.964809  0.463105  1
  Si  Si30  1  0.843121  0.535789  0.036676  1
  Si  Si31  1  0.658961  0.034458  0.539801  1
  Si  Si32  1  0.157038  0.465490  0.953014  1
  Si  Si33  1  0.659113  0.034422  0.960189  1
  Si  Si34  1  0.344774  0.964844  0.036900  1
  Ru  Ru35  1  0.150885  0.498395  0.750023  1
