# generated using pymatgen
data_DyHoTm2MnRu7
_symmetry_space_group_name_H-M   'P 1'
_cell_length_a   5.31748675
_cell_length_b   5.32221365
_cell_length_c   8.62616501
_cell_angle_alpha   90.00000098
_cell_angle_beta   89.97170283
_cell_angle_gamma   59.97056866
_symmetry_Int_Tables_number   1
_chemical_formula_structural   DyHoTm2MnRu7
_chemical_formula_sum   'Dy1 Ho1 Tm2 Mn1 Ru7'
_cell_volume   211.35774580
_cell_formula_units_Z   1
loop_
 _symmetry_equiv_pos_site_id
 _symmetry_equiv_pos_as_xyz
  1  'x, y, z'
loop_
 _atom_site_type_symbol
 _atom_site_label
 _atom_site_symmetry_multiplicity
 _atom_site_fract_x
 _atom_site_fract_y
 _atom_site_fract_z
 _atom_site_occupancy
  Dy  Dy0  1  0.666605  0.666698  0.434894  1
  Ho  Ho1  1  0.333394  0.333303  0.565146  1
  Tm  Tm2  1  0.666555  0.666723  0.067049  1
  Tm  Tm3  1  0.333439  0.333280  0.932925  1
  Mn  Mn4  1  0.000004  0.999998  0.999999  1
  Ru  Ru5  1  0.999994  0.000003  0.500023  1
  Ru  Ru6  1  0.828749  0.342633  0.755268  1
  Ru  Ru7  1  0.342666  0.828666  0.755260  1
  Ru  Ru8  1  0.828749  0.828617  0.755268  1
  Ru  Ru9  1  0.171267  0.657347  0.244720  1
  Ru  Ru10  1  0.657311  0.171345  0.244730  1
  Ru  Ru11  1  0.171267  0.171386  0.244720  1
