# generated using pymatgen
data_Ca4HgPd4Pb
_symmetry_space_group_name_H-M   'P 1'
_cell_length_a   5.89486012
_cell_length_b   5.89486052
_cell_length_c   8.32765114
_cell_angle_alpha   76.53057444
_cell_angle_beta   76.53057249
_cell_angle_gamma   58.09872169
_symmetry_Int_Tables_number   1
_chemical_formula_structural   Ca4HgPd4Pb
_chemical_formula_sum   'Ca4 Hg1 Pd4 Pb1'
_cell_volume   236.79159037
_cell_formula_units_Z   1
loop_
 _symmetry_equiv_pos_site_id
 _symmetry_equiv_pos_as_xyz
  1  'x, y, z'
loop_
 _atom_site_type_symbol
 _atom_site_label
 _atom_site_symmetry_multiplicity
 _atom_site_fract_x
 _atom_site_fract_y
 _atom_site_fract_z
 _atom_site_occupancy
  Ca  Ca0  1  0.499547  0.799023  0.351095  1
  Ca  Ca1  1  0.200977  0.500453  0.148905  1
  Ca  Ca2  1  0.500116  0.200626  0.650780  1
  Ca  Ca3  1  0.799374  0.499884  0.849220  1
  Hg  Hg4  1  0.175709  0.824291  0.750000  1
  Pd  Pd5  1  0.724704  0.004192  0.999955  1
  Pd  Pd6  1  0.995808  0.275296  0.500045  1
  Pd  Pd7  1  0.272103  0.998804  0.996935  1
  Pd  Pd8  1  0.001196  0.727897  0.503065  1
  Pb  Pb9  1  0.830466  0.169534  0.250000  1
