# generated using pymatgen
data_Zr4Tc2IrOs
_symmetry_space_group_name_H-M   'P 1'
_cell_length_a   6.56065500
_cell_length_b   4.66650800
_cell_length_c   9.33502300
_cell_angle_alpha   90.00000000
_cell_angle_beta   90.00015485
_cell_angle_gamma   90.00000000
_symmetry_Int_Tables_number   1
_chemical_formula_structural   Zr4Tc2IrOs
_chemical_formula_sum   'Zr8 Tc4 Ir2 Os2'
_cell_volume   285.79498747
_cell_formula_units_Z   2
loop_
 _symmetry_equiv_pos_site_id
 _symmetry_equiv_pos_as_xyz
  1  'x, y, z'
loop_
 _atom_site_type_symbol
 _atom_site_label
 _atom_site_symmetry_multiplicity
 _atom_site_fract_x
 _atom_site_fract_y
 _atom_site_fract_z
 _atom_site_occupancy
  Zr  Zr0  1  0.999002  0.749999  0.123340  1
  Zr  Zr1  1  0.501094  0.749999  0.123344  1
  Zr  Zr2  1  0.001120  0.249999  0.376655  1
  Zr  Zr3  1  0.499029  0.249999  0.376660  1
  Zr  Zr4  1  0.498685  0.749999  0.626527  1
  Zr  Zr5  1  0.001169  0.749999  0.626532  1
  Zr  Zr6  1  0.501193  0.249999  0.873467  1
  Zr  Zr7  1  0.998711  0.249999  0.873473  1
  Tc  Tc8  1  0.750058  0.249999  0.126141  1
  Tc  Tc9  1  0.250058  0.749999  0.373857  1
  Tc  Tc10  1  0.749940  0.249999  0.623899  1
  Tc  Tc11  1  0.249942  0.749999  0.876103  1
  Ir  Ir12  1  0.250060  0.249999  0.125544  1
  Ir  Ir13  1  0.750062  0.749999  0.374459  1
  Os  Os14  1  0.249939  0.249999  0.624285  1
  Os  Os15  1  0.749940  0.749999  0.875713  1
