# generated using pymatgen
data_Tb3Y6LuSi6
_symmetry_space_group_name_H-M   'P 1'
_cell_length_a   8.45006500
_cell_length_b   8.45006566
_cell_length_c   6.36126600
_cell_angle_alpha   90.00000000
_cell_angle_beta   90.00000000
_cell_angle_gamma   119.99999352
_symmetry_Int_Tables_number   1
_chemical_formula_structural   Tb3Y6LuSi6
_chemical_formula_sum   'Tb3 Y6 Lu1 Si6'
_cell_volume   393.36376254
_cell_formula_units_Z   1
loop_
 _symmetry_equiv_pos_site_id
 _symmetry_equiv_pos_as_xyz
  1  'x, y, z'
loop_
 _atom_site_type_symbol
 _atom_site_label
 _atom_site_symmetry_multiplicity
 _atom_site_fract_x
 _atom_site_fract_y
 _atom_site_fract_z
 _atom_site_occupancy
  Tb  Tb0  1  0.333333  0.666667  0.500000  1
  Tb  Tb1  1  0.666667  0.333333  0.000000  1
  Tb  Tb2  1  0.666667  0.333333  0.500000  1
  Y  Y3  1  0.000320  0.756319  0.750986  1
  Y  Y4  1  0.000320  0.244001  0.249014  1
  Y  Y5  1  0.755999  0.756319  0.249014  1
  Y  Y6  1  0.755999  0.999680  0.750986  1
  Y  Y7  1  0.243681  0.244001  0.750986  1
  Y  Y8  1  0.243681  0.999680  0.249014  1
  Lu  Lu9  1  0.333333  0.666667  0.000000  1
  Si  Si10  1  0.393201  0.997998  0.752560  1
  Si  Si11  1  0.393201  0.395203  0.247440  1
  Si  Si12  1  0.002002  0.606799  0.247440  1
  Si  Si13  1  0.002002  0.395203  0.752560  1
  Si  Si14  1  0.604797  0.606799  0.752560  1
  Si  Si15  1  0.604797  0.997998  0.247440  1
