# generated using pymatgen
data_Sr4MgCd(InAu2)2
_symmetry_space_group_name_H-M   'P 1'
_cell_length_a   4.57541800
_cell_length_b   7.90245708
_cell_length_c   8.99234721
_cell_angle_alpha   89.94033675
_cell_angle_beta   90.00000000
_cell_angle_gamma   90.00000000
_symmetry_Int_Tables_number   1
_chemical_formula_structural   Sr4MgCd(InAu2)2
_chemical_formula_sum   'Sr4 Mg1 Cd1 In2 Au4'
_cell_volume   325.13652072
_cell_formula_units_Z   1
loop_
 _symmetry_equiv_pos_site_id
 _symmetry_equiv_pos_as_xyz
  1  'x, y, z'
loop_
 _atom_site_type_symbol
 _atom_site_label
 _atom_site_symmetry_multiplicity
 _atom_site_fract_x
 _atom_site_fract_y
 _atom_site_fract_z
 _atom_site_occupancy
  Sr  Sr0  1  0.750000  0.968633  0.678391  1
  Sr  Sr1  1  0.250000  0.032722  0.320039  1
  Sr  Sr2  1  0.750000  0.470389  0.815363  1
  Sr  Sr3  1  0.250000  0.531789  0.183129  1
  Mg  Mg4  1  0.250000  0.138591  0.937951  1
  Cd  Cd5  1  0.750000  0.353018  0.434688  1
  In  In6  1  0.250000  0.642974  0.561804  1
  In  In7  1  0.750000  0.858572  0.061204  1
  Au  Au8  1  0.250000  0.774008  0.878043  1
  Au  Au9  1  0.250000  0.265033  0.636183  1
  Au  Au10  1  0.750000  0.734588  0.376607  1
  Au  Au11  1  0.750000  0.229683  0.116595  1
