# generated using pymatgen
data_Tm8MgSc10Si16Ag
_symmetry_space_group_name_H-M   'P 1'
_cell_length_a   6.94107611
_cell_length_b   7.35553413
_cell_length_c   13.90765900
_cell_angle_alpha   90.00000000
_cell_angle_beta   90.00000000
_cell_angle_gamma   89.78732176
_symmetry_Int_Tables_number   1
_chemical_formula_structural   Tm8MgSc10Si16Ag
_chemical_formula_sum   'Tm8 Mg1 Sc10 Si16 Ag1'
_cell_volume   710.05511957
_cell_formula_units_Z   1
loop_
 _symmetry_equiv_pos_site_id
 _symmetry_equiv_pos_as_xyz
  1  'x, y, z'
loop_
 _atom_site_type_symbol
 _atom_site_label
 _atom_site_symmetry_multiplicity
 _atom_site_fract_x
 _atom_site_fract_y
 _atom_site_fract_z
 _atom_site_occupancy
  Tm  Tm0  1  0.010226  0.179767  0.096331  1
  Tm  Tm1  1  0.990053  0.814722  0.902213  1
  Tm  Tm2  1  0.486792  0.673834  0.903258  1
  Tm  Tm3  1  0.990053  0.814722  0.597787  1
  Tm  Tm4  1  0.511640  0.324536  0.095447  1
  Tm  Tm5  1  0.010226  0.179767  0.403669  1
  Tm  Tm6  1  0.511640  0.324536  0.404553  1
  Tm  Tm7  1  0.486792  0.673834  0.596742  1
  Mg  Mg8  1  0.841215  0.492892  0.250000  1
  Sc  Sc9  1  0.341444  0.004642  0.250000  1
  Sc  Sc10  1  0.656689  0.996398  0.750000  1
  Sc  Sc11  1  0.324348  0.182280  0.626832  1
  Sc  Sc12  1  0.672917  0.820409  0.374863  1
  Sc  Sc13  1  0.167407  0.677901  0.374171  1
  Sc  Sc14  1  0.672917  0.820409  0.125137  1
  Sc  Sc15  1  0.836188  0.324903  0.626978  1
  Sc  Sc16  1  0.324348  0.182280  0.873168  1
  Sc  Sc17  1  0.836188  0.324903  0.873022  1
  Sc  Sc18  1  0.167407  0.677901  0.125829  1
  Si  Si19  1  0.026721  0.092840  0.750000  1
  Si  Si20  1  0.971216  0.901786  0.250000  1
  Si  Si21  1  0.463935  0.615133  0.250000  1
  Si  Si22  1  0.535251  0.387116  0.750000  1
  Si  Si23  1  0.288593  0.877767  0.750000  1
  Si  Si24  1  0.710862  0.123620  0.250000  1
  Si  Si25  1  0.222236  0.369829  0.250000  1
  Si  Si26  1  0.777609  0.630667  0.750000  1
  Si  Si27  1  0.163475  0.459788  0.530945  1
  Si  Si28  1  0.838749  0.537449  0.466536  1
  Si  Si29  1  0.342256  0.967236  0.461991  1
  Si  Si30  1  0.838749  0.537449  0.033464  1
  Si  Si31  1  0.658832  0.032511  0.539626  1
  Si  Si32  1  0.163475  0.459788  0.969055  1
  Si  Si33  1  0.658832  0.032511  0.960374  1
  Si  Si34  1  0.342256  0.967236  0.038009  1
  Ag  Ag35  1  0.158462  0.516642  0.750000  1
