# generated using pymatgen
data_Nd6DyP12Rh17
_symmetry_space_group_name_H-M   'P 1'
_cell_length_a   3.99008600
_cell_length_b   11.33866600
_cell_length_c   13.04887900
_cell_angle_alpha   90.00000000
_cell_angle_beta   90.00000000
_cell_angle_gamma   90.00000000
_symmetry_Int_Tables_number   1
_chemical_formula_structural   Nd6DyP12Rh17
_chemical_formula_sum   'Nd6 Dy1 P12 Rh17'
_cell_volume   590.36067811
_cell_formula_units_Z   1
loop_
 _symmetry_equiv_pos_site_id
 _symmetry_equiv_pos_as_xyz
  1  'x, y, z'
loop_
 _atom_site_type_symbol
 _atom_site_label
 _atom_site_symmetry_multiplicity
 _atom_site_fract_x
 _atom_site_fract_y
 _atom_site_fract_z
 _atom_site_occupancy
  Nd  Nd0  1  0.000000  0.500000  0.522418  1
  Nd  Nd1  1  0.500000  0.000000  0.478100  1
  Nd  Nd2  1  0.500000  0.818905  0.206831  1
  Nd  Nd3  1  0.500000  0.181095  0.206831  1
  Nd  Nd4  1  0.000000  0.682850  0.796532  1
  Nd  Nd5  1  0.000000  0.317150  0.796532  1
  Dy  Dy6  1  0.500000  0.500000  0.155256  1
  P  P7  1  0.500000  0.500000  0.880576  1
  P  P8  1  0.000000  0.000000  0.117668  1
  P  P9  1  0.500000  0.500000  0.361573  1
  P  P10  1  0.000000  0.000000  0.651391  1
  P  P11  1  0.500000  0.311411  0.617979  1
  P  P12  1  0.500000  0.688589  0.617979  1
  P  P13  1  0.000000  0.188181  0.385926  1
  P  P14  1  0.000000  0.811819  0.385926  1
  P  P15  1  0.500000  0.852184  0.888920  1
  P  P16  1  0.500000  0.147816  0.888920  1
  P  P17  1  0.000000  0.664022  0.102026  1
  P  P18  1  0.000000  0.335978  0.102026  1
  Rh  Rh19  1  0.000000  0.000000  0.828372  1
  Rh  Rh20  1  0.500000  0.500000  0.702436  1
  Rh  Rh21  1  0.000000  0.000000  0.297198  1
  Rh  Rh22  1  0.000000  0.500000  0.982227  1
  Rh  Rh23  1  0.500000  0.000000  0.017512  1
  Rh  Rh24  1  0.500000  0.327275  0.987928  1
  Rh  Rh25  1  0.500000  0.672725  0.987928  1
  Rh  Rh26  1  0.000000  0.161870  0.002916  1
  Rh  Rh27  1  0.000000  0.838130  0.002916  1
  Rh  Rh28  1  0.500000  0.287552  0.435864  1
  Rh  Rh29  1  0.500000  0.712448  0.435864  1
  Rh  Rh30  1  0.000000  0.203973  0.572698  1
  Rh  Rh31  1  0.000000  0.796027  0.572698  1
  Rh  Rh32  1  0.500000  0.876596  0.709362  1
  Rh  Rh33  1  0.500000  0.123404  0.709362  1
  Rh  Rh34  1  0.000000  0.627058  0.295654  1
  Rh  Rh35  1  0.000000  0.372942  0.295654  1
