# generated using pymatgen
data_Nb8ReSi2B4Mo
_symmetry_space_group_name_H-M   'P 1'
_cell_length_a   7.28823254
_cell_length_b   7.28823233
_cell_length_c   7.28823463
_cell_angle_alpha   129.76481902
_cell_angle_beta   129.76481825
_cell_angle_gamma   73.78301914
_symmetry_Int_Tables_number   1
_chemical_formula_structural   Nb8ReSi2B4Mo
_chemical_formula_sum   'Nb8 Re1 Si2 B4 Mo1'
_cell_volume   223.15316052
_cell_formula_units_Z   1
loop_
 _symmetry_equiv_pos_site_id
 _symmetry_equiv_pos_as_xyz
  1  'x, y, z'
loop_
 _atom_site_type_symbol
 _atom_site_label
 _atom_site_symmetry_multiplicity
 _atom_site_fract_x
 _atom_site_fract_y
 _atom_site_fract_z
 _atom_site_occupancy
  Nb  Nb0  1  0.806683  0.306560  0.836199  1
  Nb  Nb1  1  0.193317  0.693440  0.163801  1
  Nb  Nb2  1  0.470361  0.970484  0.163801  1
  Nb  Nb3  1  0.306560  0.470361  0.499877  1
  Nb  Nb4  1  0.029516  0.193317  0.499877  1
  Nb  Nb5  1  0.529639  0.029516  0.836199  1
  Nb  Nb6  1  0.693440  0.529639  0.500123  1
  Nb  Nb7  1  0.970484  0.806683  0.500123  1
  Re  Re8  1  0.000000  0.000000  0.000000  1
  Si  Si9  1  0.250682  0.250682  0.000000  1
  Si  Si10  1  0.749318  0.749318  0.000000  1
  B  B11  1  0.118591  0.621174  0.739765  1
  B  B12  1  0.881409  0.378826  0.260235  1
  B  B13  1  0.621174  0.881409  0.502584  1
  B  B14  1  0.378826  0.118591  0.497416  1
  Mo  Mo15  1  0.500000  0.500000  0.000000  1
