# generated using pymatgen
data_MnZn6ReN8
_symmetry_space_group_name_H-M   'P 1'
_cell_length_a   6.50598800
_cell_length_b   5.62989669
_cell_length_c   5.33128365
_cell_angle_alpha   89.94338920
_cell_angle_beta   90.00000000
_cell_angle_gamma   90.00000000
_symmetry_Int_Tables_number   1
_chemical_formula_structural   MnZn6ReN8
_chemical_formula_sum   'Mn1 Zn6 Re1 N8'
_cell_volume   195.27437702
_cell_formula_units_Z   1
loop_
 _symmetry_equiv_pos_site_id
 _symmetry_equiv_pos_as_xyz
  1  'x, y, z'
loop_
 _atom_site_type_symbol
 _atom_site_label
 _atom_site_symmetry_multiplicity
 _atom_site_fract_x
 _atom_site_fract_y
 _atom_site_fract_z
 _atom_site_occupancy
  Mn  Mn0  1  0.000000  0.669181  0.228907  1
  Zn  Zn1  1  0.238075  0.826027  0.737935  1
  Zn  Zn2  1  0.235191  0.163102  0.226266  1
  Zn  Zn3  1  0.761925  0.826027  0.737935  1
  Zn  Zn4  1  0.764809  0.163102  0.226266  1
  Zn  Zn5  1  0.000000  0.353010  0.734915  1
  Zn  Zn6  1  0.500000  0.677454  0.225498  1
  Re  Re7  1  0.500000  0.327486  0.728884  1
  N  N8  1  0.769978  0.821709  0.117027  1
  N  N9  1  0.733694  0.174424  0.614705  1
  N  N10  1  0.230022  0.821709  0.117027  1
  N  N11  1  0.266306  0.174424  0.614705  1
  N  N12  1  0.000000  0.368078  0.114245  1
  N  N13  1  0.500000  0.637095  0.617809  1
  N  N14  1  0.000000  0.672896  0.564079  1
  N  N15  1  0.500000  0.324277  0.072315  1
