# generated using pymatgen
data_La5YbU4O19
_symmetry_space_group_name_H-M   'P 1'
_cell_length_a   6.75994555
_cell_length_b   7.73801846
_cell_length_c   8.68280000
_cell_angle_alpha   100.88163926
_cell_angle_beta   97.16946071
_cell_angle_gamma   107.28375714
_symmetry_Int_Tables_number   1
_chemical_formula_structural   La5YbU4O19
_chemical_formula_sum   'La5 Yb1 U4 O19'
_cell_volume   417.87851520
_cell_formula_units_Z   1
loop_
 _symmetry_equiv_pos_site_id
 _symmetry_equiv_pos_as_xyz
  1  'x, y, z'
loop_
 _atom_site_type_symbol
 _atom_site_label
 _atom_site_symmetry_multiplicity
 _atom_site_fract_x
 _atom_site_fract_y
 _atom_site_fract_z
 _atom_site_occupancy
  La  La0  1  0.802364  0.100467  0.602176  1
  La  La1  1  0.404154  0.300379  0.796820  1
  La  La2  1  0.606813  0.704477  0.212927  1
  La  La3  1  0.997458  0.498362  0.983905  1
  La  La4  1  0.189993  0.903131  0.392820  1
  Yb  Yb5  1  0.770761  0.599041  0.601452  1
  U  U6  1  0.605571  0.205966  0.199049  1
  U  U7  1  0.000456  0.004743  0.998364  1
  U  U8  1  0.411875  0.806988  0.814739  1
  U  U9  1  0.199106  0.387493  0.389323  1
  O  O10  1  0.350233  0.064577  0.962708  1
  O  O11  1  0.425278  0.980584  0.652720  1
  O  O12  1  0.048581  0.204941  0.860668  1
  O  O13  1  0.739041  0.372298  0.745916  1
  O  O14  1  0.164383  0.191469  0.535440  1
  O  O15  1  0.369955  0.596808  0.948714  1
  O  O16  1  0.953704  0.263477  0.151892  1
  O  O17  1  0.905922  0.379937  0.444670  1
  O  O18  1  0.748056  0.865377  0.780077  1
  O  O19  1  0.527352  0.436646  0.356037  1
  O  O20  1  0.391671  0.563988  0.625833  1
  O  O21  1  0.237474  0.123865  0.229818  1
  O  O22  1  0.085951  0.732705  0.806649  1
  O  O23  1  0.648349  0.408444  0.069222  1
  O  O24  1  0.854250  0.818959  0.452400  1
  O  O25  1  0.245536  0.615134  0.278462  1
  O  O26  1  0.952755  0.787169  0.116122  1
  O  O27  1  0.565445  0.017147  0.343554  1
  O  O28  1  0.661429  0.953065  0.055761  1
