# generated using pymatgen
data_DyY6(LuSi2)3
_symmetry_space_group_name_H-M   'P 1'
_cell_length_a   8.40218300
_cell_length_b   8.40218368
_cell_length_c   6.30083900
_cell_angle_alpha   90.00000000
_cell_angle_beta   90.00000000
_cell_angle_gamma   119.99999338
_symmetry_Int_Tables_number   1
_chemical_formula_structural   DyY6(LuSi2)3
_chemical_formula_sum   'Dy1 Y6 Lu3 Si6'
_cell_volume   385.22401287
_cell_formula_units_Z   1
loop_
 _symmetry_equiv_pos_site_id
 _symmetry_equiv_pos_as_xyz
  1  'x, y, z'
loop_
 _atom_site_type_symbol
 _atom_site_label
 _atom_site_symmetry_multiplicity
 _atom_site_fract_x
 _atom_site_fract_y
 _atom_site_fract_z
 _atom_site_occupancy
  Dy  Dy0  1  0.333333  0.666667  0.500000  1
  Y  Y1  1  0.999317  0.755385  0.750975  1
  Y  Y2  1  0.999317  0.243932  0.249025  1
  Y  Y3  1  0.756068  0.755385  0.249025  1
  Y  Y4  1  0.756068  0.000683  0.750975  1
  Y  Y5  1  0.244615  0.243932  0.750975  1
  Y  Y6  1  0.244615  0.000683  0.249025  1
  Lu  Lu7  1  0.666667  0.333333  0.000000  1
  Lu  Lu8  1  0.666667  0.333333  0.500000  1
  Lu  Lu9  1  0.333333  0.666667  0.000000  1
  Si  Si10  1  0.396093  0.001807  0.751813  1
  Si  Si11  1  0.396093  0.394285  0.248187  1
  Si  Si12  1  0.998193  0.603907  0.248187  1
  Si  Si13  1  0.998193  0.394285  0.751813  1
  Si  Si14  1  0.605715  0.603907  0.751813  1
  Si  Si15  1  0.605715  0.001807  0.248187  1
