# generated using pymatgen
data_Hf2TiRe2Mo
_symmetry_space_group_name_H-M   'P 1'
_cell_length_a   5.30264119
_cell_length_b   5.30878417
_cell_length_c   8.74463600
_cell_angle_alpha   90.00000000
_cell_angle_beta   90.00000000
_cell_angle_gamma   120.03833560
_symmetry_Int_Tables_number   1
_chemical_formula_structural   Hf2TiRe2Mo
_chemical_formula_sum   'Hf4 Ti2 Re4 Mo2'
_cell_volume   213.10408884
_cell_formula_units_Z   2
loop_
 _symmetry_equiv_pos_site_id
 _symmetry_equiv_pos_as_xyz
  1  'x, y, z'
loop_
 _atom_site_type_symbol
 _atom_site_label
 _atom_site_symmetry_multiplicity
 _atom_site_fract_x
 _atom_site_fract_y
 _atom_site_fract_z
 _atom_site_occupancy
  Hf  Hf0  1  0.333745  0.665968  0.064088  1
  Hf  Hf1  1  0.666255  0.332222  0.564088  1
  Hf  Hf2  1  0.666255  0.332222  0.935912  1
  Hf  Hf3  1  0.333745  0.665968  0.435912  1
  Ti  Ti4  1  0.000000  0.003186  0.000000  1
  Ti  Ti5  1  0.000000  0.003186  0.500000  1
  Re  Re6  1  0.660749  0.829403  0.750000  1
  Re  Re7  1  0.339251  0.168655  0.250000  1
  Re  Re8  1  0.830671  0.169403  0.250000  1
  Re  Re9  1  0.169329  0.338731  0.750000  1
  Mo  Mo10  1  0.830181  0.660618  0.250000  1
  Mo  Mo11  1  0.169819  0.830436  0.750000  1
