# generated using pymatgen
data_Nd3CdIn3NiIr
_symmetry_space_group_name_H-M   'P 1'
_cell_length_a   7.83456600
_cell_length_b   7.83456447
_cell_length_c   4.02347300
_cell_angle_alpha   90.00000000
_cell_angle_beta   90.00000000
_cell_angle_gamma   119.99999799
_symmetry_Int_Tables_number   1
_chemical_formula_structural   Nd3CdIn3NiIr
_chemical_formula_sum   'Nd3 Cd1 In3 Ni1 Ir1'
_cell_volume   213.87574444
_cell_formula_units_Z   1
loop_
 _symmetry_equiv_pos_site_id
 _symmetry_equiv_pos_as_xyz
  1  'x, y, z'
loop_
 _atom_site_type_symbol
 _atom_site_label
 _atom_site_symmetry_multiplicity
 _atom_site_fract_x
 _atom_site_fract_y
 _atom_site_fract_z
 _atom_site_occupancy
  Nd  Nd0  1  0.029540  0.610380  0.500000  1
  Nd  Nd1  1  0.389620  0.419160  0.500000  1
  Nd  Nd2  1  0.580840  0.970460  0.500000  1
  Cd  Cd3  1  0.666667  0.333333  0.000000  1
  In  In4  1  0.242588  0.002430  0.000000  1
  In  In5  1  0.759842  0.757412  0.000000  1
  In  In6  1  0.997570  0.240158  0.000000  1
  Ni  Ni7  1  0.000000  0.000000  0.500000  1
  Ir  Ir8  1  0.333333  0.666667  0.000000  1
