# generated using pymatgen
data_CaLu2(ZnNi2)3
_symmetry_space_group_name_H-M   'P 1'
_cell_length_a   5.15203900
_cell_length_b   5.15203905
_cell_length_c   15.82427900
_cell_angle_alpha   90.00000000
_cell_angle_beta   90.00000000
_cell_angle_gamma   119.99999327
_symmetry_Int_Tables_number   1
_chemical_formula_structural   CaLu2(ZnNi2)3
_chemical_formula_sum   'Ca2 Lu4 Zn6 Ni12'
_cell_volume   363.75827396
_cell_formula_units_Z   2
loop_
 _symmetry_equiv_pos_site_id
 _symmetry_equiv_pos_as_xyz
  1  'x, y, z'
loop_
 _atom_site_type_symbol
 _atom_site_label
 _atom_site_symmetry_multiplicity
 _atom_site_fract_x
 _atom_site_fract_y
 _atom_site_fract_z
 _atom_site_occupancy
  Ca  Ca0  1  0.333333  0.666667  0.750000  1
  Ca  Ca1  1  0.666667  0.333333  0.250000  1
  Lu  Lu2  1  0.333333  0.666667  0.542493  1
  Lu  Lu3  1  0.666667  0.333333  0.457507  1
  Lu  Lu4  1  0.666667  0.333333  0.042493  1
  Lu  Lu5  1  0.333333  0.666667  0.957507  1
  Zn  Zn6  1  0.000000  0.000000  0.250000  1
  Zn  Zn7  1  0.000000  0.000000  0.750000  1
  Zn  Zn8  1  0.333333  0.666667  0.250000  1
  Zn  Zn9  1  0.666667  0.333333  0.750000  1
  Zn  Zn10  1  0.000000  0.000000  0.000000  1
  Zn  Zn11  1  0.000000  0.000000  0.500000  1
  Ni  Ni12  1  0.170750  0.341498  0.122280  1
  Ni  Ni13  1  0.829250  0.658502  0.877720  1
  Ni  Ni14  1  0.658502  0.829250  0.122280  1
  Ni  Ni15  1  0.829250  0.658502  0.622280  1
  Ni  Ni16  1  0.341498  0.170750  0.877720  1
  Ni  Ni17  1  0.170750  0.341498  0.377720  1
  Ni  Ni18  1  0.170750  0.829250  0.122280  1
  Ni  Ni19  1  0.341498  0.170750  0.622280  1
  Ni  Ni20  1  0.829250  0.170750  0.877720  1
  Ni  Ni21  1  0.658502  0.829250  0.377720  1
  Ni  Ni22  1  0.829250  0.170750  0.622280  1
  Ni  Ni23  1  0.170750  0.829250  0.377720  1
