# generated using pymatgen
data_Pr3Mg2ScPtPb2
_symmetry_space_group_name_H-M   'P 1'
_cell_length_a   7.93099642
_cell_length_b   7.80188609
_cell_length_c   4.55130100
_cell_angle_alpha   90.00000000
_cell_angle_beta   90.00000000
_cell_angle_gamma   119.46293965
_symmetry_Int_Tables_number   1
_chemical_formula_structural   Pr3Mg2ScPtPb2
_chemical_formula_sum   'Pr3 Mg2 Sc1 Pt1 Pb2'
_cell_volume   245.19889371
_cell_formula_units_Z   1
loop_
 _symmetry_equiv_pos_site_id
 _symmetry_equiv_pos_as_xyz
  1  'x, y, z'
loop_
 _atom_site_type_symbol
 _atom_site_label
 _atom_site_symmetry_multiplicity
 _atom_site_fract_x
 _atom_site_fract_y
 _atom_site_fract_z
 _atom_site_occupancy
  Pr  Pr0  1  0.397758  0.393126  0.000000  1
  Pr  Pr1  1  0.602242  0.995368  0.000000  1
  Pr  Pr2  1  0.000000  0.610108  0.000000  1
  Mg  Mg3  1  0.769203  0.767927  0.500000  1
  Mg  Mg4  1  0.230797  0.998724  0.500000  1
  Sc  Sc5  1  0.000000  0.219760  0.500000  1
  Pt  Pt6  1  0.000000  0.018288  0.000000  1
  Pb  Pb7  1  0.671075  0.333887  0.500000  1
  Pb  Pb8  1  0.328925  0.662813  0.500000  1
