# generated using pymatgen
data_Lu3ThInCo
_symmetry_space_group_name_H-M   'P 1'
_cell_length_a   9.49304737
_cell_length_b   9.49304755
_cell_length_c   9.49304600
_cell_angle_alpha   59.99999842
_cell_angle_beta   59.99999781
_cell_angle_gamma   60.00000317
_symmetry_Int_Tables_number   1
_chemical_formula_structural   Lu3ThInCo
_chemical_formula_sum   'Lu12 Th4 In4 Co4'
_cell_volume   604.92549642
_cell_formula_units_Z   4
loop_
 _symmetry_equiv_pos_site_id
 _symmetry_equiv_pos_as_xyz
  1  'x, y, z'
loop_
 _atom_site_type_symbol
 _atom_site_label
 _atom_site_symmetry_multiplicity
 _atom_site_fract_x
 _atom_site_fract_y
 _atom_site_fract_z
 _atom_site_occupancy
  Lu  Lu0  1  0.063197  0.436803  0.436803  1
  Lu  Lu1  1  0.436803  0.063197  0.063197  1
  Lu  Lu2  1  0.436803  0.063197  0.436803  1
  Lu  Lu3  1  0.063197  0.436803  0.063197  1
  Lu  Lu4  1  0.436803  0.436803  0.063197  1
  Lu  Lu5  1  0.063197  0.063197  0.436803  1
  Lu  Lu6  1  0.186781  0.813219  0.813219  1
  Lu  Lu7  1  0.813219  0.186781  0.186781  1
  Lu  Lu8  1  0.813219  0.186781  0.813219  1
  Lu  Lu9  1  0.186781  0.813219  0.186781  1
  Lu  Lu10  1  0.813219  0.813219  0.186781  1
  Lu  Lu11  1  0.186781  0.186781  0.813219  1
  Th  Th12  1  0.596002  0.596002  0.596002  1
  Th  Th13  1  0.596002  0.596002  0.211996  1
  Th  Th14  1  0.596002  0.211996  0.596002  1
  Th  Th15  1  0.211996  0.596002  0.596002  1
  In  In16  1  0.834715  0.834715  0.834715  1
  In  In17  1  0.834715  0.834715  0.495856  1
  In  In18  1  0.834715  0.495856  0.834715  1
  In  In19  1  0.495856  0.834715  0.834715  1
  Co  Co20  1  0.393110  0.393110  0.393110  1
  Co  Co21  1  0.393110  0.393110  0.820667  1
  Co  Co22  1  0.393110  0.820667  0.393110  1
  Co  Co23  1  0.820667  0.393110  0.393110  1
