# generated using pymatgen
data_YTmCo12AsP6
_symmetry_space_group_name_H-M   'P 1'
_cell_length_a   9.07493700
_cell_length_b   9.07493813
_cell_length_c   3.57005600
_cell_angle_alpha   90.00000000
_cell_angle_beta   90.00000000
_cell_angle_gamma   119.99999951
_symmetry_Int_Tables_number   1
_chemical_formula_structural   YTmCo12AsP6
_chemical_formula_sum   'Y1 Tm1 Co12 As1 P6'
_cell_volume   254.62025815
_cell_formula_units_Z   1
loop_
 _symmetry_equiv_pos_site_id
 _symmetry_equiv_pos_as_xyz
  1  'x, y, z'
loop_
 _atom_site_type_symbol
 _atom_site_label
 _atom_site_symmetry_multiplicity
 _atom_site_fract_x
 _atom_site_fract_y
 _atom_site_fract_z
 _atom_site_occupancy
  Y  Y0  1  0.666667  0.333333  0.000000  1
  Tm  Tm1  1  0.000000  0.000000  0.500000  1
  Co  Co2  1  0.770325  0.728525  0.000000  1
  Co  Co3  1  0.271475  0.041799  0.000000  1
  Co  Co4  1  0.958201  0.229675  0.000000  1
  Co  Co5  1  0.718961  0.104641  0.500000  1
  Co  Co6  1  0.895359  0.614318  0.500000  1
  Co  Co7  1  0.385682  0.281039  0.500000  1
  Co  Co8  1  0.492725  0.949571  0.000000  1
  Co  Co9  1  0.050429  0.543155  0.000000  1
  Co  Co10  1  0.456845  0.507275  0.000000  1
  Co  Co11  1  0.583987  0.777190  0.500000  1
  Co  Co12  1  0.222810  0.806797  0.500000  1
  Co  Co13  1  0.193203  0.416013  0.500000  1
  As  As14  1  0.333333  0.666667  0.000000  1
  P  P15  1  0.445473  0.070499  0.500000  1
  P  P16  1  0.929501  0.374974  0.500000  1
  P  P17  1  0.625026  0.554527  0.500000  1
  P  P18  1  0.741562  0.960901  0.000000  1
  P  P19  1  0.039099  0.780660  0.000000  1
  P  P20  1  0.219340  0.258438  0.000000  1
