# generated using pymatgen
data_UP2RuO10
_symmetry_space_group_name_H-M   'P 1'
_cell_length_a   5.75646694
_cell_length_b   5.24768733
_cell_length_c   7.54040600
_cell_angle_alpha   105.54306625
_cell_angle_beta   110.37187768
_cell_angle_gamma   97.08888412
_symmetry_Int_Tables_number   1
_chemical_formula_structural   UP2RuO10
_chemical_formula_sum   'U1 P2 Ru1 O10'
_cell_volume   199.71668216
_cell_formula_units_Z   1
loop_
 _symmetry_equiv_pos_site_id
 _symmetry_equiv_pos_as_xyz
  1  'x, y, z'
loop_
 _atom_site_type_symbol
 _atom_site_label
 _atom_site_symmetry_multiplicity
 _atom_site_fract_x
 _atom_site_fract_y
 _atom_site_fract_z
 _atom_site_occupancy
  U  U0  1  0.000000  0.500000  0.000000  1
  P  P1  1  0.322394  0.127962  0.740837  1
  P  P2  1  0.677606  0.872038  0.259163  1
  Ru  Ru3  1  0.000000  0.500000  0.500000  1
  O  O4  1  0.173441  0.176613  0.878470  1
  O  O5  1  0.291295  0.816631  0.643148  1
  O  O6  1  0.935861  0.563143  0.751364  1
  O  O7  1  0.237386  0.257008  0.573726  1
  O  O8  1  0.762614  0.742992  0.426274  1
  O  O9  1  0.611608  0.241940  0.869669  1
  O  O10  1  0.388392  0.758060  0.130331  1
  O  O11  1  0.064139  0.436857  0.248636  1
  O  O12  1  0.708705  0.183369  0.356852  1
  O  O13  1  0.826559  0.823387  0.121530  1
