# generated using pymatgen
data_Nb12Al8Fe3PdC4
_symmetry_space_group_name_H-M   'P 1'
_cell_length_a   8.26962671
_cell_length_b   8.26962738
_cell_length_c   8.26962560
_cell_angle_alpha   60.17910193
_cell_angle_beta   60.17910851
_cell_angle_gamma   60.17909559
_symmetry_Int_Tables_number   1
_chemical_formula_structural   Nb12Al8Fe3PdC4
_chemical_formula_sum   'Nb12 Al8 Fe3 Pd1 C4'
_cell_volume   401.51397700
_cell_formula_units_Z   1
loop_
 _symmetry_equiv_pos_site_id
 _symmetry_equiv_pos_as_xyz
  1  'x, y, z'
loop_
 _atom_site_type_symbol
 _atom_site_label
 _atom_site_symmetry_multiplicity
 _atom_site_fract_x
 _atom_site_fract_y
 _atom_site_fract_z
 _atom_site_occupancy
  Nb  Nb0  1  0.557970  0.941505  0.557970  1
  Nb  Nb1  1  0.308495  0.692030  0.692030  1
  Nb  Nb2  1  0.682901  0.311279  0.311279  1
  Nb  Nb3  1  0.311279  0.682901  0.311279  1
  Nb  Nb4  1  0.692030  0.692030  0.308495  1
  Nb  Nb5  1  0.311279  0.311279  0.682901  1
  Nb  Nb6  1  0.557970  0.557970  0.941505  1
  Nb  Nb7  1  0.941505  0.557970  0.557970  1
  Nb  Nb8  1  0.567099  0.938721  0.938721  1
  Nb  Nb9  1  0.938721  0.938721  0.567099  1
  Nb  Nb10  1  0.692030  0.308495  0.692030  1
  Nb  Nb11  1  0.938721  0.567099  0.938721  1
  Al  Al12  1  0.919292  0.919292  0.919292  1
  Al  Al13  1  0.001137  0.335779  0.335779  1
  Al  Al14  1  0.335779  0.001137  0.335779  1
  Al  Al15  1  0.335779  0.335779  0.001137  1
  Al  Al16  1  0.914221  0.248863  0.914221  1
  Al  Al17  1  0.914221  0.914221  0.248863  1
  Al  Al18  1  0.248863  0.914221  0.914221  1
  Al  Al19  1  0.330708  0.330708  0.330708  1
  Fe  Fe20  1  0.625000  0.125000  0.125000  1
  Fe  Fe21  1  0.125000  0.625000  0.125000  1
  Fe  Fe22  1  0.125000  0.125000  0.625000  1
  Pd  Pd23  1  0.125000  0.125000  0.125000  1
  C  C24  1  0.625000  0.625000  0.625000  1
  C  C25  1  0.125000  0.625000  0.625000  1
  C  C26  1  0.625000  0.125000  0.625000  1
  C  C27  1  0.625000  0.625000  0.125000  1
