# generated using pymatgen
data_Dy3LuZr4F28
_symmetry_space_group_name_H-M   'P 1'
_cell_length_a   5.73167002
_cell_length_b   9.05403768
_cell_length_c   12.18617862
_cell_angle_alpha   62.39178277
_cell_angle_beta   90.04393857
_cell_angle_gamma   89.98754218
_symmetry_Int_Tables_number   1
_chemical_formula_structural   Dy3LuZr4F28
_chemical_formula_sum   'Dy3 Lu1 Zr4 F28'
_cell_volume   560.39174613
_cell_formula_units_Z   1
loop_
 _symmetry_equiv_pos_site_id
 _symmetry_equiv_pos_as_xyz
  1  'x, y, z'
loop_
 _atom_site_type_symbol
 _atom_site_label
 _atom_site_symmetry_multiplicity
 _atom_site_fract_x
 _atom_site_fract_y
 _atom_site_fract_z
 _atom_site_occupancy
  Dy  Dy0  1  0.743553  0.814786  0.266523  1
  Dy  Dy1  1  0.243429  0.184098  0.233492  1
  Dy  Dy2  1  0.256194  0.181442  0.733829  1
  Lu  Lu3  1  0.756703  0.815498  0.766101  1
  Zr  Zr4  1  0.744872  0.272118  0.456004  1
  Zr  Zr5  1  0.244246  0.725856  0.042673  1
  Zr  Zr6  1  0.255867  0.725899  0.547912  1
  Zr  Zr7  1  0.755559  0.276733  0.953517  1
  F  F8  1  0.471146  0.712091  0.919125  1
  F  F9  1  0.968547  0.288701  0.579496  1
  F  F10  1  0.532541  0.290489  0.078318  1
  F  F11  1  0.033218  0.711192  0.423019  1
  F  F12  1  0.451991  0.279718  0.550319  1
  F  F13  1  0.950862  0.721682  0.946190  1
  F  F14  1  0.546445  0.719524  0.451437  1
  F  F15  1  0.048186  0.281837  0.048882  1
  F  F16  1  0.767085  0.529880  0.856535  1
  F  F17  1  0.267474  0.473713  0.643552  1
  F  F18  1  0.231002  0.474083  0.141282  1
  F  F19  1  0.732148  0.524883  0.358640  1
  F  F20  1  0.759714  0.024827  0.057607  1
  F  F21  1  0.259781  0.977440  0.442755  1
  F  F22  1  0.240701  0.978004  0.940925  1
  F  F23  1  0.740768  0.020444  0.560785  1
  F  F24  1  0.984547  0.735489  0.653617  1
  F  F25  1  0.485247  0.266250  0.848429  1
  F  F26  1  0.015969  0.266175  0.349968  1
  F  F27  1  0.514227  0.733592  0.149245  1
  F  F28  1  0.032925  0.746293  0.171668  1
  F  F29  1  0.533595  0.253234  0.326839  1
  F  F30  1  0.967087  0.254659  0.825717  1
  F  F31  1  0.472161  0.748308  0.675003  1
  F  F32  1  0.429219  0.972833  0.234916  1
  F  F33  1  0.928541  0.026728  0.265272  1
  F  F34  1  0.571740  0.020594  0.764654  1
  F  F35  1  0.062708  0.970907  0.735755  1
