# generated using pymatgen
data_TmSc2Ni8Ir
_symmetry_space_group_name_H-M   'P 1'
_cell_length_a   4.84737603
_cell_length_b   4.84737604
_cell_length_c   8.61834080
_cell_angle_alpha   73.66670671
_cell_angle_beta   73.66670662
_cell_angle_gamma   60.00000750
_symmetry_Int_Tables_number   1
_chemical_formula_structural   TmSc2Ni8Ir
_chemical_formula_sum   'Tm1 Sc2 Ni8 Ir1'
_cell_volume   165.87088843
_cell_formula_units_Z   1
loop_
 _symmetry_equiv_pos_site_id
 _symmetry_equiv_pos_as_xyz
  1  'x, y, z'
loop_
 _atom_site_type_symbol
 _atom_site_label
 _atom_site_symmetry_multiplicity
 _atom_site_fract_x
 _atom_site_fract_y
 _atom_site_fract_z
 _atom_site_occupancy
  Tm  Tm0  1  0.000000  0.000000  0.000000  1
  Sc  Sc1  1  0.140157  0.140157  0.579528  1
  Sc  Sc2  1  0.859843  0.859843  0.420472  1
  Ni  Ni3  1  0.077562  0.584057  0.754323  1
  Ni  Ni4  1  0.584057  0.584057  0.754323  1
  Ni  Ni5  1  0.584057  0.077562  0.754323  1
  Ni  Ni6  1  0.922438  0.415943  0.245677  1
  Ni  Ni7  1  0.415943  0.415943  0.245677  1
  Ni  Ni8  1  0.415943  0.922438  0.245677  1
  Ni  Ni9  1  0.333640  0.333640  0.999081  1
  Ni  Ni10  1  0.666360  0.666360  0.000919  1
  Ir  Ir11  1  0.500000  0.500000  0.500000  1
