# generated using pymatgen
data_Ho5Sc(CdHg2)6
_symmetry_space_group_name_H-M   'P 1'
_cell_length_a   5.08671408
_cell_length_b   7.05086200
_cell_length_c   15.47107426
_cell_angle_alpha   90.00000000
_cell_angle_beta   90.02084768
_cell_angle_gamma   90.00000000
_symmetry_Int_Tables_number   1
_chemical_formula_structural   Ho5Sc(CdHg2)6
_chemical_formula_sum   'Ho5 Sc1 Cd6 Hg12'
_cell_volume   554.88116580
_cell_formula_units_Z   1
loop_
 _symmetry_equiv_pos_site_id
 _symmetry_equiv_pos_as_xyz
  1  'x, y, z'
loop_
 _atom_site_type_symbol
 _atom_site_label
 _atom_site_symmetry_multiplicity
 _atom_site_fract_x
 _atom_site_fract_y
 _atom_site_fract_z
 _atom_site_occupancy
  Ho  Ho0  1  0.999990  0.000000  0.999288  1
  Ho  Ho1  1  0.499836  0.500000  0.165618  1
  Ho  Ho2  1  0.999834  0.000000  0.333107  1
  Ho  Ho3  1  0.500001  0.500000  0.500787  1
  Ho  Ho4  1  0.000139  0.000000  0.667533  1
  Sc  Sc5  1  0.500172  0.500000  0.833568  1
  Cd  Cd6  1  0.999988  0.500000  0.999662  1
  Cd  Cd7  1  0.499834  0.000000  0.165187  1
  Cd  Cd8  1  0.999865  0.500000  0.333409  1
  Cd  Cd9  1  0.499998  0.000000  0.501601  1
  Cd  Cd10  1  0.000151  0.500000  0.666921  1
  Cd  Cd11  1  0.500161  0.000000  0.833251  1
  Hg  Hg12  1  0.499959  0.257181  0.996081  1
  Hg  Hg13  1  0.499959  0.742818  0.996081  1
  Hg  Hg14  1  0.999844  0.246912  0.166417  1
  Hg  Hg15  1  0.999844  0.753087  0.166417  1
  Hg  Hg16  1  0.499891  0.252995  0.333663  1
  Hg  Hg17  1  0.499891  0.747005  0.333663  1
  Hg  Hg18  1  0.000031  0.246865  0.500465  1
  Hg  Hg19  1  0.000031  0.753134  0.500465  1
  Hg  Hg20  1  0.500155  0.257127  0.670270  1
  Hg  Hg21  1  0.500155  0.742873  0.670270  1
  Hg  Hg22  1  0.000135  0.255121  0.833138  1
  Hg  Hg23  1  0.000135  0.744878  0.833138  1
