# generated using pymatgen
data_TbSc4P12Ru19
_symmetry_space_group_name_H-M   'P 1'
_cell_length_a   3.94160000
_cell_length_b   12.44314251
_cell_length_c   12.44248203
_cell_angle_alpha   120.00485362
_cell_angle_beta   90.00000000
_cell_angle_gamma   90.00000000
_symmetry_Int_Tables_number   1
_chemical_formula_structural   TbSc4P12Ru19
_chemical_formula_sum   'Tb1 Sc4 P12 Ru19'
_cell_volume   528.46841458
_cell_formula_units_Z   1
loop_
 _symmetry_equiv_pos_site_id
 _symmetry_equiv_pos_as_xyz
  1  'x, y, z'
loop_
 _atom_site_type_symbol
 _atom_site_label
 _atom_site_symmetry_multiplicity
 _atom_site_fract_x
 _atom_site_fract_y
 _atom_site_fract_z
 _atom_site_occupancy
  Tb  Tb0  1  0.000000  0.666661  0.333344  1
  Sc  Sc1  1  0.500000  0.000108  0.182579  1
  Sc  Sc2  1  0.500000  0.182466  0.999898  1
  Sc  Sc3  1  0.500000  0.817401  0.817515  1
  Sc  Sc4  1  0.000000  0.333311  0.666664  1
  P  P5  1  0.000000  0.001396  0.819273  1
  P  P6  1  0.000000  0.817881  0.998601  1
  P  P7  1  0.000000  0.180728  0.182129  1
  P  P8  1  0.500000  0.306818  0.478578  1
  P  P9  1  0.500000  0.171754  0.693185  1
  P  P10  1  0.500000  0.521423  0.828253  1
  P  P11  1  0.500000  0.830864  0.523824  1
  P  P12  1  0.500000  0.476165  0.307032  1
  P  P13  1  0.500000  0.692955  0.169125  1
  P  P14  1  0.000000  0.000224  0.371867  1
  P  P15  1  0.000000  0.371628  0.999777  1
  P  P16  1  0.000000  0.628127  0.628352  1
  Ru  Ru17  1  0.000000  0.999997  0.555436  1
  Ru  Ru18  1  0.000000  0.555436  0.000001  1
  Ru  Ru19  1  0.000000  0.444566  0.444564  1
  Ru  Ru20  1  0.500000  0.001220  0.721182  1
  Ru  Ru21  1  0.500000  0.719980  0.998781  1
  Ru  Ru22  1  0.500000  0.278815  0.280039  1
  Ru  Ru23  1  0.000000  0.189617  0.375304  1
  Ru  Ru24  1  0.000000  0.185670  0.810376  1
  Ru  Ru25  1  0.000000  0.624697  0.814310  1
  Ru  Ru26  1  0.000000  0.816259  0.628038  1
  Ru  Ru27  1  0.000000  0.371954  0.188230  1
  Ru  Ru28  1  0.000000  0.811781  0.183743  1
  Ru  Ru29  1  0.500000  0.128394  0.493707  1
  Ru  Ru30  1  0.500000  0.365297  0.871589  1
  Ru  Ru31  1  0.500000  0.506295  0.634682  1
  Ru  Ru32  1  0.500000  0.635129  0.510326  1
  Ru  Ru33  1  0.500000  0.489674  0.124819  1
  Ru  Ru34  1  0.500000  0.875200  0.364875  1
  Ru  Ru35  1  0.000000  0.000007  0.000001  1
