# generated using pymatgen
data_Zr6Nb4Ga12Fe7
_symmetry_space_group_name_H-M   'P 1'
_cell_length_a   8.62692097
_cell_length_b   8.62692099
_cell_length_c   8.62692200
_cell_angle_alpha   60.00000380
_cell_angle_beta   60.00000373
_cell_angle_gamma   60.00000698
_symmetry_Int_Tables_number   1
_chemical_formula_structural   Zr6Nb4Ga12Fe7
_chemical_formula_sum   'Zr6 Nb4 Ga12 Fe7'
_cell_volume   453.99655926
_cell_formula_units_Z   1
loop_
 _symmetry_equiv_pos_site_id
 _symmetry_equiv_pos_as_xyz
  1  'x, y, z'
loop_
 _atom_site_type_symbol
 _atom_site_label
 _atom_site_symmetry_multiplicity
 _atom_site_fract_x
 _atom_site_fract_y
 _atom_site_fract_z
 _atom_site_occupancy
  Zr  Zr0  1  0.701384  0.701384  0.298616  1
  Zr  Zr1  1  0.298616  0.701384  0.298616  1
  Zr  Zr2  1  0.701384  0.298616  0.298616  1
  Zr  Zr3  1  0.298616  0.298616  0.701384  1
  Zr  Zr4  1  0.701384  0.298616  0.701384  1
  Zr  Zr5  1  0.298616  0.701384  0.701384  1
  Nb  Nb6  1  0.879326  0.879326  0.362023  1
  Nb  Nb7  1  0.879326  0.362023  0.879326  1
  Nb  Nb8  1  0.362023  0.879326  0.879326  1
  Nb  Nb9  1  0.879326  0.879326  0.879326  1
  Ga  Ga10  1  0.119406  0.119406  0.641781  1
  Ga  Ga11  1  0.119406  0.641781  0.119406  1
  Ga  Ga12  1  0.641781  0.119406  0.119406  1
  Ga  Ga13  1  0.119406  0.119406  0.119406  1
  Ga  Ga14  1  0.660224  0.660224  0.019327  1
  Ga  Ga15  1  0.660224  0.019327  0.660224  1
  Ga  Ga16  1  0.019327  0.660224  0.660224  1
  Ga  Ga17  1  0.660224  0.660224  0.660224  1
  Ga  Ga18  1  0.336945  0.336945  0.989164  1
  Ga  Ga19  1  0.336945  0.989164  0.336945  1
  Ga  Ga20  1  0.989164  0.336945  0.336945  1
  Ga  Ga21  1  0.336945  0.336945  0.336945  1
  Fe  Fe22  1  0.000000  0.000000  0.000000  1
  Fe  Fe23  1  0.996685  0.996685  0.503315  1
  Fe  Fe24  1  0.503315  0.996685  0.503315  1
  Fe  Fe25  1  0.996685  0.503315  0.503315  1
  Fe  Fe26  1  0.503315  0.503315  0.996685  1
  Fe  Fe27  1  0.996685  0.503315  0.996685  1
  Fe  Fe28  1  0.503315  0.996685  0.996685  1
