# generated using pymatgen
data_CaDy2(B3Ir4)2
_symmetry_space_group_name_H-M   'P 1'
_cell_length_a   9.96621857
_cell_length_b   9.12655981
_cell_length_c   5.60436283
_cell_angle_alpha   81.35443957
_cell_angle_beta   64.86967044
_cell_angle_gamma   33.77591697
_symmetry_Int_Tables_number   1
_chemical_formula_structural   CaDy2(B3Ir4)2
_chemical_formula_sum   'Ca1 Dy2 B6 Ir8'
_cell_volume   234.85110746
_cell_formula_units_Z   1
loop_
 _symmetry_equiv_pos_site_id
 _symmetry_equiv_pos_as_xyz
  1  'x, y, z'
loop_
 _atom_site_type_symbol
 _atom_site_label
 _atom_site_symmetry_multiplicity
 _atom_site_fract_x
 _atom_site_fract_y
 _atom_site_fract_z
 _atom_site_occupancy
  Ca  Ca0  1  0.681323  0.681323  0.318677  1
  Dy  Dy1  1  0.321024  0.321024  0.678976  1
  Dy  Dy2  1  0.503024  0.503024  0.496976  1
  B  B3  1  0.670908  0.980874  0.019126  1
  B  B4  1  0.980874  0.670908  0.329092  1
  B  B5  1  0.327022  0.018831  0.981169  1
  B  B6  1  0.018831  0.327022  0.672978  1
  B  B7  1  0.168293  0.831519  0.168481  1
  B  B8  1  0.831519  0.168293  0.831707  1
  Ir  Ir9  1  0.585711  0.585711  0.914289  1
  Ir  Ir10  1  0.912616  0.912616  0.087384  1
  Ir  Ir11  1  0.414373  0.414373  0.085627  1
  Ir  Ir12  1  0.085711  0.085711  0.414289  1
  Ir  Ir13  1  0.914373  0.914373  0.585627  1
  Ir  Ir14  1  0.249570  0.249570  0.250430  1
  Ir  Ir15  1  0.085255  0.085255  0.914745  1
  Ir  Ir16  1  0.749570  0.749570  0.750430  1
