# generated using pymatgen
data_Ho2Sc3Sn4
_symmetry_space_group_name_H-M   'P 1'
_cell_length_a   7.67313100
_cell_length_b   7.95049800
_cell_length_c   14.82012900
_cell_angle_alpha   90.00000000
_cell_angle_beta   90.00000000
_cell_angle_gamma   90.00000000
_symmetry_Int_Tables_number   1
_chemical_formula_structural   Ho2Sc3Sn4
_chemical_formula_sum   'Ho8 Sc12 Sn16'
_cell_volume   904.10512143
_cell_formula_units_Z   4
loop_
 _symmetry_equiv_pos_site_id
 _symmetry_equiv_pos_as_xyz
  1  'x, y, z'
loop_
 _atom_site_type_symbol
 _atom_site_label
 _atom_site_symmetry_multiplicity
 _atom_site_fract_x
 _atom_site_fract_y
 _atom_site_fract_z
 _atom_site_occupancy
  Ho  Ho0  1  0.995890  0.177056  0.094230  1
  Ho  Ho1  1  0.004110  0.822944  0.905770  1
  Ho  Ho2  1  0.504110  0.677056  0.905770  1
  Ho  Ho3  1  0.004110  0.822944  0.594230  1
  Ho  Ho4  1  0.495890  0.322944  0.094230  1
  Ho  Ho5  1  0.995890  0.177056  0.405770  1
  Ho  Ho6  1  0.495890  0.322944  0.405770  1
  Ho  Ho7  1  0.504110  0.677056  0.594230  1
  Sc  Sc8  1  0.163673  0.496806  0.750000  1
  Sc  Sc9  1  0.836327  0.503194  0.250000  1
  Sc  Sc10  1  0.336327  0.996806  0.250000  1
  Sc  Sc11  1  0.663673  0.003194  0.750000  1
  Sc  Sc12  1  0.335112  0.162402  0.627174  1
  Sc  Sc13  1  0.664888  0.837598  0.372826  1
  Sc  Sc14  1  0.164888  0.662402  0.372826  1
  Sc  Sc15  1  0.664888  0.837598  0.127174  1
  Sc  Sc16  1  0.835112  0.337598  0.627174  1
  Sc  Sc17  1  0.335112  0.162402  0.872826  1
  Sc  Sc18  1  0.835112  0.337598  0.872826  1
  Sc  Sc19  1  0.164888  0.662402  0.127174  1
  Sn  Sn20  1  0.026440  0.123973  0.750000  1
  Sn  Sn21  1  0.973560  0.876027  0.250000  1
  Sn  Sn22  1  0.473560  0.623973  0.250000  1
  Sn  Sn23  1  0.526440  0.376027  0.750000  1
  Sn  Sn24  1  0.305933  0.849909  0.750000  1
  Sn  Sn25  1  0.694067  0.150091  0.250000  1
  Sn  Sn26  1  0.194067  0.349909  0.250000  1
  Sn  Sn27  1  0.805933  0.650091  0.750000  1
  Sn  Sn28  1  0.180302  0.458336  0.542300  1
  Sn  Sn29  1  0.819698  0.541664  0.457700  1
  Sn  Sn30  1  0.319698  0.958336  0.457700  1
  Sn  Sn31  1  0.819698  0.541664  0.042300  1
  Sn  Sn32  1  0.680302  0.041664  0.542300  1
  Sn  Sn33  1  0.180302  0.458336  0.957700  1
  Sn  Sn34  1  0.680302  0.041664  0.957700  1
  Sn  Sn35  1  0.319698  0.958336  0.042300  1
