# generated using pymatgen
data_KCr3Sb12Ru
_symmetry_space_group_name_H-M   'P 1'
_cell_length_a   8.25202625
_cell_length_b   8.31428767
_cell_length_c   8.25202539
_cell_angle_alpha   109.62412646
_cell_angle_beta   109.31788286
_cell_angle_gamma   109.62412215
_symmetry_Int_Tables_number   1
_chemical_formula_structural   KCr3Sb12Ru
_chemical_formula_sum   'K1 Cr3 Sb12 Ru1'
_cell_volume   435.01207536
_cell_formula_units_Z   1
loop_
 _symmetry_equiv_pos_site_id
 _symmetry_equiv_pos_as_xyz
  1  'x, y, z'
loop_
 _atom_site_type_symbol
 _atom_site_label
 _atom_site_symmetry_multiplicity
 _atom_site_fract_x
 _atom_site_fract_y
 _atom_site_fract_z
 _atom_site_occupancy
  K  K0  1  0.000000  0.000000  0.000000  1
  Cr  Cr1  1  0.500000  0.500000  0.500000  1
  Cr  Cr2  1  0.000000  0.000000  0.500000  1
  Cr  Cr3  1  0.500000  0.000000  0.000000  1
  Sb  Sb4  1  0.653081  0.845944  0.500369  1
  Sb  Sb5  1  0.346919  0.154056  0.499631  1
  Sb  Sb6  1  0.847288  0.192863  0.346919  1
  Sb  Sb7  1  0.813437  0.651777  0.149665  1
  Sb  Sb8  1  0.850335  0.502111  0.663771  1
  Sb  Sb9  1  0.186563  0.348223  0.850335  1
  Sb  Sb10  1  0.152712  0.807137  0.653081  1
  Sb  Sb11  1  0.500369  0.654424  0.847288  1
  Sb  Sb12  1  0.499631  0.345576  0.152712  1
  Sb  Sb13  1  0.149665  0.497889  0.336229  1
  Sb  Sb14  1  0.336229  0.838340  0.186563  1
  Sb  Sb15  1  0.663771  0.161660  0.813437  1
  Ru  Ru16  1  0.000000  0.500000  0.000000  1
