# generated using pymatgen
data_Sc4MnPt11
_symmetry_space_group_name_H-M   'P 1'
_cell_length_a   4.05613700
_cell_length_b   5.64231208
_cell_length_c   11.28721389
_cell_angle_alpha   88.08489528
_cell_angle_beta   90.00000000
_cell_angle_gamma   90.00000000
_symmetry_Int_Tables_number   1
_chemical_formula_structural   Sc4MnPt11
_chemical_formula_sum   'Sc4 Mn1 Pt11'
_cell_volume   258.17478669
_cell_formula_units_Z   1
loop_
 _symmetry_equiv_pos_site_id
 _symmetry_equiv_pos_as_xyz
  1  'x, y, z'
loop_
 _atom_site_type_symbol
 _atom_site_label
 _atom_site_symmetry_multiplicity
 _atom_site_fract_x
 _atom_site_fract_y
 _atom_site_fract_z
 _atom_site_occupancy
  Sc  Sc0  1  0.500000  0.754150  0.373165  1
  Sc  Sc1  1  0.500000  0.724084  0.866611  1
  Sc  Sc2  1  0.500000  0.275916  0.133389  1
  Sc  Sc3  1  0.500000  0.245850  0.626835  1
  Mn  Mn4  1  0.000000  0.000000  0.000000  1
  Pt  Pt5  1  0.000000  0.012830  0.243799  1
  Pt  Pt6  1  0.000000  0.987170  0.756201  1
  Pt  Pt7  1  0.000000  0.500000  0.000000  1
  Pt  Pt8  1  0.000000  0.500000  0.500000  1
  Pt  Pt9  1  0.000000  0.512887  0.249351  1
  Pt  Pt10  1  0.000000  0.487113  0.750649  1
  Pt  Pt11  1  0.500000  0.250222  0.376885  1
  Pt  Pt12  1  0.500000  0.227411  0.884978  1
  Pt  Pt13  1  0.500000  0.772589  0.115022  1
  Pt  Pt14  1  0.500000  0.749778  0.623115  1
  Pt  Pt15  1  0.000000  0.000000  0.500000  1
