# generated using pymatgen
data_Ho2Hf4Pb5
_symmetry_space_group_name_H-M   'P 1'
_cell_length_a   6.04904401
_cell_length_b   9.17442431
_cell_length_c   11.30658072
_cell_angle_alpha   113.93574657
_cell_angle_beta   105.51562357
_cell_angle_gamma   89.99999823
_symmetry_Int_Tables_number   1
_chemical_formula_structural   Ho2Hf4Pb5
_chemical_formula_sum   'Ho4 Hf8 Pb10'
_cell_volume   548.40112488
_cell_formula_units_Z   2
loop_
 _symmetry_equiv_pos_site_id
 _symmetry_equiv_pos_as_xyz
  1  'x, y, z'
loop_
 _atom_site_type_symbol
 _atom_site_label
 _atom_site_symmetry_multiplicity
 _atom_site_fract_x
 _atom_site_fract_y
 _atom_site_fract_z
 _atom_site_occupancy
  Ho  Ho0  1  0.143813  0.254039  0.287627  1
  Ho  Ho1  1  0.856187  0.745961  0.712373  1
  Ho  Ho2  1  0.643813  0.033588  0.287627  1
  Ho  Ho3  1  0.356187  0.966412  0.712373  1
  Hf  Hf4  1  0.562214  0.312214  0.624428  1
  Hf  Hf5  1  0.437786  0.687786  0.375572  1
  Hf  Hf6  1  0.937786  0.687786  0.375572  1
  Hf  Hf7  1  0.062214  0.312214  0.624428  1
  Hf  Hf8  1  0.434369  0.671898  0.868739  1
  Hf  Hf9  1  0.565631  0.328102  0.131261  1
  Hf  Hf10  1  0.934369  0.196840  0.868739  1
  Hf  Hf11  1  0.065631  0.803160  0.131261  1
  Pb  Pb12  1  0.288585  0.589239  0.577171  1
  Pb  Pb13  1  0.711415  0.410761  0.422829  1
  Pb  Pb14  1  0.788585  0.987932  0.577171  1
  Pb  Pb15  1  0.211415  0.012068  0.422829  1
  Pb  Pb16  1  0.250000  0.000000  0.000000  1
  Pb  Pb17  1  0.750000  0.000000  0.000000  1
  Pb  Pb18  1  0.066946  0.462209  0.133892  1
  Pb  Pb19  1  0.933054  0.537791  0.866108  1
  Pb  Pb20  1  0.566946  0.671683  0.133892  1
  Pb  Pb21  1  0.433054  0.328317  0.866108  1
