# generated using pymatgen
data_Rb2RhF5
_symmetry_space_group_name_H-M   'P 1'
_cell_length_a   5.99948700
_cell_length_b   7.82081000
_cell_length_c   12.26035500
_cell_angle_alpha   90.00000000
_cell_angle_beta   90.00000000
_cell_angle_gamma   90.00000000
_symmetry_Int_Tables_number   1
_chemical_formula_structural   Rb2RhF5
_chemical_formula_sum   'Rb8 Rh4 F20'
_cell_volume   575.26625246
_cell_formula_units_Z   4
loop_
 _symmetry_equiv_pos_site_id
 _symmetry_equiv_pos_as_xyz
  1  'x, y, z'
loop_
 _atom_site_type_symbol
 _atom_site_label
 _atom_site_symmetry_multiplicity
 _atom_site_fract_x
 _atom_site_fract_y
 _atom_site_fract_z
 _atom_site_occupancy
  Rb  Rb0  1  0.250000  0.492445  0.278783  1
  Rb  Rb1  1  0.750000  0.507555  0.721217  1
  Rb  Rb2  1  0.250000  0.992445  0.221217  1
  Rb  Rb3  1  0.750000  0.007555  0.778783  1
  Rb  Rb4  1  0.250000  0.149503  0.582018  1
  Rb  Rb5  1  0.750000  0.850497  0.417982  1
  Rb  Rb6  1  0.250000  0.649503  0.917982  1
  Rb  Rb7  1  0.750000  0.350497  0.082018  1
  Rh  Rh8  1  0.250000  0.659429  0.560295  1
  Rh  Rh9  1  0.750000  0.340571  0.439705  1
  Rh  Rh10  1  0.250000  0.159429  0.939705  1
  Rh  Rh11  1  0.750000  0.840571  0.060295  1
  F  F12  1  0.511448  0.191519  0.381737  1
  F  F13  1  0.011448  0.808481  0.618263  1
  F  F14  1  0.988552  0.691519  0.118263  1
  F  F15  1  0.488552  0.308481  0.881737  1
  F  F16  1  0.488552  0.808481  0.618263  1
  F  F17  1  0.988552  0.191519  0.381737  1
  F  F18  1  0.011448  0.308481  0.881737  1
  F  F19  1  0.511448  0.691519  0.118263  1
  F  F20  1  0.250000  0.794036  0.418031  1
  F  F21  1  0.750000  0.205964  0.581969  1
  F  F22  1  0.250000  0.294036  0.081969  1
  F  F23  1  0.750000  0.705964  0.918031  1
  F  F24  1  0.500000  0.500000  0.500000  1
  F  F25  1  0.000000  0.500000  0.500000  1
  F  F26  1  0.000000  0.000000  0.000000  1
  F  F27  1  0.500000  0.000000  0.000000  1
  F  F28  1  0.750000  0.979537  0.196803  1
  F  F29  1  0.250000  0.020463  0.803197  1
  F  F30  1  0.750000  0.479537  0.303197  1
  F  F31  1  0.250000  0.520463  0.696803  1
