# generated using pymatgen
data_Tb2Ho8Cd3In5Pd4
_symmetry_space_group_name_H-M   'P 1'
_cell_length_a   3.60333200
_cell_length_b   8.10858500
_cell_length_c   18.34317512
_cell_angle_alpha   90.00571025
_cell_angle_beta   90.00000000
_cell_angle_gamma   90.00000000
_symmetry_Int_Tables_number   1
_chemical_formula_structural   Tb2Ho8Cd3In5Pd4
_chemical_formula_sum   'Tb2 Ho8 Cd3 In5 Pd4'
_cell_volume   535.94949052
_cell_formula_units_Z   1
loop_
 _symmetry_equiv_pos_site_id
 _symmetry_equiv_pos_as_xyz
  1  'x, y, z'
loop_
 _atom_site_type_symbol
 _atom_site_label
 _atom_site_symmetry_multiplicity
 _atom_site_fract_x
 _atom_site_fract_y
 _atom_site_fract_z
 _atom_site_occupancy
  Tb  Tb0  1  0.000000  0.500193  0.499459  1
  Tb  Tb1  1  0.000000  0.999650  0.999937  1
  Ho  Ho2  1  0.000000  0.742446  0.281063  1
  Ho  Ho3  1  0.000000  0.259979  0.720116  1
  Ho  Ho4  1  0.000000  0.756887  0.781031  1
  Ho  Ho5  1  0.000000  0.242058  0.219140  1
  Ho  Ho6  1  0.000000  0.612307  0.084021  1
  Ho  Ho7  1  0.000000  0.387673  0.916712  1
  Ho  Ho8  1  0.000000  0.884864  0.583969  1
  Ho  Ho9  1  0.000000  0.112960  0.415634  1
  Cd  Cd10  1  0.500000  0.710921  0.931254  1
  Cd  Cd11  1  0.500000  0.289023  0.068689  1
  Cd  Cd12  1  0.500000  0.788574  0.431353  1
  In  In13  1  0.500000  0.209391  0.568373  1
  In  In14  1  0.500000  0.579461  0.648943  1
  In  In15  1  0.500000  0.423217  0.351148  1
  In  In16  1  0.500000  0.923155  0.147774  1
  In  In17  1  0.500000  0.077251  0.851686  1
  Pd  Pd18  1  0.500000  0.523952  0.196766  1
  Pd  Pd19  1  0.500000  0.475455  0.803297  1
  Pd  Pd20  1  0.500000  0.976311  0.696537  1
  Pd  Pd21  1  0.500000  0.024275  0.303093  1
