# generated using pymatgen
data_DyYSn(AsRh2)6
_symmetry_space_group_name_H-M   'P 1'
_cell_length_a   10.07400900
_cell_length_b   10.07400950
_cell_length_c   3.95317100
_cell_angle_alpha   90.00000000
_cell_angle_beta   90.00000000
_cell_angle_gamma   120.00000164
_symmetry_Int_Tables_number   1
_chemical_formula_structural   DyYSn(AsRh2)6
_chemical_formula_sum   'Dy1 Y1 Sn1 As6 Rh12'
_cell_volume   347.44087960
_cell_formula_units_Z   1
loop_
 _symmetry_equiv_pos_site_id
 _symmetry_equiv_pos_as_xyz
  1  'x, y, z'
loop_
 _atom_site_type_symbol
 _atom_site_label
 _atom_site_symmetry_multiplicity
 _atom_site_fract_x
 _atom_site_fract_y
 _atom_site_fract_z
 _atom_site_occupancy
  Dy  Dy0  1  0.333333  0.666667  0.751456  1
  Y  Y1  1  0.000000  0.000000  0.249278  1
  Sn  Sn2  1  0.666667  0.333333  0.591284  1
  As  As3  1  0.955362  0.215701  0.747841  1
  As  As4  1  0.784299  0.739661  0.747841  1
  As  As5  1  0.260339  0.044638  0.747841  1
  As  As6  1  0.377373  0.449216  0.253397  1
  As  As7  1  0.550784  0.928157  0.253397  1
  As  As8  1  0.071843  0.622627  0.253397  1
  Rh  Rh9  1  0.733812  0.951309  0.749852  1
  Rh  Rh10  1  0.048691  0.782503  0.749852  1
  Rh  Rh11  1  0.217497  0.266188  0.749852  1
  Rh  Rh12  1  0.601872  0.718635  0.252266  1
  Rh  Rh13  1  0.281365  0.883238  0.252266  1
  Rh  Rh14  1  0.116762  0.398128  0.252266  1
  Rh  Rh15  1  0.954365  0.459438  0.756467  1
  Rh  Rh16  1  0.540562  0.494926  0.756467  1
  Rh  Rh17  1  0.505074  0.045635  0.756467  1
  Rh  Rh18  1  0.393996  0.212074  0.244232  1
  Rh  Rh19  1  0.787926  0.181922  0.244232  1
  Rh  Rh20  1  0.818078  0.606004  0.244232  1
