# generated using pymatgen
data_RbBaGaO3
_symmetry_space_group_name_H-M   'P 1'
_cell_length_a   6.64559008
_cell_length_b   6.64558953
_cell_length_c   13.03006200
_cell_angle_alpha   90.00000000
_cell_angle_beta   90.00000000
_cell_angle_gamma   127.58897726
_symmetry_Int_Tables_number   1
_chemical_formula_structural   RbBaGaO3
_chemical_formula_sum   'Rb4 Ba4 Ga4 O12'
_cell_volume   455.99686149
_cell_formula_units_Z   4
loop_
 _symmetry_equiv_pos_site_id
 _symmetry_equiv_pos_as_xyz
  1  'x, y, z'
loop_
 _atom_site_type_symbol
 _atom_site_label
 _atom_site_symmetry_multiplicity
 _atom_site_fract_x
 _atom_site_fract_y
 _atom_site_fract_z
 _atom_site_occupancy
  Rb  Rb0  1  0.457978  0.542022  0.643710  1
  Rb  Rb1  1  0.542022  0.457978  0.356290  1
  Rb  Rb2  1  0.042022  0.957978  0.143710  1
  Rb  Rb3  1  0.957978  0.042022  0.856290  1
  Ba  Ba4  1  0.645786  0.354214  0.920317  1
  Ba  Ba5  1  0.854214  0.145786  0.420317  1
  Ba  Ba6  1  0.145786  0.854214  0.579683  1
  Ba  Ba7  1  0.354214  0.645786  0.079683  1
  Ga  Ga8  1  0.224126  0.775874  0.334602  1
  Ga  Ga9  1  0.724126  0.275874  0.165398  1
  Ga  Ga10  1  0.775874  0.224126  0.665398  1
  Ga  Ga11  1  0.275874  0.724126  0.834602  1
  O  O12  1  0.983133  0.516867  0.750000  1
  O  O13  1  0.516867  0.983133  0.250000  1
  O  O14  1  0.016867  0.483133  0.250000  1
  O  O15  1  0.483133  0.016867  0.750000  1
  O  O16  1  0.425697  0.574303  0.875038  1
  O  O17  1  0.574303  0.425697  0.124962  1
  O  O18  1  0.074303  0.925697  0.375038  1
  O  O19  1  0.678816  0.321184  0.553277  1
  O  O20  1  0.178816  0.821184  0.946723  1
  O  O21  1  0.821184  0.178816  0.053277  1
  O  O22  1  0.321184  0.678816  0.446723  1
  O  O23  1  0.925697  0.074303  0.624962  1
