# generated using pymatgen
data_NbZn2B4Ru10W3
_symmetry_space_group_name_H-M   'P 1'
_cell_length_a   9.34344729
_cell_length_b   9.34344729
_cell_length_c   2.92983400
_cell_angle_alpha   90.00000000
_cell_angle_beta   90.00000000
_cell_angle_gamma   89.82991756
_symmetry_Int_Tables_number   1
_chemical_formula_structural   NbZn2B4Ru10W3
_chemical_formula_sum   'Nb1 Zn2 B4 Ru10 W3'
_cell_volume   255.77340263
_cell_formula_units_Z   1
loop_
 _symmetry_equiv_pos_site_id
 _symmetry_equiv_pos_as_xyz
  1  'x, y, z'
loop_
 _atom_site_type_symbol
 _atom_site_label
 _atom_site_symmetry_multiplicity
 _atom_site_fract_x
 _atom_site_fract_y
 _atom_site_fract_z
 _atom_site_occupancy
  Nb  Nb0  1  0.677909  0.177909  0.000000  1
  Zn  Zn1  1  0.500848  0.498333  0.000000  1
  Zn  Zn2  1  0.998333  0.000848  0.000000  1
  B  B3  1  0.625851  0.875027  0.000000  1
  B  B4  1  0.375027  0.125851  0.000000  1
  B  B5  1  0.126319  0.626319  0.000000  1
  B  B6  1  0.874062  0.374062  0.000000  1
  Ru  Ru7  1  0.567638  0.716106  0.500000  1
  Ru  Ru8  1  0.424751  0.284976  0.500000  1
  Ru  Ru9  1  0.068852  0.784337  0.500000  1
  Ru  Ru10  1  0.938248  0.218977  0.500000  1
  Ru  Ru11  1  0.284337  0.568852  0.500000  1
  Ru  Ru12  1  0.718977  0.438248  0.500000  1
  Ru  Ru13  1  0.216106  0.067638  0.500000  1
  Ru  Ru14  1  0.784976  0.924751  0.500000  1
  Ru  Ru15  1  0.496591  0.996591  0.500000  1
  Ru  Ru16  1  0.001190  0.501190  0.500000  1
  W  W17  1  0.821653  0.677508  0.000000  1
  W  W18  1  0.177508  0.321653  0.000000  1
  W  W19  1  0.320826  0.820826  0.000000  1
