# generated using pymatgen
data_Pr2Sm3Nb3(Co4P3)4
_symmetry_space_group_name_H-M   'P 1'
_cell_length_a   12.31840700
_cell_length_b   12.31840777
_cell_length_c   3.75028400
_cell_angle_alpha   90.00000000
_cell_angle_beta   90.00000000
_cell_angle_gamma   120.00000061
_symmetry_Int_Tables_number   1
_chemical_formula_structural   Pr2Sm3Nb3(Co4P3)4
_chemical_formula_sum   'Pr2 Sm3 Nb3 Co16 P12'
_cell_volume   492.83768793
_cell_formula_units_Z   1
loop_
 _symmetry_equiv_pos_site_id
 _symmetry_equiv_pos_as_xyz
  1  'x, y, z'
loop_
 _atom_site_type_symbol
 _atom_site_label
 _atom_site_symmetry_multiplicity
 _atom_site_fract_x
 _atom_site_fract_y
 _atom_site_fract_z
 _atom_site_occupancy
  Pr  Pr0  1  0.333333  0.666667  0.000000  1
  Pr  Pr1  1  0.666667  0.333333  0.000000  1
  Sm  Sm2  1  0.815945  0.000000  0.500000  1
  Sm  Sm3  1  0.000000  0.815945  0.500000  1
  Sm  Sm4  1  0.184055  0.184055  0.500000  1
  Nb  Nb5  1  0.443005  0.000000  0.000000  1
  Nb  Nb6  1  0.000000  0.443005  0.000000  1
  Nb  Nb7  1  0.556995  0.556995  0.000000  1
  Co  Co8  1  0.279407  0.000000  0.500000  1
  Co  Co9  1  0.000000  0.279407  0.500000  1
  Co  Co10  1  0.720593  0.720593  0.500000  1
  Co  Co11  1  0.626778  0.802919  0.000000  1
  Co  Co12  1  0.197081  0.823859  0.000000  1
  Co  Co13  1  0.176141  0.373222  0.000000  1
  Co  Co14  1  0.373222  0.176141  0.000000  1
  Co  Co15  1  0.802919  0.626778  0.000000  1
  Co  Co16  1  0.823859  0.197081  0.000000  1
  Co  Co17  1  0.521777  0.875716  0.500000  1
  Co  Co18  1  0.124284  0.646062  0.500000  1
  Co  Co19  1  0.353938  0.478223  0.500000  1
  Co  Co20  1  0.478223  0.353938  0.500000  1
  Co  Co21  1  0.875716  0.521777  0.500000  1
  Co  Co22  1  0.646062  0.124284  0.500000  1
  Co  Co23  1  0.000000  0.000000  0.000000  1
  P  P24  1  0.179528  0.000000  0.000000  1
  P  P25  1  0.000000  0.179528  0.000000  1
  P  P26  1  0.820472  0.820472  0.000000  1
  P  P27  1  0.525288  0.690370  0.500000  1
  P  P28  1  0.309630  0.834918  0.500000  1
  P  P29  1  0.165082  0.474712  0.500000  1
  P  P30  1  0.474712  0.165082  0.500000  1
  P  P31  1  0.690370  0.525288  0.500000  1
  P  P32  1  0.834918  0.309630  0.500000  1
  P  P33  1  0.641213  0.000000  0.000000  1
  P  P34  1  0.000000  0.641213  0.000000  1
  P  P35  1  0.358787  0.358787  0.000000  1
