# generated using pymatgen
data_Ho6Er4(InSb)3
_symmetry_space_group_name_H-M   'P 1'
_cell_length_a   8.91570600
_cell_length_b   8.89878623
_cell_length_c   6.51695300
_cell_angle_alpha   90.00000000
_cell_angle_beta   90.00000000
_cell_angle_gamma   120.06290892
_symmetry_Int_Tables_number   1
_chemical_formula_structural   Ho6Er4(InSb)3
_chemical_formula_sum   'Ho6 Er4 In3 Sb3'
_cell_volume   447.49282858
_cell_formula_units_Z   1
loop_
 _symmetry_equiv_pos_site_id
 _symmetry_equiv_pos_as_xyz
  1  'x, y, z'
loop_
 _atom_site_type_symbol
 _atom_site_label
 _atom_site_symmetry_multiplicity
 _atom_site_fract_x
 _atom_site_fract_y
 _atom_site_fract_z
 _atom_site_occupancy
  Ho  Ho0  1  0.002792  0.763720  0.750000  1
  Ho  Ho1  1  0.003505  0.239043  0.250000  1
  Ho  Ho2  1  0.764462  0.760957  0.250000  1
  Ho  Ho3  1  0.761814  0.000000  0.750000  1
  Ho  Ho4  1  0.239072  0.236280  0.750000  1
  Ho  Ho5  1  0.237451  0.000000  0.250000  1
  Er  Er6  1  0.330588  0.666100  0.499016  1
  Er  Er7  1  0.664490  0.333900  0.000984  1
  Er  Er8  1  0.664490  0.333900  0.499016  1
  Er  Er9  1  0.330588  0.666100  0.000984  1
  In  In10  1  0.398010  0.000000  0.750000  1
  In  In11  1  0.396201  0.398542  0.250000  1
  In  In12  1  0.997659  0.601458  0.250000  1
  Sb  Sb13  1  0.997060  0.391864  0.750000  1
  Sb  Sb14  1  0.605196  0.608136  0.750000  1
  Sb  Sb15  1  0.606623  0.000000  0.250000  1
