# generated using pymatgen
data_Tb3Er5Hf3Si16Mo9
_symmetry_space_group_name_H-M   'P 1'
_cell_length_a   6.97081468
_cell_length_b   6.97199724
_cell_length_c   12.89186340
_cell_angle_alpha   89.92173084
_cell_angle_beta   90.08776290
_cell_angle_gamma   89.78707903
_symmetry_Int_Tables_number   1
_chemical_formula_structural   Tb3Er5Hf3Si16Mo9
_chemical_formula_sum   'Tb3 Er5 Hf3 Si16 Mo9'
_cell_volume   626.54536590
_cell_formula_units_Z   1
loop_
 _symmetry_equiv_pos_site_id
 _symmetry_equiv_pos_as_xyz
  1  'x, y, z'
loop_
 _atom_site_type_symbol
 _atom_site_label
 _atom_site_symmetry_multiplicity
 _atom_site_fract_x
 _atom_site_fract_y
 _atom_site_fract_z
 _atom_site_occupancy
  Tb  Tb0  1  0.496865  0.160826  0.531594  1
  Tb  Tb1  1  0.338060  0.999548  0.783513  1
  Tb  Tb2  1  0.660442  0.004956  0.279475  1
  Er  Er3  1  0.000286  0.338522  0.216455  1
  Er  Er4  1  0.004364  0.659921  0.720563  1
  Er  Er5  1  0.160390  0.497473  0.468439  1
  Er  Er6  1  0.499825  0.841459  0.030867  1
  Er  Er7  1  0.841517  0.499805  0.969134  1
  Hf  Hf8  1  0.831913  0.831664  0.500022  1
  Hf  Hf9  1  0.329723  0.669130  0.247521  1
  Hf  Hf10  1  0.669282  0.329979  0.752486  1
  Si  Si11  1  0.369083  0.295928  0.316765  1
  Si  Si12  1  0.628801  0.706060  0.818135  1
  Si  Si13  1  0.203742  0.870310  0.568128  1
  Si  Si14  1  0.125581  0.803557  0.934681  1
  Si  Si15  1  0.804709  0.126471  0.065519  1
  Si  Si16  1  0.873324  0.205245  0.431915  1
  Si  Si17  1  0.294322  0.372143  0.683038  1
  Si  Si18  1  0.706693  0.627027  0.181643  1
  Si  Si19  1  0.287052  0.046357  0.182543  1
  Si  Si20  1  0.709794  0.957519  0.689140  1
  Si  Si21  1  0.456188  0.789493  0.437775  1
  Si  Si22  1  0.210930  0.532835  0.058260  1
  Si  Si23  1  0.533251  0.211646  0.942002  1
  Si  Si24  1  0.791874  0.457389  0.562420  1
  Si  Si25  1  0.045686  0.289133  0.817288  1
  Si  Si26  1  0.958524  0.707404  0.311050  1
  Mo  Mo27  1  0.167665  0.168123  0.000284  1
  Mo  Mo28  1  0.160041  0.994522  0.375042  1
  Mo  Mo29  1  0.833054  0.003083  0.877230  1
  Mo  Mo30  1  0.506504  0.659289  0.626624  1
  Mo  Mo31  1  0.344795  0.498470  0.873561  1
  Mo  Mo32  1  0.498110  0.345113  0.126307  1
  Mo  Mo33  1  0.659756  0.506352  0.373128  1
  Mo  Mo34  1  0.994811  0.160673  0.624657  1
  Mo  Mo35  1  0.003044  0.832576  0.122799  1
