# generated using pymatgen
data_Rb3Ba(TcN2)4
_symmetry_space_group_name_H-M   'P 1'
_cell_length_a   6.76092843
_cell_length_b   6.76092732
_cell_length_c   8.50035267
_cell_angle_alpha   90.20741444
_cell_angle_beta   89.79257872
_cell_angle_gamma   125.81408806
_symmetry_Int_Tables_number   1
_chemical_formula_structural   Rb3Ba(TcN2)4
_chemical_formula_sum   'Rb3 Ba1 Tc4 N8'
_cell_volume   315.08225966
_cell_formula_units_Z   1
loop_
 _symmetry_equiv_pos_site_id
 _symmetry_equiv_pos_as_xyz
  1  'x, y, z'
loop_
 _atom_site_type_symbol
 _atom_site_label
 _atom_site_symmetry_multiplicity
 _atom_site_fract_x
 _atom_site_fract_y
 _atom_site_fract_z
 _atom_site_occupancy
  Rb  Rb0  1  0.837318  0.162682  0.558662  1
  Rb  Rb1  1  0.158408  0.841592  0.443176  1
  Rb  Rb2  1  0.659998  0.340002  0.074370  1
  Ba  Ba3  1  0.341399  0.658601  0.959968  1
  Tc  Tc4  1  0.544352  0.455648  0.634216  1
  Tc  Tc5  1  0.449371  0.550629  0.364027  1
  Tc  Tc6  1  0.957627  0.042373  0.132596  1
  Tc  Tc7  1  0.050492  0.949508  0.860208  1
  N  N8  1  0.894280  0.105720  0.920633  1
  N  N9  1  0.114505  0.885495  0.074474  1
  N  N10  1  0.603670  0.396330  0.420170  1
  N  N11  1  0.389005  0.610995  0.581902  1
  N  N12  1  0.330586  0.169029  0.746140  1
  N  N13  1  0.172311  0.334292  0.241660  1
  N  N14  1  0.665708  0.827689  0.241660  1
  N  N15  1  0.830971  0.669414  0.746140  1
