# generated using pymatgen
data_YbPr4Y2CoI12
_symmetry_space_group_name_H-M   'P 1'
_cell_length_a   9.89415681
_cell_length_b   10.08431028
_cell_length_c   9.95453887
_cell_angle_alpha   106.57352575
_cell_angle_beta   106.97433407
_cell_angle_gamma   107.36827685
_symmetry_Int_Tables_number   1
_chemical_formula_structural   YbPr4Y2CoI12
_chemical_formula_sum   'Yb1 Pr4 Y2 Co1 I12'
_cell_volume   827.76355382
_cell_formula_units_Z   1
loop_
 _symmetry_equiv_pos_site_id
 _symmetry_equiv_pos_as_xyz
  1  'x, y, z'
loop_
 _atom_site_type_symbol
 _atom_site_label
 _atom_site_symmetry_multiplicity
 _atom_site_fract_x
 _atom_site_fract_y
 _atom_site_fract_z
 _atom_site_occupancy
  Yb  Yb0  1  0.500000  0.500000  0.500000  1
  Pr  Pr1  1  0.100508  0.302388  0.022315  1
  Pr  Pr2  1  0.289312  0.026142  0.094821  1
  Pr  Pr3  1  0.899492  0.697612  0.977685  1
  Pr  Pr4  1  0.710688  0.973858  0.905179  1
  Y  Y5  1  0.974093  0.902146  0.702658  1
  Y  Y6  1  0.025907  0.097854  0.297342  1
  Co  Co7  1  0.000000  0.000000  0.000000  1
  I  I8  1  0.532834  0.616303  0.839022  1
  I  I9  1  0.467166  0.383697  0.160978  1
  I  I10  1  0.311707  0.925252  0.768900  1
  I  I11  1  0.378549  0.160937  0.462314  1
  I  I12  1  0.933065  0.787078  0.329463  1
  I  I13  1  0.688293  0.074748  0.231100  1
  I  I14  1  0.066935  0.212922  0.670537  1
  I  I15  1  0.769067  0.315730  0.924420  1
  I  I16  1  0.230933  0.684270  0.075580  1
  I  I17  1  0.848095  0.549485  0.618667  1
  I  I18  1  0.151905  0.450515  0.381333  1
  I  I19  1  0.621451  0.839063  0.537686  1
