# generated using pymatgen
data_NdSc2Pa(ReB6)2
_symmetry_space_group_name_H-M   'P 1'
_cell_length_a   3.64764200
_cell_length_b   9.04222982
_cell_length_c   11.45514451
_cell_angle_alpha   90.12779087
_cell_angle_beta   90.00000000
_cell_angle_gamma   90.00000000
_symmetry_Int_Tables_number   1
_chemical_formula_structural   NdSc2Pa(ReB6)2
_chemical_formula_sum   'Nd2 Sc4 Pa2 Re4 B24'
_cell_volume   377.82199857
_cell_formula_units_Z   2
loop_
 _symmetry_equiv_pos_site_id
 _symmetry_equiv_pos_as_xyz
  1  'x, y, z'
loop_
 _atom_site_type_symbol
 _atom_site_label
 _atom_site_symmetry_multiplicity
 _atom_site_fract_x
 _atom_site_fract_y
 _atom_site_fract_z
 _atom_site_occupancy
  Nd  Nd0  1  0.000000  0.821770  0.085660  1
  Nd  Nd1  1  0.000000  0.178230  0.914340  1
  Sc  Sc2  1  0.000000  0.945906  0.373972  1
  Sc  Sc3  1  0.000000  0.054094  0.626028  1
  Sc  Sc4  1  0.000000  0.444918  0.127149  1
  Sc  Sc5  1  0.000000  0.555082  0.872851  1
  Pa  Pa6  1  0.000000  0.320001  0.414375  1
  Pa  Pa7  1  0.000000  0.679999  0.585625  1
  Re  Re8  1  0.000000  0.636772  0.323036  1
  Re  Re9  1  0.000000  0.363228  0.676964  1
  Re  Re10  1  0.000000  0.144492  0.186650  1
  Re  Re11  1  0.000000  0.855508  0.813350  1
  B  B12  1  0.500000  0.554806  0.433187  1
  B  B13  1  0.500000  0.445194  0.566813  1
  B  B14  1  0.500000  0.056267  0.070833  1
  B  B15  1  0.500000  0.943733  0.929167  1
  B  B16  1  0.500000  0.753152  0.419128  1
  B  B17  1  0.500000  0.246848  0.580872  1
  B  B18  1  0.500000  0.253996  0.084092  1
  B  B19  1  0.500000  0.746004  0.915908  1
  B  B20  1  0.500000  0.793196  0.267102  1
  B  B21  1  0.500000  0.206804  0.732898  1
  B  B22  1  0.500000  0.294876  0.236602  1
  B  B23  1  0.500000  0.705124  0.763398  1
  B  B24  1  0.500000  0.628015  0.184798  1
  B  B25  1  0.500000  0.371985  0.815202  1
  B  B26  1  0.500000  0.130077  0.318336  1
  B  B27  1  0.500000  0.869923  0.681664  1
  B  B28  1  0.500000  0.982787  0.216553  1
  B  B29  1  0.500000  0.017213  0.783447  1
  B  B30  1  0.500000  0.481905  0.286536  1
  B  B31  1  0.500000  0.518095  0.713464  1
  B  B32  1  0.500000  0.595848  0.026073  1
  B  B33  1  0.500000  0.404152  0.973927  1
  B  B34  1  0.500000  0.100753  0.473061  1
  B  B35  1  0.500000  0.899247  0.526939  1
