# generated using pymatgen
data_Y3Tm9Al4(SiRh2)4
_symmetry_space_group_name_H-M   'P 1'
_cell_length_a   5.50620758
_cell_length_b   7.87035879
_cell_length_c   13.21263300
_cell_angle_alpha   90.00000000
_cell_angle_beta   90.00000000
_cell_angle_gamma   90.05181961
_symmetry_Int_Tables_number   1
_chemical_formula_structural   Y3Tm9Al4(SiRh2)4
_chemical_formula_sum   'Y3 Tm9 Al4 Si4 Rh8'
_cell_volume   572.58017246
_cell_formula_units_Z   1
loop_
 _symmetry_equiv_pos_site_id
 _symmetry_equiv_pos_as_xyz
  1  'x, y, z'
loop_
 _atom_site_type_symbol
 _atom_site_label
 _atom_site_symmetry_multiplicity
 _atom_site_fract_x
 _atom_site_fract_y
 _atom_site_fract_z
 _atom_site_occupancy
  Y  Y0  1  0.367204  0.258990  0.750000  1
  Y  Y1  1  0.633640  0.740434  0.250000  1
  Y  Y2  1  0.632669  0.758894  0.750000  1
  Tm  Tm3  1  0.146525  0.600215  0.103072  1
  Tm  Tm4  1  0.146761  0.899249  0.898375  1
  Tm  Tm5  1  0.853495  0.101017  0.397111  1
  Tm  Tm6  1  0.852773  0.399259  0.602056  1
  Tm  Tm7  1  0.852773  0.399259  0.897944  1
  Tm  Tm8  1  0.853495  0.101017  0.102889  1
  Tm  Tm9  1  0.146761  0.899249  0.601625  1
  Tm  Tm10  1  0.146525  0.600215  0.396928  1
  Tm  Tm11  1  0.368882  0.239693  0.250000  1
  Al  Al12  1  0.371782  0.250331  0.000272  1
  Al  Al13  1  0.627525  0.750056  0.499250  1
  Al  Al14  1  0.627525  0.750056  0.000750  1
  Al  Al15  1  0.371782  0.250331  0.499728  1
  Si  Si16  1  0.867977  0.385556  0.250000  1
  Si  Si17  1  0.867124  0.112090  0.750000  1
  Si  Si18  1  0.133963  0.887799  0.250000  1
  Si  Si19  1  0.132184  0.612578  0.750000  1
  Rh  Rh20  1  0.645337  0.467080  0.093955  1
  Rh  Rh21  1  0.647323  0.032116  0.907449  1
  Rh  Rh22  1  0.354397  0.969725  0.405811  1
  Rh  Rh23  1  0.352259  0.532936  0.592619  1
  Rh  Rh24  1  0.352259  0.532936  0.907381  1
  Rh  Rh25  1  0.354397  0.969725  0.094189  1
  Rh  Rh26  1  0.647323  0.032116  0.592551  1
  Rh  Rh27  1  0.645337  0.467080  0.406045  1
