# generated using pymatgen
data_CaDyHo2MgSb3O14
_symmetry_space_group_name_H-M   'P 1'
_cell_length_a   7.18808623
_cell_length_b   7.18901382
_cell_length_c   7.18903500
_cell_angle_alpha   118.21043670
_cell_angle_beta   61.80888716
_cell_angle_gamma   118.19106546
_symmetry_Int_Tables_number   1
_chemical_formula_structural   CaDyHo2MgSb3O14
_chemical_formula_sum   'Ca1 Dy1 Ho2 Mg1 Sb3 O14'
_cell_volume   273.29248512
_cell_formula_units_Z   1
loop_
 _symmetry_equiv_pos_site_id
 _symmetry_equiv_pos_as_xyz
  1  'x, y, z'
loop_
 _atom_site_type_symbol
 _atom_site_label
 _atom_site_symmetry_multiplicity
 _atom_site_fract_x
 _atom_site_fract_y
 _atom_site_fract_z
 _atom_site_occupancy
  Ca  Ca0  1  0.500042  0.500058  0.000022  1
  Dy  Dy1  1  0.000050  0.500010  0.000038  1
  Ho  Ho2  1  0.500016  0.000038  0.000030  1
  Ho  Ho3  1  0.500004  0.500004  0.500027  1
  Mg  Mg4  1  0.999817  0.999797  0.499913  1
  Sb  Sb5  1  0.499991  0.000041  0.500011  1
  Sb  Sb6  1  0.000016  0.499989  0.500051  1
  Sb  Sb7  1  0.999998  0.000020  0.000046  1
  O  O8  1  0.626993  0.370952  0.129066  1
  O  O9  1  0.373137  0.629075  0.870947  1
  O  O10  1  0.081896  0.328046  0.171911  1
  O  O11  1  0.671917  0.918290  0.171919  1
  O  O12  1  0.671897  0.328066  0.581727  1
  O  O13  1  0.918146  0.671925  0.828013  1
  O  O14  1  0.328055  0.081726  0.828074  1
  O  O15  1  0.328021  0.671906  0.418294  1
  O  O16  1  0.656064  0.911524  0.588498  1
  O  O17  1  0.088993  0.343815  0.587973  1
  O  O18  1  0.089018  0.912047  0.156145  1
  O  O19  1  0.343892  0.088545  0.411472  1
  O  O20  1  0.911008  0.656123  0.412007  1
  O  O21  1  0.911031  0.088005  0.843816  1
