# generated using pymatgen
data_CsAcHgSe3
_symmetry_space_group_name_H-M   'P 1'
_cell_length_a   8.44825765
_cell_length_b   8.44825776
_cell_length_c   11.90103400
_cell_angle_alpha   90.00000000
_cell_angle_beta   90.00000000
_cell_angle_gamma   148.25058198
_symmetry_Int_Tables_number   1
_chemical_formula_structural   CsAcHgSe3
_chemical_formula_sum   'Cs2 Ac2 Hg2 Se6'
_cell_volume   446.96571190
_cell_formula_units_Z   2
loop_
 _symmetry_equiv_pos_site_id
 _symmetry_equiv_pos_as_xyz
  1  'x, y, z'
loop_
 _atom_site_type_symbol
 _atom_site_label
 _atom_site_symmetry_multiplicity
 _atom_site_fract_x
 _atom_site_fract_y
 _atom_site_fract_z
 _atom_site_occupancy
  Cs  Cs0  1  0.258179  0.741821  0.248071  1
  Cs  Cs1  1  0.741821  0.258179  0.748071  1
  Ac  Ac2  1  0.997233  0.002767  0.001166  1
  Ac  Ac3  1  0.002767  0.997233  0.501166  1
  Hg  Hg4  1  0.545907  0.454093  0.250749  1
  Hg  Hg5  1  0.454093  0.545907  0.750749  1
  Se  Se6  1  0.627564  0.372436  0.442798  1
  Se  Se7  1  0.377601  0.622399  0.555227  1
  Se  Se8  1  0.622399  0.377601  0.055227  1
  Se  Se9  1  0.372436  0.627564  0.942798  1
  Se  Se10  1  0.940573  0.059427  0.252290  1
  Se  Se11  1  0.059427  0.940573  0.752290  1
