# generated using pymatgen
data_Sr8Yb11ThPt16
_symmetry_space_group_name_H-M   'P 1'
_cell_length_a   7.68322933
_cell_length_b   7.84026766
_cell_length_c   14.87616600
_cell_angle_alpha   89.99738378
_cell_angle_beta   90.05331190
_cell_angle_gamma   89.88553169
_symmetry_Int_Tables_number   1
_chemical_formula_structural   Sr8Yb11ThPt16
_chemical_formula_sum   'Sr8 Yb11 Th1 Pt16'
_cell_volume   896.11685470
_cell_formula_units_Z   1
loop_
 _symmetry_equiv_pos_site_id
 _symmetry_equiv_pos_as_xyz
  1  'x, y, z'
loop_
 _atom_site_type_symbol
 _atom_site_label
 _atom_site_symmetry_multiplicity
 _atom_site_fract_x
 _atom_site_fract_y
 _atom_site_fract_z
 _atom_site_occupancy
  Sr  Sr0  1  0.503027  0.326409  0.904071  1
  Sr  Sr1  1  0.000023  0.176661  0.594162  1
  Sr  Sr2  1  0.499062  0.675099  0.403130  1
  Sr  Sr3  1  0.997032  0.823970  0.098703  1
  Sr  Sr4  1  0.501068  0.672397  0.101510  1
  Sr  Sr5  1  0.999018  0.824361  0.403276  1
  Sr  Sr6  1  0.502191  0.324092  0.594651  1
  Sr  Sr7  1  0.996515  0.181684  0.903856  1
  Yb  Yb8  1  0.837560  0.664755  0.621466  1
  Yb  Yb9  1  0.662230  0.166970  0.377046  1
  Yb  Yb10  1  0.160011  0.334573  0.124235  1
  Yb  Yb11  1  0.662016  0.167108  0.123599  1
  Yb  Yb12  1  0.162445  0.333359  0.377114  1
  Yb  Yb13  1  0.337031  0.832583  0.621098  1
  Yb  Yb14  1  0.838487  0.665057  0.877096  1
  Yb  Yb15  1  0.172525  0.492916  0.745665  1
  Yb  Yb16  1  0.683728  0.006075  0.745815  1
  Yb  Yb17  1  0.824240  0.500428  0.251520  1
  Yb  Yb18  1  0.323111  0.998694  0.251931  1
  Th  Th19  1  0.338711  0.835302  0.876830  1
  Pt  Pt20  1  0.326415  0.036865  0.039369  1
  Pt  Pt21  1  0.835936  0.459966  0.457057  1
  Pt  Pt22  1  0.664477  0.960189  0.543021  1
  Pt  Pt23  1  0.169067  0.550459  0.957133  1
  Pt  Pt24  1  0.660435  0.956514  0.955107  1
  Pt  Pt25  1  0.163148  0.537128  0.543003  1
  Pt  Pt26  1  0.337076  0.038972  0.456910  1
  Pt  Pt27  1  0.840344  0.460609  0.042389  1
  Pt  Pt28  1  0.540024  0.633827  0.753966  1
  Pt  Pt29  1  0.047680  0.865132  0.751913  1
  Pt  Pt30  1  0.454734  0.367361  0.249690  1
  Pt  Pt31  1  0.955311  0.130910  0.250309  1
  Pt  Pt32  1  0.309460  0.122110  0.753053  1
  Pt  Pt33  1  0.798468  0.377052  0.749162  1
  Pt  Pt34  1  0.699089  0.875435  0.250364  1
  Pt  Pt35  1  0.198305  0.624974  0.250782  1
