# generated using pymatgen
data_YU(ZnIr)2
_symmetry_space_group_name_H-M   'P 1'
_cell_length_a   3.82343700
_cell_length_b   7.13992322
_cell_length_c   8.40952341
_cell_angle_alpha   92.45010158
_cell_angle_beta   90.00000000
_cell_angle_gamma   90.00000000
_symmetry_Int_Tables_number   1
_chemical_formula_structural   YU(ZnIr)2
_chemical_formula_sum   'Y2 U2 Zn4 Ir4'
_cell_volume   229.36210403
_cell_formula_units_Z   2
loop_
 _symmetry_equiv_pos_site_id
 _symmetry_equiv_pos_as_xyz
  1  'x, y, z'
loop_
 _atom_site_type_symbol
 _atom_site_label
 _atom_site_symmetry_multiplicity
 _atom_site_fract_x
 _atom_site_fract_y
 _atom_site_fract_z
 _atom_site_occupancy
  Y  Y0  1  0.750000  0.942659  0.685154  1
  Y  Y1  1  0.250000  0.057341  0.314846  1
  U  U2  1  0.250000  0.550026  0.188438  1
  U  U3  1  0.750000  0.449974  0.811562  1
  Zn  Zn4  1  0.250000  0.627235  0.558775  1
  Zn  Zn5  1  0.750000  0.372765  0.441225  1
  Zn  Zn6  1  0.750000  0.879562  0.062478  1
  Zn  Zn7  1  0.250000  0.120438  0.937522  1
  Ir  Ir8  1  0.250000  0.715786  0.880131  1
  Ir  Ir9  1  0.750000  0.284214  0.119869  1
  Ir  Ir10  1  0.750000  0.743878  0.355677  1
  Ir  Ir11  1  0.250000  0.256122  0.644323  1
