# generated using pymatgen
data_TbDyY3(In2Pt)2
_symmetry_space_group_name_H-M   'P 1'
_cell_length_a   3.63653200
_cell_length_b   8.18410428
_cell_length_c   18.31011385
_cell_angle_alpha   90.06400924
_cell_angle_beta   90.00000000
_cell_angle_gamma   90.00000000
_symmetry_Int_Tables_number   1
_chemical_formula_structural   TbDyY3(In2Pt)2
_chemical_formula_sum   'Tb2 Dy2 Y6 In8 Pt4'
_cell_volume   544.94082090
_cell_formula_units_Z   2
loop_
 _symmetry_equiv_pos_site_id
 _symmetry_equiv_pos_as_xyz
  1  'x, y, z'
loop_
 _atom_site_type_symbol
 _atom_site_label
 _atom_site_symmetry_multiplicity
 _atom_site_fract_x
 _atom_site_fract_y
 _atom_site_fract_z
 _atom_site_occupancy
  Tb  Tb0  1  0.000000  0.243331  0.220618  1
  Tb  Tb1  1  0.000000  0.756669  0.779382  1
  Dy  Dy2  1  0.000000  0.256591  0.720703  1
  Dy  Dy3  1  0.000000  0.743409  0.279297  1
  Y  Y4  1  0.000000  0.117104  0.415275  1
  Y  Y5  1  0.000000  0.882896  0.584725  1
  Y  Y6  1  0.000000  0.382781  0.915262  1
  Y  Y7  1  0.000000  0.617219  0.084738  1
  Y  Y8  1  0.000000  0.000000  0.000000  1
  Y  Y9  1  0.000000  0.500000  0.500000  1
  In  In10  1  0.500000  0.424534  0.351366  1
  In  In11  1  0.500000  0.575466  0.648634  1
  In  In12  1  0.500000  0.075781  0.851305  1
  In  In13  1  0.500000  0.924219  0.148695  1
  In  In14  1  0.500000  0.292347  0.067205  1
  In  In15  1  0.500000  0.707653  0.932795  1
  In  In16  1  0.500000  0.207771  0.567304  1
  In  In17  1  0.500000  0.792229  0.432696  1
  Pt  Pt18  1  0.500000  0.023761  0.302861  1
  Pt  Pt19  1  0.500000  0.976239  0.697139  1
  Pt  Pt20  1  0.500000  0.475185  0.802739  1
  Pt  Pt21  1  0.500000  0.524815  0.197261  1
