# generated using pymatgen
data_CaSmCo4(B2Ru)4
_symmetry_space_group_name_H-M   'P 1'
_cell_length_a   7.22318814
_cell_length_b   7.21559514
_cell_length_c   3.91740600
_cell_angle_alpha   90.00000000
_cell_angle_beta   90.00000000
_cell_angle_gamma   89.97726228
_symmetry_Int_Tables_number   1
_chemical_formula_structural   CaSmCo4(B2Ru)4
_chemical_formula_sum   'Ca1 Sm1 Co4 B8 Ru4'
_cell_volume   204.17362265
_cell_formula_units_Z   1
loop_
 _symmetry_equiv_pos_site_id
 _symmetry_equiv_pos_as_xyz
  1  'x, y, z'
loop_
 _atom_site_type_symbol
 _atom_site_label
 _atom_site_symmetry_multiplicity
 _atom_site_fract_x
 _atom_site_fract_y
 _atom_site_fract_z
 _atom_site_occupancy
  Ca  Ca0  1  0.000000  0.000000  0.912977  1
  Sm  Sm1  1  0.500000  0.500000  0.412321  1
  Co  Co2  1  0.118082  0.379832  0.623919  1
  Co  Co3  1  0.881918  0.620168  0.623919  1
  Co  Co4  1  0.120856  0.617352  0.123410  1
  Co  Co5  1  0.879144  0.382648  0.123410  1
  B  B6  1  0.820147  0.659805  0.119659  1
  B  B7  1  0.179853  0.340195  0.119659  1
  B  B8  1  0.841566  0.318144  0.620182  1
  B  B9  1  0.158434  0.681856  0.620182  1
  B  B10  1  0.725773  0.826153  0.401541  1
  B  B11  1  0.274227  0.173847  0.401541  1
  B  B12  1  0.674637  0.225465  0.902090  1
  B  B13  1  0.325363  0.774535  0.902090  1
  Ru  Ru14  1  0.388019  0.158139  0.898019  1
  Ru  Ru15  1  0.611981  0.841861  0.898019  1
  Ru  Ru16  1  0.342933  0.887660  0.398531  1
  Ru  Ru17  1  0.657067  0.112340  0.398531  1
