# generated using pymatgen
data_Er2Tm(Co3P2)3
_symmetry_space_group_name_H-M   'P 1'
_cell_length_a   3.67523700
_cell_length_b   10.48334400
_cell_length_c   12.11813000
_cell_angle_alpha   90.00000000
_cell_angle_beta   90.00000000
_cell_angle_gamma   90.00000000
_symmetry_Int_Tables_number   1
_chemical_formula_structural   Er2Tm(Co3P2)3
_chemical_formula_sum   'Er4 Tm2 Co18 P12'
_cell_volume   466.89668907
_cell_formula_units_Z   2
loop_
 _symmetry_equiv_pos_site_id
 _symmetry_equiv_pos_as_xyz
  1  'x, y, z'
loop_
 _atom_site_type_symbol
 _atom_site_label
 _atom_site_symmetry_multiplicity
 _atom_site_fract_x
 _atom_site_fract_y
 _atom_site_fract_z
 _atom_site_occupancy
  Er  Er0  1  0.750000  0.250000  0.477931  1
  Er  Er1  1  0.250000  0.750000  0.522550  1
  Er  Er2  1  0.750000  0.067398  0.205822  1
  Er  Er3  1  0.750000  0.432602  0.205822  1
  Tm  Tm4  1  0.250000  0.932118  0.794174  1
  Tm  Tm5  1  0.250000  0.567882  0.794174  1
  Co  Co6  1  0.250000  0.250000  0.841006  1
  Co  Co7  1  0.750000  0.750000  0.159100  1
  Co  Co8  1  0.250000  0.250000  0.296815  1
  Co  Co9  1  0.750000  0.750000  0.703256  1
  Co  Co10  1  0.750000  0.250000  0.013655  1
  Co  Co11  1  0.250000  0.750000  0.985353  1
  Co  Co12  1  0.250000  0.417014  0.005252  1
  Co  Co13  1  0.250000  0.082986  0.005252  1
  Co  Co14  1  0.750000  0.583483  0.994134  1
  Co  Co15  1  0.750000  0.916517  0.994134  1
  Co  Co16  1  0.250000  0.452545  0.569590  1
  Co  Co17  1  0.250000  0.047455  0.569590  1
  Co  Co18  1  0.750000  0.547596  0.430941  1
  Co  Co19  1  0.750000  0.952404  0.430941  1
  Co  Co20  1  0.250000  0.871143  0.290568  1
  Co  Co21  1  0.250000  0.628857  0.290568  1
  Co  Co22  1  0.750000  0.128537  0.709717  1
  Co  Co23  1  0.750000  0.371463  0.709717  1
  P  P24  1  0.250000  0.250000  0.117686  1
  P  P25  1  0.750000  0.750000  0.881571  1
  P  P26  1  0.250000  0.250000  0.655438  1
  P  P27  1  0.750000  0.750000  0.344804  1
  P  P28  1  0.250000  0.438694  0.383759  1
  P  P29  1  0.250000  0.061306  0.383759  1
  P  P30  1  0.750000  0.561447  0.616793  1
  P  P31  1  0.750000  0.938553  0.616793  1
  P  P32  1  0.250000  0.902561  0.107246  1
  P  P33  1  0.250000  0.597439  0.107246  1
  P  P34  1  0.750000  0.096628  0.892421  1
  P  P35  1  0.750000  0.403372  0.892421  1
