# generated using pymatgen
data_Yb3InRh2
_symmetry_space_group_name_H-M   'P 1'
_cell_length_a   4.27127600
_cell_length_b   7.24164400
_cell_length_c   8.62480800
_cell_angle_alpha   90.00000000
_cell_angle_beta   90.00000000
_cell_angle_gamma   90.00000000
_symmetry_Int_Tables_number   1
_chemical_formula_structural   Yb3InRh2
_chemical_formula_sum   'Yb6 In2 Rh4'
_cell_volume   266.77445561
_cell_formula_units_Z   2
loop_
 _symmetry_equiv_pos_site_id
 _symmetry_equiv_pos_as_xyz
  1  'x, y, z'
loop_
 _atom_site_type_symbol
 _atom_site_label
 _atom_site_symmetry_multiplicity
 _atom_site_fract_x
 _atom_site_fract_y
 _atom_site_fract_z
 _atom_site_occupancy
  Yb  Yb0  1  0.250000  0.513737  0.176423  1
  Yb  Yb1  1  0.750000  0.454418  0.827842  1
  Yb  Yb2  1  0.250000  0.045582  0.327842  1
  Yb  Yb3  1  0.750000  0.986263  0.676423  1
  Yb  Yb4  1  0.250000  0.647709  0.559647  1
  Yb  Yb5  1  0.750000  0.852291  0.059647  1
  In  In6  1  0.250000  0.144861  0.934776  1
  In  In7  1  0.750000  0.355139  0.434776  1
  Rh  Rh8  1  0.750000  0.234517  0.128574  1
  Rh  Rh9  1  0.250000  0.265483  0.628574  1
  Rh  Rh10  1  0.750000  0.741396  0.372738  1
  Rh  Rh11  1  0.250000  0.758604  0.872738  1
