# generated using pymatgen
data_Tb2Fe6Co
_symmetry_space_group_name_H-M   'P 1'
_cell_length_a   5.08123256
_cell_length_b   5.08054889
_cell_length_c   12.42597493
_cell_angle_alpha   78.26654236
_cell_angle_beta   78.20209424
_cell_angle_gamma   59.99553636
_symmetry_Int_Tables_number   1
_chemical_formula_structural   Tb2Fe6Co
_chemical_formula_sum   'Tb4 Fe12 Co2'
_cell_volume   269.98311569
_cell_formula_units_Z   2
loop_
 _symmetry_equiv_pos_site_id
 _symmetry_equiv_pos_as_xyz
  1  'x, y, z'
loop_
 _atom_site_type_symbol
 _atom_site_label
 _atom_site_symmetry_multiplicity
 _atom_site_fract_x
 _atom_site_fract_y
 _atom_site_fract_z
 _atom_site_occupancy
  Tb  Tb0  1  0.051892  0.051991  0.844224  1
  Tb  Tb1  1  0.948249  0.948079  0.155424  1
  Tb  Tb2  1  0.149882  0.148942  0.551294  1
  Tb  Tb3  1  0.850651  0.851335  0.447362  1
  Fe  Fe4  1  0.278652  0.278005  0.164691  1
  Fe  Fe5  1  0.722018  0.720956  0.835008  1
  Fe  Fe6  1  0.387826  0.388280  0.836070  1
  Fe  Fe7  1  0.611800  0.612503  0.163896  1
  Fe  Fe8  1  0.500200  0.500047  0.999998  1
  Fe  Fe9  1  0.499849  0.000277  0.000026  1
  Fe  Fe10  1  0.999755  0.500047  0.999998  1
  Fe  Fe11  1  0.109062  0.609521  0.672095  1
  Fe  Fe12  1  0.609323  0.609521  0.672095  1
  Fe  Fe13  1  0.609709  0.108457  0.672126  1
  Fe  Fe14  1  0.890449  0.390537  0.328432  1
  Fe  Fe15  1  0.390582  0.390537  0.328432  1
  Co  Co16  1  0.499646  0.499712  0.500997  1
  Co  Co17  1  0.390456  0.891256  0.327833  1
