# generated using pymatgen
data_Zr12Zn9Pd3N4
_symmetry_space_group_name_H-M   'P 1'
_cell_length_a   8.61985578
_cell_length_b   8.61985579
_cell_length_c   8.61985642
_cell_angle_alpha   60.02936235
_cell_angle_beta   60.02936230
_cell_angle_gamma   60.02935887
_symmetry_Int_Tables_number   1
_chemical_formula_structural   Zr12Zn9Pd3N4
_chemical_formula_sum   'Zr12 Zn9 Pd3 N4'
_cell_volume   453.18339684
_cell_formula_units_Z   1
loop_
 _symmetry_equiv_pos_site_id
 _symmetry_equiv_pos_as_xyz
  1  'x, y, z'
loop_
 _atom_site_type_symbol
 _atom_site_label
 _atom_site_symmetry_multiplicity
 _atom_site_fract_x
 _atom_site_fract_y
 _atom_site_fract_z
 _atom_site_occupancy
  Zr  Zr0  1  0.813081  0.187051  0.187051  1
  Zr  Zr1  1  0.187051  0.813081  0.187051  1
  Zr  Zr2  1  0.813330  0.813330  0.185388  1
  Zr  Zr3  1  0.185388  0.813330  0.813330  1
  Zr  Zr4  1  0.813330  0.185388  0.813330  1
  Zr  Zr5  1  0.187051  0.187051  0.813081  1
  Zr  Zr6  1  0.436919  0.062949  0.062949  1
  Zr  Zr7  1  0.062949  0.436919  0.062949  1
  Zr  Zr8  1  0.436670  0.436670  0.064612  1
  Zr  Zr9  1  0.064612  0.436670  0.436670  1
  Zr  Zr10  1  0.436670  0.064612  0.436670  1
  Zr  Zr11  1  0.062949  0.062949  0.436919  1
  Zn  Zn12  1  0.418805  0.418805  0.744366  1
  Zn  Zn13  1  0.418666  0.418666  0.418666  1
  Zn  Zn14  1  0.744366  0.418805  0.418805  1
  Zn  Zn15  1  0.418805  0.744366  0.418805  1
  Zn  Zn16  1  0.831195  0.831195  0.505634  1
  Zn  Zn17  1  0.831334  0.831334  0.831334  1
  Zn  Zn18  1  0.505634  0.831195  0.831195  1
  Zn  Zn19  1  0.831195  0.505634  0.831195  1
  Zn  Zn20  1  0.625000  0.625000  0.625000  1
  Pd  Pd21  1  0.625000  0.625000  0.125000  1
  Pd  Pd22  1  0.125000  0.625000  0.625000  1
  Pd  Pd23  1  0.625000  0.125000  0.625000  1
  N  N24  1  0.125000  0.125000  0.625000  1
  N  N25  1  0.125000  0.125000  0.125000  1
  N  N26  1  0.625000  0.125000  0.125000  1
  N  N27  1  0.125000  0.625000  0.125000  1
