# generated using pymatgen
data_Rb6ErHgF12
_symmetry_space_group_name_H-M   'P 1'
_cell_length_a   6.83093179
_cell_length_b   6.59327581
_cell_length_c   11.46110700
_cell_angle_alpha   55.23208027
_cell_angle_beta   89.94818081
_cell_angle_gamma   89.95704120
_symmetry_Int_Tables_number   1
_chemical_formula_structural   Rb6ErHgF12
_chemical_formula_sum   'Rb6 Er1 Hg1 F12'
_cell_volume   424.03191531
_cell_formula_units_Z   1
loop_
 _symmetry_equiv_pos_site_id
 _symmetry_equiv_pos_as_xyz
  1  'x, y, z'
loop_
 _atom_site_type_symbol
 _atom_site_label
 _atom_site_symmetry_multiplicity
 _atom_site_fract_x
 _atom_site_fract_y
 _atom_site_fract_z
 _atom_site_occupancy
  Rb  Rb0  1  0.500000  0.500000  0.000000  1
  Rb  Rb1  1  0.000000  0.500000  0.500000  1
  Rb  Rb2  1  0.049875  0.730993  0.753779  1
  Rb  Rb3  1  0.950125  0.269007  0.246221  1
  Rb  Rb4  1  0.550407  0.264782  0.748045  1
  Rb  Rb5  1  0.449593  0.735218  0.251955  1
  Er  Er6  1  0.500000  0.000000  0.500000  1
  Hg  Hg7  1  0.000000  0.000000  0.000000  1
  F  F8  1  0.762168  0.773588  0.562921  1
  F  F9  1  0.237832  0.226412  0.437079  1
  F  F10  1  0.269176  0.233067  0.935088  1
  F  F11  1  0.730824  0.766933  0.064912  1
  F  F12  1  0.451615  0.885068  0.716546  1
  F  F13  1  0.548385  0.114932  0.283454  1
  F  F14  1  0.950208  0.117070  0.779121  1
  F  F15  1  0.049792  0.882930  0.220879  1
  F  F16  1  0.328483  0.686867  0.544913  1
  F  F17  1  0.671517  0.313133  0.455087  1
  F  F18  1  0.822762  0.323863  0.952830  1
  F  F19  1  0.177238  0.676137  0.047170  1
