# generated using pymatgen
data_Ti3Fe(Co2B)2
_symmetry_space_group_name_H-M   'P 1'
_cell_length_a   8.47796702
_cell_length_b   8.47823902
_cell_length_c   3.00379700
_cell_angle_alpha   90.00000000
_cell_angle_beta   90.00000000
_cell_angle_gamma   89.99241742
_symmetry_Int_Tables_number   1
_chemical_formula_structural   Ti3Fe(Co2B)2
_chemical_formula_sum   'Ti6 Fe2 Co8 B4'
_cell_volume   215.90761208
_cell_formula_units_Z   2
loop_
 _symmetry_equiv_pos_site_id
 _symmetry_equiv_pos_as_xyz
  1  'x, y, z'
loop_
 _atom_site_type_symbol
 _atom_site_label
 _atom_site_symmetry_multiplicity
 _atom_site_fract_x
 _atom_site_fract_y
 _atom_site_fract_z
 _atom_site_occupancy
  Ti  Ti0  1  0.999738  0.999969  0.000000  1
  Ti  Ti1  1  0.500386  0.498936  0.000000  1
  Ti  Ti2  1  0.827477  0.323731  0.000000  1
  Ti  Ti3  1  0.320892  0.172063  0.000000  1
  Ti  Ti4  1  0.673875  0.825121  0.000000  1
  Ti  Ti5  1  0.175369  0.677299  0.000000  1
  Fe  Fe6  1  0.070206  0.221369  0.500000  1
  Fe  Fe7  1  0.220448  0.927043  0.500000  1
  Co  Co8  1  0.501282  0.999669  0.500000  1
  Co  Co9  1  0.000171  0.502406  0.500000  1
  Co  Co10  1  0.778644  0.070633  0.500000  1
  Co  Co11  1  0.926427  0.780120  0.500000  1
  Co  Co12  1  0.432443  0.719729  0.500000  1
  Co  Co13  1  0.570592  0.279266  0.500000  1
  Co  Co14  1  0.720393  0.569848  0.500000  1
  Co  Co15  1  0.280398  0.431198  0.500000  1
  B  B16  1  0.620437  0.120801  0.000000  1
  B  B17  1  0.121368  0.380780  0.000000  1
  B  B18  1  0.878956  0.621187  0.000000  1
  B  B19  1  0.380498  0.878833  0.000000  1
