# generated using pymatgen
data_Tb7Er6Th3Tl3CdIr4
_symmetry_space_group_name_H-M   'P 1'
_cell_length_a   9.70803273
_cell_length_b   9.70765499
_cell_length_c   9.70041700
_cell_angle_alpha   60.02465765
_cell_angle_beta   60.02594350
_cell_angle_gamma   60.05907201
_symmetry_Int_Tables_number   1
_chemical_formula_structural   Tb7Er6Th3Tl3CdIr4
_chemical_formula_sum   'Tb7 Er6 Th3 Tl3 Cd1 Ir4'
_cell_volume   646.96473036
_cell_formula_units_Z   1
loop_
 _symmetry_equiv_pos_site_id
 _symmetry_equiv_pos_as_xyz
  1  'x, y, z'
loop_
 _atom_site_type_symbol
 _atom_site_label
 _atom_site_symmetry_multiplicity
 _atom_site_fract_x
 _atom_site_fract_y
 _atom_site_fract_z
 _atom_site_occupancy
  Tb  Tb0  1  0.062988  0.061002  0.438006  1
  Tb  Tb1  1  0.190378  0.811550  0.812325  1
  Tb  Tb2  1  0.812192  0.188192  0.187001  1
  Tb  Tb3  1  0.812192  0.188192  0.812614  1
  Tb  Tb4  1  0.190378  0.811550  0.185747  1
  Tb  Tb5  1  0.813550  0.812891  0.186779  1
  Tb  Tb6  1  0.189938  0.187439  0.811312  1
  Er  Er7  1  0.199120  0.600164  0.600359  1
  Er  Er8  1  0.062648  0.439154  0.438349  1
  Er  Er9  1  0.436720  0.063738  0.063252  1
  Er  Er10  1  0.436720  0.063738  0.436289  1
  Er  Er11  1  0.062648  0.439154  0.059849  1
  Er  Er12  1  0.435655  0.436762  0.063792  1
  Th  Th13  1  0.596419  0.600029  0.599287  1
  Th  Th14  1  0.596419  0.600029  0.204267  1
  Th  Th15  1  0.596486  0.202786  0.600365  1
  Tl  Tl16  1  0.835725  0.833759  0.834854  1
  Tl  Tl17  1  0.835725  0.833759  0.495664  1
  Tl  Tl18  1  0.835258  0.495366  0.834689  1
  Cd  Cd19  1  0.498525  0.832754  0.834361  1
  Ir  Ir20  1  0.392563  0.390582  0.392473  1
  Ir  Ir21  1  0.392563  0.390582  0.824383  1
  Ir  Ir22  1  0.393919  0.822917  0.391582  1
  Ir  Ir23  1  0.821271  0.393918  0.392406  1
