# generated using pymatgen
data_TbLu(Th2In5)2
_symmetry_space_group_name_H-M   'P 1'
_cell_length_a   6.58071828
_cell_length_b   6.58071949
_cell_length_c   10.32437900
_cell_angle_alpha   90.00000000
_cell_angle_beta   90.00000000
_cell_angle_gamma   102.36371114
_symmetry_Int_Tables_number   1
_chemical_formula_structural   TbLu(Th2In5)2
_chemical_formula_sum   'Tb1 Lu1 Th4 In10'
_cell_volume   436.73687660
_cell_formula_units_Z   1
loop_
 _symmetry_equiv_pos_site_id
 _symmetry_equiv_pos_as_xyz
  1  'x, y, z'
loop_
 _atom_site_type_symbol
 _atom_site_label
 _atom_site_symmetry_multiplicity
 _atom_site_fract_x
 _atom_site_fract_y
 _atom_site_fract_z
 _atom_site_occupancy
  Tb  Tb0  1  0.130757  0.130757  0.750000  1
  Lu  Lu1  1  0.868600  0.868600  0.250000  1
  Th  Th2  1  0.706036  0.293710  0.000224  1
  Th  Th3  1  0.706036  0.293710  0.499776  1
  Th  Th4  1  0.293710  0.706036  0.000224  1
  Th  Th5  1  0.293710  0.706036  0.499776  1
  In  In6  1  0.510692  0.510692  0.750000  1
  In  In7  1  0.490266  0.490266  0.250000  1
  In  In8  1  0.810905  0.810905  0.545456  1
  In  In9  1  0.188714  0.188714  0.453184  1
  In  In10  1  0.810905  0.810905  0.954544  1
  In  In11  1  0.188714  0.188714  0.046816  1
  In  In12  1  0.992945  0.568444  0.750000  1
  In  In13  1  0.432986  0.006578  0.250000  1
  In  In14  1  0.006578  0.432986  0.250000  1
  In  In15  1  0.568444  0.992945  0.750000  1
