# generated using pymatgen
data_ZrSc3(Si4Os3)2
_symmetry_space_group_name_H-M   'P 1'
_cell_length_a   9.99956292
_cell_length_b   9.99956301
_cell_length_c   13.43469081
_cell_angle_alpha   53.68728636
_cell_angle_beta   53.68728576
_cell_angle_gamma   30.92473351
_symmetry_Int_Tables_number   1
_chemical_formula_structural   ZrSc3(Si4Os3)2
_chemical_formula_sum   'Zr2 Sc6 Si16 Os12'
_cell_volume   544.67696752
_cell_formula_units_Z   2
loop_
 _symmetry_equiv_pos_site_id
 _symmetry_equiv_pos_as_xyz
  1  'x, y, z'
loop_
 _atom_site_type_symbol
 _atom_site_label
 _atom_site_symmetry_multiplicity
 _atom_site_fract_x
 _atom_site_fract_y
 _atom_site_fract_z
 _atom_site_occupancy
  Zr  Zr0  1  0.704977  0.444775  0.352852  1
  Zr  Zr1  1  0.555225  0.295023  0.147148  1
  Sc  Sc2  1  0.037849  0.293106  0.637600  1
  Sc  Sc3  1  0.706894  0.962151  0.862400  1
  Sc  Sc4  1  0.961680  0.706426  0.362705  1
  Sc  Sc5  1  0.293574  0.038320  0.137295  1
  Sc  Sc6  1  0.292691  0.557813  0.648342  1
  Sc  Sc7  1  0.442187  0.707309  0.851658  1
  Si  Si8  1  0.975564  0.252813  0.891302  1
  Si  Si9  1  0.747187  0.024436  0.608698  1
  Si  Si10  1  0.021254  0.749528  0.109008  1
  Si  Si11  1  0.250472  0.978746  0.390992  1
  Si  Si12  1  0.144716  0.384087  0.899215  1
  Si  Si13  1  0.615913  0.855284  0.600785  1
  Si  Si14  1  0.855072  0.616614  0.100606  1
  Si  Si15  1  0.383386  0.144928  0.399394  1
  Si  Si16  1  0.081116  0.574482  0.566181  1
  Si  Si17  1  0.425518  0.918884  0.933819  1
  Si  Si18  1  0.919689  0.425997  0.435487  1
  Si  Si19  1  0.574003  0.080311  0.064513  1
  Si  Si20  1  0.620391  0.379609  0.750000  1
  Si  Si21  1  0.383570  0.616430  0.250000  1
  Si  Si22  1  0.125801  0.874199  0.750000  1
  Si  Si23  1  0.874224  0.125776  0.250000  1
  Os  Os24  1  0.894203  0.143581  0.584211  1
  Os  Os25  1  0.856419  0.105797  0.915789  1
  Os  Os26  1  0.107980  0.855891  0.413764  1
  Os  Os27  1  0.144109  0.892020  0.086236  1
  Os  Os28  1  0.831118  0.646462  0.783747  1
  Os  Os29  1  0.353538  0.168882  0.716253  1
  Os  Os30  1  0.169390  0.353771  0.216244  1
  Os  Os31  1  0.646229  0.830610  0.283756  1
  Os  Os32  1  0.244749  0.510991  0.928179  1
  Os  Os33  1  0.489009  0.755251  0.571821  1
  Os  Os34  1  0.757194  0.486891  0.070977  1
  Os  Os35  1  0.513109  0.242806  0.429023  1
