# generated using pymatgen
data_ErLu5(Al3Os)8
_symmetry_space_group_name_H-M   'P 1'
_cell_length_a   8.75928300
_cell_length_b   8.75928485
_cell_length_c   9.58470900
_cell_angle_alpha   90.00000000
_cell_angle_beta   90.00000000
_cell_angle_gamma   119.96751637
_symmetry_Int_Tables_number   1
_chemical_formula_structural   ErLu5(Al3Os)8
_chemical_formula_sum   'Er1 Lu5 Al24 Os8'
_cell_volume   637.07246426
_cell_formula_units_Z   1
loop_
 _symmetry_equiv_pos_site_id
 _symmetry_equiv_pos_as_xyz
  1  'x, y, z'
loop_
 _atom_site_type_symbol
 _atom_site_label
 _atom_site_symmetry_multiplicity
 _atom_site_fract_x
 _atom_site_fract_y
 _atom_site_fract_z
 _atom_site_occupancy
  Er  Er0  1  0.806168  0.193832  0.750000  1
  Lu  Lu1  1  0.195295  0.391151  0.250000  1
  Lu  Lu2  1  0.804035  0.608023  0.750000  1
  Lu  Lu3  1  0.608849  0.804705  0.250000  1
  Lu  Lu4  1  0.391977  0.195965  0.750000  1
  Lu  Lu5  1  0.195325  0.804675  0.250000  1
  Al  Al6  1  0.333226  0.666774  0.022438  1
  Al  Al7  1  0.666676  0.333324  0.978667  1
  Al  Al8  1  0.666676  0.333324  0.521333  1
  Al  Al9  1  0.333226  0.666774  0.477562  1
  Al  Al10  1  0.163973  0.327597  0.576378  1
  Al  Al11  1  0.836354  0.672947  0.423141  1
  Al  Al12  1  0.672403  0.836027  0.576378  1
  Al  Al13  1  0.836354  0.672947  0.076859  1
  Al  Al14  1  0.327053  0.163646  0.423141  1
  Al  Al15  1  0.163973  0.327597  0.923622  1
  Al  Al16  1  0.163495  0.836505  0.576307  1
  Al  Al17  1  0.327053  0.163646  0.076859  1
  Al  Al18  1  0.836247  0.163753  0.422599  1
  Al  Al19  1  0.672403  0.836027  0.923622  1
  Al  Al20  1  0.836247  0.163753  0.077401  1
  Al  Al21  1  0.163495  0.836505  0.923693  1
  Al  Al22  1  0.561368  0.123357  0.250000  1
  Al  Al23  1  0.437627  0.876122  0.750000  1
  Al  Al24  1  0.876643  0.438632  0.250000  1
  Al  Al25  1  0.123878  0.562373  0.750000  1
  Al  Al26  1  0.561520  0.438480  0.250000  1
  Al  Al27  1  0.438310  0.561690  0.750000  1
  Al  Al28  1  0.999818  0.000182  0.250000  1
  Al  Al29  1  0.001465  0.998535  0.750000  1
  Os  Os30  1  0.499529  0.999781  0.000541  1
  Os  Os31  1  0.000219  0.500471  0.000541  1
  Os  Os32  1  0.499529  0.999781  0.499459  1
  Os  Os33  1  0.499963  0.500037  0.000215  1
  Os  Os34  1  0.000219  0.500471  0.499459  1
  Os  Os35  1  0.499963  0.500037  0.499785  1
  Os  Os36  1  0.999722  0.000278  0.000113  1
  Os  Os37  1  0.999722  0.000278  0.499887  1
