# generated using pymatgen
data_Tb3Pr17Si15Se
_symmetry_space_group_name_H-M   'P 1'
_cell_length_a   7.93124850
_cell_length_b   7.88325235
_cell_length_c   15.33763500
_cell_angle_alpha   89.76373721
_cell_angle_beta   89.15697287
_cell_angle_gamma   90.01304232
_symmetry_Int_Tables_number   1
_chemical_formula_structural   Tb3Pr17Si15Se
_chemical_formula_sum   'Tb3 Pr17 Si15 Se1'
_cell_volume   958.85880902
_cell_formula_units_Z   1
loop_
 _symmetry_equiv_pos_site_id
 _symmetry_equiv_pos_as_xyz
  1  'x, y, z'
loop_
 _atom_site_type_symbol
 _atom_site_label
 _atom_site_symmetry_multiplicity
 _atom_site_fract_x
 _atom_site_fract_y
 _atom_site_fract_z
 _atom_site_occupancy
  Tb  Tb0  1  0.313200  0.310532  0.999787  1
  Tb  Tb1  1  0.187775  0.809270  0.249035  1
  Tb  Tb2  1  0.801445  0.190008  0.752330  1
  Pr  Pr3  1  0.687015  0.689774  0.497617  1
  Pr  Pr4  1  0.379548  0.006379  0.443071  1
  Pr  Pr5  1  0.491046  0.875291  0.699082  1
  Pr  Pr6  1  0.509879  0.121221  0.195742  1
  Pr  Pr7  1  0.876692  0.486425  0.301071  1
  Pr  Pr8  1  0.124198  0.511283  0.803658  1
  Pr  Pr9  1  0.631359  0.985860  0.950094  1
  Pr  Pr10  1  0.000048  0.379938  0.548433  1
  Pr  Pr11  1  0.991633  0.622371  0.053527  1
  Pr  Pr12  1  0.138613  0.987489  0.873632  1
  Pr  Pr13  1  0.519615  0.628978  0.126116  1
  Pr  Pr14  1  0.475872  0.370351  0.632063  1
  Pr  Pr15  1  0.633305  0.522621  0.875847  1
  Pr  Pr16  1  0.369990  0.476999  0.373005  1
  Pr  Pr17  1  0.870753  0.020227  0.376596  1
  Pr  Pr18  1  0.981951  0.128409  0.123735  1
  Pr  Pr19  1  0.015889  0.868160  0.621371  1
  Si  Si20  1  0.329902  0.694243  0.952937  1
  Si  Si21  1  0.662908  0.304742  0.455648  1
  Si  Si22  1  0.698136  0.332625  0.047884  1
  Si  Si23  1  0.303677  0.667663  0.547500  1
  Si  Si24  1  0.807884  0.830154  0.203799  1
  Si  Si25  1  0.169557  0.190631  0.295013  1
  Si  Si26  1  0.838520  0.808308  0.795985  1
  Si  Si27  1  0.286850  0.923709  0.060432  1
  Si  Si28  1  0.574279  0.786596  0.308005  1
  Si  Si29  1  0.453181  0.211132  0.825144  1
  Si  Si30  1  0.789082  0.575735  0.689928  1
  Si  Si31  1  0.212374  0.424036  0.188479  1
  Si  Si32  1  0.704481  0.077684  0.563665  1
  Si  Si33  1  0.929189  0.289088  0.938807  1
  Si  Si34  1  0.078786  0.712599  0.437206  1
  Se  Se35  1  0.161368  0.179469  0.693755  1
