# generated using pymatgen
data_SmLuCuNi6B2Pt
_symmetry_space_group_name_H-M   'P 1'
_cell_length_a   5.01791100
_cell_length_b   5.01791090
_cell_length_c   7.09348800
_cell_angle_alpha   90.00000000
_cell_angle_beta   90.00000000
_cell_angle_gamma   120.00000723
_symmetry_Int_Tables_number   1
_chemical_formula_structural   SmLuCuNi6B2Pt
_chemical_formula_sum   'Sm1 Lu1 Cu1 Ni6 B2 Pt1'
_cell_volume   154.68077469
_cell_formula_units_Z   1
loop_
 _symmetry_equiv_pos_site_id
 _symmetry_equiv_pos_as_xyz
  1  'x, y, z'
loop_
 _atom_site_type_symbol
 _atom_site_label
 _atom_site_symmetry_multiplicity
 _atom_site_fract_x
 _atom_site_fract_y
 _atom_site_fract_z
 _atom_site_occupancy
  Sm  Sm0  1  0.000000  0.000000  0.000000  1
  Lu  Lu1  1  0.000000  0.000000  0.500000  1
  Cu  Cu2  1  0.333333  0.666667  0.000000  1
  Ni  Ni3  1  0.499810  0.500190  0.696974  1
  Ni  Ni4  1  0.499810  0.999618  0.696974  1
  Ni  Ni5  1  0.000382  0.500190  0.696974  1
  Ni  Ni6  1  0.499810  0.500190  0.303026  1
  Ni  Ni7  1  0.499810  0.999618  0.303026  1
  Ni  Ni8  1  0.000382  0.500190  0.303026  1
  B  B9  1  0.666667  0.333333  0.500000  1
  B  B10  1  0.333333  0.666667  0.500000  1
  Pt  Pt11  1  0.666667  0.333333  0.000000  1
