# generated using pymatgen
data_Ta12CrGa8Fe3N4
_symmetry_space_group_name_H-M   'P 1'
_cell_length_a   8.15697536
_cell_length_b   8.15697589
_cell_length_c   8.16949941
_cell_angle_alpha   60.05069788
_cell_angle_beta   60.05069588
_cell_angle_gamma   59.99999532
_symmetry_Int_Tables_number   1
_chemical_formula_structural   Ta12CrGa8Fe3N4
_chemical_formula_sum   'Ta12 Cr1 Ga8 Fe3 N4'
_cell_volume   384.65477591
_cell_formula_units_Z   1
loop_
 _symmetry_equiv_pos_site_id
 _symmetry_equiv_pos_as_xyz
  1  'x, y, z'
loop_
 _atom_site_type_symbol
 _atom_site_label
 _atom_site_symmetry_multiplicity
 _atom_site_fract_x
 _atom_site_fract_y
 _atom_site_fract_z
 _atom_site_occupancy
  Ta  Ta0  1  0.802860  0.802860  0.194401  1
  Ta  Ta1  1  0.194510  0.194510  0.805243  1
  Ta  Ta2  1  0.805736  0.194510  0.805243  1
  Ta  Ta3  1  0.199878  0.802860  0.194401  1
  Ta  Ta4  1  0.194510  0.805736  0.805243  1
  Ta  Ta5  1  0.802860  0.199878  0.194401  1
  Ta  Ta6  1  0.447140  0.447140  0.055599  1
  Ta  Ta7  1  0.055490  0.055490  0.444757  1
  Ta  Ta8  1  0.444264  0.055490  0.444757  1
  Ta  Ta9  1  0.050122  0.447140  0.055599  1
  Ta  Ta10  1  0.055490  0.444264  0.444757  1
  Ta  Ta11  1  0.447140  0.050122  0.055599  1
  Cr  Cr12  1  0.625000  0.625000  0.125000  1
  Ga  Ga13  1  0.752822  0.413709  0.419759  1
  Ga  Ga14  1  0.413709  0.752822  0.419759  1
  Ga  Ga15  1  0.415418  0.415418  0.753745  1
  Ga  Ga16  1  0.413709  0.413709  0.419759  1
  Ga  Ga17  1  0.497178  0.836291  0.830241  1
  Ga  Ga18  1  0.836291  0.497178  0.830241  1
  Ga  Ga19  1  0.834582  0.834582  0.496255  1
  Ga  Ga20  1  0.836291  0.836291  0.830241  1
  Fe  Fe21  1  0.125000  0.625000  0.625000  1
  Fe  Fe22  1  0.625000  0.125000  0.625000  1
  Fe  Fe23  1  0.625000  0.625000  0.625000  1
  N  N24  1  0.625000  0.125000  0.125000  1
  N  N25  1  0.125000  0.625000  0.125000  1
  N  N26  1  0.125000  0.125000  0.625000  1
  N  N27  1  0.125000  0.125000  0.125000  1
