# generated using pymatgen
data_Y8ErTmIr4
_symmetry_space_group_name_H-M   'P 1'
_cell_length_a   6.51788051
_cell_length_b   7.23462408
_cell_length_c   8.53113071
_cell_angle_alpha   96.52348389
_cell_angle_beta   112.45798134
_cell_angle_gamma   89.99999083
_symmetry_Int_Tables_number   1
_chemical_formula_structural   Y8ErTmIr4
_chemical_formula_sum   'Y8 Er1 Tm1 Ir4'
_cell_volume   368.95157236
_cell_formula_units_Z   1
loop_
 _symmetry_equiv_pos_site_id
 _symmetry_equiv_pos_as_xyz
  1  'x, y, z'
loop_
 _atom_site_type_symbol
 _atom_site_label
 _atom_site_symmetry_multiplicity
 _atom_site_fract_x
 _atom_site_fract_y
 _atom_site_fract_z
 _atom_site_occupancy
  Y  Y0  1  0.969028  0.918718  0.181231  1
  Y  Y1  1  0.787796  0.581282  0.818769  1
  Y  Y2  1  0.030941  0.081425  0.818807  1
  Y  Y3  1  0.212136  0.418575  0.181193  1
  Y  Y4  1  0.653729  0.817810  0.441286  1
  Y  Y5  1  0.212443  0.682190  0.558714  1
  Y  Y6  1  0.346371  0.182226  0.558822  1
  Y  Y7  1  0.787549  0.317774  0.441178  1
  Er  Er8  1  0.429064  0.750000  0.000000  1
  Tm  Tm9  1  0.570793  0.250000  0.000000  1
  Ir  Ir10  1  0.821387  0.572073  0.215463  1
  Ir  Ir11  1  0.605924  0.927927  0.784537  1
  Ir  Ir12  1  0.178702  0.427646  0.784562  1
  Ir  Ir13  1  0.394139  0.072354  0.215438  1
