# generated using pymatgen
data_Zr6GaSiO2
_symmetry_space_group_name_H-M   'P 1'
_cell_length_a   5.86806449
_cell_length_b   5.86806335
_cell_length_c   8.65879900
_cell_angle_alpha   90.00000000
_cell_angle_beta   90.00000000
_cell_angle_gamma   145.29878787
_symmetry_Int_Tables_number   1
_chemical_formula_structural   Zr6GaSiO2
_chemical_formula_sum   'Zr6 Ga1 Si1 O2'
_cell_volume   169.74076728
_cell_formula_units_Z   1
loop_
 _symmetry_equiv_pos_site_id
 _symmetry_equiv_pos_as_xyz
  1  'x, y, z'
loop_
 _atom_site_type_symbol
 _atom_site_label
 _atom_site_symmetry_multiplicity
 _atom_site_fract_x
 _atom_site_fract_y
 _atom_site_fract_z
 _atom_site_occupancy
  Zr  Zr0  1  0.946058  0.053942  0.750000  1
  Zr  Zr1  1  0.059865  0.940135  0.250000  1
  Zr  Zr2  1  0.633088  0.366912  0.549390  1
  Zr  Zr3  1  0.363935  0.636065  0.441040  1
  Zr  Zr4  1  0.363935  0.636065  0.058960  1
  Zr  Zr5  1  0.633088  0.366912  0.950610  1
  Ga  Ga6  1  0.254729  0.745271  0.750000  1
  Si  Si7  1  0.744373  0.255627  0.250000  1
  O  O8  1  0.000464  0.999536  0.499795  1
  O  O9  1  0.000464  0.999536  0.000205  1
