# generated using pymatgen
data_Tm7Sc13Si7Sb9
_symmetry_space_group_name_H-M   'P 1'
_cell_length_a   7.48924880
_cell_length_b   7.50528410
_cell_length_c   14.45323010
_cell_angle_alpha   90.06753070
_cell_angle_beta   90.25486578
_cell_angle_gamma   89.04259046
_symmetry_Int_Tables_number   1
_chemical_formula_structural   Tm7Sc13Si7Sb9
_chemical_formula_sum   'Tm7 Sc13 Si7 Sb9'
_cell_volume   812.27879237
_cell_formula_units_Z   1
loop_
 _symmetry_equiv_pos_site_id
 _symmetry_equiv_pos_as_xyz
  1  'x, y, z'
loop_
 _atom_site_type_symbol
 _atom_site_label
 _atom_site_symmetry_multiplicity
 _atom_site_fract_x
 _atom_site_fract_y
 _atom_site_fract_z
 _atom_site_occupancy
  Tm  Tm0  1  0.040088  0.690677  0.609768  1
  Tm  Tm1  1  0.960711  0.318886  0.386113  1
  Tm  Tm2  1  0.459807  0.175960  0.386698  1
  Tm  Tm3  1  0.960336  0.319471  0.112414  1
  Tm  Tm4  1  0.537820  0.823150  0.609141  1
  Tm  Tm5  1  0.043394  0.690932  0.890346  1
  Tm  Tm6  1  0.538762  0.824002  0.890765  1
  Sc  Sc7  1  0.211221  0.992937  0.750735  1
  Sc  Sc8  1  0.788015  0.999020  0.249239  1
  Sc  Sc9  1  0.288317  0.494986  0.249015  1
  Sc  Sc10  1  0.702838  0.507717  0.750033  1
  Sc  Sc11  1  0.452725  0.172569  0.118565  1
  Sc  Sc12  1  0.393626  0.338064  0.630218  1
  Sc  Sc13  1  0.617641  0.660176  0.365093  1
  Sc  Sc14  1  0.121562  0.836385  0.366279  1
  Sc  Sc15  1  0.617876  0.660411  0.132832  1
  Sc  Sc16  1  0.865776  0.151803  0.627915  1
  Sc  Sc17  1  0.395522  0.337027  0.870670  1
  Sc  Sc18  1  0.868196  0.151801  0.872823  1
  Sc  Sc19  1  0.119580  0.835499  0.132242  1
  Si  Si20  1  0.918041  0.621666  0.249191  1
  Si  Si21  1  0.416682  0.878329  0.248959  1
  Si  Si22  1  0.581760  0.121197  0.750325  1
  Si  Si23  1  0.354568  0.645465  0.750058  1
  Si  Si24  1  0.654712  0.360687  0.247743  1
  Si  Si25  1  0.160543  0.130722  0.249213  1
  Si  Si26  1  0.840409  0.867731  0.750278  1
  Sb  Sb27  1  0.078752  0.374566  0.750278  1
  Sb  Sb28  1  0.214506  0.042301  0.540887  1
  Sb  Sb29  1  0.783136  0.959873  0.455703  1
  Sb  Sb30  1  0.283247  0.534145  0.458194  1
  Sb  Sb31  1  0.774096  0.968811  0.045399  1
  Sb  Sb32  1  0.724654  0.468582  0.540763  1
  Sb  Sb33  1  0.217740  0.043538  0.962353  1
  Sb  Sb34  1  0.727837  0.472133  0.957481  1
  Sb  Sb35  1  0.285504  0.528784  0.042269  1
