# generated using pymatgen
data_SmTm2Co8P6W
_symmetry_space_group_name_H-M   'P 1'
_cell_length_a   3.72424400
_cell_length_b   10.55377300
_cell_length_c   12.26483900
_cell_angle_alpha   90.00000000
_cell_angle_beta   90.00000000
_cell_angle_gamma   90.00000000
_symmetry_Int_Tables_number   1
_chemical_formula_structural   SmTm2Co8P6W
_chemical_formula_sum   'Sm2 Tm4 Co16 P12 W2'
_cell_volume   482.06736002
_cell_formula_units_Z   2
loop_
 _symmetry_equiv_pos_site_id
 _symmetry_equiv_pos_as_xyz
  1  'x, y, z'
loop_
 _atom_site_type_symbol
 _atom_site_label
 _atom_site_symmetry_multiplicity
 _atom_site_fract_x
 _atom_site_fract_y
 _atom_site_fract_z
 _atom_site_occupancy
  Sm  Sm0  1  0.000000  0.500000  0.525053  1
  Sm  Sm1  1  0.500000  0.000000  0.474947  1
  Tm  Tm2  1  0.500000  0.819605  0.204052  1
  Tm  Tm3  1  0.500000  0.180395  0.204052  1
  Tm  Tm4  1  0.000000  0.680395  0.795948  1
  Tm  Tm5  1  0.000000  0.319605  0.795948  1
  Co  Co6  1  0.500000  0.500000  0.704027  1
  Co  Co7  1  0.000000  0.000000  0.295973  1
  Co  Co8  1  0.000000  0.500000  0.987057  1
  Co  Co9  1  0.500000  0.000000  0.012943  1
  Co  Co10  1  0.500000  0.332512  0.990116  1
  Co  Co11  1  0.500000  0.667488  0.990116  1
  Co  Co12  1  0.000000  0.167488  0.009884  1
  Co  Co13  1  0.000000  0.832512  0.009884  1
  Co  Co14  1  0.500000  0.295355  0.430249  1
  Co  Co15  1  0.500000  0.704645  0.430249  1
  Co  Co16  1  0.000000  0.204645  0.569751  1
  Co  Co17  1  0.000000  0.795355  0.569751  1
  Co  Co18  1  0.500000  0.877937  0.709376  1
  Co  Co19  1  0.500000  0.122063  0.709376  1
  Co  Co20  1  0.000000  0.622063  0.290624  1
  Co  Co21  1  0.000000  0.377937  0.290624  1
  P  P22  1  0.500000  0.500000  0.880752  1
  P  P23  1  0.000000  0.000000  0.119248  1
  P  P24  1  0.500000  0.500000  0.347963  1
  P  P25  1  0.000000  0.000000  0.652037  1
  P  P26  1  0.500000  0.309836  0.617729  1
  P  P27  1  0.500000  0.690164  0.617729  1
  P  P28  1  0.000000  0.190164  0.382271  1
  P  P29  1  0.000000  0.809836  0.382271  1
  P  P30  1  0.500000  0.843657  0.892574  1
  P  P31  1  0.500000  0.156343  0.892574  1
  P  P32  1  0.000000  0.656343  0.107426  1
  P  P33  1  0.000000  0.343657  0.107426  1
  W  W34  1  0.500000  0.500000  0.155165  1
  W  W35  1  0.000000  0.000000  0.844835  1
