# generated using pymatgen
data_La2Pr(GaRh)2
_symmetry_space_group_name_H-M   'P 1'
_cell_length_a   5.72562000
_cell_length_b   8.39444000
_cell_length_c   13.75075900
_cell_angle_alpha   90.00000000
_cell_angle_beta   90.00000000
_cell_angle_gamma   90.00000000
_symmetry_Int_Tables_number   1
_chemical_formula_structural   La2Pr(GaRh)2
_chemical_formula_sum   'La8 Pr4 Ga8 Rh8'
_cell_volume   660.90786645
_cell_formula_units_Z   4
loop_
 _symmetry_equiv_pos_site_id
 _symmetry_equiv_pos_as_xyz
  1  'x, y, z'
loop_
 _atom_site_type_symbol
 _atom_site_label
 _atom_site_symmetry_multiplicity
 _atom_site_fract_x
 _atom_site_fract_y
 _atom_site_fract_z
 _atom_site_occupancy
  La  La0  1  0.152659  0.402355  0.096018  1
  La  La1  1  0.847341  0.597645  0.903982  1
  La  La2  1  0.847341  0.597645  0.596018  1
  La  La3  1  0.847341  0.902355  0.403982  1
  La  La4  1  0.152659  0.402355  0.403982  1
  La  La5  1  0.152659  0.097645  0.596018  1
  La  La6  1  0.152659  0.097645  0.903982  1
  La  La7  1  0.847341  0.902355  0.096018  1
  Pr  Pr8  1  0.639732  0.259026  0.250000  1
  Pr  Pr9  1  0.360268  0.740974  0.750000  1
  Pr  Pr10  1  0.360268  0.759026  0.250000  1
  Pr  Pr11  1  0.639732  0.240974  0.750000  1
  Ga  Ga12  1  0.142469  0.111224  0.250000  1
  Ga  Ga13  1  0.857531  0.888776  0.750000  1
  Ga  Ga14  1  0.857531  0.611224  0.250000  1
  Ga  Ga15  1  0.142469  0.388776  0.750000  1
  Ga  Ga16  1  0.631644  0.250000  0.000000  1
  Ga  Ga17  1  0.368356  0.750000  0.000000  1
  Ga  Ga18  1  0.368356  0.750000  0.500000  1
  Ga  Ga19  1  0.631644  0.250000  0.500000  1
  Rh  Rh20  1  0.361407  0.029005  0.091617  1
  Rh  Rh21  1  0.638593  0.970995  0.908383  1
  Rh  Rh22  1  0.638593  0.970995  0.591617  1
  Rh  Rh23  1  0.638593  0.529005  0.408383  1
  Rh  Rh24  1  0.361407  0.029005  0.408383  1
  Rh  Rh25  1  0.361407  0.470995  0.591617  1
  Rh  Rh26  1  0.361407  0.470995  0.908383  1
  Rh  Rh27  1  0.638593  0.529005  0.091617  1
