# generated using pymatgen
data_TbU5FeNi5Sb8
_symmetry_space_group_name_H-M   'P 1'
_cell_length_a   8.14507789
_cell_length_b   8.14698909
_cell_length_c   8.13926406
_cell_angle_alpha   110.09284063
_cell_angle_beta   108.44164106
_cell_angle_gamma   109.86872301
_symmetry_Int_Tables_number   1
_chemical_formula_structural   TbU5FeNi5Sb8
_chemical_formula_sum   'Tb1 U5 Fe1 Ni5 Sb8'
_cell_volume   415.75010553
_cell_formula_units_Z   1
loop_
 _symmetry_equiv_pos_site_id
 _symmetry_equiv_pos_as_xyz
  1  'x, y, z'
loop_
 _atom_site_type_symbol
 _atom_site_label
 _atom_site_symmetry_multiplicity
 _atom_site_fract_x
 _atom_site_fract_y
 _atom_site_fract_z
 _atom_site_occupancy
  Tb  Tb0  1  0.875145  0.249875  0.125020  1
  U  U1  1  0.625283  0.749981  0.375362  1
  U  U2  1  0.249580  0.125875  0.867866  1
  U  U3  1  0.742144  0.374186  0.623863  1
  U  U4  1  0.132486  0.882046  0.257648  1
  U  U5  1  0.375739  0.617819  0.750472  1
  Fe  Fe6  1  0.375492  0.251002  0.625197  1
  Ni  Ni7  1  0.124867  0.749286  0.874666  1
  Ni  Ni8  1  0.260722  0.630994  0.378035  1
  Ni  Ni9  1  0.746861  0.868934  0.129537  1
  Ni  Ni10  1  0.622410  0.382904  0.253529  1
  Ni  Ni11  1  0.870316  0.117378  0.739669  1
  Sb  Sb12  1  0.666517  0.501367  0.001934  1
  Sb  Sb13  1  0.500232  0.998818  0.665030  1
  Sb  Sb14  1  0.999199  0.661339  0.498360  1
  Sb  Sb15  1  0.836856  0.838329  0.837568  1
  Sb  Sb16  1  0.501149  0.000649  0.162768  1
  Sb  Sb17  1  0.162269  0.499353  0.000694  1
  Sb  Sb18  1  0.998559  0.165285  0.499535  1
  Sb  Sb19  1  0.334177  0.334580  0.333248  1
