# generated using pymatgen
data_Nd6Tm10Cd4RuPt3
_symmetry_space_group_name_H-M   'P 1'
_cell_length_a   9.71327783
_cell_length_b   9.71327829
_cell_length_c   9.71327857
_cell_angle_alpha   59.86862031
_cell_angle_beta   59.86862221
_cell_angle_gamma   59.86862731
_symmetry_Int_Tables_number   1
_chemical_formula_structural   Nd6Tm10Cd4RuPt3
_chemical_formula_sum   'Nd6 Tm10 Cd4 Ru1 Pt3'
_cell_volume   646.07938485
_cell_formula_units_Z   1
loop_
 _symmetry_equiv_pos_site_id
 _symmetry_equiv_pos_as_xyz
  1  'x, y, z'
loop_
 _atom_site_type_symbol
 _atom_site_label
 _atom_site_symmetry_multiplicity
 _atom_site_fract_x
 _atom_site_fract_y
 _atom_site_fract_z
 _atom_site_occupancy
  Nd  Nd0  1  0.938580  0.561716  0.561716  1
  Nd  Nd1  1  0.557394  0.939918  0.939918  1
  Nd  Nd2  1  0.561716  0.938580  0.561716  1
  Nd  Nd3  1  0.939918  0.557394  0.939918  1
  Nd  Nd4  1  0.561716  0.561716  0.938580  1
  Nd  Nd5  1  0.939918  0.939918  0.557394  1
  Tm  Tm6  1  0.350661  0.350661  0.350661  1
  Tm  Tm7  1  0.347416  0.347416  0.954888  1
  Tm  Tm8  1  0.347416  0.954888  0.347416  1
  Tm  Tm9  1  0.954888  0.347416  0.347416  1
  Tm  Tm10  1  0.817536  0.185991  0.185991  1
  Tm  Tm11  1  0.184774  0.812322  0.812322  1
  Tm  Tm12  1  0.185991  0.817536  0.185991  1
  Tm  Tm13  1  0.812322  0.184774  0.812322  1
  Tm  Tm14  1  0.185991  0.185991  0.817536  1
  Tm  Tm15  1  0.812322  0.812322  0.184774  1
  Cd  Cd16  1  0.579084  0.579084  0.579084  1
  Cd  Cd17  1  0.579505  0.579505  0.260672  1
  Cd  Cd18  1  0.579505  0.260672  0.579505  1
  Cd  Cd19  1  0.260672  0.579505  0.579505  1
  Ru  Ru20  1  0.142494  0.142494  0.142494  1
  Pt  Pt21  1  0.143073  0.143073  0.574037  1
  Pt  Pt22  1  0.143073  0.574037  0.143073  1
  Pt  Pt23  1  0.574037  0.143073  0.143073  1
