# generated using pymatgen
data_Ho7ScNb11Si16Rh
_symmetry_space_group_name_H-M   'P 1'
_cell_length_a   6.80822008
_cell_length_b   7.07271034
_cell_length_c   13.33096978
_cell_angle_alpha   90.10546401
_cell_angle_beta   89.98484431
_cell_angle_gamma   90.55973301
_symmetry_Int_Tables_number   1
_chemical_formula_structural   Ho7ScNb11Si16Rh
_chemical_formula_sum   'Ho7 Sc1 Nb11 Si16 Rh1'
_cell_volume   641.88869821
_cell_formula_units_Z   1
loop_
 _symmetry_equiv_pos_site_id
 _symmetry_equiv_pos_as_xyz
  1  'x, y, z'
loop_
 _atom_site_type_symbol
 _atom_site_label
 _atom_site_symmetry_multiplicity
 _atom_site_fract_x
 _atom_site_fract_y
 _atom_site_fract_z
 _atom_site_occupancy
  Ho  Ho0  1  0.498968  0.673034  0.594445  1
  Ho  Ho1  1  0.003043  0.828337  0.905958  1
  Ho  Ho2  1  0.496784  0.328225  0.095271  1
  Ho  Ho3  1  0.998009  0.171550  0.405135  1
  Ho  Ho4  1  0.496095  0.328073  0.405841  1
  Ho  Ho5  1  0.998192  0.171937  0.096502  1
  Ho  Ho6  1  0.499358  0.672565  0.904301  1
  Sc  Sc7  1  0.003112  0.827675  0.595176  1
  Nb  Nb8  1  0.670298  0.171183  0.627266  1
  Nb  Nb9  1  0.161200  0.323933  0.871234  1
  Nb  Nb10  1  0.336507  0.826033  0.125413  1
  Nb  Nb11  1  0.837228  0.675528  0.377352  1
  Nb  Nb12  1  0.335897  0.826004  0.374910  1
  Nb  Nb13  1  0.836084  0.673783  0.123963  1
  Nb  Nb14  1  0.671082  0.171312  0.870990  1
  Nb  Nb15  1  0.162028  0.323328  0.627468  1
  Nb  Nb16  1  0.339898  0.000468  0.748961  1
  Nb  Nb17  1  0.163145  0.509471  0.250422  1
  Nb  Nb18  1  0.662339  0.992081  0.250584  1
  Si  Si19  1  0.664680  0.962342  0.460661  1
  Si  Si20  1  0.163353  0.536982  0.039237  1
  Si  Si21  1  0.339506  0.038664  0.957100  1
  Si  Si22  1  0.839186  0.466232  0.544232  1
  Si  Si23  1  0.332718  0.034421  0.543085  1
  Si  Si24  1  0.836636  0.460268  0.958153  1
  Si  Si25  1  0.663860  0.962538  0.040444  1
  Si  Si26  1  0.162467  0.540547  0.462498  1
  Si  Si27  1  0.468206  0.377325  0.749401  1
  Si  Si28  1  0.964504  0.110965  0.747849  1
  Si  Si29  1  0.539780  0.621539  0.250511  1
  Si  Si30  1  0.038318  0.878828  0.250132  1
  Si  Si31  1  0.709057  0.865525  0.747812  1
  Si  Si32  1  0.191611  0.625731  0.747771  1
  Si  Si33  1  0.295983  0.128276  0.250452  1
  Si  Si34  1  0.794224  0.372863  0.250847  1
  Rh  Rh35  1  0.826641  0.522433  0.748621  1
