# generated using pymatgen
data_Tm16MgHg3Ir4
_symmetry_space_group_name_H-M   'P 1'
_cell_length_a   9.50989068
_cell_length_b   9.47728549
_cell_length_c   9.47728500
_cell_angle_alpha   59.99999821
_cell_angle_beta   60.11334929
_cell_angle_gamma   60.11335164
_symmetry_Int_Tables_number   1
_chemical_formula_structural   Tm16MgHg3Ir4
_chemical_formula_sum   'Tm16 Mg1 Hg3 Ir4'
_cell_volume   605.02090028
_cell_formula_units_Z   1
loop_
 _symmetry_equiv_pos_site_id
 _symmetry_equiv_pos_as_xyz
  1  'x, y, z'
loop_
 _atom_site_type_symbol
 _atom_site_label
 _atom_site_symmetry_multiplicity
 _atom_site_fract_x
 _atom_site_fract_y
 _atom_site_fract_z
 _atom_site_occupancy
  Tm  Tm0  1  0.601268  0.598705  0.598705  1
  Tm  Tm1  1  0.601268  0.598705  0.201323  1
  Tm  Tm2  1  0.601268  0.201323  0.598705  1
  Tm  Tm3  1  0.188309  0.603897  0.603897  1
  Tm  Tm4  1  0.060709  0.439597  0.439597  1
  Tm  Tm5  1  0.436574  0.063030  0.063030  1
  Tm  Tm6  1  0.436574  0.063030  0.437368  1
  Tm  Tm7  1  0.060709  0.439597  0.060095  1
  Tm  Tm8  1  0.436574  0.437368  0.063030  1
  Tm  Tm9  1  0.060709  0.060095  0.439597  1
  Tm  Tm10  1  0.185567  0.812789  0.812789  1
  Tm  Tm11  1  0.811898  0.187311  0.187311  1
  Tm  Tm12  1  0.811898  0.187311  0.813479  1
  Tm  Tm13  1  0.185567  0.812789  0.188854  1
  Tm  Tm14  1  0.811898  0.813479  0.187311  1
  Tm  Tm15  1  0.185567  0.188854  0.812789  1
  Mg  Mg16  1  0.533932  0.822023  0.822023  1
  Hg  Hg17  1  0.832007  0.836562  0.836562  1
  Hg  Hg18  1  0.832007  0.836562  0.494868  1
  Hg  Hg19  1  0.832007  0.494868  0.836562  1
  Ir  Ir20  1  0.389842  0.394322  0.394322  1
  Ir  Ir21  1  0.389842  0.394322  0.821513  1
  Ir  Ir22  1  0.389842  0.821513  0.394322  1
  Ir  Ir23  1  0.824159  0.391947  0.391947  1
