# generated using pymatgen
data_CuTc12Cl25
_symmetry_space_group_name_H-M   'P 1'
_cell_length_a   9.39023756
_cell_length_b   10.70270374
_cell_length_c   11.09517828
_cell_angle_alpha   82.82160339
_cell_angle_beta   82.37521225
_cell_angle_gamma   93.60776800
_symmetry_Int_Tables_number   1
_chemical_formula_structural   CuTc12Cl25
_chemical_formula_sum   'Cu1 Tc12 Cl25'
_cell_volume   1092.96396703
_cell_formula_units_Z   1
loop_
 _symmetry_equiv_pos_site_id
 _symmetry_equiv_pos_as_xyz
  1  'x, y, z'
loop_
 _atom_site_type_symbol
 _atom_site_label
 _atom_site_symmetry_multiplicity
 _atom_site_fract_x
 _atom_site_fract_y
 _atom_site_fract_z
 _atom_site_occupancy
  Cu  Cu0  1  0.500000  0.000000  0.000000  1
  Tc  Tc1  1  0.800670  0.247130  0.105689  1
  Tc  Tc2  1  0.199330  0.752870  0.894311  1
  Tc  Tc3  1  0.723751  0.107545  0.266222  1
  Tc  Tc4  1  0.276249  0.892455  0.733778  1
  Tc  Tc5  1  0.049368  0.273958  0.195736  1
  Tc  Tc6  1  0.950632  0.726042  0.804264  1
  Tc  Tc7  1  0.841856  0.425072  0.249173  1
  Tc  Tc8  1  0.158144  0.574928  0.750827  1
  Tc  Tc9  1  0.761921  0.285508  0.411446  1
  Tc  Tc10  1  0.238079  0.714492  0.588554  1
  Tc  Tc11  1  0.971056  0.134103  0.359090  1
  Tc  Tc12  1  0.028944  0.865897  0.640910  1
  Cl  Cl13  1  0.900080  0.960053  0.260883  1
  Cl  Cl14  1  0.099920  0.039947  0.739117  1
  Cl  Cl15  1  0.966033  0.269027  0.513271  1
  Cl  Cl16  1  0.033967  0.730973  0.486729  1
  Cl  Cl17  1  0.646445  0.410167  0.134369  1
  Cl  Cl18  1  0.353555  0.589833  0.865631  1
  Cl  Cl19  1  0.083511  0.460146  0.286759  1
  Cl  Cl20  1  0.916489  0.539854  0.713241  1
  Cl  Cl21  1  0.000000  0.500000  0.000000  1
  Cl  Cl22  1  0.555597  0.963956  0.200498  1
  Cl  Cl23  1  0.444403  0.036044  0.799502  1
  Cl  Cl24  1  0.176812  0.036843  0.424087  1
  Cl  Cl25  1  0.823188  0.963157  0.575913  1
  Cl  Cl26  1  0.535889  0.205995  0.369586  1
  Cl  Cl27  1  0.464111  0.794005  0.630414  1
  Cl  Cl28  1  0.014900  0.162654  0.028658  1
  Cl  Cl29  1  0.985100  0.837346  0.971342  1
  Cl  Cl30  1  0.787334  0.626022  0.288890  1
  Cl  Cl31  1  0.212666  0.373978  0.711110  1
  Cl  Cl32  1  0.676966  0.179090  0.947236  1
  Cl  Cl33  1  0.323034  0.820910  0.052764  1
  Cl  Cl34  1  0.296150  0.275808  0.136792  1
  Cl  Cl35  1  0.703850  0.724192  0.863208  1
  Cl  Cl36  1  0.645570  0.379321  0.569066  1
  Cl  Cl37  1  0.354430  0.620679  0.430934  1
