# generated using pymatgen
data_Hf16Rh7AuO4
_symmetry_space_group_name_H-M   'P 1'
_cell_length_a   8.76557103
_cell_length_b   8.75111238
_cell_length_c   8.75110500
_cell_angle_alpha   59.99997238
_cell_angle_beta   60.05456042
_cell_angle_gamma   60.05457269
_symmetry_Int_Tables_number   1
_chemical_formula_structural   Hf16Rh7AuO4
_chemical_formula_sum   'Hf16 Rh7 Au1 O4'
_cell_volume   475.06056710
_cell_formula_units_Z   1
loop_
 _symmetry_equiv_pos_site_id
 _symmetry_equiv_pos_as_xyz
  1  'x, y, z'
loop_
 _atom_site_type_symbol
 _atom_site_label
 _atom_site_symmetry_multiplicity
 _atom_site_fract_x
 _atom_site_fract_y
 _atom_site_fract_z
 _atom_site_occupancy
  Hf  Hf0  1  0.128675  0.623775  0.623775  1
  Hf  Hf1  1  0.623997  0.111176  0.632414  1
  Hf  Hf2  1  0.623997  0.632413  0.111177  1
  Hf  Hf3  1  0.623997  0.632414  0.632413  1
  Hf  Hf4  1  0.815140  0.816710  0.184075  1
  Hf  Hf5  1  0.182637  0.185162  0.816100  1
  Hf  Hf6  1  0.815141  0.184074  0.816711  1
  Hf  Hf7  1  0.182637  0.816100  0.185163  1
  Hf  Hf8  1  0.182638  0.816100  0.816100  1
  Hf  Hf9  1  0.815141  0.184074  0.184075  1
  Hf  Hf10  1  0.434158  0.433945  0.065948  1
  Hf  Hf11  1  0.070526  0.059218  0.435128  1
  Hf  Hf12  1  0.434158  0.065948  0.433946  1
  Hf  Hf13  1  0.070526  0.435128  0.059218  1
  Hf  Hf14  1  0.070526  0.435128  0.435128  1
  Hf  Hf15  1  0.434158  0.065949  0.065948  1
  Rh  Rh16  1  0.407213  0.784404  0.404192  1
  Rh  Rh17  1  0.407213  0.404195  0.784399  1
  Rh  Rh18  1  0.407214  0.404194  0.404193  1
  Rh  Rh19  1  0.456441  0.847852  0.847853  1
  Rh  Rh20  1  0.849006  0.463353  0.843821  1
  Rh  Rh21  1  0.849007  0.843820  0.463354  1
  Rh  Rh22  1  0.849006  0.843820  0.843819  1
  Au  Au23  1  0.768906  0.410364  0.410365  1
  O  O24  1  0.625552  0.124815  0.124816  1
  O  O25  1  0.124130  0.624237  0.125816  1
  O  O26  1  0.124130  0.125816  0.624238  1
  O  O27  1  0.124130  0.125816  0.125817  1
