# generated using pymatgen
data_CeNd7Si12Rh3Au
_symmetry_space_group_name_H-M   'P 1'
_cell_length_a   8.25939300
_cell_length_b   8.25939261
_cell_length_c   8.46204800
_cell_angle_alpha   90.00000000
_cell_angle_beta   90.00000000
_cell_angle_gamma   119.99999754
_symmetry_Int_Tables_number   1
_chemical_formula_structural   CeNd7Si12Rh3Au
_chemical_formula_sum   'Ce1 Nd7 Si12 Rh3 Au1'
_cell_volume   499.92213821
_cell_formula_units_Z   1
loop_
 _symmetry_equiv_pos_site_id
 _symmetry_equiv_pos_as_xyz
  1  'x, y, z'
loop_
 _atom_site_type_symbol
 _atom_site_label
 _atom_site_symmetry_multiplicity
 _atom_site_fract_x
 _atom_site_fract_y
 _atom_site_fract_z
 _atom_site_occupancy
  Ce  Ce0  1  0.000000  0.000000  0.748751  1
  Nd  Nd1  1  0.000000  0.000000  0.251176  1
  Nd  Nd2  1  0.496717  0.503283  0.745316  1
  Nd  Nd3  1  0.496717  0.993436  0.745316  1
  Nd  Nd4  1  0.006564  0.503283  0.745316  1
  Nd  Nd5  1  0.498489  0.501511  0.254615  1
  Nd  Nd6  1  0.003021  0.501511  0.254615  1
  Nd  Nd7  1  0.498489  0.996979  0.254615  1
  Si  Si8  1  0.839237  0.160763  0.999322  1
  Si  Si9  1  0.839237  0.678472  0.999322  1
  Si  Si10  1  0.321528  0.160763  0.999322  1
  Si  Si11  1  0.832909  0.167091  0.501850  1
  Si  Si12  1  0.832909  0.665820  0.501850  1
  Si  Si13  1  0.334180  0.167091  0.501850  1
  Si  Si14  1  0.165993  0.834007  0.502251  1
  Si  Si15  1  0.668013  0.834007  0.502251  1
  Si  Si16  1  0.165993  0.331987  0.502251  1
  Si  Si17  1  0.168267  0.831733  0.996612  1
  Si  Si18  1  0.663465  0.831733  0.996612  1
  Si  Si19  1  0.168267  0.336535  0.996612  1
  Rh  Rh20  1  0.666667  0.333333  0.500535  1
  Rh  Rh21  1  0.333333  0.666667  0.494990  1
  Rh  Rh22  1  0.333333  0.666667  0.006480  1
  Au  Au23  1  0.666667  0.333333  0.998172  1
