# generated using pymatgen
data_Sr8Nb3SbO18
_symmetry_space_group_name_H-M   'P 1'
_cell_length_a   5.95195511
_cell_length_b   5.95306144
_cell_length_c   15.95208416
_cell_angle_alpha   90.00393171
_cell_angle_beta   89.99263190
_cell_angle_gamma   60.00006807
_symmetry_Int_Tables_number   1
_chemical_formula_structural   Sr8Nb3SbO18
_chemical_formula_sum   'Sr8 Nb3 Sb1 O18'
_cell_volume   489.49511794
_cell_formula_units_Z   1
loop_
 _symmetry_equiv_pos_site_id
 _symmetry_equiv_pos_as_xyz
  1  'x, y, z'
loop_
 _atom_site_type_symbol
 _atom_site_label
 _atom_site_symmetry_multiplicity
 _atom_site_fract_x
 _atom_site_fract_y
 _atom_site_fract_z
 _atom_site_occupancy
  Sr  Sr0  1  0.000318  0.999108  0.231857  1
  Sr  Sr1  1  0.000050  0.000077  0.501000  1
  Sr  Sr2  1  0.000011  0.999773  0.999839  1
  Sr  Sr3  1  0.666767  0.667153  0.354347  1
  Sr  Sr4  1  0.667167  0.664876  0.128627  1
  Sr  Sr5  1  0.332879  0.334801  0.862278  1
  Sr  Sr6  1  0.333391  0.332729  0.642364  1
  Sr  Sr7  1  0.999969  0.000103  0.752117  1
  Nb  Nb8  1  0.665762  0.668057  0.845985  1
  Nb  Nb9  1  0.666975  0.666222  0.654502  1
  Nb  Nb10  1  0.333158  0.333886  0.350838  1
  Sb  Sb11  1  0.334024  0.331930  0.160942  1
  O  O12  1  0.592497  0.964082  0.750428  1
  O  O13  1  0.921527  0.726701  0.602806  1
  O  O14  1  0.919541  0.731724  0.897178  1
  O  O15  1  0.350692  0.920568  0.603244  1
  O  O16  1  0.349790  0.922252  0.897690  1
  O  O17  1  0.963128  0.443899  0.750861  1
  O  O18  1  0.443555  0.592888  0.751089  1
  O  O19  1  0.260680  0.653999  0.103309  1
  O  O20  1  0.281027  0.645678  0.399916  1
  O  O21  1  0.728079  0.349736  0.603579  1
  O  O22  1  0.727798  0.353819  0.898899  1
  O  O23  1  0.552336  0.407983  0.248653  1
  O  O24  1  0.040319  0.551408  0.248816  1
  O  O25  1  0.657316  0.081471  0.104166  1
  O  O26  1  0.644469  0.075088  0.400367  1
  O  O27  1  0.084308  0.257693  0.104315  1
  O  O28  1  0.074166  0.282633  0.400796  1
  O  O29  1  0.408299  0.039660  0.249195  1
