# generated using pymatgen
data_Pr3EuTiCo19P12
_symmetry_space_group_name_H-M   'P 1'
_cell_length_a   3.69930300
_cell_length_b   10.44921407
_cell_length_c   11.93990277
_cell_angle_alpha   90.09703616
_cell_angle_beta   90.00000000
_cell_angle_gamma   90.00000000
_symmetry_Int_Tables_number   1
_chemical_formula_structural   Pr3EuTiCo19P12
_chemical_formula_sum   'Pr3 Eu1 Ti1 Co19 P12'
_cell_volume   461.53399838
_cell_formula_units_Z   1
loop_
 _symmetry_equiv_pos_site_id
 _symmetry_equiv_pos_as_xyz
  1  'x, y, z'
loop_
 _atom_site_type_symbol
 _atom_site_label
 _atom_site_symmetry_multiplicity
 _atom_site_fract_x
 _atom_site_fract_y
 _atom_site_fract_z
 _atom_site_occupancy
  Pr  Pr0  1  0.250000  0.920193  0.201655  1
  Pr  Pr1  1  0.750000  0.419233  0.298346  1
  Pr  Pr2  1  0.750000  0.082928  0.795541  1
  Eu  Eu3  1  0.250000  0.582703  0.700779  1
  Ti  Ti4  1  0.250000  0.699902  0.990709  1
  Co  Co5  1  0.250000  0.788127  0.492555  1
  Co  Co6  1  0.750000  0.293649  0.010914  1
  Co  Co7  1  0.750000  0.211858  0.510176  1
  Co  Co8  1  0.250000  0.403922  0.491489  1
  Co  Co9  1  0.250000  0.098716  0.988879  1
  Co  Co10  1  0.750000  0.594589  0.511740  1
  Co  Co11  1  0.750000  0.909003  0.008366  1
  Co  Co12  1  0.250000  0.222565  0.175020  1
  Co  Co13  1  0.250000  0.277454  0.673342  1
  Co  Co14  1  0.750000  0.779751  0.823595  1
  Co  Co15  1  0.750000  0.722856  0.329346  1
  Co  Co16  1  0.250000  0.882807  0.696001  1
  Co  Co17  1  0.250000  0.617250  0.202002  1
  Co  Co18  1  0.750000  0.119565  0.302716  1
  Co  Co19  1  0.750000  0.379451  0.800823  1
  Co  Co20  1  0.250000  0.462948  0.932756  1
  Co  Co21  1  0.250000  0.032243  0.432306  1
  Co  Co22  1  0.750000  0.530534  0.065170  1
  Co  Co23  1  0.750000  0.966341  0.565457  1
  P  P24  1  0.250000  0.419540  0.110552  1
  P  P25  1  0.250000  0.079895  0.608061  1
  P  P26  1  0.750000  0.577094  0.883444  1
  P  P27  1  0.750000  0.920788  0.389631  1
  P  P28  1  0.250000  0.272818  0.864935  1
  P  P29  1  0.250000  0.225127  0.368924  1
  P  P30  1  0.750000  0.722176  0.140395  1
  P  P31  1  0.750000  0.773963  0.632567  1
  P  P32  1  0.250000  0.604778  0.398769  1
  P  P33  1  0.250000  0.900687  0.890502  1
  P  P34  1  0.750000  0.394712  0.607073  1
  P  P35  1  0.750000  0.109832  0.105465  1
