# generated using pymatgen
data_Tb2SmAs4Pd7
_symmetry_space_group_name_H-M   'P 1'
_cell_length_a   8.15728322
_cell_length_b   8.15728355
_cell_length_c   9.68266236
_cell_angle_alpha   55.57985132
_cell_angle_beta   55.57984972
_cell_angle_gamma   29.45669163
_symmetry_Int_Tables_number   1
_chemical_formula_structural   Tb2SmAs4Pd7
_chemical_formula_sum   'Tb2 Sm1 As4 Pd7'
_cell_volume   257.09316559
_cell_formula_units_Z   1
loop_
 _symmetry_equiv_pos_site_id
 _symmetry_equiv_pos_as_xyz
  1  'x, y, z'
loop_
 _atom_site_type_symbol
 _atom_site_label
 _atom_site_symmetry_multiplicity
 _atom_site_fract_x
 _atom_site_fract_y
 _atom_site_fract_z
 _atom_site_occupancy
  Tb  Tb0  1  0.677186  0.677186  0.328649  1
  Tb  Tb1  1  0.322814  0.322814  0.671351  1
  Sm  Sm2  1  0.000000  0.000000  0.000000  1
  As  As3  1  0.339473  0.339473  0.254186  1
  As  As4  1  0.660527  0.660527  0.745814  1
  As  As5  1  0.893523  0.893523  0.821676  1
  As  As6  1  0.106477  0.106477  0.178324  1
  Pd  Pd7  1  0.305404  0.305404  0.026961  1
  Pd  Pd8  1  0.694596  0.694596  0.973039  1
  Pd  Pd9  1  0.512357  0.512357  0.705842  1
  Pd  Pd10  1  0.831917  0.831917  0.428058  1
  Pd  Pd11  1  0.487643  0.487643  0.294158  1
  Pd  Pd12  1  0.168083  0.168083  0.571942  1
  Pd  Pd13  1  0.000000  0.000000  0.500000  1
