# generated using pymatgen
data_Cu2Pb(SO4)4
_symmetry_space_group_name_H-M   'P 1'
_cell_length_a   6.62437927
_cell_length_b   6.62437913
_cell_length_c   8.98532734
_cell_angle_alpha   72.64648861
_cell_angle_beta   72.64648635
_cell_angle_gamma   85.59230716
_symmetry_Int_Tables_number   1
_chemical_formula_structural   Cu2Pb(SO4)4
_chemical_formula_sum   'Cu2 Pb1 S4 O16'
_cell_volume   359.18812692
_cell_formula_units_Z   1
loop_
 _symmetry_equiv_pos_site_id
 _symmetry_equiv_pos_as_xyz
  1  'x, y, z'
loop_
 _atom_site_type_symbol
 _atom_site_label
 _atom_site_symmetry_multiplicity
 _atom_site_fract_x
 _atom_site_fract_y
 _atom_site_fract_z
 _atom_site_occupancy
  Cu  Cu0  1  0.000000  0.000000  0.500000  1
  Cu  Cu1  1  0.500000  0.500000  0.500000  1
  Pb  Pb2  1  0.000000  0.000000  0.000000  1
  S  S3  1  0.092523  0.596153  0.725847  1
  S  S4  1  0.596153  0.092523  0.725847  1
  S  S5  1  0.907477  0.403847  0.274153  1
  S  S6  1  0.403847  0.907477  0.274153  1
  O  O7  1  0.333328  0.621079  0.659411  1
  O  O8  1  0.621079  0.333328  0.659411  1
  O  O9  1  0.666672  0.378921  0.340589  1
  O  O10  1  0.378921  0.666672  0.340589  1
  O  O11  1  0.032374  0.702878  0.852269  1
  O  O12  1  0.702878  0.032374  0.852269  1
  O  O13  1  0.967626  0.297122  0.147731  1
  O  O14  1  0.297122  0.967626  0.147731  1
  O  O15  1  0.993033  0.703954  0.588733  1
  O  O16  1  0.703954  0.993033  0.588733  1
  O  O17  1  0.006967  0.296046  0.411267  1
  O  O18  1  0.296046  0.006967  0.411267  1
  O  O19  1  0.029056  0.374639  0.775309  1
  O  O20  1  0.374639  0.029056  0.775309  1
  O  O21  1  0.970944  0.625361  0.224691  1
  O  O22  1  0.625361  0.970944  0.224691  1
