# generated using pymatgen
data_Pm2ReRu3
_symmetry_space_group_name_H-M   'P 1'
_cell_length_a   5.20975452
_cell_length_b   5.68885620
_cell_length_c   5.68945560
_cell_angle_alpha   60.00490228
_cell_angle_beta   56.91770192
_cell_angle_gamma   56.91128607
_symmetry_Int_Tables_number   1
_chemical_formula_structural   Pm2ReRu3
_chemical_formula_sum   'Pm2 Re1 Ru3'
_cell_volume   113.37008732
_cell_formula_units_Z   1
loop_
 _symmetry_equiv_pos_site_id
 _symmetry_equiv_pos_as_xyz
  1  'x, y, z'
loop_
 _atom_site_type_symbol
 _atom_site_label
 _atom_site_symmetry_multiplicity
 _atom_site_fract_x
 _atom_site_fract_y
 _atom_site_fract_z
 _atom_site_occupancy
  Pm  Pm0  1  0.755182  0.748290  0.748233  1
  Pm  Pm1  1  0.994818  0.001710  0.001767  1
  Re  Re2  1  0.875000  0.375000  0.375000  1
  Ru  Ru3  1  0.375000  0.875000  0.375000  1
  Ru  Ru4  1  0.375000  0.375000  0.875000  1
  Ru  Ru5  1  0.375000  0.375000  0.375000  1
