# generated using pymatgen
data_YTm5Co17TcP12
_symmetry_space_group_name_H-M   'P 1'
_cell_length_a   3.68605600
_cell_length_b   10.50262000
_cell_length_c   12.17476000
_cell_angle_alpha   90.00000000
_cell_angle_beta   90.00000000
_cell_angle_gamma   90.00000000
_symmetry_Int_Tables_number   1
_chemical_formula_structural   YTm5Co17TcP12
_chemical_formula_sum   'Y1 Tm5 Co17 Tc1 P12'
_cell_volume   471.32447238
_cell_formula_units_Z   1
loop_
 _symmetry_equiv_pos_site_id
 _symmetry_equiv_pos_as_xyz
  1  'x, y, z'
loop_
 _atom_site_type_symbol
 _atom_site_label
 _atom_site_symmetry_multiplicity
 _atom_site_fract_x
 _atom_site_fract_y
 _atom_site_fract_z
 _atom_site_occupancy
  Y  Y0  1  0.500000  0.000000  0.477465  1
  Tm  Tm1  1  0.000000  0.500000  0.524539  1
  Tm  Tm2  1  0.500000  0.817755  0.206606  1
  Tm  Tm3  1  0.500000  0.182245  0.206606  1
  Tm  Tm4  1  0.000000  0.682405  0.794971  1
  Tm  Tm5  1  0.000000  0.317595  0.794971  1
  Co  Co6  1  0.000000  0.000000  0.839803  1
  Co  Co7  1  0.500000  0.500000  0.702946  1
  Co  Co8  1  0.000000  0.000000  0.295351  1
  Co  Co9  1  0.000000  0.500000  0.987370  1
  Co  Co10  1  0.500000  0.000000  0.014680  1
  Co  Co11  1  0.500000  0.331925  0.990665  1
  Co  Co12  1  0.500000  0.668075  0.990665  1
  Co  Co13  1  0.000000  0.166545  0.005913  1
  Co  Co14  1  0.000000  0.833455  0.005913  1
  Co  Co15  1  0.500000  0.297413  0.430949  1
  Co  Co16  1  0.500000  0.702587  0.430949  1
  Co  Co17  1  0.000000  0.204190  0.569127  1
  Co  Co18  1  0.000000  0.795810  0.569127  1
  Co  Co19  1  0.500000  0.878171  0.709158  1
  Co  Co20  1  0.500000  0.121829  0.709158  1
  Co  Co21  1  0.000000  0.621267  0.292127  1
  Co  Co22  1  0.000000  0.378733  0.292127  1
  Tc  Tc23  1  0.500000  0.500000  0.157295  1
  P  P24  1  0.500000  0.500000  0.880670  1
  P  P25  1  0.000000  0.000000  0.117675  1
  P  P26  1  0.500000  0.500000  0.350317  1
  P  P27  1  0.000000  0.000000  0.655820  1
  P  P28  1  0.500000  0.312290  0.617036  1
  P  P29  1  0.500000  0.687710  0.617036  1
  P  P30  1  0.000000  0.188466  0.383197  1
  P  P31  1  0.000000  0.811534  0.383197  1
  P  P32  1  0.500000  0.848970  0.891413  1
  P  P33  1  0.500000  0.151030  0.891413  1
  P  P34  1  0.000000  0.656225  0.106872  1
  P  P35  1  0.000000  0.343775  0.106872  1
