# generated using pymatgen
data_AcNiN3
_symmetry_space_group_name_H-M   'P 1'
_cell_length_a   5.82699742
_cell_length_b   5.82699868
_cell_length_c   7.93571133
_cell_angle_alpha   103.96067391
_cell_angle_beta   103.96067859
_cell_angle_gamma   41.75497287
_symmetry_Int_Tables_number   1
_chemical_formula_structural   AcNiN3
_chemical_formula_sum   'Ac2 Ni2 N6'
_cell_volume   173.35329570
_cell_formula_units_Z   2
loop_
 _symmetry_equiv_pos_site_id
 _symmetry_equiv_pos_as_xyz
  1  'x, y, z'
loop_
 _atom_site_type_symbol
 _atom_site_label
 _atom_site_symmetry_multiplicity
 _atom_site_fract_x
 _atom_site_fract_y
 _atom_site_fract_z
 _atom_site_occupancy
  Ac  Ac0  1  0.844642  0.844642  0.190014  1
  Ac  Ac1  1  0.155358  0.155358  0.809986  1
  Ni  Ni2  1  0.559913  0.559913  0.174260  1
  Ni  Ni3  1  0.440087  0.440087  0.825740  1
  N  N4  1  0.371389  0.371389  0.024204  1
  N  N5  1  0.610525  0.610525  0.394464  1
  N  N6  1  0.352214  0.352214  0.453208  1
  N  N7  1  0.647786  0.647786  0.546792  1
  N  N8  1  0.389474  0.389474  0.605536  1
  N  N9  1  0.628610  0.628610  0.975795  1
