# generated using pymatgen
data_TbY3Ga18Ir5Pd
_symmetry_space_group_name_H-M   'P 1'
_cell_length_a   7.61007761
_cell_length_b   7.61036796
_cell_length_c   9.50287004
_cell_angle_alpha   90.05410760
_cell_angle_beta   90.05199994
_cell_angle_gamma   119.87570799
_symmetry_Int_Tables_number   1
_chemical_formula_structural   TbY3Ga18Ir5Pd
_chemical_formula_sum   'Tb1 Y3 Ga18 Ir5 Pd1'
_cell_volume   477.22368595
_cell_formula_units_Z   1
loop_
 _symmetry_equiv_pos_site_id
 _symmetry_equiv_pos_as_xyz
  1  'x, y, z'
loop_
 _atom_site_type_symbol
 _atom_site_label
 _atom_site_symmetry_multiplicity
 _atom_site_fract_x
 _atom_site_fract_y
 _atom_site_fract_z
 _atom_site_occupancy
  Tb  Tb0  1  0.996835  0.668487  0.250980  1
  Y  Y1  1  0.003166  0.331532  0.749017  1
  Y  Y2  1  0.668490  0.996821  0.250980  1
  Y  Y3  1  0.331518  0.003171  0.749016  1
  Ga  Ga4  1  0.127599  0.127562  0.251154  1
  Ga  Ga5  1  0.872447  0.872453  0.748841  1
  Ga  Ga6  1  0.999429  0.336616  0.081907  1
  Ga  Ga7  1  0.000547  0.663355  0.918102  1
  Ga  Ga8  1  0.001143  0.666105  0.579578  1
  Ga  Ga9  1  0.333917  0.998869  0.420429  1
  Ga  Ga10  1  0.998839  0.333859  0.420417  1
  Ga  Ga11  1  0.666112  0.001159  0.579562  1
  Ga  Ga12  1  0.663357  0.000575  0.918111  1
  Ga  Ga13  1  0.336666  0.999453  0.081912  1
  Ga  Ga14  1  0.332336  0.332326  0.563857  1
  Ga  Ga15  1  0.667640  0.667666  0.436124  1
  Ga  Ga16  1  0.664494  0.664511  0.066230  1
  Ga  Ga17  1  0.335509  0.335506  0.933798  1
  Ga  Ga18  1  0.338661  0.546505  0.250284  1
  Ga  Ga19  1  0.661317  0.453460  0.749715  1
  Ga  Ga20  1  0.546538  0.338733  0.250278  1
  Ga  Ga21  1  0.453475  0.661328  0.749717  1
  Ir  Ir22  1  0.671675  0.328313  0.999987  1
  Ir  Ir23  1  0.328281  0.671656  0.999997  1
  Ir  Ir24  1  0.328508  0.671431  0.500007  1
  Ir  Ir25  1  0.671471  0.328570  0.500011  1
  Ir  Ir26  1  0.000025  0.999980  0.499990  1
  Pd  Pd27  1  0.000007  0.999996  0.000000  1
