# generated using pymatgen
data_Th6MnCl14
_symmetry_space_group_name_H-M   'P 1'
_cell_length_a   10.65900200
_cell_length_b   10.65900239
_cell_length_c   12.89404400
_cell_angle_alpha   90.00000000
_cell_angle_beta   90.00000000
_cell_angle_gamma   97.08347646
_symmetry_Int_Tables_number   1
_chemical_formula_structural   Th6MnCl14
_chemical_formula_sum   'Th12 Mn2 Cl28'
_cell_volume   1453.76698616
_cell_formula_units_Z   2
loop_
 _symmetry_equiv_pos_site_id
 _symmetry_equiv_pos_as_xyz
  1  'x, y, z'
loop_
 _atom_site_type_symbol
 _atom_site_label
 _atom_site_symmetry_multiplicity
 _atom_site_fract_x
 _atom_site_fract_y
 _atom_site_fract_z
 _atom_site_occupancy
  Th  Th0  1  0.951037  0.199916  0.125780  1
  Th  Th1  1  0.048963  0.800084  0.874220  1
  Th  Th2  1  0.548963  0.300084  0.625780  1
  Th  Th3  1  0.699916  0.451037  0.374220  1
  Th  Th4  1  0.451037  0.699916  0.374220  1
  Th  Th5  1  0.300084  0.548963  0.625780  1
  Th  Th6  1  0.800084  0.048963  0.874220  1
  Th  Th7  1  0.199916  0.951037  0.125780  1
  Th  Th8  1  0.346195  0.346195  0.390151  1
  Th  Th9  1  0.653805  0.653805  0.609849  1
  Th  Th10  1  0.153805  0.153805  0.890151  1
  Th  Th11  1  0.846195  0.846195  0.109849  1
  Mn  Mn12  1  0.000000  0.000000  0.000000  1
  Mn  Mn13  1  0.500000  0.500000  0.500000  1
  Cl  Cl14  1  0.290245  0.536402  0.252942  1
  Cl  Cl15  1  0.709755  0.463598  0.747058  1
  Cl  Cl16  1  0.209755  0.963598  0.752942  1
  Cl  Cl17  1  0.036402  0.790245  0.247058  1
  Cl  Cl18  1  0.790245  0.036402  0.247058  1
  Cl  Cl19  1  0.963598  0.209755  0.752942  1
  Cl  Cl20  1  0.463598  0.709755  0.747058  1
  Cl  Cl21  1  0.536402  0.290245  0.252942  1
  Cl  Cl22  1  0.119721  0.364494  0.011718  1
  Cl  Cl23  1  0.880279  0.635506  0.988282  1
  Cl  Cl24  1  0.380279  0.135506  0.511718  1
  Cl  Cl25  1  0.864494  0.619721  0.488282  1
  Cl  Cl26  1  0.619721  0.864494  0.488282  1
  Cl  Cl27  1  0.135506  0.380279  0.511718  1
  Cl  Cl28  1  0.635506  0.880279  0.988282  1
  Cl  Cl29  1  0.364494  0.119721  0.011718  1
  Cl  Cl30  1  0.914334  0.414334  0.250000  1
  Cl  Cl31  1  0.085666  0.585666  0.750000  1
  Cl  Cl32  1  0.585666  0.085666  0.750000  1
  Cl  Cl33  1  0.414334  0.914334  0.250000  1
  Cl  Cl34  1  0.750601  0.249399  0.000000  1
  Cl  Cl35  1  0.249399  0.750601  0.000000  1
  Cl  Cl36  1  0.749399  0.250601  0.500000  1
  Cl  Cl37  1  0.250601  0.749399  0.500000  1
  Cl  Cl38  1  0.156173  0.156173  0.262474  1
  Cl  Cl39  1  0.843827  0.843827  0.737526  1
  Cl  Cl40  1  0.343827  0.343827  0.762474  1
  Cl  Cl41  1  0.656173  0.656173  0.237526  1
