# generated using pymatgen
data_Lu13Sc7Bi11Ru
_symmetry_space_group_name_H-M   'P 1'
_cell_length_a   7.90400351
_cell_length_b   9.24083895
_cell_length_c   11.65967589
_cell_angle_alpha   89.86886487
_cell_angle_beta   89.54872598
_cell_angle_gamma   89.86973780
_symmetry_Int_Tables_number   1
_chemical_formula_structural   Lu13Sc7Bi11Ru
_chemical_formula_sum   'Lu13 Sc7 Bi11 Ru1'
_cell_volume   851.58752585
_cell_formula_units_Z   1
loop_
 _symmetry_equiv_pos_site_id
 _symmetry_equiv_pos_as_xyz
  1  'x, y, z'
loop_
 _atom_site_type_symbol
 _atom_site_label
 _atom_site_symmetry_multiplicity
 _atom_site_fract_x
 _atom_site_fract_y
 _atom_site_fract_z
 _atom_site_occupancy
  Lu  Lu0  1  0.353013  0.249406  0.303910  1
  Lu  Lu1  1  0.144040  0.749845  0.780250  1
  Lu  Lu2  1  0.849148  0.251354  0.212589  1
  Lu  Lu3  1  0.207771  0.249997  0.767078  1
  Lu  Lu4  1  0.809643  0.750091  0.218424  1
  Lu  Lu5  1  0.317609  0.751313  0.280584  1
  Lu  Lu6  1  0.647174  0.249973  0.704323  1
  Lu  Lu7  1  0.311285  0.967173  0.558835  1
  Lu  Lu8  1  0.807097  0.565463  0.942027  1
  Lu  Lu9  1  0.680728  0.073313  0.445932  1
  Lu  Lu10  1  0.192975  0.432911  0.060804  1
  Lu  Lu11  1  0.680002  0.425939  0.445695  1
  Lu  Lu12  1  0.312193  0.532110  0.558669  1
  Sc  Sc13  1  0.047739  0.250118  0.507789  1
  Sc  Sc14  1  0.983699  0.750409  0.492053  1
  Sc  Sc15  1  0.480998  0.752515  0.013048  1
  Sc  Sc16  1  0.524561  0.247209  0.989929  1
  Sc  Sc17  1  0.661245  0.751206  0.722455  1
  Sc  Sc18  1  0.195683  0.067962  0.062354  1
  Sc  Sc19  1  0.804474  0.931122  0.940970  1
  Bi  Bi20  1  0.597644  0.749706  0.466346  1
  Bi  Bi21  1  0.099310  0.757602  0.041953  1
  Bi  Bi22  1  0.908539  0.241256  0.949022  1
  Bi  Bi23  1  0.057656  0.000785  0.324689  1
  Bi  Bi24  1  0.928280  0.998369  0.673160  1
  Bi  Bi25  1  0.437974  0.988711  0.832664  1
  Bi  Bi26  1  0.928742  0.501491  0.671797  1
  Bi  Bi27  1  0.562638  0.005443  0.170614  1
  Bi  Bi28  1  0.057921  0.500791  0.325994  1
  Bi  Bi29  1  0.562779  0.495275  0.171069  1
  Bi  Bi30  1  0.436859  0.511888  0.832061  1
  Ru  Ru31  1  0.410582  0.249256  0.532915  1
