# generated using pymatgen
data_La8Er9Sc3Si15Au
_symmetry_space_group_name_H-M   'P 1'
_cell_length_a   7.43714921
_cell_length_b   7.84122534
_cell_length_c   14.84823600
_cell_angle_alpha   90.00000000
_cell_angle_beta   90.00000000
_cell_angle_gamma   90.52942263
_symmetry_Int_Tables_number   1
_chemical_formula_structural   La8Er9Sc3Si15Au
_chemical_formula_sum   'La8 Er9 Sc3 Si15 Au1'
_cell_volume   865.85815323
_cell_formula_units_Z   1
loop_
 _symmetry_equiv_pos_site_id
 _symmetry_equiv_pos_as_xyz
  1  'x, y, z'
loop_
 _atom_site_type_symbol
 _atom_site_label
 _atom_site_symmetry_multiplicity
 _atom_site_fract_x
 _atom_site_fract_y
 _atom_site_fract_z
 _atom_site_occupancy
  La  La0  1  0.020371  0.180419  0.399168  1
  La  La1  1  0.519927  0.323284  0.399094  1
  La  La2  1  0.483492  0.667432  0.907479  1
  La  La3  1  0.483492  0.667432  0.592521  1
  La  La4  1  0.981085  0.822791  0.594412  1
  La  La5  1  0.981085  0.822791  0.905588  1
  La  La6  1  0.519927  0.323284  0.100906  1
  La  La7  1  0.020371  0.180419  0.100832  1
  Er  Er8  1  0.318142  0.183492  0.622434  1
  Er  Er9  1  0.682708  0.827197  0.373773  1
  Er  Er10  1  0.647868  0.981811  0.750000  1
  Er  Er11  1  0.182383  0.675421  0.375015  1
  Er  Er12  1  0.819884  0.321811  0.878677  1
  Er  Er13  1  0.819884  0.321811  0.621323  1
  Er  Er14  1  0.318142  0.183492  0.877566  1
  Er  Er15  1  0.182383  0.675421  0.124985  1
  Er  Er16  1  0.682708  0.827197  0.126227  1
  Sc  Sc17  1  0.848998  0.496477  0.250000  1
  Sc  Sc18  1  0.349813  0.007195  0.250000  1
  Sc  Sc19  1  0.152588  0.501714  0.750000  1
  Si  Si20  1  0.481941  0.616377  0.250000  1
  Si  Si21  1  0.020988  0.126247  0.750000  1
  Si  Si22  1  0.525542  0.387674  0.750000  1
  Si  Si23  1  0.143437  0.469512  0.539523  1
  Si  Si24  1  0.986350  0.884726  0.250000  1
  Si  Si25  1  0.718052  0.127472  0.250000  1
  Si  Si26  1  0.852417  0.533438  0.042572  1
  Si  Si27  1  0.354157  0.967509  0.039905  1
  Si  Si28  1  0.143437  0.469512  0.960477  1
  Si  Si29  1  0.643067  0.032257  0.538416  1
  Si  Si30  1  0.354157  0.967509  0.460095  1
  Si  Si31  1  0.852417  0.533438  0.457428  1
  Si  Si32  1  0.776991  0.612285  0.750000  1
  Si  Si33  1  0.221463  0.378923  0.250000  1
  Si  Si34  1  0.643067  0.032257  0.961584  1
  Au  Au35  1  0.267270  0.869973  0.750000  1
