# generated using pymatgen
data_Nd4AlIr
_symmetry_space_group_name_H-M   'P 1'
_cell_length_a   9.88312138
_cell_length_b   9.88312157
_cell_length_c   9.88312100
_cell_angle_alpha   59.99999857
_cell_angle_beta   59.99999791
_cell_angle_gamma   60.00000119
_symmetry_Int_Tables_number   1
_chemical_formula_structural   Nd4AlIr
_chemical_formula_sum   'Nd16 Al4 Ir4'
_cell_volume   682.60171279
_cell_formula_units_Z   4
loop_
 _symmetry_equiv_pos_site_id
 _symmetry_equiv_pos_as_xyz
  1  'x, y, z'
loop_
 _atom_site_type_symbol
 _atom_site_label
 _atom_site_symmetry_multiplicity
 _atom_site_fract_x
 _atom_site_fract_y
 _atom_site_fract_z
 _atom_site_occupancy
  Nd  Nd0  1  0.649436  0.051691  0.649436  1
  Nd  Nd1  1  0.805874  0.194126  0.805874  1
  Nd  Nd2  1  0.194126  0.805874  0.805874  1
  Nd  Nd3  1  0.061721  0.438279  0.438279  1
  Nd  Nd4  1  0.061721  0.061721  0.438279  1
  Nd  Nd5  1  0.438279  0.061721  0.438279  1
  Nd  Nd6  1  0.805874  0.194126  0.194126  1
  Nd  Nd7  1  0.438279  0.061721  0.061721  1
  Nd  Nd8  1  0.194126  0.805874  0.194126  1
  Nd  Nd9  1  0.438279  0.438279  0.061721  1
  Nd  Nd10  1  0.805874  0.805874  0.194126  1
  Nd  Nd11  1  0.194126  0.194126  0.805874  1
  Nd  Nd12  1  0.051691  0.649436  0.649436  1
  Nd  Nd13  1  0.649436  0.649436  0.649436  1
  Nd  Nd14  1  0.061721  0.438279  0.061721  1
  Nd  Nd15  1  0.649436  0.649436  0.051691  1
  Al  Al16  1  0.425469  0.425469  0.723595  1
  Al  Al17  1  0.723595  0.425469  0.425469  1
  Al  Al18  1  0.425469  0.723595  0.425469  1
  Al  Al19  1  0.425469  0.425469  0.425469  1
  Ir  Ir20  1  0.858327  0.858327  0.858327  1
  Ir  Ir21  1  0.858327  0.425019  0.858327  1
  Ir  Ir22  1  0.858327  0.858327  0.425019  1
  Ir  Ir23  1  0.425019  0.858327  0.858327  1
