# generated using pymatgen
data_Tb8Cd2NiOs
_symmetry_space_group_name_H-M   'P 1'
_cell_length_a   9.61839688
_cell_length_b   9.61839679
_cell_length_c   9.69527300
_cell_angle_alpha   59.73524867
_cell_angle_beta   59.73524899
_cell_angle_gamma   59.62893366
_symmetry_Int_Tables_number   1
_chemical_formula_structural   Tb8Cd2NiOs
_chemical_formula_sum   'Tb16 Cd4 Ni2 Os2'
_cell_volume   629.90915445
_cell_formula_units_Z   2
loop_
 _symmetry_equiv_pos_site_id
 _symmetry_equiv_pos_as_xyz
  1  'x, y, z'
loop_
 _atom_site_type_symbol
 _atom_site_label
 _atom_site_symmetry_multiplicity
 _atom_site_fract_x
 _atom_site_fract_y
 _atom_site_fract_z
 _atom_site_occupancy
  Tb  Tb0  1  0.349996  0.349996  0.343631  1
  Tb  Tb1  1  0.349996  0.349996  0.956378  1
  Tb  Tb2  1  0.351375  0.955018  0.346804  1
  Tb  Tb3  1  0.955018  0.351375  0.346804  1
  Tb  Tb4  1  0.810527  0.186881  0.190360  1
  Tb  Tb5  1  0.186881  0.810527  0.812232  1
  Tb  Tb6  1  0.186881  0.810527  0.190360  1
  Tb  Tb7  1  0.810527  0.186881  0.812232  1
  Tb  Tb8  1  0.188810  0.188810  0.811190  1
  Tb  Tb9  1  0.810014  0.810014  0.189986  1
  Tb  Tb10  1  0.938978  0.556477  0.566260  1
  Tb  Tb11  1  0.556477  0.938978  0.938285  1
  Tb  Tb12  1  0.556477  0.938978  0.566260  1
  Tb  Tb13  1  0.938978  0.556477  0.938285  1
  Tb  Tb14  1  0.565477  0.565477  0.934523  1
  Tb  Tb15  1  0.941616  0.941616  0.558384  1
  Cd  Cd16  1  0.579659  0.579659  0.582338  1
  Cd  Cd17  1  0.579659  0.579659  0.258342  1
  Cd  Cd18  1  0.580396  0.256474  0.581564  1
  Cd  Cd19  1  0.256474  0.580396  0.581564  1
  Ni  Ni20  1  0.142365  0.576304  0.140665  1
  Ni  Ni21  1  0.576304  0.142365  0.140665  1
  Os  Os22  1  0.143557  0.143557  0.138096  1
  Os  Os23  1  0.143557  0.143557  0.574790  1
