# generated using pymatgen
data_PrHo15(CdRh)4
_symmetry_space_group_name_H-M   'P 1'
_cell_length_a   9.61788018
_cell_length_b   9.61787969
_cell_length_c   9.62032300
_cell_angle_alpha   59.99159956
_cell_angle_beta   59.99160124
_cell_angle_gamma   59.92118390
_symmetry_Int_Tables_number   1
_chemical_formula_structural   PrHo15(CdRh)4
_chemical_formula_sum   'Pr1 Ho15 Cd4 Rh4'
_cell_volume   628.80924397
_cell_formula_units_Z   1
loop_
 _symmetry_equiv_pos_site_id
 _symmetry_equiv_pos_as_xyz
  1  'x, y, z'
loop_
 _atom_site_type_symbol
 _atom_site_label
 _atom_site_symmetry_multiplicity
 _atom_site_fract_x
 _atom_site_fract_y
 _atom_site_fract_z
 _atom_site_occupancy
  Pr  Pr0  1  0.934252  0.934252  0.565748  1
  Ho  Ho1  1  0.563511  0.563511  0.936489  1
  Ho  Ho2  1  0.688950  0.688950  0.311050  1
  Ho  Ho3  1  0.150195  0.548899  0.150452  1
  Ho  Ho4  1  0.688430  0.313432  0.688307  1
  Ho  Ho5  1  0.151342  0.151342  0.151070  1
  Ho  Ho6  1  0.548899  0.150195  0.150452  1
  Ho  Ho7  1  0.688430  0.313432  0.309830  1
  Ho  Ho8  1  0.151342  0.151342  0.546244  1
  Ho  Ho9  1  0.313432  0.688430  0.309830  1
  Ho  Ho10  1  0.313432  0.688430  0.688307  1
  Ho  Ho11  1  0.936377  0.560566  0.564283  1
  Ho  Ho12  1  0.936377  0.560566  0.938774  1
  Ho  Ho13  1  0.560566  0.936377  0.564283  1
  Ho  Ho14  1  0.560566  0.936377  0.938774  1
  Ho  Ho15  1  0.311005  0.311005  0.688995  1
  Cd  Cd16  1  0.918917  0.918917  0.240219  1
  Cd  Cd17  1  0.244667  0.919049  0.918142  1
  Cd  Cd18  1  0.918917  0.918917  0.921946  1
  Cd  Cd19  1  0.919049  0.244667  0.918142  1
  Rh  Rh20  1  0.357021  0.357021  0.927407  1
  Rh  Rh21  1  0.360173  0.927123  0.356351  1
  Rh  Rh22  1  0.927123  0.360173  0.356351  1
  Rh  Rh23  1  0.357021  0.357021  0.358550  1
