# generated using pymatgen
data_Tb4DyEr3(ReB6)4
_symmetry_space_group_name_H-M   'P 1'
_cell_length_a   3.67961300
_cell_length_b   9.16776802
_cell_length_c   11.56185402
_cell_angle_alpha   90.00702584
_cell_angle_beta   90.00000000
_cell_angle_gamma   90.00000000
_symmetry_Int_Tables_number   1
_chemical_formula_structural   Tb4DyEr3(ReB6)4
_chemical_formula_sum   'Tb4 Dy1 Er3 Re4 B24'
_cell_volume   390.02571198
_cell_formula_units_Z   1
loop_
 _symmetry_equiv_pos_site_id
 _symmetry_equiv_pos_as_xyz
  1  'x, y, z'
loop_
 _atom_site_type_symbol
 _atom_site_label
 _atom_site_symmetry_multiplicity
 _atom_site_fract_x
 _atom_site_fract_y
 _atom_site_fract_z
 _atom_site_occupancy
  Tb  Tb0  1  0.000000  0.323463  0.413945  1
  Tb  Tb1  1  0.000000  0.676489  0.586194  1
  Tb  Tb2  1  0.000000  0.823298  0.085937  1
  Tb  Tb3  1  0.000000  0.176691  0.913857  1
  Dy  Dy4  1  0.000000  0.943289  0.370247  1
  Er  Er5  1  0.000000  0.056945  0.630397  1
  Er  Er6  1  0.000000  0.443216  0.129842  1
  Er  Er7  1  0.000000  0.556803  0.869999  1
  Re  Re8  1  0.000000  0.638466  0.320259  1
  Re  Re9  1  0.000000  0.361018  0.679773  1
  Re  Re10  1  0.000000  0.139385  0.179316  1
  Re  Re11  1  0.000000  0.860933  0.820405  1
  B  B12  1  0.500000  0.553139  0.432539  1
  B  B13  1  0.500000  0.446367  0.567580  1
  B  B14  1  0.500000  0.053685  0.067225  1
  B  B15  1  0.500000  0.946436  0.932452  1
  B  B16  1  0.500000  0.748814  0.418119  1
  B  B17  1  0.500000  0.250339  0.581981  1
  B  B18  1  0.500000  0.249941  0.081713  1
  B  B19  1  0.500000  0.750225  0.918106  1
  B  B20  1  0.500000  0.791620  0.265325  1
  B  B21  1  0.500000  0.207764  0.734533  1
  B  B22  1  0.500000  0.292660  0.234291  1
  B  B23  1  0.500000  0.707652  0.765585  1
  B  B24  1  0.500000  0.630099  0.185210  1
  B  B25  1  0.500000  0.369668  0.814627  1
  B  B26  1  0.500000  0.131080  0.314206  1
  B  B27  1  0.500000  0.869568  0.685553  1
  B  B28  1  0.500000  0.982756  0.211877  1
  B  B29  1  0.500000  0.017617  0.787697  1
  B  B30  1  0.500000  0.482133  0.287502  1
  B  B31  1  0.500000  0.517681  0.712402  1
  B  B32  1  0.500000  0.598587  0.027452  1
  B  B33  1  0.500000  0.401420  0.972413  1
  B  B34  1  0.500000  0.099700  0.473036  1
  B  B35  1  0.500000  0.901052  0.528406  1
