# generated using pymatgen
data_Tb15Sc5Pb16
_symmetry_space_group_name_H-M   'P 1'
_cell_length_a   8.09460473
_cell_length_b   8.20398259
_cell_length_c   15.56369000
_cell_angle_alpha   89.98529889
_cell_angle_beta   89.68192225
_cell_angle_gamma   90.25026713
_symmetry_Int_Tables_number   1
_chemical_formula_structural   Tb15Sc5Pb16
_chemical_formula_sum   'Tb15 Sc5 Pb16'
_cell_volume   1033.52764077
_cell_formula_units_Z   1
loop_
 _symmetry_equiv_pos_site_id
 _symmetry_equiv_pos_as_xyz
  1  'x, y, z'
loop_
 _atom_site_type_symbol
 _atom_site_label
 _atom_site_symmetry_multiplicity
 _atom_site_fract_x
 _atom_site_fract_y
 _atom_site_fract_z
 _atom_site_occupancy
  Tb  Tb0  1  0.873145  0.655800  0.624221  1
  Tb  Tb1  1  0.626805  0.155067  0.377892  1
  Tb  Tb2  1  0.131125  0.344610  0.119534  1
  Tb  Tb3  1  0.627279  0.155768  0.122591  1
  Tb  Tb4  1  0.125669  0.344377  0.377784  1
  Tb  Tb5  1  0.374327  0.844497  0.623017  1
  Tb  Tb6  1  0.873233  0.654024  0.878249  1
  Tb  Tb7  1  0.532627  0.320656  0.903573  1
  Tb  Tb8  1  0.036816  0.176068  0.599415  1
  Tb  Tb9  1  0.464318  0.677074  0.402231  1
  Tb  Tb10  1  0.964396  0.823097  0.096953  1
  Tb  Tb11  1  0.469033  0.680846  0.094056  1
  Tb  Tb12  1  0.964375  0.823139  0.401498  1
  Tb  Tb13  1  0.535209  0.322770  0.599975  1
  Tb  Tb14  1  0.032974  0.175149  0.901974  1
  Sc  Sc15  1  0.369716  0.846628  0.874372  1
  Sc  Sc16  1  0.205035  0.505228  0.750813  1
  Sc  Sc17  1  0.702565  0.993111  0.751495  1
  Sc  Sc18  1  0.796824  0.494274  0.250210  1
  Sc  Sc19  1  0.295854  0.004765  0.249141  1
  Pb  Pb20  1  0.286329  0.031876  0.040193  1
  Pb  Pb21  1  0.783299  0.467496  0.454718  1
  Pb  Pb22  1  0.717791  0.967064  0.546759  1
  Pb  Pb23  1  0.219628  0.543557  0.951830  1
  Pb  Pb24  1  0.705050  0.961631  0.953056  1
  Pb  Pb25  1  0.216367  0.532653  0.547110  1
  Pb  Pb26  1  0.282973  0.033331  0.454072  1
  Pb  Pb27  1  0.786757  0.465005  0.046456  1
  Pb  Pb28  1  0.560298  0.627844  0.753826  1
  Pb  Pb29  1  0.066979  0.876075  0.752543  1
  Pb  Pb30  1  0.436401  0.377772  0.249964  1
  Pb  Pb31  1  0.937185  0.123677  0.248808  1
  Pb  Pb32  1  0.346184  0.157908  0.752290  1
  Pb  Pb33  1  0.845550  0.338129  0.751237  1
  Pb  Pb34  1  0.653600  0.838307  0.249413  1
  Pb  Pb35  1  0.154282  0.660727  0.248731  1
