# generated using pymatgen
data_Yb9Sc11Bi16
_symmetry_space_group_name_H-M   'P 1'
_cell_length_a   8.22468650
_cell_length_b   8.17376472
_cell_length_c   15.11138636
_cell_angle_alpha   90.08964608
_cell_angle_beta   90.22017520
_cell_angle_gamma   90.11714998
_symmetry_Int_Tables_number   1
_chemical_formula_structural   Yb9Sc11Bi16
_chemical_formula_sum   'Yb9 Sc11 Bi16'
_cell_volume   1015.87703781
_cell_formula_units_Z   1
loop_
 _symmetry_equiv_pos_site_id
 _symmetry_equiv_pos_as_xyz
  1  'x, y, z'
loop_
 _atom_site_type_symbol
 _atom_site_label
 _atom_site_symmetry_multiplicity
 _atom_site_fract_x
 _atom_site_fract_y
 _atom_site_fract_z
 _atom_site_occupancy
  Yb  Yb0  1  0.145524  0.354430  0.621048  1
  Yb  Yb1  1  0.469818  0.677936  0.592347  1
  Yb  Yb2  1  0.971928  0.823850  0.910277  1
  Yb  Yb3  1  0.528571  0.322893  0.092204  1
  Yb  Yb4  1  0.033281  0.175367  0.403594  1
  Yb  Yb5  1  0.525234  0.322753  0.406108  1
  Yb  Yb6  1  0.028050  0.178074  0.092439  1
  Yb  Yb7  1  0.472520  0.678439  0.908521  1
  Yb  Yb8  1  0.970464  0.822197  0.594782  1
  Sc  Sc9  1  0.649225  0.144685  0.627396  1
  Sc  Sc10  1  0.150251  0.355615  0.874372  1
  Sc  Sc11  1  0.350114  0.856036  0.125845  1
  Sc  Sc12  1  0.849679  0.643257  0.373655  1
  Sc  Sc13  1  0.355582  0.857031  0.371267  1
  Sc  Sc14  1  0.851105  0.645418  0.126743  1
  Sc  Sc15  1  0.650663  0.143259  0.877343  1
  Sc  Sc16  1  0.807110  0.495265  0.752044  1
  Sc  Sc17  1  0.308847  0.004261  0.750151  1
  Sc  Sc18  1  0.190774  0.505905  0.247538  1
  Sc  Sc19  1  0.691685  0.995088  0.250165  1
  Bi  Bi20  1  0.706765  0.954376  0.451363  1
  Bi  Bi21  1  0.202496  0.548626  0.047731  1
  Bi  Bi22  1  0.299107  0.049670  0.952558  1
  Bi  Bi23  1  0.785675  0.454204  0.547138  1
  Bi  Bi24  1  0.302066  0.034539  0.546520  1
  Bi  Bi25  1  0.799384  0.452482  0.953178  1
  Bi  Bi26  1  0.701645  0.951782  0.049491  1
  Bi  Bi27  1  0.201320  0.554174  0.444836  1
  Bi  Bi28  1  0.458460  0.355305  0.753747  1
  Bi  Bi29  1  0.951225  0.139066  0.755373  1
  Bi  Bi30  1  0.546796  0.641823  0.248326  1
  Bi  Bi31  1  0.046450  0.858468  0.249499  1
  Bi  Bi32  1  0.654081  0.841163  0.751058  1
  Bi  Bi33  1  0.155683  0.662001  0.754136  1
  Bi  Bi34  1  0.344807  0.158859  0.248064  1
  Bi  Bi35  1  0.843614  0.341703  0.249150  1
