# generated using pymatgen
data_Ba6Pt
_symmetry_space_group_name_H-M   'P 1'
_cell_length_a   13.59065200
_cell_length_b   13.59065296
_cell_length_c   7.54655700
_cell_angle_alpha   90.00000000
_cell_angle_beta   90.00000000
_cell_angle_gamma   119.99999765
_symmetry_Int_Tables_number   1
_chemical_formula_structural   Ba6Pt
_chemical_formula_sum   'Ba18 Pt3'
_cell_volume   1207.14687309
_cell_formula_units_Z   3
loop_
 _symmetry_equiv_pos_site_id
 _symmetry_equiv_pos_as_xyz
  1  'x, y, z'
loop_
 _atom_site_type_symbol
 _atom_site_label
 _atom_site_symmetry_multiplicity
 _atom_site_fract_x
 _atom_site_fract_y
 _atom_site_fract_z
 _atom_site_occupancy
  Ba  Ba0  1  0.108160  0.216320  0.243241  1
  Ba  Ba1  1  0.108160  0.891840  0.243241  1
  Ba  Ba2  1  0.783679  0.891840  0.243241  1
  Ba  Ba3  1  0.117248  0.558624  0.247610  1
  Ba  Ba4  1  0.441375  0.558624  0.247610  1
  Ba  Ba5  1  0.441376  0.882752  0.247610  1
  Ba  Ba6  1  0.448810  0.224405  0.273674  1
  Ba  Ba7  1  0.775596  0.224405  0.273674  1
  Ba  Ba8  1  0.775595  0.551190  0.273674  1
  Ba  Ba9  1  0.224405  0.448810  0.726325  1
  Ba  Ba10  1  0.224404  0.775595  0.726325  1
  Ba  Ba11  1  0.551190  0.775595  0.726325  1
  Ba  Ba12  1  0.558624  0.117248  0.752390  1
  Ba  Ba13  1  0.558625  0.441376  0.752390  1
  Ba  Ba14  1  0.882752  0.441376  0.752390  1
  Ba  Ba15  1  0.216321  0.108160  0.756758  1
  Ba  Ba16  1  0.891840  0.108160  0.756758  1
  Ba  Ba17  1  0.891840  0.783680  0.756758  1
  Pt  Pt18  1  0.000000  0.000000  0.000000  1
  Pt  Pt19  1  0.333333  0.666666  0.491083  1
  Pt  Pt20  1  0.666667  0.333334  0.508917  1
