# generated using pymatgen
data_CeY2Ho3(SiPd5)2
_symmetry_space_group_name_H-M   'P 1'
_cell_length_a   8.25700901
_cell_length_b   8.25576849
_cell_length_c   8.25576714
_cell_angle_alpha   127.77402577
_cell_angle_beta   125.59612241
_cell_angle_gamma   78.77426677
_symmetry_Int_Tables_number   1
_chemical_formula_structural   CeY2Ho3(SiPd5)2
_chemical_formula_sum   'Ce1 Y2 Ho3 Si2 Pd10'
_cell_volume   350.05712666
_cell_formula_units_Z   1
loop_
 _symmetry_equiv_pos_site_id
 _symmetry_equiv_pos_as_xyz
  1  'x, y, z'
loop_
 _atom_site_type_symbol
 _atom_site_label
 _atom_site_symmetry_multiplicity
 _atom_site_fract_x
 _atom_site_fract_y
 _atom_site_fract_z
 _atom_site_occupancy
  Ce  Ce0  1  0.614923  0.749887  0.865036  1
  Y  Y1  1  0.175563  0.950247  0.225316  1
  Y  Y2  1  0.389588  0.250041  0.139546  1
  Ho  Ho3  1  0.224201  0.448176  0.776025  1
  Ho  Ho4  1  0.775617  0.549639  0.225978  1
  Ho  Ho5  1  0.827780  0.051884  0.775896  1
  Si  Si6  1  0.784292  0.249999  0.534293  1
  Si  Si7  1  0.215426  0.750007  0.465419  1
  Pd  Pd8  1  0.166576  0.400807  0.357149  1
  Pd  Pd9  1  0.830312  0.186852  0.229180  1
  Pd  Pd10  1  0.456984  0.099780  0.766925  1
  Pd  Pd11  1  0.543270  0.314171  0.644988  1
  Pd  Pd12  1  0.999162  0.500580  0.000132  1
  Pd  Pd13  1  0.999162  0.999029  0.498582  1
  Pd  Pd14  1  0.456984  0.690059  0.357204  1
  Pd  Pd15  1  0.543270  0.898282  0.229099  1
  Pd  Pd16  1  0.166576  0.809429  0.765771  1
  Pd  Pd17  1  0.830312  0.601132  0.643461  1
