# generated using pymatgen
data_Th8Zr12Sn5Sb11
_symmetry_space_group_name_H-M   'P 1'
_cell_length_a   7.95117600
_cell_length_b   7.85488181
_cell_length_c   14.93131700
_cell_angle_alpha   90.00000000
_cell_angle_beta   90.00000000
_cell_angle_gamma   90.13501012
_symmetry_Int_Tables_number   1
_chemical_formula_structural   Th8Zr12Sn5Sb11
_chemical_formula_sum   'Th8 Zr12 Sn5 Sb11'
_cell_volume   932.54099226
_cell_formula_units_Z   1
loop_
 _symmetry_equiv_pos_site_id
 _symmetry_equiv_pos_as_xyz
  1  'x, y, z'
loop_
 _atom_site_type_symbol
 _atom_site_label
 _atom_site_symmetry_multiplicity
 _atom_site_fract_x
 _atom_site_fract_y
 _atom_site_fract_z
 _atom_site_occupancy
  Th  Th0  1  0.518051  0.323924  0.907909  1
  Th  Th1  1  0.018118  0.175878  0.592351  1
  Th  Th2  1  0.482916  0.676358  0.407064  1
  Th  Th3  1  0.982567  0.823443  0.091239  1
  Th  Th4  1  0.482916  0.676358  0.092936  1
  Th  Th5  1  0.982567  0.823443  0.408761  1
  Th  Th6  1  0.518051  0.323924  0.592091  1
  Th  Th7  1  0.018118  0.175878  0.907649  1
  Zr  Zr8  1  0.349543  0.842714  0.875109  1
  Zr  Zr9  1  0.849867  0.657319  0.624901  1
  Zr  Zr10  1  0.648931  0.158824  0.375869  1
  Zr  Zr11  1  0.149853  0.341887  0.124787  1
  Zr  Zr12  1  0.648931  0.158824  0.124131  1
  Zr  Zr13  1  0.149853  0.341887  0.375213  1
  Zr  Zr14  1  0.349543  0.842714  0.624891  1
  Zr  Zr15  1  0.849867  0.657319  0.875099  1
  Zr  Zr16  1  0.174351  0.507611  0.750000  1
  Zr  Zr17  1  0.674442  0.991676  0.750000  1
  Zr  Zr18  1  0.823373  0.493544  0.250000  1
  Zr  Zr19  1  0.325981  0.005880  0.250000  1
  Sn  Sn20  1  0.953215  0.126887  0.250000  1
  Sn  Sn21  1  0.320776  0.148625  0.750000  1
  Sn  Sn22  1  0.820378  0.351088  0.750000  1
  Sn  Sn23  1  0.684746  0.855666  0.250000  1
  Sn  Sn24  1  0.177962  0.649169  0.250000  1
  Sb  Sb25  1  0.310813  0.046062  0.045791  1
  Sb  Sb26  1  0.811370  0.453505  0.454409  1
  Sb  Sb27  1  0.688734  0.953489  0.545822  1
  Sb  Sb28  1  0.189356  0.545926  0.954463  1
  Sb  Sb29  1  0.688734  0.953489  0.954178  1
  Sb  Sb30  1  0.189356  0.545926  0.545537  1
  Sb  Sb31  1  0.310813  0.046062  0.454209  1
  Sb  Sb32  1  0.811370  0.453505  0.045591  1
  Sb  Sb33  1  0.545453  0.627204  0.750000  1
  Sb  Sb34  1  0.045631  0.872454  0.750000  1
  Sb  Sb35  1  0.453456  0.371532  0.250000  1
