# generated using pymatgen
data_Sm3Ga4B2Rh9
_symmetry_space_group_name_H-M   'P 1'
_cell_length_a   5.57821400
_cell_length_b   5.57821397
_cell_length_c   10.81920300
_cell_angle_alpha   90.00000000
_cell_angle_beta   90.00000000
_cell_angle_gamma   120.00000016
_symmetry_Int_Tables_number   1
_chemical_formula_structural   Sm3Ga4B2Rh9
_chemical_formula_sum   'Sm3 Ga4 B2 Rh9'
_cell_volume   291.55214503
_cell_formula_units_Z   1
loop_
 _symmetry_equiv_pos_site_id
 _symmetry_equiv_pos_as_xyz
  1  'x, y, z'
loop_
 _atom_site_type_symbol
 _atom_site_label
 _atom_site_symmetry_multiplicity
 _atom_site_fract_x
 _atom_site_fract_y
 _atom_site_fract_z
 _atom_site_occupancy
  Sm  Sm0  1  0.000000  0.000000  0.000000  1
  Sm  Sm1  1  0.000000  0.000000  0.666195  1
  Sm  Sm2  1  0.000000  0.000000  0.333805  1
  Ga  Ga3  1  0.666667  0.333333  0.681665  1
  Ga  Ga4  1  0.333333  0.666667  0.681665  1
  Ga  Ga5  1  0.333333  0.666667  0.318335  1
  Ga  Ga6  1  0.666667  0.333333  0.318335  1
  B  B7  1  0.666667  0.333333  0.000000  1
  B  B8  1  0.333333  0.666667  0.000000  1
  Rh  Rh9  1  0.500000  0.500000  0.500000  1
  Rh  Rh10  1  0.500000  0.000000  0.500000  1
  Rh  Rh11  1  0.000000  0.500000  0.500000  1
  Rh  Rh12  1  0.500000  0.500000  0.866351  1
  Rh  Rh13  1  0.500000  0.000000  0.866351  1
  Rh  Rh14  1  0.000000  0.500000  0.866351  1
  Rh  Rh15  1  0.500000  0.500000  0.133649  1
  Rh  Rh16  1  0.500000  0.000000  0.133649  1
  Rh  Rh17  1  0.000000  0.500000  0.133649  1
