# generated using pymatgen
data_Tb3Y3TcSb2
_symmetry_space_group_name_H-M   'P 1'
_cell_length_a   8.23056400
_cell_length_b   8.23056269
_cell_length_c   4.25906700
_cell_angle_alpha   90.00000000
_cell_angle_beta   90.00000000
_cell_angle_gamma   120.00000526
_symmetry_Int_Tables_number   1
_chemical_formula_structural   Tb3Y3TcSb2
_chemical_formula_sum   'Tb3 Y3 Tc1 Sb2'
_cell_volume   249.86429692
_cell_formula_units_Z   1
loop_
 _symmetry_equiv_pos_site_id
 _symmetry_equiv_pos_as_xyz
  1  'x, y, z'
loop_
 _atom_site_type_symbol
 _atom_site_label
 _atom_site_symmetry_multiplicity
 _atom_site_fract_x
 _atom_site_fract_y
 _atom_site_fract_z
 _atom_site_occupancy
  Tb  Tb0  1  0.236704  0.000000  0.000000  1
  Tb  Tb1  1  0.763296  0.763296  0.000000  1
  Tb  Tb2  1  0.000000  0.236704  0.000000  1
  Y  Y3  1  0.000000  0.600529  0.500000  1
  Y  Y4  1  0.399471  0.399471  0.500000  1
  Y  Y5  1  0.600529  0.000000  0.500000  1
  Tc  Tc6  1  0.000000  0.000000  0.500000  1
  Sb  Sb7  1  0.333333  0.666667  0.000000  1
  Sb  Sb8  1  0.666667  0.333333  0.000000  1
