# generated using pymatgen
data_Nb3Re2Si3Ru
_symmetry_space_group_name_H-M   'P 1'
_cell_length_a   7.56078805
_cell_length_b   7.54965876
_cell_length_c   7.54965861
_cell_angle_alpha   127.12617478
_cell_angle_beta   124.76432020
_cell_angle_gamma   79.95871338
_symmetry_Int_Tables_number   1
_chemical_formula_structural   Nb3Re2Si3Ru
_chemical_formula_sum   'Nb6 Re4 Si6 Ru2'
_cell_volume   272.61570498
_cell_formula_units_Z   2
loop_
 _symmetry_equiv_pos_site_id
 _symmetry_equiv_pos_as_xyz
  1  'x, y, z'
loop_
 _atom_site_type_symbol
 _atom_site_label
 _atom_site_symmetry_multiplicity
 _atom_site_fract_x
 _atom_site_fract_y
 _atom_site_fract_z
 _atom_site_occupancy
  Nb  Nb0  1  0.554197  0.094593  0.037376  1
  Nb  Nb1  1  0.445803  0.483178  0.540397  1
  Nb  Nb2  1  0.955942  0.497762  0.030338  1
  Nb  Nb3  1  0.044058  0.074395  0.541820  1
  Nb  Nb4  1  0.760623  0.914938  0.668980  1
  Nb  Nb5  1  0.239377  0.908357  0.154316  1
  Re  Re6  1  0.500000  0.245947  0.745947  1
  Re  Re7  1  0.000000  0.245950  0.245950  1
  Re  Re8  1  0.157117  0.748040  0.650818  1
  Re  Re9  1  0.842883  0.493701  0.590923  1
  Si  Si10  1  0.771510  0.539046  0.257670  1
  Si  Si11  1  0.228490  0.486160  0.767536  1
  Si  Si12  1  0.336936  0.820785  0.491410  1
  Si  Si13  1  0.663064  0.154473  0.483848  1
  Si  Si14  1  0.825927  0.824986  0.991860  1
  Si  Si15  1  0.174073  0.165933  0.999058  1
  Ru  Ru16  1  0.587001  0.748493  0.082464  1
  Ru  Ru17  1  0.412999  0.495463  0.161493  1
