# generated using pymatgen
data_TmLu4Sc3Au4
_symmetry_space_group_name_H-M   'P 1'
_cell_length_a   4.74381400
_cell_length_b   6.94659608
_cell_length_c   8.57865024
_cell_angle_alpha   90.12875182
_cell_angle_beta   90.00000000
_cell_angle_gamma   90.00000000
_symmetry_Int_Tables_number   1
_chemical_formula_structural   TmLu4Sc3Au4
_chemical_formula_sum   'Tm1 Lu4 Sc3 Au4'
_cell_volume   282.69463331
_cell_formula_units_Z   1
loop_
 _symmetry_equiv_pos_site_id
 _symmetry_equiv_pos_as_xyz
  1  'x, y, z'
loop_
 _atom_site_type_symbol
 _atom_site_label
 _atom_site_symmetry_multiplicity
 _atom_site_fract_x
 _atom_site_fract_y
 _atom_site_fract_z
 _atom_site_occupancy
  Tm  Tm0  1  0.250000  0.478115  0.174257  1
  Lu  Lu1  1  0.750000  0.646329  0.423231  1
  Lu  Lu2  1  0.250000  0.986778  0.320676  1
  Lu  Lu3  1  0.750000  0.517981  0.823009  1
  Lu  Lu4  1  0.750000  0.021540  0.682673  1
  Sc  Sc5  1  0.250000  0.854370  0.925740  1
  Sc  Sc6  1  0.250000  0.353730  0.578033  1
  Sc  Sc7  1  0.750000  0.146148  0.075085  1
  Au  Au8  1  0.250000  0.247770  0.894396  1
  Au  Au9  1  0.250000  0.753048  0.607419  1
  Au  Au10  1  0.750000  0.750636  0.099365  1
  Au  Au11  1  0.750000  0.243556  0.396116  1
