# generated using pymatgen
data_ZrTa8InS16
_symmetry_space_group_name_H-M   'P 1'
_cell_length_a   6.67250432
_cell_length_b   6.67129561
_cell_length_c   13.91092800
_cell_angle_alpha   90.00000000
_cell_angle_beta   89.96393524
_cell_angle_gamma   119.99407508
_symmetry_Int_Tables_number   1
_chemical_formula_structural   ZrTa8InS16
_chemical_formula_sum   'Zr1 Ta8 In1 S16'
_cell_volume   536.30468934
_cell_formula_units_Z   1
loop_
 _symmetry_equiv_pos_site_id
 _symmetry_equiv_pos_as_xyz
  1  'x, y, z'
loop_
 _atom_site_type_symbol
 _atom_site_label
 _atom_site_symmetry_multiplicity
 _atom_site_fract_x
 _atom_site_fract_y
 _atom_site_fract_z
 _atom_site_occupancy
  Zr  Zr0  1  0.000000  0.000000  0.500000  1
  Ta  Ta1  1  0.991564  0.495782  0.267587  1
  Ta  Ta2  1  0.008436  0.504218  0.732413  1
  Ta  Ta3  1  0.495562  0.504232  0.732431  1
  Ta  Ta4  1  0.504438  0.008672  0.267569  1
  Ta  Ta5  1  0.999782  0.999891  0.730438  1
  Ta  Ta6  1  0.000218  0.000109  0.269562  1
  Ta  Ta7  1  0.504438  0.495768  0.267569  1
  Ta  Ta8  1  0.495562  0.991328  0.732431  1
  In  In9  1  0.000000  0.000000  0.000000  1
  S  S10  1  0.333463  0.666732  0.617970  1
  S  S11  1  0.667138  0.333568  0.153417  1
  S  S12  1  0.666537  0.333268  0.382030  1
  S  S13  1  0.332862  0.666432  0.846583  1
  S  S14  1  0.169675  0.339365  0.381766  1
  S  S15  1  0.833419  0.166074  0.842925  1
  S  S16  1  0.331929  0.165963  0.842961  1
  S  S17  1  0.660737  0.830369  0.381734  1
  S  S18  1  0.169675  0.830311  0.381766  1
  S  S19  1  0.833419  0.667346  0.842925  1
  S  S20  1  0.166581  0.332654  0.157075  1
  S  S21  1  0.830325  0.169689  0.618234  1
  S  S22  1  0.339263  0.169631  0.618266  1
  S  S23  1  0.668071  0.834037  0.157039  1
  S  S24  1  0.166581  0.833926  0.157075  1
  S  S25  1  0.830325  0.660635  0.618234  1
