# generated using pymatgen
data_Hf6Sc2Co8Si13P
_symmetry_space_group_name_H-M   'P 1'
_cell_length_a   9.39536255
_cell_length_b   9.39536379
_cell_length_c   9.42721832
_cell_angle_alpha   94.12399025
_cell_angle_beta   94.12398162
_cell_angle_gamma   148.83518947
_symmetry_Int_Tables_number   1
_chemical_formula_structural   Hf6Sc2Co8Si13P
_chemical_formula_sum   'Hf6 Sc2 Co8 Si13 P1'
_cell_volume   414.92835771
_cell_formula_units_Z   1
loop_
 _symmetry_equiv_pos_site_id
 _symmetry_equiv_pos_as_xyz
  1  'x, y, z'
loop_
 _atom_site_type_symbol
 _atom_site_label
 _atom_site_symmetry_multiplicity
 _atom_site_fract_x
 _atom_site_fract_y
 _atom_site_fract_z
 _atom_site_occupancy
  Hf  Hf0  1  0.137120  0.862497  0.999617  1
  Hf  Hf1  1  0.862497  0.137120  0.999617  1
  Hf  Hf2  1  0.303656  0.497964  0.801620  1
  Hf  Hf3  1  0.695829  0.499811  0.195640  1
  Hf  Hf4  1  0.499811  0.695829  0.195640  1
  Hf  Hf5  1  0.497964  0.303656  0.801620  1
  Sc  Sc6  1  0.139965  0.139965  0.279932  1
  Sc  Sc7  1  0.860063  0.860063  0.720126  1
  Co  Co8  1  0.102104  0.602104  0.204208  1
  Co  Co9  1  0.398083  0.898083  0.796168  1
  Co  Co10  1  0.901397  0.102599  0.501468  1
  Co  Co11  1  0.600071  0.398869  0.501468  1
  Co  Co12  1  0.602104  0.102104  0.204208  1
  Co  Co13  1  0.898083  0.398083  0.796168  1
  Co  Co14  1  0.102599  0.901397  0.501468  1
  Co  Co15  1  0.398869  0.600071  0.501468  1
  Si  Si16  1  0.707801  0.707801  0.415602  1
  Si  Si17  1  0.290350  0.709456  0.999807  1
  Si  Si18  1  0.709456  0.290350  0.999807  1
  Si  Si19  1  0.091546  0.500284  0.591831  1
  Si  Si20  1  0.907574  0.500954  0.408528  1
  Si  Si21  1  0.500954  0.907574  0.408528  1
  Si  Si22  1  0.500284  0.091546  0.591831  1
  Si  Si23  1  0.250643  0.250643  0.999145  1
  Si  Si24  1  0.748502  0.748502  0.999145  1
  Si  Si25  1  0.299933  0.000354  0.300287  1
  Si  Si26  1  0.700319  0.999778  0.700098  1
  Si  Si27  1  0.999778  0.700319  0.700098  1
  Si  Si28  1  0.000354  0.299933  0.300287  1
  P  P29  1  0.292287  0.292287  0.584575  1
