# generated using pymatgen
data_Hf8In4PtAu7
_symmetry_space_group_name_H-M   'P 1'
_cell_length_a   7.59682172
_cell_length_b   7.59682198
_cell_length_c   7.00771286
_cell_angle_alpha   90.11087917
_cell_angle_beta   90.11087824
_cell_angle_gamma   90.01591504
_symmetry_Int_Tables_number   1
_chemical_formula_structural   Hf8In4PtAu7
_chemical_formula_sum   'Hf8 In4 Pt1 Au7'
_cell_volume   404.42550736
_cell_formula_units_Z   1
loop_
 _symmetry_equiv_pos_site_id
 _symmetry_equiv_pos_as_xyz
  1  'x, y, z'
loop_
 _atom_site_type_symbol
 _atom_site_label
 _atom_site_symmetry_multiplicity
 _atom_site_fract_x
 _atom_site_fract_y
 _atom_site_fract_z
 _atom_site_occupancy
  Hf  Hf0  1  0.152036  0.152036  0.006575  1
  Hf  Hf1  1  0.853860  0.853860  0.998003  1
  Hf  Hf2  1  0.638575  0.346248  0.494387  1
  Hf  Hf3  1  0.346248  0.638575  0.494387  1
  Hf  Hf4  1  0.686011  0.305458  0.003987  1
  Hf  Hf5  1  0.305458  0.686011  0.003987  1
  Hf  Hf6  1  0.808441  0.808441  0.499748  1
  Hf  Hf7  1  0.199408  0.199408  0.494826  1
  In  In8  1  0.499624  0.001027  0.247916  1
  In  In9  1  0.499834  0.998443  0.748688  1
  In  In10  1  0.001027  0.499624  0.247916  1
  In  In11  1  0.998443  0.499834  0.748688  1
  Pt  Pt12  1  0.371761  0.371761  0.212326  1
  Au  Au13  1  0.629886  0.629886  0.788514  1
  Au  Au14  1  0.632269  0.632269  0.206823  1
  Au  Au15  1  0.871672  0.132955  0.710368  1
  Au  Au16  1  0.871439  0.131246  0.293376  1
  Au  Au17  1  0.369804  0.369804  0.795742  1
  Au  Au18  1  0.131246  0.871439  0.293376  1
  Au  Au19  1  0.132955  0.871672  0.710368  1
