# generated using pymatgen
data_Sm6TiNb(Co4P3)4
_symmetry_space_group_name_H-M   'P 1'
_cell_length_a   3.74512800
_cell_length_b   10.71418900
_cell_length_c   12.44461100
_cell_angle_alpha   90.00000000
_cell_angle_beta   90.00000000
_cell_angle_gamma   90.00000000
_symmetry_Int_Tables_number   1
_chemical_formula_structural   Sm6TiNb(Co4P3)4
_chemical_formula_sum   'Sm6 Ti1 Nb1 Co16 P12'
_cell_volume   499.35257574
_cell_formula_units_Z   1
loop_
 _symmetry_equiv_pos_site_id
 _symmetry_equiv_pos_as_xyz
  1  'x, y, z'
loop_
 _atom_site_type_symbol
 _atom_site_label
 _atom_site_symmetry_multiplicity
 _atom_site_fract_x
 _atom_site_fract_y
 _atom_site_fract_z
 _atom_site_occupancy
  Sm  Sm0  1  0.000000  0.500000  0.524242  1
  Sm  Sm1  1  0.500000  0.000000  0.473828  1
  Sm  Sm2  1  0.500000  0.819347  0.205325  1
  Sm  Sm3  1  0.500000  0.180653  0.205325  1
  Sm  Sm4  1  0.000000  0.680031  0.794846  1
  Sm  Sm5  1  0.000000  0.319969  0.794846  1
  Ti  Ti6  1  0.500000  0.500000  0.152685  1
  Nb  Nb7  1  0.000000  0.000000  0.844704  1
  Co  Co8  1  0.500000  0.500000  0.704026  1
  Co  Co9  1  0.000000  0.000000  0.296696  1
  Co  Co10  1  0.000000  0.500000  0.988023  1
  Co  Co11  1  0.500000  0.000000  0.013418  1
  Co  Co12  1  0.500000  0.332824  0.995021  1
  Co  Co13  1  0.500000  0.667176  0.995021  1
  Co  Co14  1  0.000000  0.168115  0.007790  1
  Co  Co15  1  0.000000  0.831885  0.007790  1
  Co  Co16  1  0.500000  0.296001  0.431659  1
  Co  Co17  1  0.500000  0.703999  0.431659  1
  Co  Co18  1  0.000000  0.204792  0.567752  1
  Co  Co19  1  0.000000  0.795208  0.567752  1
  Co  Co20  1  0.500000  0.878910  0.704754  1
  Co  Co21  1  0.500000  0.121090  0.704754  1
  Co  Co22  1  0.000000  0.620260  0.293207  1
  Co  Co23  1  0.000000  0.379740  0.293207  1
  P  P24  1  0.500000  0.500000  0.885827  1
  P  P25  1  0.000000  0.000000  0.115641  1
  P  P26  1  0.500000  0.500000  0.350345  1
  P  P27  1  0.000000  0.000000  0.646781  1
  P  P28  1  0.500000  0.308827  0.614379  1
  P  P29  1  0.500000  0.691173  0.614379  1
  P  P30  1  0.000000  0.192326  0.385002  1
  P  P31  1  0.000000  0.807674  0.385002  1
  P  P32  1  0.500000  0.841817  0.895558  1
  P  P33  1  0.500000  0.158183  0.895558  1
  P  P34  1  0.000000  0.655369  0.106600  1
  P  P35  1  0.000000  0.344631  0.106600  1
