# generated using pymatgen
data_NiPdF6
_symmetry_space_group_name_H-M   'P 1'
_cell_length_a   5.43917325
_cell_length_b   5.43918901
_cell_length_c   5.43920942
_cell_angle_alpha   55.22253375
_cell_angle_beta   55.22222100
_cell_angle_gamma   55.22213318
_symmetry_Int_Tables_number   1
_chemical_formula_structural   NiPdF6
_chemical_formula_sum   'Ni1 Pd1 F6'
_cell_volume   101.14863011
_cell_formula_units_Z   1
loop_
 _symmetry_equiv_pos_site_id
 _symmetry_equiv_pos_as_xyz
  1  'x, y, z'
loop_
 _atom_site_type_symbol
 _atom_site_label
 _atom_site_symmetry_multiplicity
 _atom_site_fract_x
 _atom_site_fract_y
 _atom_site_fract_z
 _atom_site_occupancy
  Ni  Ni0  1  0.500000  0.500000  0.500000  1
  Pd  Pd1  1  0.000000  0.000000  0.000000  1
  F  F2  1  0.102406  0.755545  0.388269  1
  F  F3  1  0.388268  0.102404  0.755548  1
  F  F4  1  0.244455  0.611732  0.897593  1
  F  F5  1  0.611732  0.897596  0.244452  1
  F  F6  1  0.897594  0.244455  0.611731  1
  F  F7  1  0.755545  0.388268  0.102407  1
