# generated using pymatgen
data_Eu2Zn4CuNi5
_symmetry_space_group_name_H-M   'P 1'
_cell_length_a   3.92682900
_cell_length_b   5.22506200
_cell_length_c   9.08199800
_cell_angle_alpha   90.00000000
_cell_angle_beta   90.00000000
_cell_angle_gamma   90.00000000
_symmetry_Int_Tables_number   1
_chemical_formula_structural   Eu2Zn4CuNi5
_chemical_formula_sum   'Eu2 Zn4 Cu1 Ni5'
_cell_volume   186.34375371
_cell_formula_units_Z   1
loop_
 _symmetry_equiv_pos_site_id
 _symmetry_equiv_pos_as_xyz
  1  'x, y, z'
loop_
 _atom_site_type_symbol
 _atom_site_label
 _atom_site_symmetry_multiplicity
 _atom_site_fract_x
 _atom_site_fract_y
 _atom_site_fract_z
 _atom_site_occupancy
  Eu  Eu0  1  0.000000  0.500000  0.000000  1
  Eu  Eu1  1  0.000000  0.000000  0.500000  1
  Zn  Zn2  1  0.000000  0.500000  0.333284  1
  Zn  Zn3  1  0.000000  0.000000  0.828244  1
  Zn  Zn4  1  0.000000  0.000000  0.171756  1
  Zn  Zn5  1  0.000000  0.500000  0.666716  1
  Cu  Cu6  1  0.500000  0.000000  0.000000  1
  Ni  Ni7  1  0.500000  0.500000  0.500000  1
  Ni  Ni8  1  0.500000  0.749628  0.251712  1
  Ni  Ni9  1  0.500000  0.250372  0.748288  1
  Ni  Ni10  1  0.500000  0.250372  0.251712  1
  Ni  Ni11  1  0.500000  0.749628  0.748288  1
