# generated using pymatgen
data_InFe4SbO8
_symmetry_space_group_name_H-M   'P 1'
_cell_length_a   6.18633921
_cell_length_b   6.26336067
_cell_length_c   6.43119237
_cell_angle_alpha   59.63867897
_cell_angle_beta   60.83738539
_cell_angle_gamma   59.86409902
_symmetry_Int_Tables_number   1
_chemical_formula_structural   InFe4SbO8
_chemical_formula_sum   'In1 Fe4 Sb1 O8'
_cell_volume   176.61361689
_cell_formula_units_Z   1
loop_
 _symmetry_equiv_pos_site_id
 _symmetry_equiv_pos_as_xyz
  1  'x, y, z'
loop_
 _atom_site_type_symbol
 _atom_site_label
 _atom_site_symmetry_multiplicity
 _atom_site_fract_x
 _atom_site_fract_y
 _atom_site_fract_z
 _atom_site_occupancy
  In  In0  1  0.000000  0.000000  0.500000  1
  Fe  Fe1  1  0.357667  0.356154  0.911523  1
  Fe  Fe2  1  0.642333  0.643846  0.088477  1
  Fe  Fe3  1  0.000000  0.500000  0.500000  1
  Fe  Fe4  1  0.500000  0.000000  0.500000  1
  Sb  Sb5  1  0.000000  0.000000  0.000000  1
  O  O6  1  0.236487  0.244421  0.295324  1
  O  O7  1  0.230757  0.224907  0.766130  1
  O  O8  1  0.225188  0.771628  0.776344  1
  O  O9  1  0.770876  0.226765  0.765622  1
  O  O10  1  0.763513  0.755579  0.704676  1
  O  O11  1  0.769243  0.775093  0.233870  1
  O  O12  1  0.774812  0.228372  0.223656  1
  O  O13  1  0.229124  0.773235  0.234378  1
