# generated using pymatgen
data_Ca5Mo2N7
_symmetry_space_group_name_H-M   'P 1'
_cell_length_a   6.18916508
_cell_length_b   8.99791342
_cell_length_c   8.99796045
_cell_angle_alpha   115.92817213
_cell_angle_beta   95.58542505
_cell_angle_gamma   88.53006445
_symmetry_Int_Tables_number   1
_chemical_formula_structural   Ca5Mo2N7
_chemical_formula_sum   'Ca10 Mo4 N14'
_cell_volume   448.43442095
_cell_formula_units_Z   2
loop_
 _symmetry_equiv_pos_site_id
 _symmetry_equiv_pos_as_xyz
  1  'x, y, z'
loop_
 _atom_site_type_symbol
 _atom_site_label
 _atom_site_symmetry_multiplicity
 _atom_site_fract_x
 _atom_site_fract_y
 _atom_site_fract_z
 _atom_site_occupancy
  Ca  Ca0  1  0.829287  0.598889  0.316461  1
  Ca  Ca1  1  0.255029  0.982823  0.542501  1
  Ca  Ca2  1  0.705297  0.421977  0.857918  1
  Ca  Ca3  1  0.294703  0.578023  0.142082  1
  Ca  Ca4  1  0.403464  0.792040  0.929276  1
  Ca  Ca5  1  0.596536  0.207960  0.070724  1
  Ca  Ca6  1  0.170713  0.401111  0.683539  1
  Ca  Ca7  1  0.902393  0.850141  0.753648  1
  Ca  Ca8  1  0.097607  0.149859  0.246352  1
  Ca  Ca9  1  0.744971  0.017177  0.457499  1
  Mo  Mo10  1  0.584664  0.350463  0.474585  1
  Mo  Mo11  1  0.415336  0.649537  0.525415  1
  Mo  Mo12  1  0.124179  0.212813  0.921107  1
  Mo  Mo13  1  0.875821  0.787187  0.078893  1
  N  N14  1  0.512340  0.548935  0.683132  1
  N  N15  1  0.487660  0.451065  0.316868  1
  N  N16  1  0.130390  0.709853  0.529875  1
  N  N17  1  0.869610  0.290147  0.470125  1
  N  N18  1  0.408805  0.179168  0.458591  1
  N  N19  1  0.591195  0.820832  0.541409  1
  N  N20  1  0.956639  0.121481  0.715772  1
  N  N21  1  0.043361  0.878519  0.284228  1
  N  N22  1  0.239437  0.048582  0.976876  1
  N  N23  1  0.760563  0.951418  0.023124  1
  N  N24  1  0.366633  0.325087  0.901698  1
  N  N25  1  0.954934  0.357334  0.088593  1
  N  N26  1  0.045066  0.642666  0.911407  1
  N  N27  1  0.633367  0.674913  0.098302  1
