# generated using pymatgen
data_YSc6CoBr12
_symmetry_space_group_name_H-M   'P 1'
_cell_length_a   8.80386683
_cell_length_b   8.80386696
_cell_length_c   8.80386578
_cell_angle_alpha   106.69706912
_cell_angle_beta   106.69706569
_cell_angle_gamma   106.69707015
_symmetry_Int_Tables_number   1
_chemical_formula_structural   YSc6CoBr12
_chemical_formula_sum   'Y1 Sc6 Co1 Br12'
_cell_volume   572.91605448
_cell_formula_units_Z   1
loop_
 _symmetry_equiv_pos_site_id
 _symmetry_equiv_pos_as_xyz
  1  'x, y, z'
loop_
 _atom_site_type_symbol
 _atom_site_label
 _atom_site_symmetry_multiplicity
 _atom_site_fract_x
 _atom_site_fract_y
 _atom_site_fract_z
 _atom_site_occupancy
  Y  Y0  1  0.500000  0.500000  0.500000  1
  Sc  Sc1  1  0.294138  0.092345  0.019910  1
  Sc  Sc2  1  0.092345  0.019910  0.294138  1
  Sc  Sc3  1  0.019910  0.294138  0.092345  1
  Sc  Sc4  1  0.705862  0.907655  0.980090  1
  Sc  Sc5  1  0.907655  0.980090  0.705862  1
  Sc  Sc6  1  0.980090  0.705862  0.907655  1
  Co  Co7  1  0.000000  0.000000  0.000000  1
  Br  Br8  1  0.218612  0.069749  0.680484  1
  Br  Br9  1  0.069749  0.680484  0.218612  1
  Br  Br10  1  0.680484  0.218612  0.069749  1
  Br  Br11  1  0.781388  0.930251  0.319516  1
  Br  Br12  1  0.930251  0.319516  0.781388  1
  Br  Br13  1  0.319516  0.781388  0.930251  1
  Br  Br14  1  0.379034  0.454347  0.151073  1
  Br  Br15  1  0.454347  0.151073  0.379034  1
  Br  Br16  1  0.151073  0.379034  0.454347  1
  Br  Br17  1  0.620966  0.545653  0.848927  1
  Br  Br18  1  0.545653  0.848927  0.620966  1
  Br  Br19  1  0.848927  0.620966  0.545653  1
