# generated using pymatgen
data_TbCu3HgRh
_symmetry_space_group_name_H-M   'P 1'
_cell_length_a   5.10170987
_cell_length_b   5.10170968
_cell_length_c   5.23286724
_cell_angle_alpha   60.82571460
_cell_angle_beta   60.82573014
_cell_angle_gamma   60.00000318
_symmetry_Int_Tables_number   1
_chemical_formula_structural   TbCu3HgRh
_chemical_formula_sum   'Tb1 Cu3 Hg1 Rh1'
_cell_volume   97.49117043
_cell_formula_units_Z   1
loop_
 _symmetry_equiv_pos_site_id
 _symmetry_equiv_pos_as_xyz
  1  'x, y, z'
loop_
 _atom_site_type_symbol
 _atom_site_label
 _atom_site_symmetry_multiplicity
 _atom_site_fract_x
 _atom_site_fract_y
 _atom_site_fract_z
 _atom_site_occupancy
  Tb  Tb0  1  0.997604  0.997604  0.007187  1
  Cu  Cu1  1  0.626188  0.127714  0.619909  1
  Cu  Cu2  1  0.127714  0.626188  0.619909  1
  Cu  Cu3  1  0.626188  0.626188  0.619909  1
  Hg  Hg4  1  0.245570  0.245570  0.263291  1
  Rh  Rh5  1  0.626735  0.626735  0.119794  1
