# generated using pymatgen
data_CeZrBr8
_symmetry_space_group_name_H-M   'P 1'
_cell_length_a   8.39303500
_cell_length_b   6.97046474
_cell_length_c   7.36245364
_cell_angle_alpha   70.62998589
_cell_angle_beta   90.00000000
_cell_angle_gamma   90.00000000
_symmetry_Int_Tables_number   1
_chemical_formula_structural   CeZrBr8
_chemical_formula_sum   'Ce1 Zr1 Br8'
_cell_volume   406.34745244
_cell_formula_units_Z   1
loop_
 _symmetry_equiv_pos_site_id
 _symmetry_equiv_pos_as_xyz
  1  'x, y, z'
loop_
 _atom_site_type_symbol
 _atom_site_label
 _atom_site_symmetry_multiplicity
 _atom_site_fract_x
 _atom_site_fract_y
 _atom_site_fract_z
 _atom_site_occupancy
  Ce  Ce0  1  0.152402  0.250000  0.000000  1
  Zr  Zr1  1  0.845828  0.750000  0.000000  1
  Br  Br2  1  0.651741  0.966727  0.761173  1
  Br  Br3  1  0.098474  0.513398  0.218132  1
  Br  Br4  1  0.889839  0.509408  0.783815  1
  Br  Br5  1  0.360829  0.023890  0.253962  1
  Br  Br6  1  0.098474  0.986602  0.781868  1
  Br  Br7  1  0.360829  0.476110  0.746038  1
  Br  Br8  1  0.651741  0.533273  0.238827  1
  Br  Br9  1  0.889839  0.990592  0.216185  1
