# generated using pymatgen
data_CeLu3MnB12Ru
_symmetry_space_group_name_H-M   'P 1'
_cell_length_a   3.58902900
_cell_length_b   9.05075927
_cell_length_c   11.42199500
_cell_angle_alpha   90.10855371
_cell_angle_beta   90.00000000
_cell_angle_gamma   90.00000000
_symmetry_Int_Tables_number   1
_chemical_formula_structural   CeLu3MnB12Ru
_chemical_formula_sum   'Ce2 Lu6 Mn2 B24 Ru2'
_cell_volume   371.02499476
_cell_formula_units_Z   2
loop_
 _symmetry_equiv_pos_site_id
 _symmetry_equiv_pos_as_xyz
  1  'x, y, z'
loop_
 _atom_site_type_symbol
 _atom_site_label
 _atom_site_symmetry_multiplicity
 _atom_site_fract_x
 _atom_site_fract_y
 _atom_site_fract_z
 _atom_site_occupancy
  Ce  Ce0  1  0.000000  0.325370  0.415633  1
  Ce  Ce1  1  0.000000  0.674630  0.584367  1
  Lu  Lu2  1  0.000000  0.820180  0.086905  1
  Lu  Lu3  1  0.000000  0.179820  0.913095  1
  Lu  Lu4  1  0.000000  0.941356  0.371370  1
  Lu  Lu5  1  0.000000  0.058644  0.628630  1
  Lu  Lu6  1  0.000000  0.446422  0.128489  1
  Lu  Lu7  1  0.000000  0.553578  0.871511  1
  Mn  Mn8  1  0.000000  0.638893  0.320072  1
  Mn  Mn9  1  0.000000  0.361107  0.679928  1
  B  B10  1  0.500000  0.555901  0.429502  1
  B  B11  1  0.500000  0.444099  0.570498  1
  B  B12  1  0.500000  0.053460  0.065787  1
  B  B13  1  0.500000  0.946540  0.934213  1
  B  B14  1  0.500000  0.748581  0.416075  1
  B  B15  1  0.500000  0.251419  0.583925  1
  B  B16  1  0.500000  0.249283  0.078890  1
  B  B17  1  0.500000  0.750717  0.921110  1
  B  B18  1  0.500000  0.791422  0.264042  1
  B  B19  1  0.500000  0.208578  0.735958  1
  B  B20  1  0.500000  0.291694  0.232626  1
  B  B21  1  0.500000  0.708306  0.767374  1
  B  B22  1  0.500000  0.632369  0.184297  1
  B  B23  1  0.500000  0.367631  0.815703  1
  B  B24  1  0.500000  0.130135  0.314349  1
  B  B25  1  0.500000  0.869865  0.685651  1
  B  B26  1  0.500000  0.980936  0.211525  1
  B  B27  1  0.500000  0.019064  0.788475  1
  B  B28  1  0.500000  0.486602  0.285518  1
  B  B29  1  0.500000  0.513398  0.714482  1
  B  B30  1  0.500000  0.605645  0.028942  1
  B  B31  1  0.500000  0.394355  0.971058  1
  B  B32  1  0.500000  0.102887  0.471471  1
  B  B33  1  0.500000  0.897113  0.528529  1
  Ru  Ru34  1  0.000000  0.138135  0.178551  1
  Ru  Ru35  1  0.000000  0.861865  0.821449  1
