# generated using pymatgen
data_HfCoSi3Ir4
_symmetry_space_group_name_H-M   'P 1'
_cell_length_a   3.83688900
_cell_length_b   10.81300100
_cell_length_c   12.67463800
_cell_angle_alpha   90.00000000
_cell_angle_beta   90.00000000
_cell_angle_gamma   90.00000000
_symmetry_Int_Tables_number   1
_chemical_formula_structural   HfCoSi3Ir4
_chemical_formula_sum   'Hf4 Co4 Si12 Ir16'
_cell_volume   525.84898847
_cell_formula_units_Z   4
loop_
 _symmetry_equiv_pos_site_id
 _symmetry_equiv_pos_as_xyz
  1  'x, y, z'
loop_
 _atom_site_type_symbol
 _atom_site_label
 _atom_site_symmetry_multiplicity
 _atom_site_fract_x
 _atom_site_fract_y
 _atom_site_fract_z
 _atom_site_occupancy
  Hf  Hf0  1  0.250000  0.584142  0.709562  1
  Hf  Hf1  1  0.250000  0.915858  0.209562  1
  Hf  Hf2  1  0.750000  0.415858  0.290438  1
  Hf  Hf3  1  0.750000  0.084142  0.790438  1
  Co  Co4  1  0.250000  0.466896  0.932755  1
  Co  Co5  1  0.250000  0.033104  0.432755  1
  Co  Co6  1  0.750000  0.533104  0.067245  1
  Co  Co7  1  0.750000  0.966896  0.567245  1
  Si  Si8  1  0.250000  0.420180  0.104591  1
  Si  Si9  1  0.250000  0.079820  0.604591  1
  Si  Si10  1  0.750000  0.579820  0.895409  1
  Si  Si11  1  0.750000  0.920180  0.395409  1
  Si  Si12  1  0.250000  0.271540  0.870321  1
  Si  Si13  1  0.250000  0.228460  0.370321  1
  Si  Si14  1  0.750000  0.728460  0.129679  1
  Si  Si15  1  0.750000  0.771540  0.629679  1
  Si  Si16  1  0.250000  0.597575  0.388632  1
  Si  Si17  1  0.250000  0.902425  0.888632  1
  Si  Si18  1  0.750000  0.402425  0.611368  1
  Si  Si19  1  0.750000  0.097575  0.111368  1
  Ir  Ir20  1  0.250000  0.710577  0.988644  1
  Ir  Ir21  1  0.250000  0.789423  0.488644  1
  Ir  Ir22  1  0.750000  0.289423  0.011356  1
  Ir  Ir23  1  0.750000  0.210577  0.511356  1
  Ir  Ir24  1  0.250000  0.405655  0.480339  1
  Ir  Ir25  1  0.250000  0.094345  0.980339  1
  Ir  Ir26  1  0.750000  0.594345  0.519661  1
  Ir  Ir27  1  0.750000  0.905655  0.019661  1
  Ir  Ir28  1  0.250000  0.227140  0.179596  1
  Ir  Ir29  1  0.250000  0.272860  0.679596  1
  Ir  Ir30  1  0.750000  0.772860  0.820404  1
  Ir  Ir31  1  0.750000  0.727140  0.320404  1
  Ir  Ir32  1  0.250000  0.893936  0.700603  1
  Ir  Ir33  1  0.250000  0.606064  0.200603  1
  Ir  Ir34  1  0.750000  0.106064  0.299397  1
  Ir  Ir35  1  0.750000  0.393936  0.799397  1
