# generated using pymatgen
data_Ce9Ho11(Bi2Os)4
_symmetry_space_group_name_H-M   'P 1'
_cell_length_a   8.05476560
_cell_length_b   9.20595000
_cell_length_c   12.74200400
_cell_angle_alpha   90.00000000
_cell_angle_beta   89.86428566
_cell_angle_gamma   90.00000000
_symmetry_Int_Tables_number   1
_chemical_formula_structural   Ce9Ho11(Bi2Os)4
_chemical_formula_sum   'Ce9 Ho11 Bi8 Os4'
_cell_volume   944.83949096
_cell_formula_units_Z   1
loop_
 _symmetry_equiv_pos_site_id
 _symmetry_equiv_pos_as_xyz
  1  'x, y, z'
loop_
 _atom_site_type_symbol
 _atom_site_label
 _atom_site_symmetry_multiplicity
 _atom_site_fract_x
 _atom_site_fract_y
 _atom_site_fract_z
 _atom_site_occupancy
  Ce  Ce0  1  0.841744  0.750000  0.793151  1
  Ce  Ce1  1  0.668132  0.034290  0.559089  1
  Ce  Ce2  1  0.333659  0.965632  0.441097  1
  Ce  Ce3  1  0.164974  0.966510  0.940378  1
  Ce  Ce4  1  0.333659  0.534368  0.441097  1
  Ce  Ce5  1  0.830199  0.035824  0.059734  1
  Ce  Ce6  1  0.668132  0.465710  0.559089  1
  Ce  Ce7  1  0.830199  0.464176  0.059734  1
  Ce  Ce8  1  0.164974  0.533490  0.940378  1
  Ho  Ho9  1  0.163816  0.250000  0.208687  1
  Ho  Ho10  1  0.339021  0.250000  0.706791  1
  Ho  Ho11  1  0.663476  0.750000  0.292271  1
  Ho  Ho12  1  0.371358  0.750000  0.702136  1
  Ho  Ho13  1  0.627330  0.250000  0.297676  1
  Ho  Ho14  1  0.874061  0.250000  0.798068  1
  Ho  Ho15  1  0.126930  0.750000  0.201610  1
  Ho  Ho16  1  0.955364  0.750000  0.499943  1
  Ho  Ho17  1  0.047674  0.250000  0.497829  1
  Ho  Ho18  1  0.451575  0.250000  0.000142  1
  Ho  Ho19  1  0.542076  0.750000  0.001172  1
  Bi  Bi20  1  0.564958  0.488499  0.829239  1
  Bi  Bi21  1  0.433581  0.510176  0.172353  1
  Bi  Bi22  1  0.069668  0.507094  0.669099  1
  Bi  Bi23  1  0.433581  0.989824  0.172353  1
  Bi  Bi24  1  0.933533  0.490037  0.327721  1
  Bi  Bi25  1  0.564958  0.011501  0.829239  1
  Bi  Bi26  1  0.933533  0.009963  0.327721  1
  Bi  Bi27  1  0.069668  0.992906  0.669099  1
  Os  Os28  1  0.588846  0.750000  0.518790  1
  Os  Os29  1  0.415064  0.250000  0.481235  1
  Os  Os30  1  0.085348  0.250000  0.983316  1
  Os  Os31  1  0.908911  0.750000  0.019766  1
