# generated using pymatgen
data_Tm6Mn8Fe(Co3P4)3
_symmetry_space_group_name_H-M   'P 1'
_cell_length_a   3.69988300
_cell_length_b   10.41825689
_cell_length_c   12.33623139
_cell_angle_alpha   90.08513962
_cell_angle_beta   90.00000000
_cell_angle_gamma   90.00000000
_symmetry_Int_Tables_number   1
_chemical_formula_structural   Tm6Mn8Fe(Co3P4)3
_chemical_formula_sum   'Tm6 Mn8 Fe1 Co9 P12'
_cell_volume   475.51594025
_cell_formula_units_Z   1
loop_
 _symmetry_equiv_pos_site_id
 _symmetry_equiv_pos_as_xyz
  1  'x, y, z'
loop_
 _atom_site_type_symbol
 _atom_site_label
 _atom_site_symmetry_multiplicity
 _atom_site_fract_x
 _atom_site_fract_y
 _atom_site_fract_z
 _atom_site_occupancy
  Tm  Tm0  1  0.000000  0.501029  0.523018  1
  Tm  Tm1  1  0.500000  0.999808  0.476791  1
  Tm  Tm2  1  0.500000  0.819566  0.209938  1
  Tm  Tm3  1  0.500000  0.180746  0.209968  1
  Tm  Tm4  1  0.000000  0.680468  0.789993  1
  Tm  Tm5  1  0.000000  0.319333  0.789902  1
  Mn  Mn6  1  0.500000  0.499811  0.162456  1
  Mn  Mn7  1  0.000000  0.000001  0.837171  1
  Mn  Mn8  1  0.000000  0.500067  0.988947  1
  Mn  Mn9  1  0.500000  0.000088  0.010893  1
  Mn  Mn10  1  0.500000  0.330608  0.995785  1
  Mn  Mn11  1  0.500000  0.669446  0.995989  1
  Mn  Mn12  1  0.000000  0.169843  0.004101  1
  Mn  Mn13  1  0.000000  0.830471  0.004087  1
  Fe  Fe14  1  0.500000  0.296246  0.432123  1
  Co  Co15  1  0.500000  0.499561  0.697737  1
  Co  Co16  1  0.000000  0.000388  0.302538  1
  Co  Co17  1  0.500000  0.703580  0.432052  1
  Co  Co18  1  0.000000  0.202608  0.568969  1
  Co  Co19  1  0.000000  0.796588  0.568138  1
  Co  Co20  1  0.500000  0.879336  0.703463  1
  Co  Co21  1  0.500000  0.120028  0.703591  1
  Co  Co22  1  0.000000  0.620962  0.296600  1
  Co  Co23  1  0.000000  0.380261  0.295934  1
  P  P24  1  0.500000  0.499814  0.875733  1
  P  P25  1  0.000000  0.000302  0.124303  1
  P  P26  1  0.500000  0.497062  0.347327  1
  P  P27  1  0.000000  0.000260  0.653159  1
  P  P28  1  0.500000  0.311459  0.613129  1
  P  P29  1  0.500000  0.687928  0.614465  1
  P  P30  1  0.000000  0.190103  0.386038  1
  P  P31  1  0.000000  0.812000  0.385533  1
  P  P32  1  0.500000  0.849535  0.882129  1
  P  P33  1  0.500000  0.150373  0.882144  1
  P  P34  1  0.000000  0.650205  0.117979  1
  P  P35  1  0.000000  0.350117  0.117875  1
