# generated using pymatgen
data_YbEu4Ag2Hg
_symmetry_space_group_name_H-M   'P 1'
_cell_length_a   9.54711248
_cell_length_b   9.54711205
_cell_length_c   9.54711225
_cell_angle_alpha   129.15223193
_cell_angle_beta   129.15222949
_cell_angle_gamma   74.76574752
_symmetry_Int_Tables_number   1
_chemical_formula_structural   YbEu4Ag2Hg
_chemical_formula_sum   'Yb2 Eu8 Ag4 Hg2'
_cell_volume   509.76252713
_cell_formula_units_Z   2
loop_
 _symmetry_equiv_pos_site_id
 _symmetry_equiv_pos_as_xyz
  1  'x, y, z'
loop_
 _atom_site_type_symbol
 _atom_site_label
 _atom_site_symmetry_multiplicity
 _atom_site_fract_x
 _atom_site_fract_y
 _atom_site_fract_z
 _atom_site_occupancy
  Yb  Yb0  1  0.500000  0.500000  0.000000  1
  Yb  Yb1  1  0.000000  0.000000  0.000000  1
  Eu  Eu2  1  0.522225  0.022225  0.834337  1
  Eu  Eu3  1  0.187890  0.687890  0.165663  1
  Eu  Eu4  1  0.022225  0.187890  0.500000  1
  Eu  Eu5  1  0.687890  0.522225  0.500000  1
  Eu  Eu6  1  0.477775  0.977775  0.165663  1
  Eu  Eu7  1  0.812110  0.312110  0.834337  1
  Eu  Eu8  1  0.977775  0.812110  0.500000  1
  Eu  Eu9  1  0.312110  0.477775  0.500000  1
  Ag  Ag10  1  0.127326  0.627326  0.754653  1
  Ag  Ag11  1  0.872674  0.372674  0.245347  1
  Ag  Ag12  1  0.627326  0.872674  0.500000  1
  Ag  Ag13  1  0.372674  0.127326  0.500000  1
  Hg  Hg14  1  0.250000  0.250000  0.000000  1
  Hg  Hg15  1  0.750000  0.750000  0.000000  1
