# generated using pymatgen
data_NdLuFe7CoB8
_symmetry_space_group_name_H-M   'P 1'
_cell_length_a   6.96309900
_cell_length_b   6.96746202
_cell_length_c   3.80962674
_cell_angle_alpha   89.92516498
_cell_angle_beta   89.92156190
_cell_angle_gamma   89.83195279
_symmetry_Int_Tables_number   1
_chemical_formula_structural   NdLuFe7CoB8
_chemical_formula_sum   'Nd1 Lu1 Fe7 Co1 B8'
_cell_volume   184.82340341
_cell_formula_units_Z   1
loop_
 _symmetry_equiv_pos_site_id
 _symmetry_equiv_pos_as_xyz
  1  'x, y, z'
loop_
 _atom_site_type_symbol
 _atom_site_label
 _atom_site_symmetry_multiplicity
 _atom_site_fract_x
 _atom_site_fract_y
 _atom_site_fract_z
 _atom_site_occupancy
  Nd  Nd0  1  0.500115  0.499455  0.493714  1
  Lu  Lu1  1  0.999264  0.001630  0.998711  1
  Fe  Fe2  1  0.870428  0.616214  0.891247  1
  Fe  Fe3  1  0.888546  0.365924  0.392768  1
  Fe  Fe4  1  0.113629  0.633379  0.392188  1
  Fe  Fe5  1  0.364848  0.113019  0.608771  1
  Fe  Fe6  1  0.634678  0.887234  0.608715  1
  Fe  Fe7  1  0.615999  0.129994  0.108264  1
  Fe  Fe8  1  0.383480  0.870619  0.108187  1
  Co  Co9  1  0.132601  0.384179  0.891734  1
  B  B10  1  0.669808  0.806453  0.105279  1
  B  B11  1  0.331767  0.190553  0.106198  1
  B  B12  1  0.295484  0.835950  0.607494  1
  B  B13  1  0.707336  0.163092  0.607693  1
  B  B14  1  0.836720  0.706390  0.392590  1
  B  B15  1  0.161615  0.290844  0.394554  1
  B  B16  1  0.193061  0.672151  0.895465  1
  B  B17  1  0.800622  0.332920  0.896428  1
