# generated using pymatgen
data_Cr2CoSb12Pt
_symmetry_space_group_name_H-M   'P 1'
_cell_length_a   8.11422386
_cell_length_b   8.12323009
_cell_length_c   9.41717264
_cell_angle_alpha   55.31167310
_cell_angle_beta   54.94846764
_cell_angle_gamma   70.95149499
_symmetry_Int_Tables_number   1
_chemical_formula_structural   Cr2CoSb12Pt
_chemical_formula_sum   'Cr2 Co1 Sb12 Pt1'
_cell_volume   417.82659393
_cell_formula_units_Z   1
loop_
 _symmetry_equiv_pos_site_id
 _symmetry_equiv_pos_as_xyz
  1  'x, y, z'
loop_
 _atom_site_type_symbol
 _atom_site_label
 _atom_site_symmetry_multiplicity
 _atom_site_fract_x
 _atom_site_fract_y
 _atom_site_fract_z
 _atom_site_occupancy
  Cr  Cr0  1  0.000000  0.500000  0.000000  1
  Cr  Cr1  1  0.500000  0.000000  0.000000  1
  Co  Co2  1  0.000000  0.500000  0.500000  1
  Sb  Sb3  1  0.657208  0.658798  0.186931  1
  Sb  Sb4  1  0.342792  0.341202  0.813069  1
  Sb  Sb5  1  0.671465  0.652293  0.492485  1
  Sb  Sb6  1  0.328535  0.347707  0.507515  1
  Sb  Sb7  1  0.850253  0.154109  0.342545  1
  Sb  Sb8  1  0.149747  0.845891  0.657455  1
  Sb  Sb9  1  0.148452  0.834728  0.344075  1
  Sb  Sb10  1  0.851548  0.165272  0.655925  1
  Sb  Sb11  1  0.496986  0.807877  0.848297  1
  Sb  Sb12  1  0.503014  0.192123  0.151703  1
  Sb  Sb13  1  0.177781  0.507303  0.166844  1
  Sb  Sb14  1  0.822219  0.492697  0.833156  1
  Pt  Pt15  1  0.500000  0.000000  0.500000  1
