# generated using pymatgen
data_NdSm(Si2Rh3)2
_symmetry_space_group_name_H-M   'P 1'
_cell_length_a   6.67835913
_cell_length_b   6.67835846
_cell_length_c   6.67835851
_cell_angle_alpha   130.41495157
_cell_angle_beta   114.54478564
_cell_angle_gamma   86.34646377
_symmetry_Int_Tables_number   1
_chemical_formula_structural   NdSm(Si2Rh3)2
_chemical_formula_sum   'Nd1 Sm1 Si4 Rh6'
_cell_volume   196.98854554
_cell_formula_units_Z   1
loop_
 _symmetry_equiv_pos_site_id
 _symmetry_equiv_pos_as_xyz
  1  'x, y, z'
loop_
 _atom_site_type_symbol
 _atom_site_label
 _atom_site_symmetry_multiplicity
 _atom_site_fract_x
 _atom_site_fract_y
 _atom_site_fract_z
 _atom_site_occupancy
  Nd  Nd0  1  0.250000  0.963065  0.713065  1
  Sm  Sm1  1  0.750000  0.039348  0.289348  1
  Si  Si2  1  0.579137  0.381786  0.802649  1
  Si  Si3  1  0.421678  0.619380  0.197703  1
  Si  Si4  1  0.078322  0.276025  0.197703  1
  Si  Si5  1  0.920863  0.723512  0.802649  1
  Rh  Rh6  1  0.215843  0.498982  0.715699  1
  Rh  Rh7  1  0.716717  0.999856  0.715699  1
  Rh  Rh8  1  0.783283  0.498982  0.283139  1
  Rh  Rh9  1  0.284157  0.999856  0.283139  1
  Rh  Rh10  1  0.500623  0.499604  0.500227  1
  Rh  Rh11  1  0.999377  0.499604  0.998980  1
