# generated using pymatgen
data_Rb8Dy5HoBeBr20
_symmetry_space_group_name_H-M   'P 1'
_cell_length_a   12.30277427
_cell_length_b   12.30277392
_cell_length_c   12.30598700
_cell_angle_alpha   59.99136835
_cell_angle_beta   59.99136929
_cell_angle_gamma   60.01727742
_symmetry_Int_Tables_number   1
_chemical_formula_structural   Rb8Dy5HoBeBr20
_chemical_formula_sum   'Rb8 Dy5 Ho1 Be1 Br20'
_cell_volume   1317.06601414
_cell_formula_units_Z   1
loop_
 _symmetry_equiv_pos_site_id
 _symmetry_equiv_pos_as_xyz
  1  'x, y, z'
loop_
 _atom_site_type_symbol
 _atom_site_label
 _atom_site_symmetry_multiplicity
 _atom_site_fract_x
 _atom_site_fract_y
 _atom_site_fract_z
 _atom_site_occupancy
  Rb  Rb0  1  0.358907  0.358907  0.358914  1
  Rb  Rb1  1  0.641105  0.641105  0.641118  1
  Rb  Rb2  1  0.358907  0.358907  0.923270  1
  Rb  Rb3  1  0.358882  0.923326  0.358895  1
  Rb  Rb4  1  0.641105  0.641105  0.076674  1
  Rb  Rb5  1  0.641086  0.076730  0.641093  1
  Rb  Rb6  1  0.923326  0.358882  0.358895  1
  Rb  Rb7  1  0.076730  0.641086  0.641093  1
  Dy  Dy8  1  0.844136  0.155731  0.155864  1
  Dy  Dy9  1  0.155731  0.844136  0.844269  1
  Dy  Dy10  1  0.155731  0.844136  0.155864  1
  Dy  Dy11  1  0.844136  0.155731  0.844269  1
  Dy  Dy12  1  0.155683  0.155683  0.844317  1
  Ho  Ho13  1  0.844227  0.844227  0.155773  1
  Be  Be14  1  0.999805  0.999805  0.000195  1
  Br  Br15  1  0.331440  0.999991  0.000009  1
  Br  Br16  1  0.669039  0.999405  0.000595  1
  Br  Br17  1  0.999991  0.331440  0.668560  1
  Br  Br18  1  0.999405  0.669039  0.330961  1
  Br  Br19  1  0.999991  0.331440  0.000009  1
  Br  Br20  1  0.669039  0.999405  0.330961  1
  Br  Br21  1  0.999405  0.669039  0.000595  1
  Br  Br22  1  0.331440  0.999991  0.668560  1
  Br  Br23  1  0.999996  0.999996  0.331426  1
  Br  Br24  1  0.999996  0.999996  0.668581  1
  Br  Br25  1  0.668574  0.331419  0.000004  1
  Br  Br26  1  0.331419  0.668574  0.000004  1
  Br  Br27  1  0.678470  0.321552  0.321530  1
  Br  Br28  1  0.321552  0.678470  0.678448  1
  Br  Br29  1  0.321552  0.678470  0.321530  1
  Br  Br30  1  0.678470  0.321552  0.678448  1
  Br  Br31  1  0.321556  0.321556  0.678444  1
  Br  Br32  1  0.679158  0.679158  0.320842  1
  Br  Br33  1  0.250006  0.250006  0.249994  1
  Br  Br34  1  0.750006  0.750006  0.749994  1
