# generated using pymatgen
data_Hf3TaRe2
_symmetry_space_group_name_H-M   'P 1'
_cell_length_a   8.71305957
_cell_length_b   8.71476938
_cell_length_c   8.71142116
_cell_angle_alpha   59.99790629
_cell_angle_beta   59.98494779
_cell_angle_gamma   59.98915161
_symmetry_Int_Tables_number   1
_chemical_formula_structural   Hf3TaRe2
_chemical_formula_sum   'Hf12 Ta4 Re8'
_cell_volume   467.63680616
_cell_formula_units_Z   4
loop_
 _symmetry_equiv_pos_site_id
 _symmetry_equiv_pos_as_xyz
  1  'x, y, z'
loop_
 _atom_site_type_symbol
 _atom_site_label
 _atom_site_symmetry_multiplicity
 _atom_site_fract_x
 _atom_site_fract_y
 _atom_site_fract_z
 _atom_site_occupancy
  Hf  Hf0  1  0.807485  0.807552  0.192489  1
  Hf  Hf1  1  0.192585  0.192613  0.807445  1
  Hf  Hf2  1  0.807364  0.192518  0.807566  1
  Hf  Hf3  1  0.192463  0.807484  0.192561  1
  Hf  Hf4  1  0.192491  0.807402  0.807530  1
  Hf  Hf5  1  0.807476  0.192454  0.192524  1
  Hf  Hf6  1  0.442515  0.442448  0.057511  1
  Hf  Hf7  1  0.057415  0.057387  0.442555  1
  Hf  Hf8  1  0.442636  0.057482  0.442434  1
  Hf  Hf9  1  0.057537  0.442516  0.057439  1
  Hf  Hf10  1  0.057509  0.442598  0.442470  1
  Hf  Hf11  1  0.442524  0.057546  0.057476  1
  Ta  Ta12  1  0.125000  0.625000  0.625000  1
  Ta  Ta13  1  0.625000  0.125000  0.625000  1
  Ta  Ta14  1  0.625000  0.625000  0.125000  1
  Ta  Ta15  1  0.625000  0.625000  0.625000  1
  Re  Re16  1  0.756486  0.414426  0.414471  1
  Re  Re17  1  0.414535  0.756444  0.414497  1
  Re  Re18  1  0.414532  0.414530  0.756374  1
  Re  Re19  1  0.414614  0.414464  0.414540  1
  Re  Re20  1  0.493514  0.835574  0.835529  1
  Re  Re21  1  0.835465  0.493556  0.835503  1
  Re  Re22  1  0.835468  0.835470  0.493626  1
  Re  Re23  1  0.835386  0.835536  0.835460  1
