# generated using pymatgen
data_KSm(GdB12)2
_symmetry_space_group_name_H-M   'P 1'
_cell_length_a   7.13704015
_cell_length_b   7.13704100
_cell_length_c   5.86095000
_cell_angle_alpha   90.00000000
_cell_angle_beta   90.00000000
_cell_angle_gamma   109.27098302
_symmetry_Int_Tables_number   1
_chemical_formula_structural   KSm(GdB12)2
_chemical_formula_sum   'K1 Sm1 Gd2 B24'
_cell_volume   281.81345219
_cell_formula_units_Z   1
loop_
 _symmetry_equiv_pos_site_id
 _symmetry_equiv_pos_as_xyz
  1  'x, y, z'
loop_
 _atom_site_type_symbol
 _atom_site_label
 _atom_site_symmetry_multiplicity
 _atom_site_fract_x
 _atom_site_fract_y
 _atom_site_fract_z
 _atom_site_occupancy
  K  K0  1  0.000000  0.000000  0.000000  1
  Sm  Sm1  1  0.500000  0.500000  0.000000  1
  Gd  Gd2  1  0.752378  0.247622  0.500000  1
  Gd  Gd3  1  0.247622  0.752378  0.500000  1
  B  B4  1  0.176227  0.326345  0.649563  1
  B  B5  1  0.923866  0.574310  0.149086  1
  B  B6  1  0.673655  0.823773  0.649563  1
  B  B7  1  0.425690  0.076134  0.149086  1
  B  B8  1  0.176227  0.326345  0.350437  1
  B  B9  1  0.923866  0.574310  0.850914  1
  B  B10  1  0.673655  0.823773  0.350437  1
  B  B11  1  0.425690  0.076134  0.850914  1
  B  B12  1  0.400564  0.400564  0.500000  1
  B  B13  1  0.148477  0.651235  0.000000  1
  B  B14  1  0.898948  0.898948  0.500000  1
  B  B15  1  0.651235  0.148477  0.000000  1
  B  B16  1  0.326345  0.176227  0.649563  1
  B  B17  1  0.076134  0.425690  0.149086  1
  B  B18  1  0.823773  0.673655  0.649563  1
  B  B19  1  0.574310  0.923866  0.149086  1
  B  B20  1  0.101052  0.101052  0.500000  1
  B  B21  1  0.851523  0.348765  0.000000  1
  B  B22  1  0.599436  0.599436  0.500000  1
  B  B23  1  0.348765  0.851523  0.000000  1
  B  B24  1  0.326345  0.176227  0.350437  1
  B  B25  1  0.076134  0.425690  0.850914  1
  B  B26  1  0.823773  0.673655  0.350437  1
  B  B27  1  0.574310  0.923866  0.850914  1
