# generated using pymatgen
data_RbFeNiF6
_symmetry_space_group_name_H-M   'P 1'
_cell_length_a   7.37877175
_cell_length_b   7.37877296
_cell_length_c   7.37877266
_cell_angle_alpha   120.62841110
_cell_angle_beta   119.22341186
_cell_angle_gamma   90.13267156
_symmetry_Int_Tables_number   1
_chemical_formula_structural   RbFeNiF6
_chemical_formula_sum   'Rb2 Fe2 Ni2 F12'
_cell_volume   284.34184236
_cell_formula_units_Z   2
loop_
 _symmetry_equiv_pos_site_id
 _symmetry_equiv_pos_as_xyz
  1  'x, y, z'
loop_
 _atom_site_type_symbol
 _atom_site_label
 _atom_site_symmetry_multiplicity
 _atom_site_fract_x
 _atom_site_fract_y
 _atom_site_fract_z
 _atom_site_occupancy
  Rb  Rb0  1  0.867806  0.617806  0.250000  1
  Rb  Rb1  1  0.132194  0.382194  0.750000  1
  Fe  Fe2  1  0.500000  0.000000  0.500000  1
  Fe  Fe3  1  0.000000  0.000000  0.000000  1
  Ni  Ni4  1  0.500000  0.000000  0.000000  1
  Ni  Ni5  1  0.500000  0.500000  0.500000  1
  F  F6  1  0.816286  0.066286  0.750000  1
  F  F7  1  0.424062  0.674062  0.750000  1
  F  F8  1  0.827943  0.684982  0.758975  1
  F  F9  1  0.426006  0.068968  0.741025  1
  F  F10  1  0.827943  0.068968  0.142962  1
  F  F11  1  0.426006  0.684982  0.357038  1
  F  F12  1  0.183714  0.933714  0.250000  1
  F  F13  1  0.575938  0.325938  0.250000  1
  F  F14  1  0.172057  0.315018  0.241025  1
  F  F15  1  0.573994  0.931032  0.258975  1
  F  F16  1  0.172057  0.931032  0.857038  1
  F  F17  1  0.573994  0.315018  0.642962  1
