# generated using pymatgen
data_Lu12InCo4Au
_symmetry_space_group_name_H-M   'P 1'
_cell_length_a   8.12767000
_cell_length_b   8.12766950
_cell_length_c   8.12767014
_cell_angle_alpha   111.04021996
_cell_angle_beta   111.08000380
_cell_angle_gamma   106.33814267
_symmetry_Int_Tables_number   1
_chemical_formula_structural   Lu12InCo4Au
_chemical_formula_sum   'Lu12 In1 Co4 Au1'
_cell_volume   412.38985205
_cell_formula_units_Z   1
loop_
 _symmetry_equiv_pos_site_id
 _symmetry_equiv_pos_as_xyz
  1  'x, y, z'
loop_
 _atom_site_type_symbol
 _atom_site_label
 _atom_site_symmetry_multiplicity
 _atom_site_fract_x
 _atom_site_fract_y
 _atom_site_fract_z
 _atom_site_occupancy
  Lu  Lu0  1  0.431519  0.226862  0.204657  1
  Lu  Lu1  1  0.568481  0.773138  0.795343  1
  Lu  Lu2  1  0.022205  0.226862  0.795343  1
  Lu  Lu3  1  0.977795  0.773138  0.204657  1
  Lu  Lu4  1  0.186383  0.286554  0.472937  1
  Lu  Lu5  1  0.813617  0.713446  0.527063  1
  Lu  Lu6  1  0.186383  0.713446  0.899830  1
  Lu  Lu7  1  0.813617  0.286554  0.100170  1
  Lu  Lu8  1  0.315887  0.619595  0.303707  1
  Lu  Lu9  1  0.684113  0.380405  0.696293  1
  Lu  Lu10  1  0.315887  0.012179  0.696293  1
  Lu  Lu11  1  0.684113  0.987821  0.303707  1
  In  In12  1  0.500000  0.500000  0.000000  1
  Co  Co13  1  0.374541  0.000000  0.374541  1
  Co  Co14  1  0.625459  0.000000  0.625459  1
  Co  Co15  1  0.113753  0.613753  0.500000  1
  Co  Co16  1  0.886247  0.386247  0.500000  1
  Au  Au17  1  0.000000  0.000000  0.000000  1
