# generated using pymatgen
data_DyHf(Al3Ir)3
_symmetry_space_group_name_H-M   'P 1'
_cell_length_a   7.52145592
_cell_length_b   7.50479933
_cell_length_c   9.34602300
_cell_angle_alpha   90.00000000
_cell_angle_beta   90.00000000
_cell_angle_gamma   119.74958616
_symmetry_Int_Tables_number   1
_chemical_formula_structural   DyHf(Al3Ir)3
_chemical_formula_sum   'Dy2 Hf2 Al18 Ir6'
_cell_volume   458.02462266
_cell_formula_units_Z   2
loop_
 _symmetry_equiv_pos_site_id
 _symmetry_equiv_pos_as_xyz
  1  'x, y, z'
loop_
 _atom_site_type_symbol
 _atom_site_label
 _atom_site_symmetry_multiplicity
 _atom_site_fract_x
 _atom_site_fract_y
 _atom_site_fract_z
 _atom_site_occupancy
  Dy  Dy0  1  0.670615  0.994443  0.750000  1
  Dy  Dy1  1  0.329385  0.005557  0.250000  1
  Hf  Hf2  1  0.995302  0.670974  0.750000  1
  Hf  Hf3  1  0.004698  0.329026  0.250000  1
  Al  Al4  1  0.126315  0.123975  0.750000  1
  Al  Al5  1  0.873685  0.876025  0.250000  1
  Al  Al6  1  0.000073  0.337252  0.575353  1
  Al  Al7  1  0.999927  0.662748  0.424647  1
  Al  Al8  1  0.999927  0.662748  0.075353  1
  Al  Al9  1  0.331874  0.998010  0.921809  1
  Al  Al10  1  0.000073  0.337252  0.924647  1
  Al  Al11  1  0.668126  0.001990  0.078191  1
  Al  Al12  1  0.668126  0.001990  0.421809  1
  Al  Al13  1  0.331874  0.998010  0.578191  1
  Al  Al14  1  0.331165  0.333716  0.056802  1
  Al  Al15  1  0.668835  0.666284  0.943198  1
  Al  Al16  1  0.668835  0.666284  0.556802  1
  Al  Al17  1  0.331165  0.333716  0.443198  1
  Al  Al18  1  0.334392  0.547676  0.750000  1
  Al  Al19  1  0.665608  0.452324  0.250000  1
  Al  Al20  1  0.553833  0.343885  0.750000  1
  Al  Al21  1  0.446167  0.656115  0.250000  1
  Ir  Ir22  1  0.672804  0.328019  0.499641  1
  Ir  Ir23  1  0.327196  0.671981  0.500359  1
  Ir  Ir24  1  0.327196  0.671981  0.999641  1
  Ir  Ir25  1  0.672804  0.328019  0.000359  1
  Ir  Ir26  1  0.000000  0.000000  0.500000  1
  Ir  Ir27  1  0.000000  0.000000  0.000000  1
