# generated using pymatgen
data_Y19Lu(Cd3Fe)2
_symmetry_space_group_name_H-M   'P 1'
_cell_length_a   9.58015600
_cell_length_b   9.58015509
_cell_length_c   9.86388800
_cell_angle_alpha   90.00000000
_cell_angle_beta   90.00000000
_cell_angle_gamma   119.99999622
_symmetry_Int_Tables_number   1
_chemical_formula_structural   Y19Lu(Cd3Fe)2
_chemical_formula_sum   'Y19 Lu1 Cd6 Fe2'
_cell_volume   784.01415126
_cell_formula_units_Z   1
loop_
 _symmetry_equiv_pos_site_id
 _symmetry_equiv_pos_as_xyz
  1  'x, y, z'
loop_
 _atom_site_type_symbol
 _atom_site_label
 _atom_site_symmetry_multiplicity
 _atom_site_fract_x
 _atom_site_fract_y
 _atom_site_fract_z
 _atom_site_occupancy
  Y  Y0  1  0.000000  0.000000  0.000000  1
  Y  Y1  1  0.211263  0.788737  0.436390  1
  Y  Y2  1  0.211263  0.422527  0.436390  1
  Y  Y3  1  0.577473  0.788737  0.436390  1
  Y  Y4  1  0.788737  0.211263  0.563610  1
  Y  Y5  1  0.788737  0.577473  0.563610  1
  Y  Y6  1  0.422527  0.211263  0.563610  1
  Y  Y7  1  0.788020  0.211980  0.936367  1
  Y  Y8  1  0.788020  0.576038  0.936367  1
  Y  Y9  1  0.423962  0.211980  0.936367  1
  Y  Y10  1  0.211980  0.788020  0.063633  1
  Y  Y11  1  0.211980  0.423962  0.063633  1
  Y  Y12  1  0.576038  0.788020  0.063633  1
  Y  Y13  1  0.541079  0.458921  0.250233  1
  Y  Y14  1  0.541079  0.082156  0.250233  1
  Y  Y15  1  0.917844  0.458921  0.250233  1
  Y  Y16  1  0.458921  0.541079  0.749767  1
  Y  Y17  1  0.458921  0.917844  0.749767  1
  Y  Y18  1  0.082156  0.541079  0.749767  1
  Lu  Lu19  1  0.000000  0.000000  0.500000  1
  Cd  Cd20  1  0.886424  0.113576  0.251772  1
  Cd  Cd21  1  0.886424  0.772848  0.251772  1
  Cd  Cd22  1  0.227152  0.113576  0.251772  1
  Cd  Cd23  1  0.113576  0.886424  0.748228  1
  Cd  Cd24  1  0.113576  0.227152  0.748228  1
  Cd  Cd25  1  0.772848  0.886424  0.748228  1
  Fe  Fe26  1  0.333333  0.666667  0.250080  1
  Fe  Fe27  1  0.666667  0.333333  0.749920  1
