# generated using pymatgen
data_Th(PPt4)2
_symmetry_space_group_name_H-M   'P 1'
_cell_length_a   6.38248301
_cell_length_b   6.38248296
_cell_length_c   9.47578608
_cell_angle_alpha   54.18296451
_cell_angle_beta   54.18296522
_cell_angle_gamma   37.73567333
_symmetry_Int_Tables_number   1
_chemical_formula_structural   Th(PPt4)2
_chemical_formula_sum   'Th1 P2 Pt8'
_cell_volume   185.64979200
_cell_formula_units_Z   1
loop_
 _symmetry_equiv_pos_site_id
 _symmetry_equiv_pos_as_xyz
  1  'x, y, z'
loop_
 _atom_site_type_symbol
 _atom_site_label
 _atom_site_symmetry_multiplicity
 _atom_site_fract_x
 _atom_site_fract_y
 _atom_site_fract_z
 _atom_site_occupancy
  Th  Th0  1  0.500000  0.500000  0.500000  1
  P  P1  1  0.058132  0.058132  0.715089  1
  P  P2  1  0.941868  0.941868  0.284911  1
  Pt  Pt3  1  0.220571  0.220571  0.414611  1
  Pt  Pt4  1  0.821599  0.821599  0.846745  1
  Pt  Pt5  1  0.178401  0.178401  0.153255  1
  Pt  Pt6  1  0.166822  0.166822  0.848382  1
  Pt  Pt7  1  0.474535  0.474535  0.868844  1
  Pt  Pt8  1  0.525465  0.525465  0.131156  1
  Pt  Pt9  1  0.779429  0.779429  0.585389  1
  Pt  Pt10  1  0.833178  0.833178  0.151618  1
