# generated using pymatgen
data_Tb3Ho(Tm2Co)4
_symmetry_space_group_name_H-M   'P 1'
_cell_length_a   6.14925456
_cell_length_b   6.88536737
_cell_length_c   9.25958800
_cell_angle_alpha   90.00000000
_cell_angle_beta   90.00000000
_cell_angle_gamma   89.96770998
_symmetry_Int_Tables_number   1
_chemical_formula_structural   Tb3Ho(Tm2Co)4
_chemical_formula_sum   'Tb3 Ho1 Tm8 Co4'
_cell_volume   392.04975191
_cell_formula_units_Z   1
loop_
 _symmetry_equiv_pos_site_id
 _symmetry_equiv_pos_as_xyz
  1  'x, y, z'
loop_
 _atom_site_type_symbol
 _atom_site_label
 _atom_site_symmetry_multiplicity
 _atom_site_fract_x
 _atom_site_fract_y
 _atom_site_fract_z
 _atom_site_occupancy
  Tb  Tb0  1  0.638951  0.041601  0.250000  1
  Tb  Tb1  1  0.138278  0.458789  0.750000  1
  Tb  Tb2  1  0.362107  0.958651  0.750000  1
  Ho  Ho3  1  0.860530  0.541224  0.250000  1
  Tm  Tm4  1  0.323968  0.674462  0.067990  1
  Tm  Tm5  1  0.175522  0.175078  0.432429  1
  Tm  Tm6  1  0.675621  0.325659  0.567156  1
  Tm  Tm7  1  0.824689  0.824843  0.932901  1
  Tm  Tm8  1  0.675621  0.325659  0.932844  1
  Tm  Tm9  1  0.824689  0.824843  0.567099  1
  Tm  Tm10  1  0.323968  0.674462  0.432010  1
  Tm  Tm11  1  0.175522  0.175078  0.067571  1
  Co  Co12  1  0.050267  0.886171  0.250000  1
  Co  Co13  1  0.450047  0.386926  0.250000  1
  Co  Co14  1  0.948748  0.113181  0.750000  1
  Co  Co15  1  0.551473  0.613369  0.750000  1
