# generated using pymatgen
data_Tb3Y13(AgPd)4
_symmetry_space_group_name_H-M   'P 1'
_cell_length_a   9.71199251
_cell_length_b   9.70902359
_cell_length_c   9.70902300
_cell_angle_alpha   59.99999861
_cell_angle_beta   60.01011045
_cell_angle_gamma   60.01010761
_symmetry_Int_Tables_number   1
_chemical_formula_structural   Tb3Y13(AgPd)4
_chemical_formula_sum   'Tb3 Y13 Ag4 Pd4'
_cell_volume   647.45675357
_cell_formula_units_Z   1
loop_
 _symmetry_equiv_pos_site_id
 _symmetry_equiv_pos_as_xyz
  1  'x, y, z'
loop_
 _atom_site_type_symbol
 _atom_site_label
 _atom_site_symmetry_multiplicity
 _atom_site_fract_x
 _atom_site_fract_y
 _atom_site_fract_z
 _atom_site_occupancy
  Tb  Tb0  1  0.358273  0.357822  0.357822  1
  Tb  Tb1  1  0.358273  0.357822  0.926085  1
  Tb  Tb2  1  0.358273  0.926085  0.357822  1
  Y  Y3  1  0.923670  0.358777  0.358777  1
  Y  Y4  1  0.812927  0.187096  0.187096  1
  Y  Y5  1  0.186566  0.812873  0.812873  1
  Y  Y6  1  0.186566  0.812873  0.187687  1
  Y  Y7  1  0.812927  0.187096  0.812879  1
  Y  Y8  1  0.186566  0.187687  0.812873  1
  Y  Y9  1  0.812927  0.812879  0.187096  1
  Y  Y10  1  0.934242  0.566112  0.566112  1
  Y  Y11  1  0.567027  0.933484  0.933484  1
  Y  Y12  1  0.567027  0.933484  0.566005  1
  Y  Y13  1  0.934242  0.566112  0.933535  1
  Y  Y14  1  0.567027  0.566005  0.933484  1
  Y  Y15  1  0.934242  0.933535  0.566112  1
  Ag  Ag16  1  0.584483  0.584918  0.584918  1
  Ag  Ag17  1  0.584483  0.584918  0.245681  1
  Ag  Ag18  1  0.584483  0.245681  0.584918  1
  Ag  Ag19  1  0.246408  0.584531  0.584531  1
  Pd  Pd20  1  0.145664  0.146261  0.146261  1
  Pd  Pd21  1  0.145664  0.146261  0.561816  1
  Pd  Pd22  1  0.145664  0.561816  0.146261  1
  Pd  Pd23  1  0.562375  0.145875  0.145875  1
