# generated using pymatgen
data_La3Sm3(SiPd5)2
_symmetry_space_group_name_H-M   'P 1'
_cell_length_a   8.46531121
_cell_length_b   8.43460065
_cell_length_c   8.43460067
_cell_angle_alpha   127.58519196
_cell_angle_beta   126.18079168
_cell_angle_gamma   78.36416072
_symmetry_Int_Tables_number   1
_chemical_formula_structural   La3Sm3(SiPd5)2
_chemical_formula_sum   'La3 Sm3 Si2 Pd10'
_cell_volume   373.21754830
_cell_formula_units_Z   1
loop_
 _symmetry_equiv_pos_site_id
 _symmetry_equiv_pos_as_xyz
  1  'x, y, z'
loop_
 _atom_site_type_symbol
 _atom_site_label
 _atom_site_symmetry_multiplicity
 _atom_site_fract_x
 _atom_site_fract_y
 _atom_site_fract_z
 _atom_site_occupancy
  La  La0  1  0.382442  0.249278  0.133164  1
  La  La1  1  0.776676  0.549675  0.227000  1
  La  La2  1  0.616146  0.750009  0.866136  1
  Sm  Sm3  1  0.820825  0.048797  0.772028  1
  Sm  Sm4  1  0.219366  0.449926  0.769441  1
  Sm  Sm5  1  0.178608  0.950707  0.227901  1
  Si  Si6  1  0.214112  0.750789  0.463323  1
  Si  Si7  1  0.787919  0.249622  0.538297  1
  Pd  Pd8  1  0.834756  0.595995  0.643043  1
  Pd  Pd9  1  0.544117  0.305237  0.637297  1
  Pd  Pd10  1  0.453003  0.093332  0.758798  1
  Pd  Pd11  1  0.834756  0.191713  0.238761  1
  Pd  Pd12  1  0.167425  0.404611  0.359704  1
  Pd  Pd13  1  0.453003  0.694206  0.359671  1
  Pd  Pd14  1  0.544117  0.906820  0.238880  1
  Pd  Pd15  1  0.167425  0.807720  0.762814  1
  Pd  Pd16  1  0.002652  0.002959  0.504048  1
  Pd  Pd17  1  0.002652  0.498604  0.999694  1
