# generated using pymatgen
data_Tm8MgCd3Ga8
_symmetry_space_group_name_H-M   'P 1'
_cell_length_a   7.31052900
_cell_length_b   7.31052900
_cell_length_c   8.36368200
_cell_angle_alpha   90.00000000
_cell_angle_beta   90.00000000
_cell_angle_gamma   90.00000000
_symmetry_Int_Tables_number   1
_chemical_formula_structural   Tm8MgCd3Ga8
_chemical_formula_sum   'Tm8 Mg1 Cd3 Ga8'
_cell_volume   446.98723461
_cell_formula_units_Z   1
loop_
 _symmetry_equiv_pos_site_id
 _symmetry_equiv_pos_as_xyz
  1  'x, y, z'
loop_
 _atom_site_type_symbol
 _atom_site_label
 _atom_site_symmetry_multiplicity
 _atom_site_fract_x
 _atom_site_fract_y
 _atom_site_fract_z
 _atom_site_occupancy
  Tm  Tm0  1  0.829603  0.171763  0.500263  1
  Tm  Tm1  1  0.170397  0.828237  0.500263  1
  Tm  Tm2  1  0.328237  0.329603  0.999737  1
  Tm  Tm3  1  0.671763  0.670397  0.999737  1
  Tm  Tm4  1  0.672366  0.671065  0.500289  1
  Tm  Tm5  1  0.327634  0.328935  0.500289  1
  Tm  Tm6  1  0.171065  0.827634  0.999711  1
  Tm  Tm7  1  0.828935  0.172366  0.999711  1
  Mg  Mg8  1  0.000000  0.500000  0.250000  1
  Cd  Cd9  1  0.500000  0.000000  0.250000  1
  Cd  Cd10  1  0.000000  0.500000  0.750000  1
  Cd  Cd11  1  0.500000  0.000000  0.750000  1
  Ga  Ga12  1  0.627773  0.374785  0.250446  1
  Ga  Ga13  1  0.372227  0.625215  0.250446  1
  Ga  Ga14  1  0.126525  0.125136  0.750427  1
  Ga  Ga15  1  0.873475  0.874864  0.750427  1
  Ga  Ga16  1  0.374864  0.626525  0.749573  1
  Ga  Ga17  1  0.625136  0.373475  0.749573  1
  Ga  Ga18  1  0.874785  0.872227  0.249554  1
  Ga  Ga19  1  0.125215  0.127773  0.249554  1
