# generated using pymatgen
data_Pr5Zn2Ir2Ru
_symmetry_space_group_name_H-M   'P 1'
_cell_length_a   8.63376513
_cell_length_b   8.61165438
_cell_length_c   8.61142849
_cell_angle_alpha   109.40540759
_cell_angle_beta   109.79596914
_cell_angle_gamma   109.45558822
_symmetry_Int_Tables_number   1
_chemical_formula_structural   Pr5Zn2Ir2Ru
_chemical_formula_sum   'Pr10 Zn4 Ir4 Ru2'
_cell_volume   491.38819062
_cell_formula_units_Z   2
loop_
 _symmetry_equiv_pos_site_id
 _symmetry_equiv_pos_as_xyz
  1  'x, y, z'
loop_
 _atom_site_type_symbol
 _atom_site_label
 _atom_site_symmetry_multiplicity
 _atom_site_fract_x
 _atom_site_fract_y
 _atom_site_fract_z
 _atom_site_occupancy
  Pr  Pr0  1  0.250269  0.680803  0.435110  1
  Pr  Pr1  1  0.747067  0.817219  0.064405  1
  Pr  Pr2  1  0.431766  0.248897  0.681127  1
  Pr  Pr3  1  0.680623  0.434073  0.251626  1
  Pr  Pr4  1  0.066973  0.750542  0.817975  1
  Pr  Pr5  1  0.816548  0.064716  0.746128  1
  Pr  Pr6  1  0.225205  0.225460  0.225112  1
  Pr  Pr7  1  0.502239  0.998760  0.276543  1
  Pr  Pr8  1  0.279503  0.503413  0.002492  1
  Pr  Pr9  1  0.003316  0.277757  0.501380  1
  Zn  Zn10  1  0.591659  0.593315  0.593830  1
  Zn  Zn11  1  0.498361  0.999231  0.905927  1
  Zn  Zn12  1  0.906254  0.499465  0.000337  1
  Zn  Zn13  1  0.997816  0.904995  0.496926  1
  Ir  Ir14  1  0.250398  0.128429  0.877957  1
  Ir  Ir15  1  0.750533  0.372000  0.622701  1
  Ir  Ir16  1  0.876887  0.250567  0.126630  1
  Ir  Ir17  1  0.128669  0.878175  0.249610  1
  Ru  Ru18  1  0.624436  0.750335  0.373904  1
  Ru  Ru19  1  0.371477  0.621847  0.750282  1
