# generated using pymatgen
data_BaGdSiGe3N7
_symmetry_space_group_name_H-M   'P 1'
_cell_length_a   6.33565700
_cell_length_b   6.33565633
_cell_length_c   10.21852000
_cell_angle_alpha   90.00000000
_cell_angle_beta   90.00000000
_cell_angle_gamma   119.99998785
_symmetry_Int_Tables_number   1
_chemical_formula_structural   BaGdSiGe3N7
_chemical_formula_sum   'Ba2 Gd2 Si2 Ge6 N14'
_cell_volume   355.22371566
_cell_formula_units_Z   2
loop_
 _symmetry_equiv_pos_site_id
 _symmetry_equiv_pos_as_xyz
  1  'x, y, z'
loop_
 _atom_site_type_symbol
 _atom_site_label
 _atom_site_symmetry_multiplicity
 _atom_site_fract_x
 _atom_site_fract_y
 _atom_site_fract_z
 _atom_site_occupancy
  Ba  Ba0  1  0.666667  0.333333  0.576832  1
  Ba  Ba1  1  0.333333  0.666667  0.076832  1
  Gd  Gd2  1  0.666667  0.333333  0.951933  1
  Gd  Gd3  1  0.333333  0.666667  0.451933  1
  Si  Si4  1  0.000000  0.000000  0.028530  1
  Si  Si5  1  0.000000  0.000000  0.528530  1
  Ge  Ge6  1  0.171938  0.343876  0.760587  1
  Ge  Ge7  1  0.828062  0.171938  0.260587  1
  Ge  Ge8  1  0.343876  0.171938  0.260587  1
  Ge  Ge9  1  0.656124  0.828062  0.760587  1
  Ge  Ge10  1  0.171938  0.828062  0.760587  1
  Ge  Ge11  1  0.828062  0.656124  0.260587  1
  N  N12  1  0.000000  0.000000  0.844319  1
  N  N13  1  0.000000  0.000000  0.344319  1
  N  N14  1  0.850090  0.700180  0.081032  1
  N  N15  1  0.149910  0.850090  0.581032  1
  N  N16  1  0.700180  0.850090  0.581032  1
  N  N17  1  0.299820  0.149910  0.081032  1
  N  N18  1  0.850090  0.149910  0.081032  1
  N  N19  1  0.149910  0.299820  0.581032  1
  N  N20  1  0.493682  0.506318  0.815451  1
  N  N21  1  0.987365  0.493682  0.315451  1
  N  N22  1  0.506318  0.012635  0.315451  1
  N  N23  1  0.493682  0.987365  0.815451  1
  N  N24  1  0.506318  0.493682  0.315451  1
  N  N25  1  0.012635  0.506318  0.815451  1
