# generated using pymatgen
data_Sc5Mn(GaIr2)6
_symmetry_space_group_name_H-M   'P 1'
_cell_length_a   4.42627200
_cell_length_b   6.20904100
_cell_length_c   13.26980101
_cell_angle_alpha   90.00000000
_cell_angle_beta   89.99709064
_cell_angle_gamma   90.00000000
_symmetry_Int_Tables_number   1
_chemical_formula_structural   Sc5Mn(GaIr2)6
_chemical_formula_sum   'Sc5 Mn1 Ga6 Ir12'
_cell_volume   364.69267107
_cell_formula_units_Z   1
loop_
 _symmetry_equiv_pos_site_id
 _symmetry_equiv_pos_as_xyz
  1  'x, y, z'
loop_
 _atom_site_type_symbol
 _atom_site_label
 _atom_site_symmetry_multiplicity
 _atom_site_fract_x
 _atom_site_fract_y
 _atom_site_fract_z
 _atom_site_occupancy
  Sc  Sc0  1  0.499704  0.500001  0.163001  1
  Sc  Sc1  1  0.999718  0.000000  0.332098  1
  Sc  Sc2  1  0.500047  0.500001  0.499999  1
  Sc  Sc3  1  0.000281  0.000000  0.667881  1
  Sc  Sc4  1  0.500299  0.500001  0.837017  1
  Mn  Mn5  1  0.999961  0.000000  0.000027  1
  Ga  Ga6  1  0.999995  0.500001  0.999992  1
  Ga  Ga7  1  0.499687  0.000000  0.167742  1
  Ga  Ga8  1  0.999758  0.500001  0.329732  1
  Ga  Ga9  1  0.500006  0.000000  0.500003  1
  Ga  Ga10  1  0.000246  0.500001  0.670269  1
  Ga  Ga11  1  0.500310  0.000000  0.832244  1
  Ir  Ir12  1  0.499991  0.237399  0.999994  1
  Ir  Ir13  1  0.499991  0.762601  0.999994  1
  Ir  Ir14  1  0.999695  0.244100  0.161835  1
  Ir  Ir15  1  0.999695  0.755900  0.161835  1
  Ir  Ir16  1  0.499757  0.251064  0.332546  1
  Ir  Ir17  1  0.499757  0.748936  0.332546  1
  Ir  Ir18  1  0.000001  0.250546  0.500002  1
  Ir  Ir19  1  0.000001  0.749454  0.500002  1
  Ir  Ir20  1  0.500248  0.251078  0.667454  1
  Ir  Ir21  1  0.500248  0.748922  0.667454  1
  Ir  Ir22  1  0.000304  0.244071  0.838166  1
  Ir  Ir23  1  0.000304  0.755929  0.838166  1
