# generated using pymatgen
data_Nd6Y6Th4Cd3HgIr4
_symmetry_space_group_name_H-M   'P 1'
_cell_length_a   9.87049505
_cell_length_b   9.87004637
_cell_length_c   9.87003120
_cell_angle_alpha   59.91290728
_cell_angle_beta   59.91610264
_cell_angle_gamma   59.91617912
_symmetry_Int_Tables_number   1
_chemical_formula_structural   Nd6Y6Th4Cd3HgIr4
_chemical_formula_sum   'Nd6 Y6 Th4 Cd3 Hg1 Ir4'
_cell_volume   678.61595518
_cell_formula_units_Z   1
loop_
 _symmetry_equiv_pos_site_id
 _symmetry_equiv_pos_as_xyz
  1  'x, y, z'
loop_
 _atom_site_type_symbol
 _atom_site_label
 _atom_site_symmetry_multiplicity
 _atom_site_fract_x
 _atom_site_fract_y
 _atom_site_fract_z
 _atom_site_occupancy
  Nd  Nd0  1  0.940555  0.561268  0.561275  1
  Nd  Nd1  1  0.558367  0.939889  0.939883  1
  Nd  Nd2  1  0.561291  0.940540  0.561282  1
  Nd  Nd3  1  0.939885  0.558373  0.939880  1
  Nd  Nd4  1  0.561302  0.561285  0.940531  1
  Nd  Nd5  1  0.939879  0.939871  0.558374  1
  Y  Y6  1  0.812820  0.186485  0.186481  1
  Y  Y7  1  0.184975  0.814259  0.814255  1
  Y  Y8  1  0.186478  0.812822  0.186484  1
  Y  Y9  1  0.814244  0.184989  0.814238  1
  Y  Y10  1  0.186469  0.186484  0.812826  1
  Y  Y11  1  0.814246  0.814244  0.184993  1
  Th  Th12  1  0.347898  0.347913  0.347914  1
  Th  Th13  1  0.349511  0.349524  0.952344  1
  Th  Th14  1  0.349512  0.952338  0.349528  1
  Th  Th15  1  0.952320  0.349521  0.349526  1
  Cd  Cd16  1  0.579448  0.579437  0.259472  1
  Cd  Cd17  1  0.579429  0.259479  0.579435  1
  Cd  Cd18  1  0.259481  0.579426  0.579443  1
  Hg  Hg19  1  0.582657  0.582657  0.582649  1
  Ir  Ir20  1  0.143729  0.143707  0.143712  1
  Ir  Ir21  1  0.143738  0.143725  0.568024  1
  Ir  Ir22  1  0.143736  0.568030  0.143726  1
  Ir  Ir23  1  0.568029  0.143732  0.143723  1
