# generated using pymatgen
data_NaNp2AgF11
_symmetry_space_group_name_H-M   'P 1'
_cell_length_a   6.07758839
_cell_length_b   6.15941419
_cell_length_c   8.60955996
_cell_angle_alpha   111.40753430
_cell_angle_beta   96.36237938
_cell_angle_gamma   107.68777833
_symmetry_Int_Tables_number   1
_chemical_formula_structural   NaNp2AgF11
_chemical_formula_sum   'Na1 Np2 Ag1 F11'
_cell_volume   276.79824318
_cell_formula_units_Z   1
loop_
 _symmetry_equiv_pos_site_id
 _symmetry_equiv_pos_as_xyz
  1  'x, y, z'
loop_
 _atom_site_type_symbol
 _atom_site_label
 _atom_site_symmetry_multiplicity
 _atom_site_fract_x
 _atom_site_fract_y
 _atom_site_fract_z
 _atom_site_occupancy
  Na  Na0  1  0.000000  0.000000  0.000000  1
  Np  Np1  1  0.501525  0.741942  0.230441  1
  Np  Np2  1  0.498475  0.258058  0.769559  1
  Ag  Ag3  1  0.000000  0.500000  0.500000  1
  F  F4  1  0.265263  0.857205  0.117816  1
  F  F5  1  0.332765  0.332081  0.004777  1
  F  F6  1  0.667235  0.667919  0.995223  1
  F  F7  1  0.783065  0.497146  0.710592  1
  F  F8  1  0.792767  0.076518  0.277270  1
  F  F9  1  0.207233  0.923482  0.722730  1
  F  F10  1  0.734737  0.142795  0.882184  1
  F  F11  1  0.216935  0.502854  0.289408  1
  F  F12  1  0.736790  0.628301  0.341669  1
  F  F13  1  0.263210  0.371699  0.658331  1
  F  F14  1  0.500000  0.000000  0.500000  1
