# generated using pymatgen
data_Zr10Tl2Ga2Bi3Pb
_symmetry_space_group_name_H-M   'P 1'
_cell_length_a   8.83347754
_cell_length_b   8.84970257
_cell_length_c   5.95923300
_cell_angle_alpha   90.00000000
_cell_angle_beta   90.00000000
_cell_angle_gamma   120.06077032
_symmetry_Int_Tables_number   1
_chemical_formula_structural   Zr10Tl2Ga2Bi3Pb
_chemical_formula_sum   'Zr10 Tl2 Ga2 Bi3 Pb1'
_cell_volume   403.19497468
_cell_formula_units_Z   1
loop_
 _symmetry_equiv_pos_site_id
 _symmetry_equiv_pos_as_xyz
  1  'x, y, z'
loop_
 _atom_site_type_symbol
 _atom_site_label
 _atom_site_symmetry_multiplicity
 _atom_site_fract_x
 _atom_site_fract_y
 _atom_site_fract_z
 _atom_site_occupancy
  Zr  Zr0  1  0.666112  0.333176  0.002719  1
  Zr  Zr1  1  0.333888  0.667066  0.002719  1
  Zr  Zr2  1  0.333888  0.667066  0.497281  1
  Zr  Zr3  1  0.666112  0.333176  0.497281  1
  Zr  Zr4  1  0.736985  0.736701  0.750000  1
  Zr  Zr5  1  0.263015  0.999716  0.750000  1
  Zr  Zr6  1  0.000000  0.263017  0.750000  1
  Zr  Zr7  1  0.267498  0.266126  0.250000  1
  Zr  Zr8  1  0.732502  0.998628  0.250000  1
  Zr  Zr9  1  0.000000  0.733789  0.250000  1
  Tl  Tl10  1  0.616878  0.616686  0.250000  1
  Tl  Tl11  1  0.383122  0.999808  0.250000  1
  Ga  Ga12  1  0.000000  0.999639  0.005165  1
  Ga  Ga13  1  0.000000  0.999639  0.494835  1
  Bi  Bi14  1  0.389438  0.389262  0.750000  1
  Bi  Bi15  1  0.610562  0.999823  0.750000  1
  Bi  Bi16  1  0.000000  0.611321  0.750000  1
  Pb  Pb17  1  0.000000  0.385362  0.250000  1
