# generated using pymatgen
data_K2Hg(AuS)4
_symmetry_space_group_name_H-M   'P 1'
_cell_length_a   9.91299807
_cell_length_b   9.91299828
_cell_length_c   9.91299870
_cell_angle_alpha   137.47102319
_cell_angle_beta   113.24972017
_cell_angle_gamma   82.43361036
_symmetry_Int_Tables_number   1
_chemical_formula_structural   K2Hg(AuS)4
_chemical_formula_sum   'K4 Hg2 Au8 S8'
_cell_volume   584.78095663
_cell_formula_units_Z   2
loop_
 _symmetry_equiv_pos_site_id
 _symmetry_equiv_pos_as_xyz
  1  'x, y, z'
loop_
 _atom_site_type_symbol
 _atom_site_label
 _atom_site_symmetry_multiplicity
 _atom_site_fract_x
 _atom_site_fract_y
 _atom_site_fract_z
 _atom_site_occupancy
  K  K0  1  0.151959  0.161462  0.313421  1
  K  K1  1  0.348041  0.661462  0.009503  1
  K  K2  1  0.651959  0.338538  0.990497  1
  K  K3  1  0.848041  0.838538  0.686579  1
  Hg  Hg4  1  0.750000  0.750000  0.000000  1
  Hg  Hg5  1  0.250000  0.250000  0.000000  1
  Au  Au6  1  0.137190  0.637190  0.500000  1
  Au  Au7  1  0.862810  0.362810  0.500000  1
  Au  Au8  1  0.500000  0.000000  0.000000  1
  Au  Au9  1  0.637190  0.137190  0.500000  1
  Au  Au10  1  0.362810  0.862810  0.500000  1
  Au  Au11  1  0.000000  0.500000  0.000000  1
  Au  Au12  1  0.000000  0.000000  0.500000  1
  Au  Au13  1  0.500000  0.500000  0.500000  1
  S  S14  1  0.018711  0.354323  0.111565  1
  S  S15  1  0.742759  0.854323  0.335611  1
  S  S16  1  0.757241  0.092853  0.111565  1
  S  S17  1  0.981289  0.645677  0.888435  1
  S  S18  1  0.257241  0.145677  0.664389  1
  S  S19  1  0.518711  0.407147  0.664389  1
  S  S20  1  0.481289  0.592853  0.335611  1
  S  S21  1  0.242759  0.907147  0.888435  1
