# generated using pymatgen
data_Zn3Ga(BiO3)8
_symmetry_space_group_name_H-M   'P 1'
_cell_length_a   4.94259834
_cell_length_b   9.88852402
_cell_length_c   9.96329400
_cell_angle_alpha   90.00001159
_cell_angle_beta   90.00000000
_cell_angle_gamma   89.97535602
_symmetry_Int_Tables_number   1
_chemical_formula_structural   Zn3Ga(BiO3)8
_chemical_formula_sum   'Zn3 Ga1 Bi8 O24'
_cell_volume   486.95597319
_cell_formula_units_Z   1
loop_
 _symmetry_equiv_pos_site_id
 _symmetry_equiv_pos_as_xyz
  1  'x, y, z'
loop_
 _atom_site_type_symbol
 _atom_site_label
 _atom_site_symmetry_multiplicity
 _atom_site_fract_x
 _atom_site_fract_y
 _atom_site_fract_z
 _atom_site_occupancy
  Zn  Zn0  1  0.999279  0.500929  0.000000  1
  Zn  Zn1  1  0.500002  0.749998  0.500000  1
  Zn  Zn2  1  0.000721  0.999072  0.999999  1
  Ga  Ga3  1  0.499999  0.250004  0.500000  1
  Bi  Bi4  1  0.997384  0.999907  0.333093  1
  Bi  Bi5  1  0.002616  0.500094  0.333092  1
  Bi  Bi6  1  0.997384  0.999907  0.666907  1
  Bi  Bi7  1  0.002616  0.500094  0.666908  1
  Bi  Bi8  1  0.500000  0.250001  0.167177  1
  Bi  Bi9  1  0.500000  0.750001  0.167175  1
  Bi  Bi10  1  0.500000  0.250001  0.832823  1
  Bi  Bi11  1  0.500000  0.750000  0.832825  1
  O  O12  1  0.206758  0.396216  0.500000  1
  O  O13  1  0.194746  0.903048  0.500000  1
  O  O14  1  0.301429  0.150460  0.000000  1
  O  O15  1  0.301238  0.650699  0.000000  1
  O  O16  1  0.698568  0.349543  0.000000  1
  O  O17  1  0.698768  0.849299  0.000000  1
  O  O18  1  0.793236  0.103785  0.500000  1
  O  O19  1  0.805253  0.596949  0.500000  1
  O  O20  1  0.189424  0.402527  0.164977  1
  O  O21  1  0.192733  0.906039  0.165024  1
  O  O22  1  0.189424  0.402527  0.835023  1
  O  O23  1  0.192733  0.906039  0.834976  1
  O  O24  1  0.312213  0.156623  0.343051  1
  O  O25  1  0.309638  0.654135  0.336912  1
  O  O26  1  0.312213  0.156623  0.656949  1
  O  O27  1  0.309638  0.654135  0.663089  1
  O  O28  1  0.687783  0.343380  0.343051  1
  O  O29  1  0.690370  0.845861  0.336912  1
  O  O30  1  0.687783  0.343380  0.656949  1
  O  O31  1  0.690371  0.845861  0.663088  1
  O  O32  1  0.810577  0.097474  0.164978  1
  O  O33  1  0.807261  0.593957  0.165023  1
  O  O34  1  0.810577  0.097473  0.835022  1
  O  O35  1  0.807262  0.593958  0.834977  1
