# generated using pymatgen
data_DyHo15(In3Pt)2
_symmetry_space_group_name_H-M   'P 1'
_cell_length_a   10.47176500
_cell_length_b   10.46990079
_cell_length_c   6.96514810
_cell_angle_alpha   90.01689024
_cell_angle_beta   90.00000000
_cell_angle_gamma   120.00588700
_symmetry_Int_Tables_number   1
_chemical_formula_structural   DyHo15(In3Pt)2
_chemical_formula_sum   'Dy1 Ho15 In6 Pt2'
_cell_volume   661.29867075
_cell_formula_units_Z   1
loop_
 _symmetry_equiv_pos_site_id
 _symmetry_equiv_pos_as_xyz
  1  'x, y, z'
loop_
 _atom_site_type_symbol
 _atom_site_label
 _atom_site_symmetry_multiplicity
 _atom_site_fract_x
 _atom_site_fract_y
 _atom_site_fract_z
 _atom_site_occupancy
  Dy  Dy0  1  0.530861  0.061724  0.508453  1
  Ho  Ho1  1  0.937877  0.468895  0.508421  1
  Ho  Ho2  1  0.531018  0.468895  0.508421  1
  Ho  Ho3  1  0.468880  0.937759  0.008364  1
  Ho  Ho4  1  0.062171  0.531085  0.008421  1
  Ho  Ho5  1  0.468913  0.531085  0.008421  1
  Ho  Ho6  1  0.175300  0.350598  0.715473  1
  Ho  Ho7  1  0.649639  0.824593  0.715632  1
  Ho  Ho8  1  0.174954  0.824593  0.715632  1
  Ho  Ho9  1  0.824795  0.649591  0.215458  1
  Ho  Ho10  1  0.350507  0.175323  0.215181  1
  Ho  Ho11  1  0.824815  0.175323  0.215181  1
  Ho  Ho12  1  0.666811  0.333622  0.883049  1
  Ho  Ho13  1  0.333169  0.666338  0.382891  1
  Ho  Ho14  1  0.000000  0.000000  0.489044  1
  Ho  Ho15  1  0.000048  0.000095  0.989176  1
  In  In16  1  0.837364  0.674728  0.751305  1
  In  In17  1  0.325169  0.162746  0.751452  1
  In  In18  1  0.837577  0.162746  0.751452  1
  In  In19  1  0.162565  0.325132  0.251397  1
  In  In20  1  0.674698  0.837349  0.251427  1
  In  In21  1  0.162650  0.837349  0.251427  1
  Pt  Pt22  1  0.666840  0.333680  0.281154  1
  Pt  Pt23  1  0.333377  0.666755  0.781214  1
