# generated using pymatgen
data_Gd4Dy2RhO12
_symmetry_space_group_name_H-M   'P 1'
_cell_length_a   6.52474360
_cell_length_b   6.52350517
_cell_length_c   6.52642056
_cell_angle_alpha   98.54336551
_cell_angle_beta   98.66274192
_cell_angle_gamma   98.61087956
_symmetry_Int_Tables_number   1
_chemical_formula_structural   Gd4Dy2RhO12
_chemical_formula_sum   'Gd4 Dy2 Rh1 O12'
_cell_volume   267.33443777
_cell_formula_units_Z   1
loop_
 _symmetry_equiv_pos_site_id
 _symmetry_equiv_pos_as_xyz
  1  'x, y, z'
loop_
 _atom_site_type_symbol
 _atom_site_label
 _atom_site_symmetry_multiplicity
 _atom_site_fract_x
 _atom_site_fract_y
 _atom_site_fract_z
 _atom_site_occupancy
  Gd  Gd0  1  0.309018  0.143399  0.611012  1
  Gd  Gd1  1  0.693699  0.858814  0.390228  1
  Gd  Gd2  1  0.390488  0.691361  0.858562  1
  Gd  Gd3  1  0.140599  0.608231  0.306511  1
  Dy  Dy4  1  0.856380  0.387868  0.691229  1
  Dy  Dy5  1  0.612180  0.308220  0.142253  1
  Rh  Rh6  1  0.000034  0.999999  0.999675  1
  O  O7  1  0.931618  0.040080  0.701022  1
  O  O8  1  0.959750  0.299386  0.066936  1
  O  O9  1  0.592519  0.179385  0.436179  1
  O  O10  1  0.821111  0.561013  0.409552  1
  O  O11  1  0.300324  0.070652  0.965412  1
  O  O12  1  0.566466  0.408950  0.823830  1
  O  O13  1  0.437263  0.587275  0.178168  1
  O  O14  1  0.700856  0.933699  0.037219  1
  O  O15  1  0.175270  0.436121  0.591666  1
  O  O16  1  0.409513  0.822409  0.562781  1
  O  O17  1  0.034592  0.700155  0.929249  1
  O  O18  1  0.068320  0.962982  0.298514  1
