# generated using pymatgen
data_Ce5Th3(Si3Ni)4
_symmetry_space_group_name_H-M   'P 1'
_cell_length_a   8.04624900
_cell_length_b   8.07359883
_cell_length_c   8.49773200
_cell_angle_alpha   90.00000000
_cell_angle_beta   90.00000000
_cell_angle_gamma   119.64976303
_symmetry_Int_Tables_number   1
_chemical_formula_structural   Ce5Th3(Si3Ni)4
_chemical_formula_sum   'Ce5 Th3 Si12 Ni4'
_cell_volume   479.75136969
_cell_formula_units_Z   1
loop_
 _symmetry_equiv_pos_site_id
 _symmetry_equiv_pos_as_xyz
  1  'x, y, z'
loop_
 _atom_site_type_symbol
 _atom_site_label
 _atom_site_symmetry_multiplicity
 _atom_site_fract_x
 _atom_site_fract_y
 _atom_site_fract_z
 _atom_site_occupancy
  Ce  Ce0  1  0.999905  0.499933  0.250000  1
  Ce  Ce1  1  0.499983  0.999978  0.750000  1
  Ce  Ce2  1  0.500069  0.000109  0.250000  1
  Ce  Ce3  1  0.000002  0.999997  0.750000  1
  Ce  Ce4  1  0.999998  0.000005  0.250000  1
  Th  Th5  1  0.499978  0.500027  0.750000  1
  Th  Th6  1  0.500021  0.499972  0.250000  1
  Th  Th7  1  0.000057  0.500036  0.750000  1
  Si  Si8  1  0.827382  0.170963  0.000616  1
  Si  Si9  1  0.172624  0.829026  0.000797  1
  Si  Si10  1  0.340248  0.168039  0.998841  1
  Si  Si11  1  0.172624  0.829026  0.499203  1
  Si  Si12  1  0.659746  0.831956  0.998961  1
  Si  Si13  1  0.827382  0.170963  0.499384  1
  Si  Si14  1  0.832614  0.662612  0.001363  1
  Si  Si15  1  0.659746  0.831956  0.501039  1
  Si  Si16  1  0.167383  0.337384  0.001462  1
  Si  Si17  1  0.340248  0.168039  0.501159  1
  Si  Si18  1  0.167383  0.337384  0.498538  1
  Si  Si19  1  0.832614  0.662612  0.498637  1
  Ni  Ni20  1  0.666705  0.337519  0.997919  1
  Ni  Ni21  1  0.333294  0.662474  0.998223  1
  Ni  Ni22  1  0.333294  0.662474  0.501777  1
  Ni  Ni23  1  0.666705  0.337519  0.502081  1
