# generated using pymatgen
data_NiSbRhF12
_symmetry_space_group_name_H-M   'P 1'
_cell_length_a   5.18103602
_cell_length_b   5.47326822
_cell_length_c   9.02174022
_cell_angle_alpha   73.51494272
_cell_angle_beta   88.36706313
_cell_angle_gamma   62.38003728
_symmetry_Int_Tables_number   1
_chemical_formula_structural   NiSbRhF12
_chemical_formula_sum   'Ni1 Sb1 Rh1 F12'
_cell_volume   215.75444921
_cell_formula_units_Z   1
loop_
 _symmetry_equiv_pos_site_id
 _symmetry_equiv_pos_as_xyz
  1  'x, y, z'
loop_
 _atom_site_type_symbol
 _atom_site_label
 _atom_site_symmetry_multiplicity
 _atom_site_fract_x
 _atom_site_fract_y
 _atom_site_fract_z
 _atom_site_occupancy
  Ni  Ni0  1  0.501276  0.501987  0.497361  1
  Sb  Sb1  1  0.225443  0.996314  0.757911  1
  Rh  Rh2  1  0.774776  0.999671  0.248430  1
  F  F3  1  0.952608  0.236005  0.202232  1
  F  F4  1  0.046261  0.756940  0.794795  1
  F  F5  1  0.018423  0.758834  0.136568  1
  F  F6  1  0.471206  0.771121  0.624043  1
  F  F7  1  0.521593  0.239105  0.373803  1
  F  F8  1  0.941261  0.247338  0.567591  1
  F  F9  1  0.065367  0.751293  0.433652  1
  F  F10  1  0.409517  0.245181  0.681418  1
  F  F11  1  0.589599  0.750276  0.314149  1
  F  F12  1  0.523740  0.770414  0.926990  1
  F  F13  1  0.487367  0.224821  0.077921  1
  F  F14  1  0.971563  0.250701  0.863135  1
