# generated using pymatgen
data_Li(NdP)2
_symmetry_space_group_name_H-M   'P 1'
_cell_length_a   4.17401500
_cell_length_b   4.17401386
_cell_length_c   14.59048800
_cell_angle_alpha   90.00000000
_cell_angle_beta   90.00000000
_cell_angle_gamma   120.00000110
_symmetry_Int_Tables_number   1
_chemical_formula_structural   Li(NdP)2
_chemical_formula_sum   'Li2 Nd4 P4'
_cell_volume   220.14475212
_cell_formula_units_Z   2
loop_
 _symmetry_equiv_pos_site_id
 _symmetry_equiv_pos_as_xyz
  1  'x, y, z'
loop_
 _atom_site_type_symbol
 _atom_site_label
 _atom_site_symmetry_multiplicity
 _atom_site_fract_x
 _atom_site_fract_y
 _atom_site_fract_z
 _atom_site_occupancy
  Li  Li0  1  0.000000  0.000000  0.250000  1
  Li  Li1  1  0.000000  0.000000  0.750000  1
  Nd  Nd2  1  0.333333  0.666667  0.110416  1
  Nd  Nd3  1  0.333333  0.666667  0.389584  1
  Nd  Nd4  1  0.666667  0.333332  0.610416  1
  Nd  Nd5  1  0.666667  0.333332  0.889584  1
  P  P6  1  0.000000  0.000000  0.000000  1
  P  P7  1  0.666667  0.333332  0.250000  1
  P  P8  1  0.000000  0.000000  0.500000  1
  P  P9  1  0.333333  0.666667  0.750000  1
