# generated using pymatgen
data_YHo7(SiBr6)2
_symmetry_space_group_name_H-M   'P 1'
_cell_length_a   4.05657800
_cell_length_b   13.26884531
_cell_length_c   14.03052900
_cell_angle_alpha   89.71485950
_cell_angle_beta   90.00000000
_cell_angle_gamma   90.00000000
_symmetry_Int_Tables_number   1
_chemical_formula_structural   YHo7(SiBr6)2
_chemical_formula_sum   'Y1 Ho7 Si2 Br12'
_cell_volume   755.19938891
_cell_formula_units_Z   1
loop_
 _symmetry_equiv_pos_site_id
 _symmetry_equiv_pos_as_xyz
  1  'x, y, z'
loop_
 _atom_site_type_symbol
 _atom_site_label
 _atom_site_symmetry_multiplicity
 _atom_site_fract_x
 _atom_site_fract_y
 _atom_site_fract_z
 _atom_site_occupancy
  Y  Y0  1  0.000000  0.117286  0.578285  1
  Ho  Ho1  1  0.500000  0.117435  0.341429  1
  Ho  Ho2  1  0.500000  0.881438  0.657882  1
  Ho  Ho3  1  0.500000  0.617752  0.158047  1
  Ho  Ho4  1  0.500000  0.382944  0.842655  1
  Ho  Ho5  1  0.000000  0.883311  0.422162  1
  Ho  Ho6  1  0.000000  0.616759  0.922394  1
  Ho  Ho7  1  0.000000  0.383528  0.078445  1
  Si  Si8  1  0.500000  0.999759  0.499878  1
  Si  Si9  1  0.500000  0.500178  0.000486  1
  Br  Br10  1  0.500000  0.246866  0.163799  1
  Br  Br11  1  0.500000  0.752077  0.835577  1
  Br  Br12  1  0.500000  0.747236  0.335472  1
  Br  Br13  1  0.500000  0.255112  0.664243  1
  Br  Br14  1  0.000000  0.253666  0.409146  1
  Br  Br15  1  0.000000  0.745848  0.588314  1
  Br  Br16  1  0.000000  0.753727  0.087958  1
  Br  Br17  1  0.000000  0.246829  0.912419  1
  Br  Br18  1  0.000000  0.002972  0.243920  1
  Br  Br19  1  0.000000  0.994405  0.756635  1
  Br  Br20  1  0.000000  0.502804  0.256116  1
  Br  Br21  1  0.000000  0.498069  0.744740  1
