# generated using pymatgen
data_Dy2Tm2C2Br3
_symmetry_space_group_name_H-M   'P 1'
_cell_length_a   3.66695700
_cell_length_b   10.64408600
_cell_length_c   20.37243600
_cell_angle_alpha   90.00000000
_cell_angle_beta   90.00000000
_cell_angle_gamma   90.00000000
_symmetry_Int_Tables_number   1
_chemical_formula_structural   Dy2Tm2C2Br3
_chemical_formula_sum   'Dy8 Tm8 C8 Br12'
_cell_volume   795.16481393
_cell_formula_units_Z   4
loop_
 _symmetry_equiv_pos_site_id
 _symmetry_equiv_pos_as_xyz
  1  'x, y, z'
loop_
 _atom_site_type_symbol
 _atom_site_label
 _atom_site_symmetry_multiplicity
 _atom_site_fract_x
 _atom_site_fract_y
 _atom_site_fract_z
 _atom_site_occupancy
  Dy  Dy0  1  0.250000  0.866344  0.580268  1
  Dy  Dy1  1  0.750000  0.133656  0.419732  1
  Dy  Dy2  1  0.750000  0.633656  0.080268  1
  Dy  Dy3  1  0.250000  0.366344  0.919732  1
  Dy  Dy4  1  0.250000  0.865742  0.744958  1
  Dy  Dy5  1  0.750000  0.134258  0.255042  1
  Dy  Dy6  1  0.750000  0.634258  0.244958  1
  Dy  Dy7  1  0.250000  0.365742  0.755042  1
  Tm  Tm8  1  0.250000  0.866915  0.169919  1
  Tm  Tm9  1  0.750000  0.133085  0.830081  1
  Tm  Tm10  1  0.750000  0.633085  0.669919  1
  Tm  Tm11  1  0.250000  0.366915  0.330081  1
  Tm  Tm12  1  0.250000  0.900896  0.327057  1
  Tm  Tm13  1  0.750000  0.099104  0.672943  1
  Tm  Tm14  1  0.750000  0.599104  0.827057  1
  Tm  Tm15  1  0.250000  0.400896  0.172943  1
  C  C16  1  0.250000  0.615214  0.750241  1
  C  C17  1  0.750000  0.384786  0.249759  1
  C  C18  1  0.750000  0.884786  0.250241  1
  C  C19  1  0.250000  0.115214  0.749759  1
  C  C20  1  0.250000  0.632599  0.156707  1
  C  C21  1  0.750000  0.367401  0.843293  1
  C  C22  1  0.750000  0.867401  0.656707  1
  C  C23  1  0.250000  0.132599  0.343293  1
  Br  Br24  1  0.250000  0.610573  0.556973  1
  Br  Br25  1  0.750000  0.389427  0.443027  1
  Br  Br26  1  0.750000  0.889427  0.056973  1
  Br  Br27  1  0.250000  0.110573  0.943027  1
  Br  Br28  1  0.250000  0.629306  0.952163  1
  Br  Br29  1  0.750000  0.370694  0.047837  1
  Br  Br30  1  0.750000  0.870694  0.452163  1
  Br  Br31  1  0.250000  0.129306  0.547837  1
  Br  Br32  1  0.250000  0.636237  0.357639  1
  Br  Br33  1  0.750000  0.363763  0.642361  1
  Br  Br34  1  0.750000  0.863763  0.857639  1
  Br  Br35  1  0.250000  0.136237  0.142361  1
