# generated using pymatgen
data_SrNdMnNbO6
_symmetry_space_group_name_H-M   'P 1'
_cell_length_a   8.16769684
_cell_length_b   8.16772683
_cell_length_c   9.86681296
_cell_angle_alpha   66.58725854
_cell_angle_beta   66.58736365
_cell_angle_gamma   92.03663485
_symmetry_Int_Tables_number   1
_chemical_formula_structural   SrNdMnNbO6
_chemical_formula_sum   'Sr4 Nd4 Mn4 Nb4 O24'
_cell_volume   539.48327221
_cell_formula_units_Z   4
loop_
 _symmetry_equiv_pos_site_id
 _symmetry_equiv_pos_as_xyz
  1  'x, y, z'
loop_
 _atom_site_type_symbol
 _atom_site_label
 _atom_site_symmetry_multiplicity
 _atom_site_fract_x
 _atom_site_fract_y
 _atom_site_fract_z
 _atom_site_occupancy
  Sr  Sr0  1  0.399111  0.857836  0.251405  1
  Sr  Sr1  1  0.899112  0.357828  0.251400  1
  Sr  Sr2  1  0.107830  0.149111  0.751403  1
  Sr  Sr3  1  0.607834  0.649107  0.751409  1
  Nd  Nd4  1  0.083610  0.644861  0.754507  1
  Nd  Nd5  1  0.583622  0.144859  0.754501  1
  Nd  Nd6  1  0.394865  0.333607  0.254506  1
  Nd  Nd7  1  0.894861  0.833625  0.254499  1
  Mn  Mn8  1  0.501564  0.994749  0.501813  1
  Mn  Mn9  1  0.744733  0.751555  0.001822  1
  Mn  Mn10  1  0.001538  0.494771  0.501778  1
  Mn  Mn11  1  0.244768  0.251543  0.001824  1
  Nb  Nb12  1  0.751772  0.246774  0.000501  1
  Nb  Nb13  1  0.251767  0.746773  0.000500  1
  Nb  Nb14  1  0.496762  0.501768  0.500507  1
  Nb  Nb15  1  0.996777  0.001772  0.500503  1
  O  O16  1  0.263678  0.993550  0.447151  1
  O  O17  1  0.763677  0.493551  0.447145  1
  O  O18  1  0.743548  0.513675  0.947152  1
  O  O19  1  0.243550  0.013671  0.947149  1
  O  O20  1  0.236471  0.532338  0.555458  1
  O  O21  1  0.736478  0.032337  0.555459  1
  O  O22  1  0.782332  0.986472  0.055462  1
  O  O23  1  0.282336  0.486467  0.055459  1
  O  O24  1  0.580065  0.766530  0.447387  1
  O  O25  1  0.080061  0.266533  0.447387  1
  O  O26  1  0.016534  0.330058  0.947390  1
  O  O27  1  0.516530  0.830060  0.947390  1
  O  O28  1  0.941389  0.739265  0.541389  1
  O  O29  1  0.441395  0.239257  0.541391  1
  O  O30  1  0.489262  0.191390  0.041394  1
  O  O31  1  0.989258  0.691393  0.041392  1
  O  O32  1  0.938571  0.900952  0.739645  1
  O  O33  1  0.438582  0.400955  0.739643  1
  O  O34  1  0.150957  0.688581  0.239642  1
  O  O35  1  0.650956  0.188572  0.239644  1
  O  O36  1  0.548017  0.578903  0.260749  1
  O  O37  1  0.048023  0.078906  0.260749  1
  O  O38  1  0.328901  0.798019  0.760750  1
  O  O39  1  0.828905  0.298021  0.760749  1
