# generated using pymatgen
data_PrHo2Co8TcP6
_symmetry_space_group_name_H-M   'P 1'
_cell_length_a   3.74566400
_cell_length_b   10.60617100
_cell_length_c   12.31620200
_cell_angle_alpha   90.00000000
_cell_angle_beta   90.00000000
_cell_angle_gamma   90.00000000
_symmetry_Int_Tables_number   1
_chemical_formula_structural   PrHo2Co8TcP6
_chemical_formula_sum   'Pr2 Ho4 Co16 Tc2 P12'
_cell_volume   489.28763991
_cell_formula_units_Z   2
loop_
 _symmetry_equiv_pos_site_id
 _symmetry_equiv_pos_as_xyz
  1  'x, y, z'
loop_
 _atom_site_type_symbol
 _atom_site_label
 _atom_site_symmetry_multiplicity
 _atom_site_fract_x
 _atom_site_fract_y
 _atom_site_fract_z
 _atom_site_occupancy
  Pr  Pr0  1  0.000000  0.500000  0.524514  1
  Pr  Pr1  1  0.500000  0.000000  0.475486  1
  Ho  Ho2  1  0.500000  0.817319  0.204383  1
  Ho  Ho3  1  0.500000  0.182681  0.204383  1
  Ho  Ho4  1  0.000000  0.682681  0.795617  1
  Ho  Ho5  1  0.000000  0.317319  0.795617  1
  Co  Co6  1  0.000000  0.500000  0.987116  1
  Co  Co7  1  0.500000  0.000000  0.012884  1
  Co  Co8  1  0.500000  0.295926  0.428955  1
  Co  Co9  1  0.500000  0.704074  0.428955  1
  Co  Co10  1  0.000000  0.204074  0.571045  1
  Co  Co11  1  0.000000  0.795926  0.571045  1
  Co  Co12  1  0.500000  0.879598  0.711383  1
  Co  Co13  1  0.500000  0.120402  0.711383  1
  Co  Co14  1  0.000000  0.620402  0.288617  1
  Co  Co15  1  0.000000  0.379598  0.288617  1
  Co  Co16  1  0.500000  0.332008  0.989997  1
  Co  Co17  1  0.500000  0.667992  0.989997  1
  Co  Co18  1  0.000000  0.167992  0.010003  1
  Co  Co19  1  0.000000  0.832008  0.010003  1
  Co  Co20  1  0.500000  0.500000  0.706678  1
  Co  Co21  1  0.000000  0.000000  0.293322  1
  Tc  Tc22  1  0.500000  0.500000  0.153957  1
  Tc  Tc23  1  0.000000  0.000000  0.846043  1
  P  P24  1  0.500000  0.307415  0.618369  1
  P  P25  1  0.500000  0.692585  0.618369  1
  P  P26  1  0.000000  0.192585  0.381631  1
  P  P27  1  0.000000  0.807415  0.381631  1
  P  P28  1  0.500000  0.500000  0.882540  1
  P  P29  1  0.000000  0.000000  0.117460  1
  P  P30  1  0.500000  0.846017  0.893979  1
  P  P31  1  0.500000  0.153983  0.893979  1
  P  P32  1  0.000000  0.653983  0.106021  1
  P  P33  1  0.000000  0.346017  0.106021  1
  P  P34  1  0.500000  0.500000  0.343480  1
  P  P35  1  0.000000  0.000000  0.656520  1
