# generated using pymatgen
data_Ho4FeOs6W
_symmetry_space_group_name_H-M   'P 1'
_cell_length_a   5.24965390
_cell_length_b   5.24965435
_cell_length_c   8.87946200
_cell_angle_alpha   90.00000000
_cell_angle_beta   90.00000000
_cell_angle_gamma   117.48665951
_symmetry_Int_Tables_number   1
_chemical_formula_structural   Ho4FeOs6W
_chemical_formula_sum   'Ho4 Fe1 Os6 W1'
_cell_volume   217.08488356
_cell_formula_units_Z   1
loop_
 _symmetry_equiv_pos_site_id
 _symmetry_equiv_pos_as_xyz
  1  'x, y, z'
loop_
 _atom_site_type_symbol
 _atom_site_label
 _atom_site_symmetry_multiplicity
 _atom_site_fract_x
 _atom_site_fract_y
 _atom_site_fract_z
 _atom_site_occupancy
  Ho  Ho0  1  0.327567  0.672433  0.439675  1
  Ho  Ho1  1  0.667239  0.332761  0.566584  1
  Ho  Ho2  1  0.667239  0.332761  0.933416  1
  Ho  Ho3  1  0.327567  0.672433  0.060325  1
  Fe  Fe4  1  0.170880  0.829120  0.750000  1
  Os  Os5  1  0.994809  0.005191  0.504691  1
  Os  Os6  1  0.994809  0.005191  0.995309  1
  Os  Os7  1  0.824574  0.649320  0.250000  1
  Os  Os8  1  0.350680  0.175426  0.250000  1
  Os  Os9  1  0.178441  0.342774  0.750000  1
  Os  Os10  1  0.657226  0.821559  0.750000  1
  W  W11  1  0.838969  0.161031  0.250000  1
