# generated using pymatgen
data_Li8Nd7ZrPt8
_symmetry_space_group_name_H-M   'P 1'
_cell_length_a   9.67638315
_cell_length_b   9.67638275
_cell_length_c   7.25635000
_cell_angle_alpha   90.27951719
_cell_angle_beta   89.72048282
_cell_angle_gamma   131.01122388
_symmetry_Int_Tables_number   1
_chemical_formula_structural   Li8Nd7ZrPt8
_chemical_formula_sum   'Li8 Nd7 Zr1 Pt8'
_cell_volume   512.67715968
_cell_formula_units_Z   1
loop_
 _symmetry_equiv_pos_site_id
 _symmetry_equiv_pos_as_xyz
  1  'x, y, z'
loop_
 _atom_site_type_symbol
 _atom_site_label
 _atom_site_symmetry_multiplicity
 _atom_site_fract_x
 _atom_site_fract_y
 _atom_site_fract_z
 _atom_site_occupancy
  Li  Li0  1  0.849600  0.150400  0.872874  1
  Li  Li1  1  0.839981  0.648342  0.626292  1
  Li  Li2  1  0.351658  0.160019  0.626292  1
  Li  Li3  1  0.148947  0.851053  0.378762  1
  Li  Li4  1  0.156052  0.348661  0.129407  1
  Li  Li5  1  0.651339  0.843948  0.129407  1
  Li  Li6  1  0.649986  0.350014  0.385598  1
  Li  Li7  1  0.347740  0.652260  0.877470  1
  Nd  Nd8  1  0.529593  0.960341  0.550995  1
  Nd  Nd9  1  0.039659  0.470407  0.550995  1
  Nd  Nd10  1  0.531909  0.468091  0.952795  1
  Nd  Nd11  1  0.466898  0.033106  0.054402  1
  Nd  Nd12  1  0.966894  0.533102  0.054402  1
  Nd  Nd13  1  0.965872  0.034128  0.453126  1
  Nd  Nd14  1  0.031056  0.968944  0.956041  1
  Zr  Zr15  1  0.465330  0.534670  0.445743  1
  Pt  Pt16  1  0.814999  0.185001  0.254928  1
  Pt  Pt17  1  0.798350  0.679882  0.256706  1
  Pt  Pt18  1  0.320118  0.201650  0.256706  1
  Pt  Pt19  1  0.184402  0.815598  0.761269  1
  Pt  Pt20  1  0.204323  0.327641  0.728742  1
  Pt  Pt21  1  0.672359  0.795677  0.728742  1
  Pt  Pt22  1  0.688521  0.311479  0.762543  1
  Pt  Pt23  1  0.324413  0.675587  0.263766  1
