# generated using pymatgen
data_CaNdAl20OsRh3
_symmetry_space_group_name_H-M   'P 1'
_cell_length_a   6.89262636
_cell_length_b   6.89478966
_cell_length_c   9.16917489
_cell_angle_alpha   90.17784436
_cell_angle_beta   90.20877427
_cell_angle_gamma   97.22348720
_symmetry_Int_Tables_number   1
_chemical_formula_structural   CaNdAl20OsRh3
_chemical_formula_sum   'Ca1 Nd1 Al20 Os1 Rh3'
_cell_volume   432.28452550
_cell_formula_units_Z   1
loop_
 _symmetry_equiv_pos_site_id
 _symmetry_equiv_pos_as_xyz
  1  'x, y, z'
loop_
 _atom_site_type_symbol
 _atom_site_label
 _atom_site_symmetry_multiplicity
 _atom_site_fract_x
 _atom_site_fract_y
 _atom_site_fract_z
 _atom_site_occupancy
  Ca  Ca0  1  0.870387  0.126615  0.749893  1
  Nd  Nd1  1  0.127073  0.875490  0.249708  1
  Al  Al2  1  0.620779  0.376159  0.549719  1
  Al  Al3  1  0.380093  0.622493  0.450782  1
  Al  Al4  1  0.379774  0.621054  0.051020  1
  Al  Al5  1  0.621619  0.377752  0.948513  1
  Al  Al6  1  0.223292  0.224046  0.500773  1
  Al  Al7  1  0.775879  0.777873  0.501485  1
  Al  Al8  1  0.773741  0.775579  0.997440  1
  Al  Al9  1  0.224864  0.225806  0.999740  1
  Al  Al10  1  0.842023  0.158354  0.102622  1
  Al  Al11  1  0.158490  0.840857  0.895488  1
  Al  Al12  1  0.158403  0.841989  0.603068  1
  Al  Al13  1  0.841866  0.157207  0.398907  1
  Al  Al14  1  0.855642  0.585805  0.749467  1
  Al  Al15  1  0.142706  0.410240  0.250691  1
  Al  Al16  1  0.413346  0.143327  0.749835  1
  Al  Al17  1  0.591068  0.858135  0.250127  1
  Al  Al18  1  0.224681  0.480599  0.749851  1
  Al  Al19  1  0.774508  0.517961  0.250210  1
  Al  Al20  1  0.519244  0.777496  0.746631  1
  Al  Al21  1  0.482569  0.223841  0.253410  1
  Os  Os22  1  0.498704  0.999623  0.499878  1
  Rh  Rh23  1  0.000039  0.500801  0.499883  1
  Rh  Rh24  1  0.000178  0.500939  0.000534  1
  Rh  Rh25  1  0.499032  0.999959  0.000327  1
