# generated using pymatgen
data_PrZnSn5Ir4
_symmetry_space_group_name_H-M   'P 1'
_cell_length_a   6.99512717
_cell_length_b   6.91980379
_cell_length_c   6.94227000
_cell_angle_alpha   119.46349049
_cell_angle_beta   119.82576175
_cell_angle_gamma   90.74072181
_symmetry_Int_Tables_number   1
_chemical_formula_structural   PrZnSn5Ir4
_chemical_formula_sum   'Pr1 Zn1 Sn5 Ir4'
_cell_volume   238.61241448
_cell_formula_units_Z   1
loop_
 _symmetry_equiv_pos_site_id
 _symmetry_equiv_pos_as_xyz
  1  'x, y, z'
loop_
 _atom_site_type_symbol
 _atom_site_label
 _atom_site_symmetry_multiplicity
 _atom_site_fract_x
 _atom_site_fract_y
 _atom_site_fract_z
 _atom_site_occupancy
  Pr  Pr0  1  0.998417  0.982497  0.000000  1
  Zn  Zn1  1  0.878934  0.527504  0.000000  1
  Sn  Sn2  1  0.536591  0.874369  0.000000  1
  Sn  Sn3  1  0.457553  0.465709  0.334352  1
  Sn  Sn4  1  0.508596  0.006861  0.507858  1
  Sn  Sn5  1  0.000738  0.499003  0.492142  1
  Sn  Sn6  1  0.123202  0.131358  0.665649  1
  Ir  Ir7  1  0.600789  0.245633  0.000000  1
  Ir  Ir8  1  0.239313  0.609957  0.000000  1
  Ir  Ir9  1  0.755122  0.755745  0.354377  1
  Ir  Ir10  1  0.400745  0.401367  0.645623  1
