# generated using pymatgen
data_EuUF7
_symmetry_space_group_name_H-M   'P 1'
_cell_length_a   6.22744700
_cell_length_b   6.65959288
_cell_length_c   9.03437000
_cell_angle_alpha   101.60882613
_cell_angle_beta   90.00000000
_cell_angle_gamma   90.00000000
_symmetry_Int_Tables_number   1
_chemical_formula_structural   EuUF7
_chemical_formula_sum   'Eu2 U2 F14'
_cell_volume   367.01148823
_cell_formula_units_Z   2
loop_
 _symmetry_equiv_pos_site_id
 _symmetry_equiv_pos_as_xyz
  1  'x, y, z'
loop_
 _atom_site_type_symbol
 _atom_site_label
 _atom_site_symmetry_multiplicity
 _atom_site_fract_x
 _atom_site_fract_y
 _atom_site_fract_z
 _atom_site_occupancy
  Eu  Eu0  1  0.699652  0.645803  0.676549  1
  Eu  Eu1  1  0.199652  0.354197  0.323451  1
  U  U2  1  0.705346  0.817867  0.224025  1
  U  U3  1  0.205346  0.182133  0.775975  1
  F  F4  1  0.928994  0.481625  0.490957  1
  F  F5  1  0.428994  0.518375  0.509043  1
  F  F6  1  0.437353  0.939998  0.757692  1
  F  F7  1  0.937353  0.060002  0.242308  1
  F  F8  1  0.961651  0.948986  0.754696  1
  F  F9  1  0.461651  0.051014  0.245304  1
  F  F10  1  0.968657  0.418040  0.789247  1
  F  F11  1  0.468657  0.581960  0.210753  1
  F  F12  1  0.702661  0.771075  0.984784  1
  F  F13  1  0.202661  0.228925  0.015216  1
  F  F14  1  0.708058  0.855995  0.462808  1
  F  F15  1  0.208058  0.144005  0.537192  1
  F  F16  1  0.463989  0.398176  0.789398  1
  F  F17  1  0.963989  0.601824  0.210602  1
