# generated using pymatgen
data_ThNi9P5
_symmetry_space_group_name_H-M   'P 1'
_cell_length_a   6.46947700
_cell_length_b   6.46947774
_cell_length_c   10.71717600
_cell_angle_alpha   90.00000000
_cell_angle_beta   90.00000000
_cell_angle_gamma   120.00000132
_symmetry_Int_Tables_number   1
_chemical_formula_structural   ThNi9P5
_chemical_formula_sum   'Th2 Ni18 P10'
_cell_volume   388.46275429
_cell_formula_units_Z   2
loop_
 _symmetry_equiv_pos_site_id
 _symmetry_equiv_pos_as_xyz
  1  'x, y, z'
loop_
 _atom_site_type_symbol
 _atom_site_label
 _atom_site_symmetry_multiplicity
 _atom_site_fract_x
 _atom_site_fract_y
 _atom_site_fract_z
 _atom_site_occupancy
  Th  Th0  1  0.000000  0.000000  0.500000  1
  Th  Th1  1  0.000000  0.000000  0.000000  1
  Ni  Ni2  1  0.464767  0.929533  0.894216  1
  Ni  Ni3  1  0.929533  0.464767  0.105784  1
  Ni  Ni4  1  0.535233  0.070467  0.105784  1
  Ni  Ni5  1  0.070467  0.535233  0.605784  1
  Ni  Ni6  1  0.201339  0.402677  0.250000  1
  Ni  Ni7  1  0.798661  0.201339  0.750000  1
  Ni  Ni8  1  0.402677  0.201339  0.750000  1
  Ni  Ni9  1  0.597323  0.798661  0.250000  1
  Ni  Ni10  1  0.201339  0.798661  0.250000  1
  Ni  Ni11  1  0.798661  0.597323  0.750000  1
  Ni  Ni12  1  0.464767  0.929533  0.605784  1
  Ni  Ni13  1  0.535233  0.464767  0.394216  1
  Ni  Ni14  1  0.929533  0.464767  0.394216  1
  Ni  Ni15  1  0.070467  0.535233  0.894216  1
  Ni  Ni16  1  0.464767  0.535233  0.894216  1
  Ni  Ni17  1  0.535233  0.070467  0.394216  1
  Ni  Ni18  1  0.535233  0.464767  0.105784  1
  Ni  Ni19  1  0.464767  0.535233  0.605784  1
  P  P20  1  0.173529  0.347057  0.750000  1
  P  P21  1  0.826471  0.173529  0.250000  1
  P  P22  1  0.173529  0.826471  0.750000  1
  P  P23  1  0.826471  0.652943  0.250000  1
  P  P24  1  0.333333  0.666667  0.438553  1
  P  P25  1  0.666667  0.333333  0.938553  1
  P  P26  1  0.666667  0.333333  0.561447  1
  P  P27  1  0.333333  0.666667  0.061447  1
  P  P28  1  0.347057  0.173529  0.250000  1
  P  P29  1  0.652943  0.826471  0.750000  1
