# generated using pymatgen
data_Dy3YCo17(Si4Ni)3
_symmetry_space_group_name_H-M   'P 1'
_cell_length_a   3.73247500
_cell_length_b   6.77161165
_cell_length_c   18.37148501
_cell_angle_alpha   89.88283454
_cell_angle_beta   90.00000000
_cell_angle_gamma   90.00000000
_symmetry_Int_Tables_number   1
_chemical_formula_structural   Dy3YCo17(Si4Ni)3
_chemical_formula_sum   'Dy3 Y1 Co17 Si12 Ni3'
_cell_volume   464.33594662
_cell_formula_units_Z   1
loop_
 _symmetry_equiv_pos_site_id
 _symmetry_equiv_pos_as_xyz
  1  'x, y, z'
loop_
 _atom_site_type_symbol
 _atom_site_label
 _atom_site_symmetry_multiplicity
 _atom_site_fract_x
 _atom_site_fract_y
 _atom_site_fract_z
 _atom_site_occupancy
  Dy  Dy0  1  0.250000  0.872875  0.356877  1
  Dy  Dy1  1  0.750000  0.373135  0.142301  1
  Dy  Dy2  1  0.250000  0.625488  0.857279  1
  Y  Y3  1  0.750000  0.127203  0.643381  1
  Co  Co4  1  0.250000  0.056818  0.203526  1
  Co  Co5  1  0.750000  0.942752  0.795878  1
  Co  Co6  1  0.750000  0.557405  0.294997  1
  Co  Co7  1  0.250000  0.442659  0.705128  1
  Co  Co8  1  0.250000  0.625241  0.488475  1
  Co  Co9  1  0.750000  0.374591  0.511484  1
  Co  Co10  1  0.750000  0.121573  0.009696  1
  Co  Co11  1  0.250000  0.873733  0.990064  1
  Co  Co12  1  0.250000  0.678986  0.201995  1
  Co  Co13  1  0.750000  0.321772  0.799016  1
  Co  Co14  1  0.750000  0.178391  0.297169  1
  Co  Co15  1  0.250000  0.820928  0.702800  1
  Co  Co16  1  0.250000  0.358242  0.386391  1
  Co  Co17  1  0.750000  0.642000  0.613345  1
  Co  Co18  1  0.750000  0.864274  0.111236  1
  Co  Co19  1  0.250000  0.136430  0.889170  1
  Co  Co20  1  0.250000  0.374710  0.005163  1
  Si  Si21  1  0.250000  0.092704  0.080688  1
  Si  Si22  1  0.750000  0.911332  0.917822  1
  Si  Si23  1  0.750000  0.584019  0.417758  1
  Si  Si24  1  0.250000  0.415836  0.582239  1
  Si  Si25  1  0.250000  0.649604  0.077247  1
  Si  Si26  1  0.750000  0.349287  0.924488  1
  Si  Si27  1  0.750000  0.155651  0.422311  1
  Si  Si28  1  0.250000  0.844293  0.577507  1
  Si  Si29  1  0.250000  0.367211  0.262849  1
  Si  Si30  1  0.750000  0.631997  0.736890  1
  Si  Si31  1  0.750000  0.868184  0.235839  1
  Si  Si32  1  0.250000  0.132167  0.764313  1
  Ni  Ni33  1  0.750000  0.628598  0.994965  1
  Ni  Ni34  1  0.750000  0.873902  0.494420  1
  Ni  Ni35  1  0.250000  0.126006  0.505292  1
