# generated using pymatgen
data_Eu8TmLu11Si16
_symmetry_space_group_name_H-M   'P 1'
_cell_length_a   7.53857730
_cell_length_b   7.85108495
_cell_length_c   14.88804600
_cell_angle_alpha   89.98729450
_cell_angle_beta   90.01617353
_cell_angle_gamma   90.02518105
_symmetry_Int_Tables_number   1
_chemical_formula_structural   Eu8TmLu11Si16
_chemical_formula_sum   'Eu8 Tm1 Lu11 Si16'
_cell_volume   881.16390943
_cell_formula_units_Z   1
loop_
 _symmetry_equiv_pos_site_id
 _symmetry_equiv_pos_as_xyz
  1  'x, y, z'
loop_
 _atom_site_type_symbol
 _atom_site_label
 _atom_site_symmetry_multiplicity
 _atom_site_fract_x
 _atom_site_fract_y
 _atom_site_fract_z
 _atom_site_occupancy
  Eu  Eu0  1  0.017750  0.174528  0.095655  1
  Eu  Eu1  1  0.981886  0.822954  0.903761  1
  Eu  Eu2  1  0.482298  0.676599  0.904247  1
  Eu  Eu3  1  0.981859  0.823970  0.595817  1
  Eu  Eu4  1  0.517751  0.323478  0.096007  1
  Eu  Eu5  1  0.017581  0.176533  0.404269  1
  Eu  Eu6  1  0.518004  0.323913  0.403905  1
  Eu  Eu7  1  0.482098  0.677159  0.595782  1
  Tm  Tm8  1  0.321037  0.176864  0.622504  1
  Lu  Lu9  1  0.155391  0.514987  0.750279  1
  Lu  Lu10  1  0.844552  0.485416  0.250012  1
  Lu  Lu11  1  0.344679  0.014036  0.250401  1
  Lu  Lu12  1  0.655610  0.986001  0.750058  1
  Lu  Lu13  1  0.678668  0.823842  0.377115  1
  Lu  Lu14  1  0.178455  0.675970  0.377200  1
  Lu  Lu15  1  0.678409  0.823468  0.122810  1
  Lu  Lu16  1  0.821438  0.324340  0.622695  1
  Lu  Lu17  1  0.321721  0.176070  0.877395  1
  Lu  Lu18  1  0.821534  0.324232  0.877401  1
  Lu  Lu19  1  0.178569  0.675894  0.122793  1
  Si  Si20  1  0.027333  0.118197  0.750361  1
  Si  Si21  1  0.972209  0.881457  0.249987  1
  Si  Si22  1  0.472112  0.617866  0.249987  1
  Si  Si23  1  0.528273  0.382608  0.750188  1
  Si  Si24  1  0.271082  0.888008  0.750295  1
  Si  Si25  1  0.728781  0.111448  0.249949  1
  Si  Si26  1  0.228426  0.387944  0.249985  1
  Si  Si27  1  0.771575  0.612250  0.750028  1
  Si  Si28  1  0.142867  0.468267  0.540470  1
  Si  Si29  1  0.855735  0.533171  0.459271  1
  Si  Si30  1  0.356592  0.967172  0.458787  1
  Si  Si31  1  0.856409  0.532127  0.040757  1
  Si  Si32  1  0.644586  0.032802  0.540222  1
  Si  Si33  1  0.144061  0.466915  0.959554  1
  Si  Si34  1  0.644088  0.032577  0.959438  1
  Si  Si35  1  0.356580  0.966941  0.040614  1
