# generated using pymatgen
data_Li3Fe3Pd10
_symmetry_space_group_name_H-M   'P 1'
_cell_length_a   4.11245400
_cell_length_b   5.33067896
_cell_length_c   10.41924037
_cell_angle_alpha   88.39410605
_cell_angle_beta   90.00000000
_cell_angle_gamma   90.00000000
_symmetry_Int_Tables_number   1
_chemical_formula_structural   Li3Fe3Pd10
_chemical_formula_sum   'Li3 Fe3 Pd10'
_cell_volume   228.32266771
_cell_formula_units_Z   1
loop_
 _symmetry_equiv_pos_site_id
 _symmetry_equiv_pos_as_xyz
  1  'x, y, z'
loop_
 _atom_site_type_symbol
 _atom_site_label
 _atom_site_symmetry_multiplicity
 _atom_site_fract_x
 _atom_site_fract_y
 _atom_site_fract_z
 _atom_site_occupancy
  Li  Li0  1  0.000000  0.000000  0.000000  1
  Li  Li1  1  0.500000  0.167801  0.365977  1
  Li  Li2  1  0.500000  0.832199  0.634023  1
  Fe  Fe3  1  0.000000  0.500000  0.500000  1
  Fe  Fe4  1  0.500000  0.671013  0.137695  1
  Fe  Fe5  1  0.500000  0.328987  0.862305  1
  Pd  Pd6  1  0.500000  0.181849  0.107010  1
  Pd  Pd7  1  0.500000  0.818151  0.892990  1
  Pd  Pd8  1  0.500000  0.675951  0.387956  1
  Pd  Pd9  1  0.500000  0.324049  0.612044  1
  Pd  Pd10  1  0.000000  0.000000  0.500000  1
  Pd  Pd11  1  0.000000  0.500000  0.000000  1
  Pd  Pd12  1  0.000000  0.897152  0.236229  1
  Pd  Pd13  1  0.000000  0.102848  0.763771  1
  Pd  Pd14  1  0.000000  0.396168  0.260809  1
  Pd  Pd15  1  0.000000  0.603832  0.739191  1
