# generated using pymatgen
data_Sm7EuSe16
_symmetry_space_group_name_H-M   'P 1'
_cell_length_a   8.34993343
_cell_length_b   8.37343019
_cell_length_c   8.60860600
_cell_angle_alpha   89.83235881
_cell_angle_beta   90.01144826
_cell_angle_gamma   90.20612086
_symmetry_Int_Tables_number   1
_chemical_formula_structural   Sm7EuSe16
_chemical_formula_sum   'Sm7 Eu1 Se16'
_cell_volume   601.88645626
_cell_formula_units_Z   1
loop_
 _symmetry_equiv_pos_site_id
 _symmetry_equiv_pos_as_xyz
  1  'x, y, z'
loop_
 _atom_site_type_symbol
 _atom_site_label
 _atom_site_symmetry_multiplicity
 _atom_site_fract_x
 _atom_site_fract_y
 _atom_site_fract_z
 _atom_site_occupancy
  Sm  Sm0  1  0.259922  0.001421  0.721910  1
  Sm  Sm1  1  0.738744  0.500653  0.722912  1
  Sm  Sm2  1  0.759113  0.000268  0.718108  1
  Sm  Sm3  1  0.513186  0.249066  0.277324  1
  Sm  Sm4  1  0.987691  0.748879  0.278607  1
  Sm  Sm5  1  0.487207  0.748377  0.277323  1
  Sm  Sm6  1  0.013427  0.249360  0.277224  1
  Eu  Eu7  1  0.239022  0.501822  0.721903  1
  Se  Se8  1  0.506759  0.245569  0.630030  1
  Se  Se9  1  0.992673  0.753471  0.630376  1
  Se  Se10  1  0.500979  0.754120  0.629697  1
  Se  Se11  1  0.999220  0.245258  0.629544  1
  Se  Se12  1  0.746786  0.500699  0.370568  1
  Se  Se13  1  0.753272  0.000355  0.365468  1
  Se  Se14  1  0.246014  0.501171  0.364237  1
  Se  Se15  1  0.253362  0.000473  0.369819  1
  Se  Se16  1  0.216473  0.758623  0.004852  1
  Se  Se17  1  0.285191  0.255627  0.005061  1
  Se  Se18  1  0.782512  0.254560  0.003910  1
  Se  Se19  1  0.717630  0.755317  0.003372  1
  Se  Se20  1  0.967739  0.493956  0.999838  1
  Se  Se21  1  0.530274  0.993178  0.998046  1
  Se  Se22  1  0.472937  0.493608  0.000579  1
  Se  Se23  1  0.029867  0.994168  0.999291  1
