# generated using pymatgen
data_Eu6Re2BrN6
_symmetry_space_group_name_H-M   'P 1'
_cell_length_a   6.23018868
_cell_length_b   6.23018839
_cell_length_c   6.23018800
_cell_angle_alpha   95.37590433
_cell_angle_beta   95.37589485
_cell_angle_gamma   95.37591078
_symmetry_Int_Tables_number   1
_chemical_formula_structural   Eu6Re2BrN6
_chemical_formula_sum   'Eu6 Re2 Br1 N6'
_cell_volume   238.41939378
_cell_formula_units_Z   1
loop_
 _symmetry_equiv_pos_site_id
 _symmetry_equiv_pos_as_xyz
  1  'x, y, z'
loop_
 _atom_site_type_symbol
 _atom_site_label
 _atom_site_symmetry_multiplicity
 _atom_site_fract_x
 _atom_site_fract_y
 _atom_site_fract_z
 _atom_site_occupancy
  Eu  Eu0  1  0.607444  0.116929  0.778630  1
  Eu  Eu1  1  0.116929  0.778630  0.607444  1
  Eu  Eu2  1  0.778630  0.607444  0.116929  1
  Eu  Eu3  1  0.392556  0.883071  0.221370  1
  Eu  Eu4  1  0.883071  0.221370  0.392556  1
  Eu  Eu5  1  0.221370  0.392556  0.883071  1
  Re  Re6  1  0.624415  0.624415  0.624415  1
  Re  Re7  1  0.375585  0.375585  0.375585  1
  Br  Br8  1  0.000000  0.000000  0.000000  1
  N  N9  1  0.734363  0.862059  0.474731  1
  N  N10  1  0.862059  0.474731  0.734363  1
  N  N11  1  0.474731  0.734363  0.862059  1
  N  N12  1  0.265637  0.137941  0.525269  1
  N  N13  1  0.137941  0.525269  0.265637  1
  N  N14  1  0.525269  0.265637  0.137941  1
