# generated using pymatgen
data_Dy6Ho2Tc3B24Os
_symmetry_space_group_name_H-M   'P 1'
_cell_length_a   3.67514500
_cell_length_b   9.15420468
_cell_length_c   11.54192409
_cell_angle_alpha   89.96324609
_cell_angle_beta   90.00000000
_cell_angle_gamma   90.00000000
_symmetry_Int_Tables_number   1
_chemical_formula_structural   Dy6Ho2Tc3B24Os
_chemical_formula_sum   'Dy6 Ho2 Tc3 B24 Os1'
_cell_volume   388.30521335
_cell_formula_units_Z   1
loop_
 _symmetry_equiv_pos_site_id
 _symmetry_equiv_pos_as_xyz
  1  'x, y, z'
loop_
 _atom_site_type_symbol
 _atom_site_label
 _atom_site_symmetry_multiplicity
 _atom_site_fract_x
 _atom_site_fract_y
 _atom_site_fract_z
 _atom_site_occupancy
  Dy  Dy0  1  0.000000  0.323914  0.413710  1
  Dy  Dy1  1  0.000000  0.675259  0.584341  1
  Dy  Dy2  1  0.000000  0.822983  0.087269  1
  Dy  Dy3  1  0.000000  0.177834  0.914619  1
  Dy  Dy4  1  0.000000  0.942569  0.369941  1
  Dy  Dy5  1  0.000000  0.058131  0.630070  1
  Ho  Ho6  1  0.000000  0.442961  0.130194  1
  Ho  Ho7  1  0.000000  0.556930  0.869559  1
  Tc  Tc8  1  0.000000  0.638143  0.320507  1
  Tc  Tc9  1  0.000000  0.361875  0.680048  1
  Tc  Tc10  1  0.000000  0.138181  0.178224  1
  B  B11  1  0.500000  0.553224  0.432732  1
  B  B12  1  0.500000  0.446759  0.567003  1
  B  B13  1  0.500000  0.053253  0.067065  1
  B  B14  1  0.500000  0.946145  0.932810  1
  B  B15  1  0.500000  0.748278  0.418629  1
  B  B16  1  0.500000  0.251451  0.581356  1
  B  B17  1  0.500000  0.249148  0.081400  1
  B  B18  1  0.500000  0.751303  0.918358  1
  B  B19  1  0.500000  0.791358  0.265636  1
  B  B20  1  0.500000  0.208828  0.734910  1
  B  B21  1  0.500000  0.291628  0.234435  1
  B  B22  1  0.500000  0.709082  0.765551  1
  B  B23  1  0.500000  0.630952  0.185720  1
  B  B24  1  0.500000  0.368992  0.814793  1
  B  B25  1  0.500000  0.130811  0.313784  1
  B  B26  1  0.500000  0.868771  0.686039  1
  B  B27  1  0.500000  0.982281  0.211727  1
  B  B28  1  0.500000  0.016610  0.788282  1
  B  B29  1  0.500000  0.482393  0.287868  1
  B  B30  1  0.500000  0.517436  0.711922  1
  B  B31  1  0.500000  0.601824  0.028136  1
  B  B32  1  0.500000  0.399140  0.971710  1
  B  B33  1  0.500000  0.102024  0.471677  1
  B  B34  1  0.500000  0.897990  0.528735  1
  Os  Os35  1  0.000000  0.861541  0.821237  1
