# generated using pymatgen
data_Tm10IrRu2Rh3
_symmetry_space_group_name_H-M   'P 1'
_cell_length_a   10.70114100
_cell_length_b   10.70176000
_cell_length_c   6.33564900
_cell_angle_alpha   90.00000000
_cell_angle_beta   90.00098997
_cell_angle_gamma   90.00000000
_symmetry_Int_Tables_number   1
_chemical_formula_structural   Tm10IrRu2Rh3
_chemical_formula_sum   'Tm20 Ir2 Ru4 Rh6'
_cell_volume   725.56512966
_cell_formula_units_Z   2
loop_
 _symmetry_equiv_pos_site_id
 _symmetry_equiv_pos_as_xyz
  1  'x, y, z'
loop_
 _atom_site_type_symbol
 _atom_site_label
 _atom_site_symmetry_multiplicity
 _atom_site_fract_x
 _atom_site_fract_y
 _atom_site_fract_z
 _atom_site_occupancy
  Tm  Tm0  1  0.294340  0.087422  0.376020  1
  Tm  Tm1  1  0.294340  0.912578  0.876020  1
  Tm  Tm2  1  0.705663  0.086228  0.875821  1
  Tm  Tm3  1  0.705663  0.913772  0.375821  1
  Tm  Tm4  1  0.585015  0.793851  0.875994  1
  Tm  Tm5  1  0.585015  0.206149  0.375994  1
  Tm  Tm6  1  0.413070  0.793712  0.376959  1
  Tm  Tm7  1  0.413070  0.206288  0.876959  1
  Tm  Tm8  1  0.206974  0.414529  0.623199  1
  Tm  Tm9  1  0.206974  0.585471  0.123199  1
  Tm  Tm10  1  0.794565  0.413511  0.123819  1
  Tm  Tm11  1  0.794565  0.586489  0.623819  1
  Tm  Tm12  1  0.913819  0.705767  0.123873  1
  Tm  Tm13  1  0.913819  0.294233  0.623873  1
  Tm  Tm14  1  0.087490  0.705560  0.624329  1
  Tm  Tm15  1  0.087490  0.294440  0.124329  1
  Tm  Tm16  1  0.999929  0.999990  0.500011  1
  Tm  Tm17  1  0.999929  0.000010  0.000011  1
  Tm  Tm18  1  0.499576  0.500100  0.000012  1
  Tm  Tm19  1  0.499576  0.499900  0.500012  1
  Ir  Ir20  1  0.347611  0.347032  0.249856  1
  Ir  Ir21  1  0.347611  0.652968  0.749856  1
  Ru  Ru22  1  0.500500  0.000085  0.123052  1
  Ru  Ru23  1  0.500500  0.999915  0.623052  1
  Ru  Ru24  1  0.998982  0.500006  0.876960  1
  Ru  Ru25  1  0.998982  0.499994  0.376960  1
  Rh  Rh26  1  0.847789  0.152226  0.249922  1
  Rh  Rh27  1  0.847789  0.847774  0.749922  1
  Rh  Rh28  1  0.151748  0.151736  0.750056  1
  Rh  Rh29  1  0.151748  0.848264  0.250056  1
  Rh  Rh30  1  0.652929  0.347616  0.750119  1
  Rh  Rh31  1  0.652929  0.652384  0.250119  1
