# generated using pymatgen
data_Sc8P8Ir23
_symmetry_space_group_name_H-M   'P 1'
_cell_length_a   4.00043400
_cell_length_b   8.62113199
_cell_length_c   17.26271643
_cell_angle_alpha   89.87173160
_cell_angle_beta   90.00000000
_cell_angle_gamma   90.00000000
_symmetry_Int_Tables_number   1
_chemical_formula_structural   Sc8P8Ir23
_chemical_formula_sum   'Sc8 P8 Ir23'
_cell_volume   595.35972512
_cell_formula_units_Z   1
loop_
 _symmetry_equiv_pos_site_id
 _symmetry_equiv_pos_as_xyz
  1  'x, y, z'
loop_
 _atom_site_type_symbol
 _atom_site_label
 _atom_site_symmetry_multiplicity
 _atom_site_fract_x
 _atom_site_fract_y
 _atom_site_fract_z
 _atom_site_occupancy
  Sc  Sc0  1  0.500000  0.715356  0.296182  1
  Sc  Sc1  1  0.500000  0.284644  0.703818  1
  Sc  Sc2  1  0.500000  0.221967  0.209878  1
  Sc  Sc3  1  0.500000  0.778033  0.790122  1
  Sc  Sc4  1  0.500000  0.091627  0.393578  1
  Sc  Sc5  1  0.500000  0.908373  0.606422  1
  Sc  Sc6  1  0.500000  0.591112  0.111839  1
  Sc  Sc7  1  0.500000  0.408888  0.888161  1
  P  P8  1  0.000000  0.262391  0.317406  1
  P  P9  1  0.000000  0.737609  0.682594  1
  P  P10  1  0.000000  0.760991  0.187228  1
  P  P11  1  0.000000  0.239009  0.812772  1
  P  P12  1  0.000000  0.868217  0.380591  1
  P  P13  1  0.000000  0.131783  0.619409  1
  P  P14  1  0.000000  0.369292  0.120948  1
  P  P15  1  0.000000  0.630708  0.879052  1
  Ir  Ir16  1  0.500000  0.405839  0.346465  1
  Ir  Ir17  1  0.500000  0.594161  0.653535  1
  Ir  Ir18  1  0.500000  0.908272  0.152500  1
  Ir  Ir19  1  0.500000  0.091728  0.847500  1
  Ir  Ir20  1  0.000000  0.308674  0.452016  1
  Ir  Ir21  1  0.000000  0.691326  0.547984  1
  Ir  Ir22  1  0.000000  0.801971  0.051474  1
  Ir  Ir23  1  0.000000  0.198029  0.948526  1
  Ir  Ir24  1  0.000000  0.599319  0.394339  1
  Ir  Ir25  1  0.000000  0.400681  0.605661  1
  Ir  Ir26  1  0.000000  0.102391  0.104148  1
  Ir  Ir27  1  0.000000  0.897609  0.895852  1
  Ir  Ir28  1  0.500000  0.787416  0.456775  1
  Ir  Ir29  1  0.500000  0.212584  0.543225  1
  Ir  Ir30  1  0.500000  0.294587  0.043885  1
  Ir  Ir31  1  0.500000  0.705413  0.956115  1
  Ir  Ir32  1  0.000000  0.500345  0.238879  1
  Ir  Ir33  1  0.000000  0.499655  0.761121  1
  Ir  Ir34  1  0.000000  0.000910  0.261135  1
  Ir  Ir35  1  0.000000  0.999090  0.738865  1
  Ir  Ir36  1  0.000000  0.000000  0.500000  1
  Ir  Ir37  1  0.000000  0.500000  0.000000  1
  Ir  Ir38  1  0.500000  0.000000  0.000000  1
