# generated using pymatgen
data_Sc12Ga9Cu3C4
_symmetry_space_group_name_H-M   'P 1'
_cell_length_a   8.54149473
_cell_length_b   8.54216706
_cell_length_c   8.54215000
_cell_angle_alpha   59.93051447
_cell_angle_beta   59.93496447
_cell_angle_gamma   59.93334791
_symmetry_Int_Tables_number   1
_chemical_formula_structural   Sc12Ga9Cu3C4
_chemical_formula_sum   'Sc12 Ga9 Cu3 C4'
_cell_volume   440.04092083
_cell_formula_units_Z   1
loop_
 _symmetry_equiv_pos_site_id
 _symmetry_equiv_pos_as_xyz
  1  'x, y, z'
loop_
 _atom_site_type_symbol
 _atom_site_label
 _atom_site_symmetry_multiplicity
 _atom_site_fract_x
 _atom_site_fract_y
 _atom_site_fract_z
 _atom_site_occupancy
  Sc  Sc0  1  0.692332  0.307136  0.692327  1
  Sc  Sc1  1  0.942868  0.557680  0.557648  1
  Sc  Sc2  1  0.556110  0.943333  0.943321  1
  Sc  Sc3  1  0.943329  0.556116  0.943341  1
  Sc  Sc4  1  0.557650  0.557687  0.942868  1
  Sc  Sc5  1  0.943319  0.943341  0.556108  1
  Sc  Sc6  1  0.692350  0.692313  0.307132  1
  Sc  Sc7  1  0.307132  0.692320  0.692352  1
  Sc  Sc8  1  0.693890  0.306667  0.306679  1
  Sc  Sc9  1  0.306681  0.306659  0.693892  1
  Sc  Sc10  1  0.557668  0.942864  0.557673  1
  Sc  Sc11  1  0.306671  0.693884  0.306659  1
  Ga  Ga12  1  0.125000  0.125000  0.125000  1
  Ga  Ga13  1  0.333257  0.333288  0.333259  1
  Ga  Ga14  1  0.246304  0.911626  0.911649  1
  Ga  Ga15  1  0.911647  0.246307  0.911640  1
  Ga  Ga16  1  0.911653  0.911622  0.246302  1
  Ga  Ga17  1  0.338353  0.003693  0.338360  1
  Ga  Ga18  1  0.338347  0.338378  0.003698  1
  Ga  Ga19  1  0.003696  0.338374  0.338351  1
  Ga  Ga20  1  0.916743  0.916712  0.916741  1
  Cu  Cu21  1  0.625000  0.125000  0.125000  1
  Cu  Cu22  1  0.125000  0.625000  0.125000  1
  Cu  Cu23  1  0.125000  0.125000  0.625000  1
  C  C24  1  0.625000  0.625000  0.625000  1
  C  C25  1  0.125000  0.625000  0.625000  1
  C  C26  1  0.625000  0.125000  0.625000  1
  C  C27  1  0.625000  0.625000  0.125000  1
