# generated using pymatgen
data_Li12Y5ErIn6
_symmetry_space_group_name_H-M   'P 1'
_cell_length_a   4.84657100
_cell_length_b   6.84995200
_cell_length_c   14.52884700
_cell_angle_alpha   90.00000000
_cell_angle_beta   90.00013797
_cell_angle_gamma   90.00000000
_symmetry_Int_Tables_number   1
_chemical_formula_structural   Li12Y5ErIn6
_chemical_formula_sum   'Li12 Y5 Er1 In6'
_cell_volume   482.33997653
_cell_formula_units_Z   1
loop_
 _symmetry_equiv_pos_site_id
 _symmetry_equiv_pos_as_xyz
  1  'x, y, z'
loop_
 _atom_site_type_symbol
 _atom_site_label
 _atom_site_symmetry_multiplicity
 _atom_site_fract_x
 _atom_site_fract_y
 _atom_site_fract_z
 _atom_site_occupancy
  Li  Li0  1  0.500000  0.249842  0.000000  1
  Li  Li1  1  0.500000  0.750158  0.000000  1
  Li  Li2  1  0.000583  0.249598  0.166560  1
  Li  Li3  1  0.000583  0.750401  0.166560  1
  Li  Li4  1  0.500577  0.250331  0.333328  1
  Li  Li5  1  0.500577  0.749668  0.333328  1
  Li  Li6  1  0.000000  0.249936  0.500000  1
  Li  Li7  1  0.000000  0.750063  0.500000  1
  Li  Li8  1  0.499420  0.250331  0.666671  1
  Li  Li9  1  0.499420  0.749668  0.666671  1
  Li  Li10  1  0.999420  0.249598  0.833440  1
  Li  Li11  1  0.999420  0.750401  0.833440  1
  Y  Y12  1  0.500638  0.500000  0.166685  1
  Y  Y13  1  0.000643  0.000000  0.333405  1
  Y  Y14  1  0.500000  0.500000  0.500000  1
  Y  Y15  1  0.999356  0.000000  0.666595  1
  Y  Y16  1  0.499363  0.500000  0.833316  1
  Er  Er17  1  0.000000  0.000000  0.000000  1
  In  In18  1  0.000000  0.500000  0.000000  1
  In  In19  1  0.500470  0.000000  0.166284  1
  In  In20  1  0.000465  0.500000  0.333490  1
  In  In21  1  0.500000  0.000000  0.500000  1
  In  In22  1  0.999536  0.500000  0.666510  1
  In  In23  1  0.499533  0.000000  0.833715  1
