# generated using pymatgen
data_DyY3Tc3PtF28
_symmetry_space_group_name_H-M   'P 1'
_cell_length_a   5.59402597
_cell_length_b   8.93035412
_cell_length_c   12.04162601
_cell_angle_alpha   62.47590832
_cell_angle_beta   90.04729013
_cell_angle_gamma   90.03260255
_symmetry_Int_Tables_number   1
_chemical_formula_structural   DyY3Tc3PtF28
_chemical_formula_sum   'Dy1 Y3 Tc3 Pt1 F28'
_cell_volume   533.47239191
_cell_formula_units_Z   1
loop_
 _symmetry_equiv_pos_site_id
 _symmetry_equiv_pos_as_xyz
  1  'x, y, z'
loop_
 _atom_site_type_symbol
 _atom_site_label
 _atom_site_symmetry_multiplicity
 _atom_site_fract_x
 _atom_site_fract_y
 _atom_site_fract_z
 _atom_site_occupancy
  Dy  Dy0  1  0.259567  0.813939  0.264873  1
  Y  Y1  1  0.741015  0.186786  0.734942  1
  Y  Y2  1  0.759436  0.185863  0.235449  1
  Y  Y3  1  0.239817  0.814506  0.763019  1
  Tc  Tc4  1  0.758094  0.726840  0.043041  1
  Tc  Tc5  1  0.242215  0.273898  0.956498  1
  Tc  Tc6  1  0.258089  0.274106  0.456466  1
  Pt  Pt7  1  0.740435  0.727162  0.543036  1
  F  F8  1  0.934680  0.703353  0.415758  1
  F  F9  1  0.055252  0.292640  0.581747  1
  F  F10  1  0.445435  0.293107  0.081783  1
  F  F11  1  0.553664  0.707369  0.918350  1
  F  F12  1  0.476554  0.729896  0.139495  1
  F  F13  1  0.524276  0.270695  0.860900  1
  F  F14  1  0.975692  0.270896  0.360587  1
  F  F15  1  0.031596  0.726102  0.635269  1
  F  F16  1  0.958334  0.745634  0.171223  1
  F  F17  1  0.044549  0.254782  0.827975  1
  F  F18  1  0.456577  0.255509  0.327890  1
  F  F19  1  0.552098  0.743703  0.675532  1
  F  F20  1  0.772218  0.479678  0.140541  1
  F  F21  1  0.227777  0.521148  0.858637  1
  F  F22  1  0.270911  0.521605  0.359226  1
  F  F23  1  0.728346  0.479447  0.641877  1
  F  F24  1  0.949085  0.279141  0.045859  1
  F  F25  1  0.050459  0.721542  0.953095  1
  F  F26  1  0.442074  0.720166  0.457497  1
  F  F27  1  0.551259  0.279718  0.545443  1
  F  F28  1  0.742047  0.975047  0.450126  1
  F  F29  1  0.258688  0.027653  0.552156  1
  F  F30  1  0.242367  0.027426  0.053411  1
  F  F31  1  0.758474  0.973149  0.947027  1
  F  F32  1  0.582590  0.969222  0.232861  1
  F  F33  1  0.416541  0.029420  0.768192  1
  F  F34  1  0.083484  0.028201  0.269329  1
  F  F35  1  0.916307  0.970652  0.730891  1
