# generated using pymatgen
data_YbSc2Ni9
_symmetry_space_group_name_H-M   'P 1'
_cell_length_a   8.35696378
_cell_length_b   8.35696386
_cell_length_c   8.35696393
_cell_angle_alpha   33.55266445
_cell_angle_beta   33.55266213
_cell_angle_gamma   33.55266553
_symmetry_Int_Tables_number   1
_chemical_formula_structural   YbSc2Ni9
_chemical_formula_sum   'Yb1 Sc2 Ni9'
_cell_volume   158.80683326
_cell_formula_units_Z   1
loop_
 _symmetry_equiv_pos_site_id
 _symmetry_equiv_pos_as_xyz
  1  'x, y, z'
loop_
 _atom_site_type_symbol
 _atom_site_label
 _atom_site_symmetry_multiplicity
 _atom_site_fract_x
 _atom_site_fract_y
 _atom_site_fract_z
 _atom_site_occupancy
  Yb  Yb0  1  0.000000  0.000000  0.000000  1
  Sc  Sc1  1  0.860265  0.860265  0.860265  1
  Sc  Sc2  1  0.139735  0.139735  0.139735  1
  Ni  Ni3  1  0.414328  0.918472  0.414328  1
  Ni  Ni4  1  0.414328  0.414328  0.918472  1
  Ni  Ni5  1  0.918472  0.414328  0.414328  1
  Ni  Ni6  1  0.585672  0.081528  0.585672  1
  Ni  Ni7  1  0.585672  0.585672  0.081528  1
  Ni  Ni8  1  0.081528  0.585672  0.585672  1
  Ni  Ni9  1  0.666780  0.666780  0.666780  1
  Ni  Ni10  1  0.333220  0.333220  0.333220  1
  Ni  Ni11  1  0.500000  0.500000  0.500000  1
