# generated using pymatgen
data_CaTm(NiIr)2
_symmetry_space_group_name_H-M   'P 1'
_cell_length_a   5.19752717
_cell_length_b   5.19752662
_cell_length_c   5.09815900
_cell_angle_alpha   60.63043059
_cell_angle_beta   60.63043397
_cell_angle_gamma   61.72388810
_symmetry_Int_Tables_number   1
_chemical_formula_structural   CaTm(NiIr)2
_chemical_formula_sum   'Ca1 Tm1 Ni2 Ir2'
_cell_volume   99.54382780
_cell_formula_units_Z   1
loop_
 _symmetry_equiv_pos_site_id
 _symmetry_equiv_pos_as_xyz
  1  'x, y, z'
loop_
 _atom_site_type_symbol
 _atom_site_label
 _atom_site_symmetry_multiplicity
 _atom_site_fract_x
 _atom_site_fract_y
 _atom_site_fract_z
 _atom_site_occupancy
  Ca  Ca0  1  0.001710  0.001710  0.998290  1
  Tm  Tm1  1  0.750511  0.750511  0.749489  1
  Ni  Ni2  1  0.374593  0.374593  0.375187  1
  Ni  Ni3  1  0.374593  0.374593  0.875628  1
  Ir  Ir4  1  0.874486  0.374109  0.375703  1
  Ir  Ir5  1  0.374109  0.874486  0.375703  1
