# generated using pymatgen
data_La8AsP13Ir16
_symmetry_space_group_name_H-M   'P 1'
_cell_length_a   4.03252100
_cell_length_b   12.98797592
_cell_length_c   13.36862469
_cell_angle_alpha   80.69652714
_cell_angle_beta   90.00000000
_cell_angle_gamma   90.00000000
_symmetry_Int_Tables_number   1
_chemical_formula_structural   La8AsP13Ir16
_chemical_formula_sum   'La8 As1 P13 Ir16'
_cell_volume   690.96204736
_cell_formula_units_Z   1
loop_
 _symmetry_equiv_pos_site_id
 _symmetry_equiv_pos_as_xyz
  1  'x, y, z'
loop_
 _atom_site_type_symbol
 _atom_site_label
 _atom_site_symmetry_multiplicity
 _atom_site_fract_x
 _atom_site_fract_y
 _atom_site_fract_z
 _atom_site_occupancy
  La  La0  1  0.750000  0.788151  0.563864  1
  La  La1  1  0.250000  0.210994  0.439666  1
  La  La2  1  0.750000  0.482597  0.707932  1
  La  La3  1  0.250000  0.514915  0.291917  1
  La  La4  1  0.750000  0.719361  0.894462  1
  La  La5  1  0.250000  0.104079  0.789248  1
  La  La6  1  0.750000  0.896241  0.208255  1
  La  La7  1  0.250000  0.281436  0.104539  1
  As  As8  1  0.250000  0.906862  0.408386  1
  P  P9  1  0.750000  0.475212  0.125312  1
  P  P10  1  0.250000  0.525039  0.873584  1
  P  P11  1  0.750000  0.091266  0.591329  1
  P  P12  1  0.250000  0.741761  0.080490  1
  P  P13  1  0.750000  0.258194  0.918414  1
  P  P14  1  0.750000  0.156842  0.281040  1
  P  P15  1  0.250000  0.844946  0.719546  1
  P  P16  1  0.250000  0.054553  0.095884  1
  P  P17  1  0.750000  0.946764  0.903199  1
  P  P18  1  0.250000  0.313594  0.688663  1
  P  P19  1  0.750000  0.683892  0.310575  1
  P  P20  1  0.250000  0.604703  0.560669  1
  P  P21  1  0.750000  0.393166  0.440157  1
  Ir  Ir22  1  0.250000  0.991184  0.580508  1
  Ir  Ir23  1  0.750000  0.020464  0.425299  1
  Ir  Ir24  1  0.250000  0.662824  0.730952  1
  Ir  Ir25  1  0.750000  0.338101  0.268106  1
  Ir  Ir26  1  0.250000  0.551886  0.046894  1
  Ir  Ir27  1  0.750000  0.448622  0.952410  1
  Ir  Ir28  1  0.250000  0.065580  0.268612  1
  Ir  Ir29  1  0.750000  0.937180  0.729574  1
  Ir  Ir30  1  0.250000  0.423235  0.529290  1
  Ir  Ir31  1  0.750000  0.574595  0.472337  1
  Ir  Ir32  1  0.250000  0.916315  0.998817  1
  Ir  Ir33  1  0.750000  0.084192  0.001122  1
  Ir  Ir34  1  0.250000  0.719396  0.393696  1
  Ir  Ir35  1  0.750000  0.271731  0.605974  1
  Ir  Ir36  1  0.250000  0.341009  0.860203  1
  Ir  Ir37  1  0.750000  0.659118  0.139072  1
