# generated using pymatgen
data_TbY3(Ga2Ag)4
_symmetry_space_group_name_H-M   'P 1'
_cell_length_a   4.37947400
_cell_length_b   6.96948600
_cell_length_c   10.27161500
_cell_angle_alpha   90.00020168
_cell_angle_beta   90.00000000
_cell_angle_gamma   90.00000000
_symmetry_Int_Tables_number   1
_chemical_formula_structural   TbY3(Ga2Ag)4
_chemical_formula_sum   'Tb1 Y3 Ga8 Ag4'
_cell_volume   313.51724578
_cell_formula_units_Z   1
loop_
 _symmetry_equiv_pos_site_id
 _symmetry_equiv_pos_as_xyz
  1  'x, y, z'
loop_
 _atom_site_type_symbol
 _atom_site_label
 _atom_site_symmetry_multiplicity
 _atom_site_fract_x
 _atom_site_fract_y
 _atom_site_fract_z
 _atom_site_occupancy
  Tb  Tb0  1  0.250000  0.279502  0.676037  1
  Y  Y1  1  0.250000  0.779500  0.823812  1
  Y  Y2  1  0.750000  0.220459  0.176347  1
  Y  Y3  1  0.750000  0.720443  0.323681  1
  Ga  Ga4  1  0.250000  0.928060  0.154351  1
  Ga  Ga5  1  0.750000  0.071911  0.845639  1
  Ga  Ga6  1  0.750000  0.572032  0.654276  1
  Ga  Ga7  1  0.250000  0.428109  0.345794  1
  Ga  Ga8  1  0.250000  0.701106  0.535369  1
  Ga  Ga9  1  0.750000  0.299300  0.464738  1
  Ga  Ga10  1  0.750000  0.799158  0.035310  1
  Ga  Ga11  1  0.250000  0.200591  0.964704  1
  Ag  Ag12  1  0.250000  0.544913  0.095566  1
  Ag  Ag13  1  0.750000  0.454994  0.904527  1
  Ag  Ag14  1  0.750000  0.954984  0.595439  1
  Ag  Ag15  1  0.250000  0.044939  0.404410  1
