# generated using pymatgen
data_DyTm3Co4(P3Rh4)4
_symmetry_space_group_name_H-M   'P 1'
_cell_length_a   3.83543900
_cell_length_b   10.75315673
_cell_length_c   12.38251800
_cell_angle_alpha   89.93493345
_cell_angle_beta   90.00000000
_cell_angle_gamma   90.00000000
_symmetry_Int_Tables_number   1
_chemical_formula_structural   DyTm3Co4(P3Rh4)4
_chemical_formula_sum   'Dy1 Tm3 Co4 P12 Rh16'
_cell_volume   510.69281025
_cell_formula_units_Z   1
loop_
 _symmetry_equiv_pos_site_id
 _symmetry_equiv_pos_as_xyz
  1  'x, y, z'
loop_
 _atom_site_type_symbol
 _atom_site_label
 _atom_site_symmetry_multiplicity
 _atom_site_fract_x
 _atom_site_fract_y
 _atom_site_fract_z
 _atom_site_occupancy
  Dy  Dy0  1  0.750000  0.085139  0.792182  1
  Tm  Tm1  1  0.250000  0.585204  0.707646  1
  Tm  Tm2  1  0.250000  0.914807  0.207710  1
  Tm  Tm3  1  0.750000  0.414813  0.292363  1
  Co  Co4  1  0.250000  0.464585  0.933686  1
  Co  Co5  1  0.250000  0.035700  0.433335  1
  Co  Co6  1  0.750000  0.535786  0.066512  1
  Co  Co7  1  0.750000  0.964029  0.565886  1
  P  P8  1  0.250000  0.424079  0.106479  1
  P  P9  1  0.250000  0.075833  0.605791  1
  P  P10  1  0.750000  0.575988  0.893600  1
  P  P11  1  0.750000  0.924012  0.393480  1
  P  P12  1  0.250000  0.272165  0.872763  1
  P  P13  1  0.250000  0.228617  0.372316  1
  P  P14  1  0.750000  0.728600  0.127763  1
  P  P15  1  0.750000  0.771405  0.627665  1
  P  P16  1  0.250000  0.598614  0.387652  1
  P  P17  1  0.250000  0.900763  0.888003  1
  P  P18  1  0.750000  0.401381  0.612365  1
  P  P19  1  0.750000  0.098640  0.112283  1
  Rh  Rh20  1  0.250000  0.716221  0.987514  1
  Rh  Rh21  1  0.250000  0.783539  0.487163  1
  Rh  Rh22  1  0.750000  0.283601  0.012626  1
  Rh  Rh23  1  0.750000  0.216301  0.512643  1
  Rh  Rh24  1  0.250000  0.408258  0.478730  1
  Rh  Rh25  1  0.250000  0.091774  0.980468  1
  Rh  Rh26  1  0.750000  0.591788  0.521177  1
  Rh  Rh27  1  0.750000  0.908079  0.021190  1
  Rh  Rh28  1  0.250000  0.228504  0.178915  1
  Rh  Rh29  1  0.250000  0.272927  0.677974  1
  Rh  Rh30  1  0.750000  0.771597  0.821435  1
  Rh  Rh31  1  0.750000  0.728280  0.321324  1
  Rh  Rh32  1  0.250000  0.886305  0.698694  1
  Rh  Rh33  1  0.250000  0.612422  0.199359  1
  Rh  Rh34  1  0.750000  0.112381  0.300601  1
  Rh  Rh35  1  0.750000  0.387864  0.800706  1
