# generated using pymatgen
data_Na2LiTaB28
_symmetry_space_group_name_H-M   'P 1'
_cell_length_a   7.23584217
_cell_length_b   7.23584217
_cell_length_c   7.22108700
_cell_angle_alpha   132.21634356
_cell_angle_beta   111.05205333
_cell_angle_gamma   88.33559398
_symmetry_Int_Tables_number   1
_chemical_formula_structural   Na2LiTaB28
_chemical_formula_sum   'Na2 Li1 Ta1 B28'
_cell_volume   248.68444990
_cell_formula_units_Z   1
loop_
 _symmetry_equiv_pos_site_id
 _symmetry_equiv_pos_as_xyz
  1  'x, y, z'
loop_
 _atom_site_type_symbol
 _atom_site_label
 _atom_site_symmetry_multiplicity
 _atom_site_fract_x
 _atom_site_fract_y
 _atom_site_fract_z
 _atom_site_occupancy
  Na  Na0  1  0.596711  0.249943  0.346653  1
  Na  Na1  1  0.403289  0.750057  0.653347  1
  Li  Li2  1  0.000000  0.500000  0.000000  1
  Ta  Ta3  1  0.000000  0.000000  0.500000  1
  B  B4  1  0.638115  0.666090  0.971984  1
  B  B5  1  0.361885  0.333910  0.028016  1
  B  B6  1  0.194114  0.166138  0.028029  1
  B  B7  1  0.805886  0.833862  0.971971  1
  B  B8  1  0.763428  0.154019  0.627720  1
  B  B9  1  0.236572  0.845981  0.372280  1
  B  B10  1  0.026306  0.635709  0.372278  1
  B  B11  1  0.973694  0.364291  0.627722  1
  B  B12  1  0.913977  0.087462  0.833585  1
  B  B13  1  0.086023  0.912538  0.166415  1
  B  B14  1  0.753874  0.580390  0.166409  1
  B  B15  1  0.246126  0.419610  0.833591  1
  B  B16  1  0.398221  0.402756  0.677948  1
  B  B17  1  0.601831  0.279455  0.004467  1
  B  B18  1  0.225018  0.902640  0.004475  1
  B  B19  1  0.775194  0.779719  0.677946  1
  B  B20  1  0.601779  0.597244  0.322052  1
  B  B21  1  0.398169  0.720545  0.995533  1
  B  B22  1  0.774982  0.097360  0.995525  1
  B  B23  1  0.224806  0.220281  0.322054  1
  B  B24  1  0.033007  0.831293  0.707811  1
  B  B25  1  0.963835  0.672041  0.793810  1
  B  B26  1  0.621766  0.329982  0.793815  1
  B  B27  1  0.376509  0.174791  0.707785  1
  B  B28  1  0.966993  0.168707  0.292189  1
  B  B29  1  0.036165  0.327959  0.206190  1
  B  B30  1  0.378234  0.670018  0.206185  1
  B  B31  1  0.623491  0.825209  0.292215  1
