# generated using pymatgen
data_Pr3Nd5DyRh6
_symmetry_space_group_name_H-M   'P 1'
_cell_length_a   7.63183820
_cell_length_b   7.63183801
_cell_length_c   7.63183702
_cell_angle_alpha   71.22137559
_cell_angle_beta   71.22137791
_cell_angle_gamma   71.22137132
_symmetry_Int_Tables_number   1
_chemical_formula_structural   Pr3Nd5DyRh6
_chemical_formula_sum   'Pr3 Nd5 Dy1 Rh6'
_cell_volume   386.45676097
_cell_formula_units_Z   1
loop_
 _symmetry_equiv_pos_site_id
 _symmetry_equiv_pos_as_xyz
  1  'x, y, z'
loop_
 _atom_site_type_symbol
 _atom_site_label
 _atom_site_symmetry_multiplicity
 _atom_site_fract_x
 _atom_site_fract_y
 _atom_site_fract_z
 _atom_site_occupancy
  Pr  Pr0  1  0.837117  0.610442  0.332691  1
  Pr  Pr1  1  0.332691  0.837117  0.610442  1
  Pr  Pr2  1  0.610442  0.332691  0.837117  1
  Nd  Nd3  1  0.798779  0.798779  0.798779  1
  Nd  Nd4  1  0.201218  0.201218  0.201218  1
  Nd  Nd5  1  0.162871  0.389383  0.667449  1
  Nd  Nd6  1  0.667449  0.162871  0.389383  1
  Nd  Nd7  1  0.389383  0.667449  0.162871  1
  Dy  Dy8  1  0.000041  0.000041  0.000041  1
  Rh  Rh9  1  0.959012  0.158510  0.596010  1
  Rh  Rh10  1  0.596010  0.959012  0.158510  1
  Rh  Rh11  1  0.158510  0.596010  0.959012  1
  Rh  Rh12  1  0.041077  0.841521  0.403878  1
  Rh  Rh13  1  0.403878  0.041077  0.841521  1
  Rh  Rh14  1  0.841521  0.403878  0.041077  1
