# generated using pymatgen
data_LaPa7(ZnRh)8
_symmetry_space_group_name_H-M   'P 1'
_cell_length_a   3.82719400
_cell_length_b   7.45236658
_cell_length_c   16.34633289
_cell_angle_alpha   90.63923190
_cell_angle_beta   90.00000000
_cell_angle_gamma   90.00000000
_symmetry_Int_Tables_number   1
_chemical_formula_structural   LaPa7(ZnRh)8
_chemical_formula_sum   'La1 Pa7 Zn8 Rh8'
_cell_volume   466.19541364
_cell_formula_units_Z   1
loop_
 _symmetry_equiv_pos_site_id
 _symmetry_equiv_pos_as_xyz
  1  'x, y, z'
loop_
 _atom_site_type_symbol
 _atom_site_label
 _atom_site_symmetry_multiplicity
 _atom_site_fract_x
 _atom_site_fract_y
 _atom_site_fract_z
 _atom_site_occupancy
  La  La0  1  0.250000  0.555740  0.786341  1
  Pa  Pa1  1  0.250000  0.167609  0.940582  1
  Pa  Pa2  1  0.250000  0.678110  0.559478  1
  Pa  Pa3  1  0.750000  0.334892  0.438924  1
  Pa  Pa4  1  0.750000  0.940344  0.285042  1
  Pa  Pa5  1  0.750000  0.828382  0.062316  1
  Pa  Pa6  1  0.750000  0.438639  0.215844  1
  Pa  Pa7  1  0.250000  0.056340  0.714307  1
  Zn  Zn8  1  0.750000  0.015589  0.556396  1
  Zn  Zn9  1  0.250000  0.612192  0.343784  1
  Zn  Zn10  1  0.750000  0.388436  0.653953  1
  Zn  Zn11  1  0.250000  0.491081  0.063304  1
  Zn  Zn12  1  0.750000  0.500394  0.942406  1
  Zn  Zn13  1  0.250000  0.997382  0.437845  1
  Zn  Zn14  1  0.250000  0.111389  0.156465  1
  Zn  Zn15  1  0.750000  0.880031  0.846231  1
  Rh  Rh16  1  0.750000  0.736754  0.440533  1
  Rh  Rh17  1  0.250000  0.241034  0.314319  1
  Rh  Rh18  1  0.750000  0.227066  0.815865  1
  Rh  Rh19  1  0.750000  0.783145  0.675635  1
  Rh  Rh20  1  0.250000  0.273691  0.555758  1
  Rh  Rh21  1  0.250000  0.741654  0.187307  1
  Rh  Rh22  1  0.750000  0.231847  0.058285  1
  Rh  Rh23  1  0.250000  0.768259  0.949078  1
