# generated using pymatgen
data_Ti3W13
_symmetry_space_group_name_H-M   'P 1'
_cell_length_a   6.36532000
_cell_length_b   6.36532000
_cell_length_c   6.36532000
_cell_angle_alpha   90.00000000
_cell_angle_beta   90.00000000
_cell_angle_gamma   90.00000000
_symmetry_Int_Tables_number   1
_chemical_formula_structural   Ti3W13
_chemical_formula_sum   'Ti3 W13'
_cell_volume   257.90557178
_cell_formula_units_Z   1
loop_
 _symmetry_equiv_pos_site_id
 _symmetry_equiv_pos_as_xyz
  1  'x, y, z'
loop_
 _atom_site_type_symbol
 _atom_site_label
 _atom_site_symmetry_multiplicity
 _atom_site_fract_x
 _atom_site_fract_y
 _atom_site_fract_z
 _atom_site_occupancy
  Ti  Ti0  1  0.500000  0.000000  0.000000  1
  Ti  Ti1  1  0.000000  0.500000  0.000000  1
  Ti  Ti2  1  0.000000  0.000000  0.500000  1
  W  W3  1  0.000000  0.000000  0.000000  1
  W  W4  1  0.500000  0.500000  0.000000  1
  W  W5  1  0.250323  0.250323  0.250323  1
  W  W6  1  0.749676  0.250323  0.250323  1
  W  W7  1  0.250323  0.749676  0.250323  1
  W  W8  1  0.749676  0.749676  0.250323  1
  W  W9  1  0.500000  0.000000  0.500000  1
  W  W10  1  0.000000  0.500000  0.500000  1
  W  W11  1  0.500000  0.500000  0.500000  1
  W  W12  1  0.250323  0.250323  0.749676  1
  W  W13  1  0.749676  0.250323  0.749676  1
  W  W14  1  0.250323  0.749676  0.749676  1
  W  W15  1  0.749676  0.749676  0.749676  1
