# generated using pymatgen
data_Sm2Ho4Al24ZnOs7
_symmetry_space_group_name_H-M   'P 1'
_cell_length_a   8.84035937
_cell_length_b   8.82967569
_cell_length_c   9.58957697
_cell_angle_alpha   90.05358211
_cell_angle_beta   89.88230539
_cell_angle_gamma   119.47821072
_symmetry_Int_Tables_number   1
_chemical_formula_structural   Sm2Ho4Al24ZnOs7
_chemical_formula_sum   'Sm2 Ho4 Al24 Zn1 Os7'
_cell_volume   651.63346715
_cell_formula_units_Z   1
loop_
 _symmetry_equiv_pos_site_id
 _symmetry_equiv_pos_as_xyz
  1  'x, y, z'
loop_
 _atom_site_type_symbol
 _atom_site_label
 _atom_site_symmetry_multiplicity
 _atom_site_fract_x
 _atom_site_fract_y
 _atom_site_fract_z
 _atom_site_occupancy
  Sm  Sm0  1  0.189938  0.381954  0.247619  1
  Sm  Sm1  1  0.810062  0.618046  0.752381  1
  Ho  Ho2  1  0.612421  0.808978  0.248860  1
  Ho  Ho3  1  0.387579  0.191022  0.751140  1
  Ho  Ho4  1  0.195258  0.804835  0.254733  1
  Ho  Ho5  1  0.804742  0.195165  0.745267  1
  Al  Al6  1  0.328273  0.671839  0.021982  1
  Al  Al7  1  0.671727  0.328161  0.978018  1
  Al  Al8  1  0.666776  0.333353  0.521156  1
  Al  Al9  1  0.333224  0.666647  0.478844  1
  Al  Al10  1  0.164004  0.327167  0.573435  1
  Al  Al11  1  0.835996  0.672833  0.426565  1
  Al  Al12  1  0.672149  0.836377  0.571932  1
  Al  Al13  1  0.849918  0.677482  0.081294  1
  Al  Al14  1  0.327851  0.163623  0.428068  1
  Al  Al15  1  0.150082  0.322518  0.918706  1
  Al  Al16  1  0.164410  0.836775  0.576415  1
  Al  Al17  1  0.322901  0.149605  0.079590  1
  Al  Al18  1  0.835590  0.163225  0.423585  1
  Al  Al19  1  0.677099  0.850395  0.920410  1
  Al  Al20  1  0.835112  0.163594  0.076074  1
  Al  Al21  1  0.164888  0.836406  0.923926  1
  Al  Al22  1  0.561059  0.121377  0.249363  1
  Al  Al23  1  0.438941  0.878623  0.750637  1
  Al  Al24  1  0.877544  0.438740  0.249402  1
  Al  Al25  1  0.122456  0.561260  0.750598  1
  Al  Al26  1  0.565238  0.436178  0.255220  1
  Al  Al27  1  0.434762  0.563822  0.744780  1
  Al  Al28  1  0.995884  0.997853  0.250514  1
  Al  Al29  1  0.004116  0.002147  0.749486  1
  Zn  Zn30  1  0.500000  0.500000  0.000000  1
  Os  Os31  1  0.500000  0.000000  0.000000  1
  Os  Os32  1  0.000000  0.500000  0.000000  1
  Os  Os33  1  0.500000  0.000000  0.500000  1
  Os  Os34  1  0.000000  0.500000  0.500000  1
  Os  Os35  1  0.500000  0.500000  0.500000  1
  Os  Os36  1  0.000000  0.000000  0.000000  1
  Os  Os37  1  0.000000  0.000000  0.500000  1
