# generated using pymatgen
data_La8SiPBr12
_symmetry_space_group_name_H-M   'P 1'
_cell_length_a   4.31819200
_cell_length_b   13.87463346
_cell_length_c   14.72950004
_cell_angle_alpha   90.01332451
_cell_angle_beta   90.00000000
_cell_angle_gamma   90.00000000
_symmetry_Int_Tables_number   1
_chemical_formula_structural   La8SiPBr12
_chemical_formula_sum   'La8 Si1 P1 Br12'
_cell_volume   882.49339043
_cell_formula_units_Z   1
loop_
 _symmetry_equiv_pos_site_id
 _symmetry_equiv_pos_as_xyz
  1  'x, y, z'
loop_
 _atom_site_type_symbol
 _atom_site_label
 _atom_site_symmetry_multiplicity
 _atom_site_fract_x
 _atom_site_fract_y
 _atom_site_fract_z
 _atom_site_occupancy
  La  La0  1  0.500000  0.117627  0.342035  1
  La  La1  1  0.500000  0.882373  0.657965  1
  La  La2  1  0.500000  0.620691  0.161835  1
  La  La3  1  0.500000  0.379309  0.838165  1
  La  La4  1  0.000000  0.115153  0.576054  1
  La  La5  1  0.000000  0.884847  0.423946  1
  La  La6  1  0.000000  0.621571  0.919700  1
  La  La7  1  0.000000  0.378429  0.080300  1
  Si  Si8  1  0.500000  0.500000  0.000000  1
  P  P9  1  0.500000  0.000000  0.500000  1
  Br  Br10  1  0.500000  0.241780  0.164265  1
  Br  Br11  1  0.500000  0.758220  0.835735  1
  Br  Br12  1  0.500000  0.746534  0.339655  1
  Br  Br13  1  0.500000  0.253466  0.660345  1
  Br  Br14  1  0.000000  0.253834  0.411803  1
  Br  Br15  1  0.000000  0.746166  0.588197  1
  Br  Br16  1  0.000000  0.754967  0.089289  1
  Br  Br17  1  0.000000  0.245033  0.910711  1
  Br  Br18  1  0.000000  0.001303  0.245285  1
  Br  Br19  1  0.000000  0.998697  0.754715  1
  Br  Br20  1  0.000000  0.502333  0.256250  1
  Br  Br21  1  0.000000  0.497667  0.743750  1
