# generated using pymatgen
data_TbTm4Pa3(ReB6)4
_symmetry_space_group_name_H-M   'P 1'
_cell_length_a   3.69198400
_cell_length_b   9.13380268
_cell_length_c   11.49426500
_cell_angle_alpha   90.13130839
_cell_angle_beta   90.00000000
_cell_angle_gamma   90.00000000
_symmetry_Int_Tables_number   1
_chemical_formula_structural   TbTm4Pa3(ReB6)4
_chemical_formula_sum   'Tb1 Tm4 Pa3 Re4 B24'
_cell_volume   387.60690094
_cell_formula_units_Z   1
loop_
 _symmetry_equiv_pos_site_id
 _symmetry_equiv_pos_as_xyz
  1  'x, y, z'
loop_
 _atom_site_type_symbol
 _atom_site_label
 _atom_site_symmetry_multiplicity
 _atom_site_fract_x
 _atom_site_fract_y
 _atom_site_fract_z
 _atom_site_occupancy
  Tb  Tb0  1  0.000000  0.179354  0.913009  1
  Tm  Tm1  1  0.000000  0.945480  0.374571  1
  Tm  Tm2  1  0.000000  0.055422  0.627253  1
  Tm  Tm3  1  0.000000  0.443663  0.125029  1
  Tm  Tm4  1  0.000000  0.553786  0.874034  1
  Pa  Pa5  1  0.000000  0.321068  0.413368  1
  Pa  Pa6  1  0.000000  0.678339  0.587262  1
  Pa  Pa7  1  0.000000  0.823073  0.085976  1
  Re  Re8  1  0.000000  0.638519  0.321321  1
  Re  Re9  1  0.000000  0.363859  0.675722  1
  Re  Re10  1  0.000000  0.138144  0.181347  1
  Re  Re11  1  0.000000  0.858944  0.821001  1
  B  B12  1  0.500000  0.553822  0.432440  1
  B  B13  1  0.500000  0.446690  0.566577  1
  B  B14  1  0.500000  0.053211  0.068061  1
  B  B15  1  0.500000  0.945352  0.933014  1
  B  B16  1  0.500000  0.749606  0.420159  1
  B  B17  1  0.500000  0.250871  0.580510  1
  B  B18  1  0.500000  0.248853  0.079890  1
  B  B19  1  0.500000  0.751173  0.920254  1
  B  B20  1  0.500000  0.792943  0.265532  1
  B  B21  1  0.500000  0.207684  0.733973  1
  B  B22  1  0.500000  0.292806  0.233490  1
  B  B23  1  0.500000  0.706909  0.765933  1
  B  B24  1  0.500000  0.632145  0.184358  1
  B  B25  1  0.500000  0.368257  0.814657  1
  B  B26  1  0.500000  0.132297  0.315429  1
  B  B27  1  0.500000  0.867996  0.685722  1
  B  B28  1  0.500000  0.982526  0.213351  1
  B  B29  1  0.500000  0.017657  0.786578  1
  B  B30  1  0.500000  0.482689  0.285541  1
  B  B31  1  0.500000  0.516966  0.714085  1
  B  B32  1  0.500000  0.607458  0.029789  1
  B  B33  1  0.500000  0.392283  0.969936  1
  B  B34  1  0.500000  0.108285  0.470520  1
  B  B35  1  0.500000  0.891871  0.530310  1
