# generated using pymatgen
data_Ba6BiPbN2
_symmetry_space_group_name_H-M   'P 1'
_cell_length_a   7.78624100
_cell_length_b   7.78623995
_cell_length_c   6.83682300
_cell_angle_alpha   90.00000000
_cell_angle_beta   90.00000000
_cell_angle_gamma   120.00000873
_symmetry_Int_Tables_number   1
_chemical_formula_structural   Ba6BiPbN2
_chemical_formula_sum   'Ba6 Bi1 Pb1 N2'
_cell_volume   358.95545280
_cell_formula_units_Z   1
loop_
 _symmetry_equiv_pos_site_id
 _symmetry_equiv_pos_as_xyz
  1  'x, y, z'
loop_
 _atom_site_type_symbol
 _atom_site_label
 _atom_site_symmetry_multiplicity
 _atom_site_fract_x
 _atom_site_fract_y
 _atom_site_fract_z
 _atom_site_occupancy
  Ba  Ba0  1  0.157312  0.842688  0.250000  1
  Ba  Ba1  1  0.842400  0.684799  0.750000  1
  Ba  Ba2  1  0.315201  0.157600  0.750000  1
  Ba  Ba3  1  0.842400  0.157600  0.750000  1
  Ba  Ba4  1  0.685376  0.842688  0.250000  1
  Ba  Ba5  1  0.157312  0.314624  0.250000  1
  Bi  Bi6  1  0.666667  0.333333  0.250000  1
  Pb  Pb7  1  0.333333  0.666667  0.750000  1
  N  N8  1  0.000000  0.000000  0.000342  1
  N  N9  1  0.000000  0.000000  0.499658  1
