# generated using pymatgen
data_TbYb(Al5Os)4
_symmetry_space_group_name_H-M   'P 1'
_cell_length_a   6.88204545
_cell_length_b   6.88204528
_cell_length_c   9.16186000
_cell_angle_alpha   90.00000000
_cell_angle_beta   90.00000000
_cell_angle_gamma   96.41909261
_symmetry_Int_Tables_number   1
_chemical_formula_structural   TbYb(Al5Os)4
_chemical_formula_sum   'Tb1 Yb1 Al20 Os4'
_cell_volume   431.20861459
_cell_formula_units_Z   1
loop_
 _symmetry_equiv_pos_site_id
 _symmetry_equiv_pos_as_xyz
  1  'x, y, z'
loop_
 _atom_site_type_symbol
 _atom_site_label
 _atom_site_symmetry_multiplicity
 _atom_site_fract_x
 _atom_site_fract_y
 _atom_site_fract_z
 _atom_site_occupancy
  Tb  Tb0  1  0.627830  0.372170  0.750000  1
  Yb  Yb1  1  0.373160  0.626840  0.250000  1
  Al  Al2  1  0.281610  0.018417  0.750000  1
  Al  Al3  1  0.021633  0.283335  0.250000  1
  Al  Al4  1  0.716665  0.978367  0.250000  1
  Al  Al5  1  0.981583  0.718390  0.750000  1
  Al  Al6  1  0.876356  0.123644  0.951091  1
  Al  Al7  1  0.123858  0.876142  0.042759  1
  Al  Al8  1  0.876356  0.123644  0.548909  1
  Al  Al9  1  0.123858  0.876142  0.457241  1
  Al  Al10  1  0.645337  0.917065  0.750000  1
  Al  Al11  1  0.914282  0.644065  0.250000  1
  Al  Al12  1  0.355935  0.085718  0.250000  1
  Al  Al13  1  0.082935  0.354663  0.750000  1
  Al  Al14  1  0.344704  0.655296  0.899134  1
  Al  Al15  1  0.658501  0.341499  0.101501  1
  Al  Al16  1  0.344704  0.655296  0.600866  1
  Al  Al17  1  0.658501  0.341499  0.398499  1
  Al  Al18  1  0.723322  0.725102  0.999798  1
  Al  Al19  1  0.723322  0.725102  0.500202  1
  Al  Al20  1  0.274898  0.276678  0.999798  1
  Al  Al21  1  0.274898  0.276678  0.500202  1
  Os  Os22  1  0.499413  0.001537  0.999979  1
  Os  Os23  1  0.998463  0.500587  0.999979  1
  Os  Os24  1  0.499413  0.001537  0.500021  1
  Os  Os25  1  0.998463  0.500587  0.500021  1
