# generated using pymatgen
data_Sm6Cd21Ag2Sn
_symmetry_space_group_name_H-M   'P 1'
_cell_length_a   10.04267373
_cell_length_b   10.05481012
_cell_length_c   10.04267334
_cell_angle_alpha   59.96001394
_cell_angle_beta   60.07997544
_cell_angle_gamma   59.96001100
_symmetry_Int_Tables_number   1
_chemical_formula_structural   Sm6Cd21Ag2Sn
_chemical_formula_sum   'Sm6 Cd21 Ag2 Sn1'
_cell_volume   717.06132108
_cell_formula_units_Z   1
loop_
 _symmetry_equiv_pos_site_id
 _symmetry_equiv_pos_as_xyz
  1  'x, y, z'
loop_
 _atom_site_type_symbol
 _atom_site_label
 _atom_site_symmetry_multiplicity
 _atom_site_fract_x
 _atom_site_fract_y
 _atom_site_fract_z
 _atom_site_occupancy
  Sm  Sm0  1  0.780114  0.780114  0.219886  1
  Sm  Sm1  1  0.220706  0.779294  0.220706  1
  Sm  Sm2  1  0.780114  0.219886  0.219886  1
  Sm  Sm3  1  0.219886  0.219886  0.780114  1
  Sm  Sm4  1  0.779294  0.220706  0.779294  1
  Sm  Sm5  1  0.219886  0.780114  0.780114  1
  Cd  Cd6  1  0.836230  0.843803  0.476165  1
  Cd  Cd7  1  0.843803  0.476165  0.843803  1
  Cd  Cd8  1  0.476165  0.843803  0.836230  1
  Cd  Cd9  1  0.843803  0.836230  0.843803  1
  Cd  Cd10  1  0.163770  0.156197  0.523835  1
  Cd  Cd11  1  0.156197  0.523835  0.156197  1
  Cd  Cd12  1  0.523835  0.156197  0.163770  1
  Cd  Cd13  1  0.156197  0.163770  0.156197  1
  Cd  Cd14  1  0.629164  0.622518  0.125800  1
  Cd  Cd15  1  0.622518  0.125800  0.622518  1
  Cd  Cd16  1  0.125800  0.622518  0.629164  1
  Cd  Cd17  1  0.622518  0.629164  0.622518  1
  Cd  Cd18  1  0.370836  0.377482  0.874200  1
  Cd  Cd19  1  0.377482  0.874200  0.377482  1
  Cd  Cd20  1  0.874200  0.377482  0.370836  1
  Cd  Cd21  1  0.377482  0.370836  0.377482  1
  Cd  Cd22  1  0.000000  0.000000  0.500000  1
  Cd  Cd23  1  0.000000  0.500000  0.500000  1
  Cd  Cd24  1  0.500000  0.500000  0.000000  1
  Cd  Cd25  1  0.500000  0.000000  0.000000  1
  Cd  Cd26  1  0.500000  0.500000  0.500000  1
  Ag  Ag27  1  0.500000  0.000000  0.500000  1
  Ag  Ag28  1  0.000000  0.500000  0.000000  1
  Sn  Sn29  1  0.000000  0.000000  0.000000  1
