# generated using pymatgen
data_La6Nd3Y7(CdRu)4
_symmetry_space_group_name_H-M   'P 1'
_cell_length_a   9.85429718
_cell_length_b   9.90151781
_cell_length_c   9.89022766
_cell_angle_alpha   59.44856878
_cell_angle_beta   60.12016204
_cell_angle_gamma   59.70448374
_symmetry_Int_Tables_number   1
_chemical_formula_structural   La6Nd3Y7(CdRu)4
_chemical_formula_sum   'La6 Nd3 Y7 Cd4 Ru4'
_cell_volume   678.56647994
_cell_formula_units_Z   1
loop_
 _symmetry_equiv_pos_site_id
 _symmetry_equiv_pos_as_xyz
  1  'x, y, z'
loop_
 _atom_site_type_symbol
 _atom_site_label
 _atom_site_symmetry_multiplicity
 _atom_site_fract_x
 _atom_site_fract_y
 _atom_site_fract_z
 _atom_site_occupancy
  La  La0  1  0.839382  0.847899  0.847501  1
  La  La1  1  0.690770  0.317366  0.307799  1
  La  La2  1  0.066633  0.436170  0.433571  1
  La  La3  1  0.315674  0.690487  0.685882  1
  La  La4  1  0.312318  0.310570  0.688973  1
  La  La5  1  0.847548  0.840097  0.465746  1
  Nd  Nd6  1  0.440305  0.436999  0.061519  1
  Nd  Nd7  1  0.065904  0.067228  0.433589  1
  Nd  Nd8  1  0.431206  0.070560  0.068478  1
  Y  Y9  1  0.688184  0.690851  0.309562  1
  Y  Y10  1  0.457415  0.844715  0.854171  1
  Y  Y11  1  0.056066  0.446295  0.055242  1
  Y  Y12  1  0.844751  0.457502  0.843616  1
  Y  Y13  1  0.448002  0.052933  0.444049  1
  Y  Y14  1  0.311726  0.695976  0.304496  1
  Y  Y15  1  0.694340  0.309587  0.690260  1
  Cd  Cd16  1  0.081227  0.762424  0.077875  1
  Cd  Cd17  1  0.078505  0.081053  0.761458  1
  Cd  Cd18  1  0.760327  0.079084  0.078411  1
  Cd  Cd19  1  0.083416  0.077815  0.076910  1
  Ru  Ru20  1  0.627874  0.088986  0.630695  1
  Ru  Ru21  1  0.621229  0.646795  0.644889  1
  Ru  Ru22  1  0.647787  0.620877  0.085641  1
  Ru  Ru23  1  0.089408  0.627728  0.649666  1
