# generated using pymatgen
data_SmTm19Sn16
_symmetry_space_group_name_H-M   'P 1'
_cell_length_a   7.96113436
_cell_length_b   8.08092805
_cell_length_c   15.28478415
_cell_angle_alpha   90.01315428
_cell_angle_beta   89.70446985
_cell_angle_gamma   89.99986919
_symmetry_Int_Tables_number   1
_chemical_formula_structural   SmTm19Sn16
_chemical_formula_sum   'Sm1 Tm19 Sn16'
_cell_volume   983.30832319
_cell_formula_units_Z   1
loop_
 _symmetry_equiv_pos_site_id
 _symmetry_equiv_pos_as_xyz
  1  'x, y, z'
loop_
 _atom_site_type_symbol
 _atom_site_label
 _atom_site_symmetry_multiplicity
 _atom_site_fract_x
 _atom_site_fract_y
 _atom_site_fract_z
 _atom_site_occupancy
  Sm  Sm0  1  0.018875  0.179383  0.904029  1
  Tm  Tm1  1  0.366885  0.836824  0.876745  1
  Tm  Tm2  1  0.868152  0.663392  0.621939  1
  Tm  Tm3  1  0.631576  0.162890  0.377268  1
  Tm  Tm4  1  0.133602  0.337627  0.123230  1
  Tm  Tm5  1  0.633587  0.163077  0.123277  1
  Tm  Tm6  1  0.131784  0.337037  0.377496  1
  Tm  Tm7  1  0.368716  0.836714  0.622447  1
  Tm  Tm8  1  0.867513  0.662785  0.877111  1
  Tm  Tm9  1  0.521948  0.322184  0.902934  1
  Tm  Tm10  1  0.023186  0.178717  0.597651  1
  Tm  Tm11  1  0.477474  0.678411  0.402770  1
  Tm  Tm12  1  0.979012  0.820244  0.097134  1
  Tm  Tm13  1  0.478376  0.678921  0.097163  1
  Tm  Tm14  1  0.977528  0.821543  0.402907  1
  Tm  Tm15  1  0.522473  0.321849  0.596341  1
  Tm  Tm16  1  0.198413  0.503439  0.749314  1
  Tm  Tm17  1  0.697958  0.996158  0.749135  1
  Tm  Tm18  1  0.801786  0.496572  0.250341  1
  Tm  Tm19  1  0.302023  0.003403  0.250420  1
  Sn  Sn20  1  0.295961  0.034647  0.042898  1
  Sn  Sn21  1  0.792033  0.463830  0.458412  1
  Sn  Sn22  1  0.708119  0.964847  0.541334  1
  Sn  Sn23  1  0.208224  0.538514  0.959036  1
  Sn  Sn24  1  0.702375  0.959969  0.959485  1
  Sn  Sn25  1  0.207823  0.536037  0.541346  1
  Sn  Sn26  1  0.292286  0.035797  0.458597  1
  Sn  Sn27  1  0.792807  0.463916  0.041621  1
  Sn  Sn28  1  0.564295  0.619666  0.749857  1
  Sn  Sn29  1  0.064315  0.879091  0.749526  1
  Sn  Sn30  1  0.435796  0.381118  0.250182  1
  Sn  Sn31  1  0.936074  0.119328  0.250322  1
  Sn  Sn32  1  0.333174  0.149217  0.749390  1
  Sn  Sn33  1  0.828820  0.352665  0.748270  1
  Sn  Sn34  1  0.668679  0.850690  0.249952  1
  Sn  Sn35  1  0.168351  0.649498  0.250121  1
