# generated using pymatgen
data_NaTe3Pt2
_symmetry_space_group_name_H-M   'P 1'
_cell_length_a   8.07308300
_cell_length_b   8.07308415
_cell_length_c   11.90741900
_cell_angle_alpha   90.00000000
_cell_angle_beta   90.00000000
_cell_angle_gamma   119.99999940
_symmetry_Int_Tables_number   1
_chemical_formula_structural   NaTe3Pt2
_chemical_formula_sum   'Na4 Te12 Pt8'
_cell_volume   672.08958735
_cell_formula_units_Z   4
loop_
 _symmetry_equiv_pos_site_id
 _symmetry_equiv_pos_as_xyz
  1  'x, y, z'
loop_
 _atom_site_type_symbol
 _atom_site_label
 _atom_site_symmetry_multiplicity
 _atom_site_fract_x
 _atom_site_fract_y
 _atom_site_fract_z
 _atom_site_occupancy
  Na  Na0  1  0.333333  0.666667  0.336193  1
  Na  Na1  1  0.666667  0.333333  0.836193  1
  Na  Na2  1  0.000000  0.000000  0.668885  1
  Na  Na3  1  0.000000  0.000000  0.168885  1
  Te  Te4  1  0.497934  0.502066  0.612797  1
  Te  Te5  1  0.995870  0.497934  0.112797  1
  Te  Te6  1  0.502066  0.004130  0.112797  1
  Te  Te7  1  0.497934  0.995870  0.612797  1
  Te  Te8  1  0.159465  0.840535  0.894457  1
  Te  Te9  1  0.318930  0.159465  0.394457  1
  Te  Te10  1  0.840535  0.681070  0.394457  1
  Te  Te11  1  0.159465  0.318930  0.894457  1
  Te  Te12  1  0.681070  0.840535  0.894457  1
  Te  Te13  1  0.840535  0.159465  0.394457  1
  Te  Te14  1  0.502066  0.497934  0.112797  1
  Te  Te15  1  0.004130  0.502066  0.612797  1
  Pt  Pt16  1  0.834007  0.165993  0.007037  1
  Pt  Pt17  1  0.668013  0.834007  0.507037  1
  Pt  Pt18  1  0.165993  0.331987  0.507037  1
  Pt  Pt19  1  0.834007  0.668013  0.007037  1
  Pt  Pt20  1  0.331987  0.165993  0.007037  1
  Pt  Pt21  1  0.165993  0.834007  0.507037  1
  Pt  Pt22  1  0.666667  0.333333  0.497849  1
  Pt  Pt23  1  0.333333  0.666667  0.997849  1
