# generated using pymatgen
data_Tb12Pr4Cd4CoPd3
_symmetry_space_group_name_H-M   'P 1'
_cell_length_a   9.79667578
_cell_length_b   9.77203828
_cell_length_c   9.77203756
_cell_angle_alpha   60.22216711
_cell_angle_beta   60.01816244
_cell_angle_gamma   60.01816442
_symmetry_Int_Tables_number   1
_chemical_formula_structural   Tb12Pr4Cd4CoPd3
_chemical_formula_sum   'Tb12 Pr4 Cd4 Co1 Pd3'
_cell_volume   662.79236037
_cell_formula_units_Z   1
loop_
 _symmetry_equiv_pos_site_id
 _symmetry_equiv_pos_as_xyz
  1  'x, y, z'
loop_
 _atom_site_type_symbol
 _atom_site_label
 _atom_site_symmetry_multiplicity
 _atom_site_fract_x
 _atom_site_fract_y
 _atom_site_fract_z
 _atom_site_occupancy
  Tb  Tb0  1  0.352632  0.352420  0.352420  1
  Tb  Tb1  1  0.343723  0.345387  0.953036  1
  Tb  Tb2  1  0.343723  0.953036  0.345387  1
  Tb  Tb3  1  0.950695  0.345447  0.345447  1
  Tb  Tb4  1  0.823019  0.186877  0.186877  1
  Tb  Tb5  1  0.188337  0.811117  0.811117  1
  Tb  Tb6  1  0.188330  0.821882  0.187608  1
  Tb  Tb7  1  0.811114  0.186846  0.810733  1
  Tb  Tb8  1  0.188330  0.187608  0.821882  1
  Tb  Tb9  1  0.811114  0.810733  0.186846  1
  Tb  Tb10  1  0.940963  0.558287  0.558287  1
  Tb  Tb11  1  0.557680  0.940411  0.940411  1
  Pr  Pr12  1  0.563015  0.935919  0.564491  1
  Pr  Pr13  1  0.935822  0.562504  0.933647  1
  Pr  Pr14  1  0.563015  0.564491  0.935919  1
  Pr  Pr15  1  0.935822  0.933647  0.562504  1
  Cd  Cd16  1  0.583329  0.577589  0.577589  1
  Cd  Cd17  1  0.579599  0.584537  0.258869  1
  Cd  Cd18  1  0.579599  0.258869  0.584537  1
  Cd  Cd19  1  0.259182  0.579672  0.579672  1
  Co  Co20  1  0.144781  0.141477  0.141477  1
  Pd  Pd21  1  0.143297  0.147280  0.570364  1
  Pd  Pd22  1  0.143297  0.570364  0.147280  1
  Pd  Pd23  1  0.569580  0.143598  0.143598  1
