# generated using pymatgen
data_Ce2Th6Cu3Si12Rh
_symmetry_space_group_name_H-M   'P 1'
_cell_length_a   8.13497189
_cell_length_b   8.13497299
_cell_length_c   8.48122433
_cell_angle_alpha   90.02513530
_cell_angle_beta   89.97486542
_cell_angle_gamma   119.95122747
_symmetry_Int_Tables_number   1
_chemical_formula_structural   Ce2Th6Cu3Si12Rh
_chemical_formula_sum   'Ce2 Th6 Cu3 Si12 Rh1'
_cell_volume   486.31148857
_cell_formula_units_Z   1
loop_
 _symmetry_equiv_pos_site_id
 _symmetry_equiv_pos_as_xyz
  1  'x, y, z'
loop_
 _atom_site_type_symbol
 _atom_site_label
 _atom_site_symmetry_multiplicity
 _atom_site_fract_x
 _atom_site_fract_y
 _atom_site_fract_z
 _atom_site_occupancy
  Ce  Ce0  1  0.497785  0.996342  0.750685  1
  Ce  Ce1  1  0.003658  0.502215  0.750685  1
  Th  Th2  1  0.000051  0.999949  0.250361  1
  Th  Th3  1  0.000010  0.999990  0.749423  1
  Th  Th4  1  0.498972  0.501028  0.249126  1
  Th  Th5  1  0.498846  0.997841  0.249043  1
  Th  Th6  1  0.002159  0.501154  0.249043  1
  Th  Th7  1  0.498241  0.501759  0.750720  1
  Cu  Cu8  1  0.333421  0.666579  0.499454  1
  Cu  Cu9  1  0.666637  0.333363  0.501811  1
  Cu  Cu10  1  0.666406  0.333594  0.998670  1
  Si  Si11  1  0.169049  0.830951  0.501292  1
  Si  Si12  1  0.168201  0.337495  0.500385  1
  Si  Si13  1  0.662505  0.831799  0.500385  1
  Si  Si14  1  0.830108  0.169892  0.501793  1
  Si  Si15  1  0.830795  0.660886  0.500802  1
  Si  Si16  1  0.339114  0.169205  0.500802  1
  Si  Si17  1  0.830755  0.169245  0.998176  1
  Si  Si18  1  0.831955  0.662643  0.998843  1
  Si  Si19  1  0.337357  0.168045  0.998843  1
  Si  Si20  1  0.166753  0.833247  0.998189  1
  Si  Si21  1  0.165546  0.332154  0.999685  1
  Si  Si22  1  0.667846  0.834454  0.999685  1
  Rh  Rh23  1  0.333830  0.666170  0.002102  1
