# generated using pymatgen
data_Ho6InFePd
_symmetry_space_group_name_H-M   'P 1'
_cell_length_a   8.40535235
_cell_length_b   8.40535363
_cell_length_c   8.40535200
_cell_angle_alpha   111.87448546
_cell_angle_beta   109.91885660
_cell_angle_gamma   106.66267596
_symmetry_Int_Tables_number   1
_chemical_formula_structural   Ho6InFePd
_chemical_formula_sum   'Ho12 In2 Fe2 Pd2'
_cell_volume   456.17768585
_cell_formula_units_Z   2
loop_
 _symmetry_equiv_pos_site_id
 _symmetry_equiv_pos_as_xyz
  1  'x, y, z'
loop_
 _atom_site_type_symbol
 _atom_site_label
 _atom_site_symmetry_multiplicity
 _atom_site_fract_x
 _atom_site_fract_y
 _atom_site_fract_z
 _atom_site_occupancy
  Ho  Ho0  1  0.446593  0.244391  0.202203  1
  Ho  Ho1  1  0.553407  0.755609  0.797797  1
  Ho  Ho2  1  0.042188  0.244391  0.797796  1
  Ho  Ho3  1  0.957812  0.755609  0.202204  1
  Ho  Ho4  1  0.182731  0.288108  0.470840  1
  Ho  Ho5  1  0.817269  0.711892  0.529160  1
  Ho  Ho6  1  0.182731  0.711892  0.894623  1
  Ho  Ho7  1  0.817269  0.288108  0.105377  1
  Ho  Ho8  1  0.309915  0.616435  0.306520  1
  Ho  Ho9  1  0.690085  0.383565  0.693480  1
  Ho  Ho10  1  0.309913  0.003394  0.693482  1
  Ho  Ho11  1  0.690087  0.996606  0.306518  1
  In  In12  1  0.500000  0.500000  0.000000  1
  In  In13  1  0.000000  0.000000  0.000000  1
  Fe  Fe14  1  0.108116  0.608135  0.500019  1
  Fe  Fe15  1  0.891884  0.391865  0.499981  1
  Pd  Pd16  1  0.347735  0.000000  0.347735  1
  Pd  Pd17  1  0.652265  0.000000  0.652265  1
