# generated using pymatgen
data_Th4CoNiAs4
_symmetry_space_group_name_H-M   'P 1'
_cell_length_a   4.17976900
_cell_length_b   4.17976950
_cell_length_c   14.91616400
_cell_angle_alpha   90.00000000
_cell_angle_beta   90.00000000
_cell_angle_gamma   119.99998814
_symmetry_Int_Tables_number   1
_chemical_formula_structural   Th4CoNiAs4
_chemical_formula_sum   'Th4 Co1 Ni1 As4'
_cell_volume   225.67967426
_cell_formula_units_Z   1
loop_
 _symmetry_equiv_pos_site_id
 _symmetry_equiv_pos_as_xyz
  1  'x, y, z'
loop_
 _atom_site_type_symbol
 _atom_site_label
 _atom_site_symmetry_multiplicity
 _atom_site_fract_x
 _atom_site_fract_y
 _atom_site_fract_z
 _atom_site_occupancy
  Th  Th0  1  0.333333  0.666667  0.377448  1
  Th  Th1  1  0.666667  0.333333  0.616855  1
  Th  Th2  1  0.666667  0.333333  0.883145  1
  Th  Th3  1  0.333333  0.666667  0.122552  1
  Co  Co4  1  0.000000  0.000000  0.250000  1
  Ni  Ni5  1  0.000000  0.000000  0.750000  1
  As  As6  1  0.000000  0.000000  0.498745  1
  As  As7  1  0.000000  0.000000  0.001255  1
  As  As8  1  0.333333  0.666667  0.750000  1
  As  As9  1  0.666667  0.333333  0.250000  1
