# generated using pymatgen
data_Y14Tm2InAg3Rh4
_symmetry_space_group_name_H-M   'P 1'
_cell_length_a   9.61863421
_cell_length_b   9.61863628
_cell_length_c   9.60443109
_cell_angle_alpha   59.80584445
_cell_angle_beta   59.80584027
_cell_angle_gamma   59.81979290
_symmetry_Int_Tables_number   1
_chemical_formula_structural   Y14Tm2InAg3Rh4
_chemical_formula_sum   'Y14 Tm2 In1 Ag3 Rh4'
_cell_volume   625.62098348
_cell_formula_units_Z   1
loop_
 _symmetry_equiv_pos_site_id
 _symmetry_equiv_pos_as_xyz
  1  'x, y, z'
loop_
 _atom_site_type_symbol
 _atom_site_label
 _atom_site_symmetry_multiplicity
 _atom_site_fract_x
 _atom_site_fract_y
 _atom_site_fract_z
 _atom_site_occupancy
  Y  Y0  1  0.063672  0.063672  0.437429  1
  Y  Y1  1  0.436489  0.061076  0.438550  1
  Y  Y2  1  0.061278  0.436377  0.067269  1
  Y  Y3  1  0.052071  0.648355  0.649637  1
  Y  Y4  1  0.436873  0.436873  0.066594  1
  Y  Y5  1  0.648355  0.052071  0.649637  1
  Y  Y6  1  0.190062  0.812809  0.188684  1
  Y  Y7  1  0.190737  0.190737  0.810935  1
  Y  Y8  1  0.810818  0.810818  0.189419  1
  Y  Y9  1  0.436377  0.061278  0.067269  1
  Y  Y10  1  0.812809  0.190062  0.188684  1
  Y  Y11  1  0.061076  0.436489  0.438550  1
  Y  Y12  1  0.808270  0.191111  0.811210  1
  Y  Y13  1  0.191111  0.808270  0.811210  1
  Tm  Tm14  1  0.649180  0.649180  0.050257  1
  Tm  Tm15  1  0.649547  0.649547  0.650443  1
  In  In16  1  0.421534  0.421534  0.738300  1
  Ag  Ag17  1  0.419471  0.419471  0.414042  1
  Ag  Ag18  1  0.747361  0.419277  0.414515  1
  Ag  Ag19  1  0.419277  0.747361  0.414515  1
  Rh  Rh20  1  0.854767  0.854767  0.429364  1
  Rh  Rh21  1  0.855369  0.855369  0.860819  1
  Rh  Rh22  1  0.430929  0.852569  0.856334  1
  Rh  Rh23  1  0.852569  0.430929  0.856334  1
