# generated using pymatgen
data_Tm2Lu6Ga3Co
_symmetry_space_group_name_H-M   'P 1'
_cell_length_a   9.81339901
_cell_length_b   9.81150806
_cell_length_c   6.79877900
_cell_angle_alpha   90.00203179
_cell_angle_beta   89.99593720
_cell_angle_gamma   120.00637895
_symmetry_Int_Tables_number   1
_chemical_formula_structural   Tm2Lu6Ga3Co
_chemical_formula_sum   'Tm4 Lu12 Ga6 Co2'
_cell_volume   566.87702787
_cell_formula_units_Z   2
loop_
 _symmetry_equiv_pos_site_id
 _symmetry_equiv_pos_as_xyz
  1  'x, y, z'
loop_
 _atom_site_type_symbol
 _atom_site_label
 _atom_site_symmetry_multiplicity
 _atom_site_fract_x
 _atom_site_fract_y
 _atom_site_fract_z
 _atom_site_occupancy
  Tm  Tm0  1  0.071522  0.535762  0.292112  1
  Tm  Tm1  1  0.535758  0.464238  0.792112  1
  Tm  Tm2  1  0.000017  0.999975  0.268099  1
  Tm  Tm3  1  0.000042  0.000025  0.768099  1
  Lu  Lu4  1  0.173929  0.826377  0.989540  1
  Lu  Lu5  1  0.347552  0.173623  0.489540  1
  Lu  Lu6  1  0.826198  0.652526  0.489701  1
  Lu  Lu7  1  0.173674  0.347474  0.989701  1
  Lu  Lu8  1  0.652337  0.826385  0.989965  1
  Lu  Lu9  1  0.825951  0.173615  0.489965  1
  Lu  Lu10  1  0.333488  0.666892  0.672242  1
  Lu  Lu11  1  0.666597  0.333108  0.172242  1
  Lu  Lu12  1  0.464065  0.536059  0.292148  1
  Lu  Lu13  1  0.928005  0.463941  0.792148  1
  Lu  Lu14  1  0.535999  0.071862  0.792153  1
  Lu  Lu15  1  0.464137  0.928138  0.292153  1
  Ga  Ga16  1  0.163520  0.836658  0.539925  1
  Ga  Ga17  1  0.326863  0.163342  0.039925  1
  Ga  Ga18  1  0.836680  0.673136  0.039794  1
  Ga  Ga19  1  0.163543  0.326864  0.539794  1
  Ga  Ga20  1  0.672990  0.836482  0.539588  1
  Ga  Ga21  1  0.836509  0.163518  0.039588  1
  Co  Co22  1  0.333753  0.666882  0.056737  1
  Co  Co23  1  0.666871  0.333118  0.556737  1
