# generated using pymatgen
data_Tb7PrSc12Si15Ir
_symmetry_space_group_name_H-M   'P 1'
_cell_length_a   7.11638356
_cell_length_b   7.46998669
_cell_length_c   14.02595783
_cell_angle_alpha   90.09464786
_cell_angle_beta   90.04351309
_cell_angle_gamma   90.22121351
_symmetry_Int_Tables_number   1
_chemical_formula_structural   Tb7PrSc12Si15Ir
_chemical_formula_sum   'Tb7 Pr1 Sc12 Si15 Ir1'
_cell_volume   745.60317343
_cell_formula_units_Z   1
loop_
 _symmetry_equiv_pos_site_id
 _symmetry_equiv_pos_as_xyz
  1  'x, y, z'
loop_
 _atom_site_type_symbol
 _atom_site_label
 _atom_site_symmetry_multiplicity
 _atom_site_fract_x
 _atom_site_fract_y
 _atom_site_fract_z
 _atom_site_occupancy
  Tb  Tb0  1  0.990637  0.825459  0.902627  1
  Tb  Tb1  1  0.489587  0.676600  0.903122  1
  Tb  Tb2  1  0.990280  0.825574  0.596539  1
  Tb  Tb3  1  0.511166  0.323858  0.096454  1
  Tb  Tb4  1  0.012043  0.179276  0.403206  1
  Tb  Tb5  1  0.511547  0.323794  0.404591  1
  Tb  Tb6  1  0.488274  0.676642  0.595851  1
  Pr  Pr7  1  0.010797  0.176390  0.094897  1
  Sc  Sc8  1  0.156845  0.498303  0.749993  1
  Sc  Sc9  1  0.838665  0.496845  0.250536  1
  Sc  Sc10  1  0.338591  0.004158  0.250568  1
  Sc  Sc11  1  0.668651  0.998918  0.750016  1
  Sc  Sc12  1  0.319565  0.171990  0.627177  1
  Sc  Sc13  1  0.670945  0.825679  0.374292  1
  Sc  Sc14  1  0.172178  0.677057  0.375036  1
  Sc  Sc15  1  0.671717  0.825566  0.126919  1
  Sc  Sc16  1  0.835252  0.319675  0.627233  1
  Sc  Sc17  1  0.320889  0.172327  0.872253  1
  Sc  Sc18  1  0.833849  0.321221  0.872275  1
  Sc  Sc19  1  0.171843  0.676515  0.125994  1
  Si  Si20  1  0.968515  0.879513  0.251616  1
  Si  Si21  1  0.469157  0.615155  0.250566  1
  Si  Si22  1  0.529574  0.388154  0.749466  1
  Si  Si23  1  0.285978  0.869229  0.749587  1
  Si  Si24  1  0.710075  0.128058  0.252408  1
  Si  Si25  1  0.215461  0.374913  0.251837  1
  Si  Si26  1  0.779591  0.624719  0.749539  1
  Si  Si27  1  0.158376  0.467326  0.537764  1
  Si  Si28  1  0.844565  0.536503  0.461767  1
  Si  Si29  1  0.345929  0.966156  0.460448  1
  Si  Si30  1  0.842364  0.540553  0.036874  1
  Si  Si31  1  0.655105  0.034124  0.538832  1
  Si  Si32  1  0.158902  0.471859  0.960529  1
  Si  Si33  1  0.654644  0.033657  0.960524  1
  Si  Si34  1  0.350588  0.962914  0.038635  1
  Ir  Ir35  1  0.027851  0.111322  0.750032  1
