# generated using pymatgen
data_Eu2Mn(SeO3)4
_symmetry_space_group_name_H-M   'P 1'
_cell_length_a   7.10051078
_cell_length_b   8.09016700
_cell_length_c   10.57637600
_cell_angle_alpha   70.12060145
_cell_angle_beta   90.02690287
_cell_angle_gamma   89.79227805
_symmetry_Int_Tables_number   1
_chemical_formula_structural   Eu2Mn(SeO3)4
_chemical_formula_sum   'Eu4 Mn2 Se8 O24'
_cell_volume   571.34422586
_cell_formula_units_Z   2
loop_
 _symmetry_equiv_pos_site_id
 _symmetry_equiv_pos_as_xyz
  1  'x, y, z'
loop_
 _atom_site_type_symbol
 _atom_site_label
 _atom_site_symmetry_multiplicity
 _atom_site_fract_x
 _atom_site_fract_y
 _atom_site_fract_z
 _atom_site_occupancy
  Eu  Eu0  1  0.649338  0.763532  0.082360  1
  Eu  Eu1  1  0.149163  0.737005  0.917325  1
  Eu  Eu2  1  0.350662  0.236468  0.917640  1
  Eu  Eu3  1  0.850837  0.262995  0.082675  1
  Mn  Mn4  1  0.500000  0.500000  0.500000  1
  Mn  Mn5  1  0.000000  0.000000  0.500000  1
  Se  Se6  1  0.669291  0.649972  0.804816  1
  Se  Se7  1  0.170363  0.849528  0.194989  1
  Se  Se8  1  0.330709  0.350028  0.195184  1
  Se  Se9  1  0.829637  0.150472  0.805011  1
  Se  Se10  1  0.354542  0.109623  0.632146  1
  Se  Se11  1  0.854664  0.390515  0.367740  1
  Se  Se12  1  0.645458  0.890377  0.367854  1
  Se  Se13  1  0.145336  0.609485  0.632260  1
  O  O14  1  0.381328  0.320153  0.642957  1
  O  O15  1  0.882119  0.180213  0.356203  1
  O  O16  1  0.618672  0.679847  0.357043  1
  O  O17  1  0.117881  0.819787  0.643797  1
  O  O18  1  0.611187  0.450369  0.795591  1
  O  O19  1  0.111672  0.049389  0.204152  1
  O  O20  1  0.388813  0.549631  0.204409  1
  O  O21  1  0.888328  0.950611  0.795848  1
  O  O22  1  0.837468  0.588097  0.934138  1
  O  O23  1  0.337462  0.911519  0.065510  1
  O  O24  1  0.162532  0.411903  0.065862  1
  O  O25  1  0.662538  0.088481  0.934490  1
  O  O26  1  0.152221  0.174475  0.530784  1
  O  O27  1  0.653062  0.325286  0.469112  1
  O  O28  1  0.847779  0.825525  0.469216  1
  O  O29  1  0.346938  0.674714  0.530888  1
  O  O30  1  0.493683  0.704914  0.897328  1
  O  O31  1  0.994710  0.795049  0.102196  1
  O  O32  1  0.506317  0.295086  0.102672  1
  O  O33  1  0.005290  0.204951  0.897804  1
  O  O34  1  0.284402  0.023286  0.791741  1
  O  O35  1  0.784332  0.477276  0.207982  1
  O  O36  1  0.715598  0.976714  0.208259  1
  O  O37  1  0.215668  0.522724  0.792018  1
