# generated using pymatgen
data_Eu2Dy(MgIr)3
_symmetry_space_group_name_H-M   'P 1'
_cell_length_a   7.25677606
_cell_length_b   7.25677643
_cell_length_c   4.21112600
_cell_angle_alpha   90.00000000
_cell_angle_beta   90.00000000
_cell_angle_gamma   119.54162568
_symmetry_Int_Tables_number   1
_chemical_formula_structural   Eu2Dy(MgIr)3
_chemical_formula_sum   'Eu2 Dy1 Mg3 Ir3'
_cell_volume   192.93179898
_cell_formula_units_Z   1
loop_
 _symmetry_equiv_pos_site_id
 _symmetry_equiv_pos_as_xyz
  1  'x, y, z'
loop_
 _atom_site_type_symbol
 _atom_site_label
 _atom_site_symmetry_multiplicity
 _atom_site_fract_x
 _atom_site_fract_y
 _atom_site_fract_z
 _atom_site_occupancy
  Eu  Eu0  1  0.417928  0.001129  0.500001  1
  Eu  Eu1  1  0.001129  0.417928  0.500001  1
  Dy  Dy2  1  0.588700  0.588700  0.500001  1
  Mg  Mg3  1  0.757115  0.001089  0.000000  1
  Mg  Mg4  1  0.239609  0.239610  0.000000  1
  Mg  Mg5  1  0.001089  0.757114  0.000000  1
  Ir  Ir6  1  0.661414  0.343461  0.000000  1
  Ir  Ir7  1  0.343462  0.661414  0.000000  1
  Ir  Ir8  1  0.989556  0.989556  0.500001  1
