# generated using pymatgen
data_Tb5Er2Tm5Os4
_symmetry_space_group_name_H-M   'P 1'
_cell_length_a   7.38883134
_cell_length_b   8.97542631
_cell_length_c   6.28724529
_cell_angle_alpha   89.76553130
_cell_angle_beta   89.93727751
_cell_angle_gamma   89.93292536
_symmetry_Int_Tables_number   1
_chemical_formula_structural   Tb5Er2Tm5Os4
_chemical_formula_sum   'Tb5 Er2 Tm5 Os4'
_cell_volume   416.95295003
_cell_formula_units_Z   1
loop_
 _symmetry_equiv_pos_site_id
 _symmetry_equiv_pos_as_xyz
  1  'x, y, z'
loop_
 _atom_site_type_symbol
 _atom_site_label
 _atom_site_symmetry_multiplicity
 _atom_site_fract_x
 _atom_site_fract_y
 _atom_site_fract_z
 _atom_site_occupancy
  Tb  Tb0  1  0.039234  0.251197  0.630323  1
  Tb  Tb1  1  0.960201  0.748841  0.370468  1
  Tb  Tb2  1  0.460832  0.748820  0.129549  1
  Tb  Tb3  1  0.540091  0.250753  0.869841  1
  Tb  Tb4  1  0.174920  0.063347  0.167179  1
  Er  Er5  1  0.824806  0.936186  0.832719  1
  Er  Er6  1  0.325973  0.936323  0.666355  1
  Tm  Tm7  1  0.825678  0.563051  0.833355  1
  Tm  Tm8  1  0.674080  0.063672  0.333847  1
  Tm  Tm9  1  0.173756  0.437747  0.166625  1
  Tm  Tm10  1  0.674440  0.436487  0.333480  1
  Tm  Tm11  1  0.325966  0.563080  0.666422  1
  Os  Os12  1  0.383240  0.251279  0.458150  1
  Os  Os13  1  0.617850  0.750113  0.542674  1
  Os  Os14  1  0.117448  0.747863  0.956023  1
  Os  Os15  1  0.881486  0.251240  0.042989  1
