# generated using pymatgen
data_Tb2Pr3Y3(CdPt)2
_symmetry_space_group_name_H-M   'P 1'
_cell_length_a   9.85378960
_cell_length_b   9.85378927
_cell_length_c   9.85378800
_cell_angle_alpha   59.99999754
_cell_angle_beta   59.99999865
_cell_angle_gamma   59.99999799
_symmetry_Int_Tables_number   1
_chemical_formula_structural   Tb2Pr3Y3(CdPt)2
_chemical_formula_sum   'Tb4 Pr6 Y6 Cd4 Pt4'
_cell_volume   676.54198364
_cell_formula_units_Z   2
loop_
 _symmetry_equiv_pos_site_id
 _symmetry_equiv_pos_as_xyz
  1  'x, y, z'
loop_
 _atom_site_type_symbol
 _atom_site_label
 _atom_site_symmetry_multiplicity
 _atom_site_fract_x
 _atom_site_fract_y
 _atom_site_fract_z
 _atom_site_occupancy
  Tb  Tb0  1  0.350398  0.350398  0.350398  1
  Tb  Tb1  1  0.350398  0.350398  0.948807  1
  Tb  Tb2  1  0.350398  0.948807  0.350398  1
  Tb  Tb3  1  0.948807  0.350398  0.350398  1
  Pr  Pr4  1  0.938638  0.561362  0.561362  1
  Pr  Pr5  1  0.561362  0.938638  0.938638  1
  Pr  Pr6  1  0.561362  0.938638  0.561362  1
  Pr  Pr7  1  0.938638  0.561362  0.938638  1
  Pr  Pr8  1  0.561362  0.561362  0.938638  1
  Pr  Pr9  1  0.938638  0.938638  0.561362  1
  Y  Y10  1  0.811589  0.188411  0.188411  1
  Y  Y11  1  0.188411  0.811589  0.811589  1
  Y  Y12  1  0.188411  0.811589  0.188411  1
  Y  Y13  1  0.811589  0.188411  0.811589  1
  Y  Y14  1  0.188411  0.188411  0.811589  1
  Y  Y15  1  0.811589  0.811589  0.188411  1
  Cd  Cd16  1  0.579557  0.579557  0.579557  1
  Cd  Cd17  1  0.579557  0.579557  0.261327  1
  Cd  Cd18  1  0.579557  0.261327  0.579557  1
  Cd  Cd19  1  0.261327  0.579557  0.579557  1
  Pt  Pt20  1  0.143010  0.143010  0.143010  1
  Pt  Pt21  1  0.143010  0.143010  0.570970  1
  Pt  Pt22  1  0.143010  0.570970  0.143010  1
  Pt  Pt23  1  0.570970  0.143010  0.143010  1
