# generated using pymatgen
data_HoEr11(InSi2)2
_symmetry_space_group_name_H-M   'P 1'
_cell_length_a   8.44452463
_cell_length_b   8.44452437
_cell_length_c   8.44160209
_cell_angle_alpha   112.56669352
_cell_angle_beta   110.88559568
_cell_angle_gamma   105.06972392
_symmetry_Int_Tables_number   1
_chemical_formula_structural   HoEr11(InSi2)2
_chemical_formula_sum   'Ho1 Er11 In2 Si4'
_cell_volume   461.16511106
_cell_formula_units_Z   1
loop_
 _symmetry_equiv_pos_site_id
 _symmetry_equiv_pos_as_xyz
  1  'x, y, z'
loop_
 _atom_site_type_symbol
 _atom_site_label
 _atom_site_symmetry_multiplicity
 _atom_site_fract_x
 _atom_site_fract_y
 _atom_site_fract_z
 _atom_site_occupancy
  Ho  Ho0  1  0.187291  0.279458  0.466750  1
  Er  Er1  1  0.812782  0.720545  0.533327  1
  Er  Er2  1  0.187113  0.720571  0.907683  1
  Er  Er3  1  0.812788  0.279478  0.092267  1
  Er  Er4  1  0.319555  0.615501  0.295855  1
  Er  Er5  1  0.680591  0.384581  0.704209  1
  Er  Er6  1  0.319628  0.023618  0.704209  1
  Er  Er7  1  0.680354  0.976300  0.295855  1
  Er  Er8  1  0.442350  0.237057  0.205010  1
  Er  Er9  1  0.557886  0.763081  0.794995  1
  Er  Er10  1  0.031913  0.237110  0.794995  1
  Er  Er11  1  0.967952  0.762658  0.205010  1
  In  In12  1  0.500026  0.500021  0.000047  1
  In  In13  1  0.999904  0.999798  0.999703  1
  Si  Si14  1  0.116147  0.616397  0.500021  1
  Si  Si15  1  0.883624  0.383874  0.500021  1
  Si  Si16  1  0.369368  0.999950  0.369318  1
  Si  Si17  1  0.630726  0.000000  0.630726  1
