# generated using pymatgen
data_Rb6Na4AlVP6
_symmetry_space_group_name_H-M   'P 1'
_cell_length_a   10.44818835
_cell_length_b   10.44818621
_cell_length_c   15.50640100
_cell_angle_alpha   90.00000000
_cell_angle_beta   90.00000000
_cell_angle_gamma   142.35289531
_symmetry_Int_Tables_number   1
_chemical_formula_structural   Rb6Na4AlVP6
_chemical_formula_sum   'Rb12 Na8 Al2 V2 P12'
_cell_volume   1033.92568113
_cell_formula_units_Z   2
loop_
 _symmetry_equiv_pos_site_id
 _symmetry_equiv_pos_as_xyz
  1  'x, y, z'
loop_
 _atom_site_type_symbol
 _atom_site_label
 _atom_site_symmetry_multiplicity
 _atom_site_fract_x
 _atom_site_fract_y
 _atom_site_fract_z
 _atom_site_occupancy
  Rb  Rb0  1  0.935921  0.605587  0.827314  1
  Rb  Rb1  1  0.564079  0.894413  0.327314  1
  Rb  Rb2  1  0.394413  0.064079  0.172686  1
  Rb  Rb3  1  0.056575  0.393624  0.174034  1
  Rb  Rb4  1  0.893624  0.556575  0.325966  1
  Rb  Rb5  1  0.443425  0.106376  0.674034  1
  Rb  Rb6  1  0.606376  0.943425  0.825966  1
  Rb  Rb7  1  0.269623  0.273527  0.316034  1
  Rb  Rb8  1  0.773527  0.769623  0.183966  1
  Rb  Rb9  1  0.230377  0.226473  0.816034  1
  Rb  Rb10  1  0.726473  0.730377  0.683966  1
  Rb  Rb11  1  0.105587  0.435921  0.672686  1
  Na  Na12  1  0.921182  0.078818  0.000000  1
  Na  Na13  1  0.578818  0.421182  0.500000  1
  Na  Na14  1  0.080023  0.919977  0.000000  1
  Na  Na15  1  0.419977  0.580023  0.500000  1
  Na  Na16  1  0.751978  0.248022  0.000000  1
  Na  Na17  1  0.748022  0.251978  0.500000  1
  Na  Na18  1  0.243566  0.756434  0.000000  1
  Na  Na19  1  0.256434  0.743566  0.500000  1
  Al  Al20  1  0.583981  0.416019  0.000000  1
  Al  Al21  1  0.916019  0.083981  0.500000  1
  V  V22  1  0.420690  0.579310  0.000000  1
  V  V23  1  0.079310  0.920690  0.500000  1
  P  P24  1  0.861528  0.555421  0.095454  1
  P  P25  1  0.444579  0.138472  0.904546  1
  P  P26  1  0.638472  0.944579  0.595454  1
  P  P27  1  0.953663  0.657342  0.587347  1
  P  P28  1  0.157342  0.453663  0.912653  1
  P  P29  1  0.546337  0.842658  0.087347  1
  P  P30  1  0.342658  0.046337  0.412653  1
  P  P31  1  0.192150  0.183909  0.583289  1
  P  P32  1  0.683909  0.692150  0.916711  1
  P  P33  1  0.307850  0.316091  0.083289  1
  P  P34  1  0.055421  0.361528  0.404546  1
  P  P35  1  0.816091  0.807850  0.416711  1
