# generated using pymatgen
data_Ba4La2Nd3Dy3Se16
_symmetry_space_group_name_H-M   'P 1'
_cell_length_a   4.32784200
_cell_length_b   12.90450293
_cell_length_c   15.51578013
_cell_angle_alpha   89.94342453
_cell_angle_beta   90.00000000
_cell_angle_gamma   90.00000000
_symmetry_Int_Tables_number   1
_chemical_formula_structural   Ba4La2Nd3Dy3Se16
_chemical_formula_sum   'Ba4 La2 Nd3 Dy3 Se16'
_cell_volume   866.53494794
_cell_formula_units_Z   1
loop_
 _symmetry_equiv_pos_site_id
 _symmetry_equiv_pos_as_xyz
  1  'x, y, z'
loop_
 _atom_site_type_symbol
 _atom_site_label
 _atom_site_symmetry_multiplicity
 _atom_site_fract_x
 _atom_site_fract_y
 _atom_site_fract_z
 _atom_site_occupancy
  Ba  Ba0  1  0.250000  0.755001  0.343296  1
  Ba  Ba1  1  0.250000  0.251561  0.160081  1
  Ba  Ba2  1  0.750000  0.244140  0.657510  1
  Ba  Ba3  1  0.750000  0.744974  0.839083  1
  La  La4  1  0.250000  0.420842  0.392156  1
  La  La5  1  0.250000  0.918485  0.106903  1
  Nd  Nd6  1  0.750000  0.578397  0.608406  1
  Nd  Nd7  1  0.750000  0.074631  0.888241  1
  Nd  Nd8  1  0.250000  0.427776  0.901008  1
  Dy  Dy9  1  0.250000  0.928453  0.599830  1
  Dy  Dy10  1  0.750000  0.575217  0.105198  1
  Dy  Dy11  1  0.750000  0.072340  0.397019  1
  Se  Se12  1  0.250000  0.214152  0.824186  1
  Se  Se13  1  0.250000  0.719298  0.671050  1
  Se  Se14  1  0.750000  0.780968  0.179332  1
  Se  Se15  1  0.750000  0.279525  0.324422  1
  Se  Se16  1  0.250000  0.129807  0.517191  1
  Se  Se17  1  0.250000  0.635930  0.986013  1
  Se  Se18  1  0.750000  0.872882  0.480085  1
  Se  Se19  1  0.750000  0.372428  0.026517  1
  Se  Se20  1  0.250000  0.516890  0.214771  1
  Se  Se21  1  0.250000  0.015967  0.285981  1
  Se  Se22  1  0.750000  0.487551  0.785297  1
  Se  Se23  1  0.750000  0.983277  0.710409  1
  Se  Se24  1  0.250000  0.421549  0.584087  1
  Se  Se25  1  0.250000  0.919623  0.914328  1
  Se  Se26  1  0.750000  0.580141  0.420064  1
  Se  Se27  1  0.750000  0.078197  0.077534  1
