# generated using pymatgen
data_Er16MgIn3(NiRh)2
_symmetry_space_group_name_H-M   'P 1'
_cell_length_a   9.52544700
_cell_length_b   9.52469227
_cell_length_c   9.51167924
_cell_angle_alpha   60.04382624
_cell_angle_beta   59.95210826
_cell_angle_gamma   59.99738358
_symmetry_Int_Tables_number   1
_chemical_formula_structural   Er16MgIn3(NiRh)2
_chemical_formula_sum   'Er16 Mg1 In3 Ni2 Rh2'
_cell_volume   610.17727360
_cell_formula_units_Z   1
loop_
 _symmetry_equiv_pos_site_id
 _symmetry_equiv_pos_as_xyz
  1  'x, y, z'
loop_
 _atom_site_type_symbol
 _atom_site_label
 _atom_site_symmetry_multiplicity
 _atom_site_fract_x
 _atom_site_fract_y
 _atom_site_fract_z
 _atom_site_occupancy
  Er  Er0  1  0.188067  0.191917  0.810452  1
  Er  Er1  1  0.439092  0.060848  0.060969  1
  Er  Er2  1  0.434887  0.062921  0.437183  1
  Er  Er3  1  0.063840  0.436873  0.063286  1
  Er  Er4  1  0.652574  0.049675  0.645179  1
  Er  Er5  1  0.188218  0.811872  0.811693  1
  Er  Er6  1  0.065008  0.062921  0.437183  1
  Er  Er7  1  0.810149  0.189511  0.190190  1
  Er  Er8  1  0.810376  0.813083  0.190526  1
  Er  Er9  1  0.653916  0.646484  0.045685  1
  Er  Er10  1  0.654981  0.651497  0.651748  1
  Er  Er11  1  0.064422  0.434998  0.436158  1
  Er  Er12  1  0.041775  0.651497  0.651748  1
  Er  Er13  1  0.809565  0.191917  0.810452  1
  Er  Er14  1  0.436000  0.436873  0.063286  1
  Er  Er15  1  0.186015  0.813083  0.190526  1
  Mg  Mg16  1  0.421823  0.733619  0.422735  1
  In  In17  1  0.416593  0.419532  0.747282  1
  In  In18  1  0.748508  0.418922  0.416800  1
  In  In19  1  0.415770  0.418922  0.416800  1
  Ni  Ni20  1  0.857901  0.425261  0.858937  1
  Ni  Ni21  1  0.857590  0.859110  0.425709  1
  Rh  Rh22  1  0.426649  0.859331  0.857738  1
  Rh  Rh23  1  0.856282  0.859331  0.857738  1
