# generated using pymatgen
data_Pr2Nd4(Ir5Rh)3
_symmetry_space_group_name_H-M   'P 1'
_cell_length_a   5.38320300
_cell_length_b   5.38309496
_cell_length_c   17.67233900
_cell_angle_alpha   90.00000000
_cell_angle_beta   90.00000000
_cell_angle_gamma   119.99694504
_symmetry_Int_Tables_number   1
_chemical_formula_structural   Pr2Nd4(Ir5Rh)3
_chemical_formula_sum   'Pr2 Nd4 Ir15 Rh3'
_cell_volume   443.51757361
_cell_formula_units_Z   1
loop_
 _symmetry_equiv_pos_site_id
 _symmetry_equiv_pos_as_xyz
  1  'x, y, z'
loop_
 _atom_site_type_symbol
 _atom_site_label
 _atom_site_symmetry_multiplicity
 _atom_site_fract_x
 _atom_site_fract_y
 _atom_site_fract_z
 _atom_site_occupancy
  Pr  Pr0  1  0.333326  0.666657  0.750000  1
  Pr  Pr1  1  0.666674  0.333332  0.250000  1
  Nd  Nd2  1  0.333333  0.666670  0.541217  1
  Nd  Nd3  1  0.666667  0.333330  0.041256  1
  Nd  Nd4  1  0.666667  0.333330  0.458744  1
  Nd  Nd5  1  0.333333  0.666670  0.958783  1
  Ir  Ir6  1  0.166783  0.333541  0.128020  1
  Ir  Ir7  1  0.833145  0.666314  0.627348  1
  Ir  Ir8  1  0.666461  0.833222  0.128024  1
  Ir  Ir9  1  0.166770  0.833234  0.128017  1
  Ir  Ir10  1  0.833159  0.166838  0.627344  1
  Ir  Ir11  1  0.333683  0.166851  0.627352  1
  Ir  Ir12  1  0.833145  0.666314  0.872652  1
  Ir  Ir13  1  0.833159  0.166838  0.872656  1
  Ir  Ir14  1  0.333683  0.166851  0.872648  1
  Ir  Ir15  1  0.666461  0.833222  0.371976  1
  Ir  Ir16  1  0.166770  0.833234  0.371983  1
  Ir  Ir17  1  0.166783  0.333541  0.371980  1
  Ir  Ir18  1  0.000013  0.999990  0.250000  1
  Ir  Ir19  1  0.999996  0.000010  0.000039  1
  Ir  Ir20  1  0.999996  0.000010  0.499961  1
  Rh  Rh21  1  0.999990  0.000039  0.750000  1
  Rh  Rh22  1  0.333307  0.666666  0.250000  1
  Rh  Rh23  1  0.666701  0.333300  0.750000  1
