# generated using pymatgen
data_CaYb2UN4
_symmetry_space_group_name_H-M   'P 1'
_cell_length_a   6.87454123
_cell_length_b   9.15524431
_cell_length_c   6.04641900
_cell_angle_alpha   29.08915848
_cell_angle_beta   55.35568162
_cell_angle_gamma   41.33286218
_symmetry_Int_Tables_number   1
_chemical_formula_structural   CaYb2UN4
_chemical_formula_sum   'Ca1 Yb2 U1 N4'
_cell_volume   117.54264678
_cell_formula_units_Z   1
loop_
 _symmetry_equiv_pos_site_id
 _symmetry_equiv_pos_as_xyz
  1  'x, y, z'
loop_
 _atom_site_type_symbol
 _atom_site_label
 _atom_site_symmetry_multiplicity
 _atom_site_fract_x
 _atom_site_fract_y
 _atom_site_fract_z
 _atom_site_occupancy
  Ca  Ca0  1  0.500000  0.000000  0.000000  1
  Yb  Yb1  1  0.250000  0.500000  0.000000  1
  Yb  Yb2  1  0.750000  0.500000  0.000000  1
  U  U3  1  0.000000  0.000000  0.000000  1
  N  N4  1  0.500000  0.500000  0.500000  1
  N  N5  1  0.203223  0.000000  0.593553  1
  N  N6  1  0.000000  0.500000  0.500000  1
  N  N7  1  0.796777  0.000000  0.406447  1
