# generated using pymatgen
data_Ir(OsCl6)5
_symmetry_space_group_name_H-M   'P 1'
_cell_length_a   13.25684383
_cell_length_b   13.25684338
_cell_length_c   6.22479967
_cell_angle_alpha   88.75789890
_cell_angle_beta   88.75789210
_cell_angle_gamma   86.85034287
_symmetry_Int_Tables_number   1
_chemical_formula_structural   Ir(OsCl6)5
_chemical_formula_sum   'Ir1 Os5 Cl30'
_cell_volume   1091.83140933
_cell_formula_units_Z   1
loop_
 _symmetry_equiv_pos_site_id
 _symmetry_equiv_pos_as_xyz
  1  'x, y, z'
loop_
 _atom_site_type_symbol
 _atom_site_label
 _atom_site_symmetry_multiplicity
 _atom_site_fract_x
 _atom_site_fract_y
 _atom_site_fract_z
 _atom_site_occupancy
  Ir  Ir0  1  0.899461  0.100539  0.000000  1
  Os  Os1  1  0.769079  0.564489  0.524286  1
  Os  Os2  1  0.435511  0.230921  0.475714  1
  Os  Os3  1  0.230768  0.435114  0.475602  1
  Os  Os4  1  0.564886  0.769232  0.524398  1
  Os  Os5  1  0.102177  0.897823  0.000000  1
  Cl  Cl6  1  0.667345  0.473294  0.747118  1
  Cl  Cl7  1  0.526706  0.332655  0.252882  1
  Cl  Cl8  1  0.332731  0.526604  0.252997  1
  Cl  Cl9  1  0.473396  0.667269  0.747003  1
  Cl  Cl10  1  0.798993  0.432268  0.307707  1
  Cl  Cl11  1  0.567732  0.201007  0.692293  1
  Cl  Cl12  1  0.950708  0.950496  0.213058  1
  Cl  Cl13  1  0.049504  0.049292  0.786942  1
  Cl  Cl14  1  0.763220  0.134615  0.220631  1
  Cl  Cl15  1  0.865385  0.236780  0.779369  1
  Cl  Cl16  1  0.235700  0.868359  0.776161  1
  Cl  Cl17  1  0.131641  0.764300  0.223839  1
  Cl  Cl18  1  0.809842  0.000032  0.791942  1
  Cl  Cl19  1  0.999968  0.190158  0.208058  1
  Cl  Cl20  1  0.192062  0.999343  0.208024  1
  Cl  Cl21  1  0.000657  0.807938  0.791976  1
  Cl  Cl22  1  0.715420  0.715551  0.729351  1
  Cl  Cl23  1  0.284449  0.284580  0.270649  1
  Cl  Cl24  1  0.535342  0.901727  0.740946  1
  Cl  Cl25  1  0.098273  0.464658  0.259054  1
  Cl  Cl26  1  0.464974  0.098447  0.259387  1
  Cl  Cl27  1  0.901553  0.535026  0.740613  1
  Cl  Cl28  1  0.666911  0.860331  0.301871  1
  Cl  Cl29  1  0.139669  0.333089  0.698129  1
  Cl  Cl30  1  0.333039  0.139778  0.698042  1
  Cl  Cl31  1  0.860222  0.666961  0.301958  1
  Cl  Cl32  1  0.618158  0.618314  0.319768  1
  Cl  Cl33  1  0.381686  0.381842  0.680232  1
  Cl  Cl34  1  0.432186  0.799355  0.308231  1
  Cl  Cl35  1  0.200645  0.567814  0.691769  1
