# generated using pymatgen
data_Tb2Sm4FeBr10
_symmetry_space_group_name_H-M   'P 1'
_cell_length_a   7.47557424
_cell_length_b   9.30916867
_cell_length_c   9.33849872
_cell_angle_alpha   108.05180297
_cell_angle_beta   96.23601674
_cell_angle_gamma   105.38392641
_symmetry_Int_Tables_number   1
_chemical_formula_structural   Tb2Sm4FeBr10
_chemical_formula_sum   'Tb2 Sm4 Fe1 Br10'
_cell_volume   582.69966887
_cell_formula_units_Z   1
loop_
 _symmetry_equiv_pos_site_id
 _symmetry_equiv_pos_as_xyz
  1  'x, y, z'
loop_
 _atom_site_type_symbol
 _atom_site_label
 _atom_site_symmetry_multiplicity
 _atom_site_fract_x
 _atom_site_fract_y
 _atom_site_fract_z
 _atom_site_occupancy
  Tb  Tb0  1  0.358935  0.133298  0.678076  1
  Tb  Tb1  1  0.641065  0.866702  0.321924  1
  Sm  Sm2  1  0.030485  0.712945  0.410902  1
  Sm  Sm3  1  0.969515  0.287055  0.589098  1
  Sm  Sm4  1  0.877340  0.954421  0.739530  1
  Sm  Sm5  1  0.122660  0.045579  0.260470  1
  Fe  Fe6  1  0.000000  0.000000  0.500000  1
  Br  Br7  1  0.453244  0.824009  0.583097  1
  Br  Br8  1  0.546756  0.175991  0.416903  1
  Br  Br9  1  0.912729  0.632291  0.674066  1
  Br  Br10  1  0.087271  0.367709  0.325934  1
  Br  Br11  1  0.251567  0.085038  0.951822  1
  Br  Br12  1  0.748433  0.914962  0.048178  1
  Br  Br13  1  0.352442  0.447805  0.770550  1
  Br  Br14  1  0.647558  0.552195  0.229450  1
  Br  Br15  1  0.782221  0.254514  0.846178  1
  Br  Br16  1  0.217779  0.745486  0.153822  1
