# generated using pymatgen
data_Tb16Er(TmIr4)3
_symmetry_space_group_name_H-M   'P 1'
_cell_length_a   10.91485200
_cell_length_b   10.91485200
_cell_length_c   6.37202800
_cell_angle_alpha   90.00000000
_cell_angle_beta   90.00000000
_cell_angle_gamma   90.00000000
_symmetry_Int_Tables_number   1
_chemical_formula_structural   Tb16Er(TmIr4)3
_chemical_formula_sum   'Tb16 Er1 Tm3 Ir12'
_cell_volume   759.12514668
_cell_formula_units_Z   1
loop_
 _symmetry_equiv_pos_site_id
 _symmetry_equiv_pos_as_xyz
  1  'x, y, z'
loop_
 _atom_site_type_symbol
 _atom_site_label
 _atom_site_symmetry_multiplicity
 _atom_site_fract_x
 _atom_site_fract_y
 _atom_site_fract_z
 _atom_site_occupancy
  Tb  Tb0  1  0.290281  0.087639  0.377931  1
  Tb  Tb1  1  0.290287  0.912339  0.877916  1
  Tb  Tb2  1  0.709713  0.087661  0.877916  1
  Tb  Tb3  1  0.709719  0.912361  0.377931  1
  Tb  Tb4  1  0.587671  0.790326  0.877950  1
  Tb  Tb5  1  0.587696  0.209588  0.377897  1
  Tb  Tb6  1  0.412304  0.790412  0.377897  1
  Tb  Tb7  1  0.412329  0.209674  0.877950  1
  Tb  Tb8  1  0.209588  0.412304  0.622103  1
  Tb  Tb9  1  0.209674  0.587671  0.122050  1
  Tb  Tb10  1  0.790326  0.412329  0.122050  1
  Tb  Tb11  1  0.790412  0.587696  0.622103  1
  Tb  Tb12  1  0.912339  0.709713  0.122084  1
  Tb  Tb13  1  0.912361  0.290281  0.622069  1
  Tb  Tb14  1  0.087639  0.709719  0.622069  1
  Tb  Tb15  1  0.087661  0.290287  0.122084  1
  Er  Er16  1  0.500000  0.500000  0.500000  1
  Tm  Tm17  1  0.000000  0.000000  0.500000  1
  Tm  Tm18  1  0.000000  0.000000  0.000000  1
  Tm  Tm19  1  0.500000  0.500000  0.000000  1
  Ir  Ir20  1  0.848083  0.151916  0.250000  1
  Ir  Ir21  1  0.848084  0.848083  0.750000  1
  Ir  Ir22  1  0.151916  0.151917  0.750000  1
  Ir  Ir23  1  0.151917  0.848084  0.250000  1
  Ir  Ir24  1  0.652111  0.347898  0.750265  1
  Ir  Ir25  1  0.652102  0.652111  0.249735  1
  Ir  Ir26  1  0.347898  0.347889  0.249735  1
  Ir  Ir27  1  0.347889  0.652102  0.750265  1
  Ir  Ir28  1  0.500000  0.000000  0.121128  1
  Ir  Ir29  1  0.500000  0.000000  0.621140  1
  Ir  Ir30  1  0.000000  0.500000  0.878872  1
  Ir  Ir31  1  0.000000  0.500000  0.378860  1
