# generated using pymatgen
data_NdY2AuO7
_symmetry_space_group_name_H-M   'P 1'
_cell_length_a   6.55543991
_cell_length_b   6.55543946
_cell_length_c   7.56534000
_cell_angle_alpha   90.00000000
_cell_angle_beta   90.00000000
_cell_angle_gamma   108.94301391
_symmetry_Int_Tables_number   1
_chemical_formula_structural   NdY2AuO7
_chemical_formula_sum   'Nd2 Y4 Au2 O14'
_cell_volume   307.50392200
_cell_formula_units_Z   2
loop_
 _symmetry_equiv_pos_site_id
 _symmetry_equiv_pos_as_xyz
  1  'x, y, z'
loop_
 _atom_site_type_symbol
 _atom_site_label
 _atom_site_symmetry_multiplicity
 _atom_site_fract_x
 _atom_site_fract_y
 _atom_site_fract_z
 _atom_site_occupancy
  Nd  Nd0  1  0.500000  0.500000  0.500000  1
  Nd  Nd1  1  0.500000  0.500000  0.000000  1
  Y  Y2  1  0.527890  0.998427  0.750000  1
  Y  Y3  1  0.998427  0.527890  0.250000  1
  Y  Y4  1  0.472110  0.001573  0.250000  1
  Y  Y5  1  0.001573  0.472110  0.750000  1
  Au  Au6  1  0.000000  0.000000  0.500000  1
  Au  Au7  1  0.000000  0.000000  0.000000  1
  O  O8  1  0.672385  0.923799  0.476759  1
  O  O9  1  0.923799  0.672385  0.523241  1
  O  O10  1  0.672385  0.923799  0.023241  1
  O  O11  1  0.923799  0.672385  0.976759  1
  O  O12  1  0.327615  0.076201  0.523241  1
  O  O13  1  0.076201  0.327615  0.476759  1
  O  O14  1  0.327615  0.076201  0.976759  1
  O  O15  1  0.076201  0.327615  0.023241  1
  O  O16  1  0.923241  0.076759  0.750000  1
  O  O17  1  0.076759  0.923241  0.250000  1
  O  O18  1  0.362322  0.637678  0.750000  1
  O  O19  1  0.637678  0.362322  0.250000  1
  O  O20  1  0.643221  0.356779  0.750000  1
  O  O21  1  0.356779  0.643221  0.250000  1
