# generated using pymatgen
data_ZrMnSeBr12
_symmetry_space_group_name_H-M   'P 1'
_cell_length_a   9.52102846
_cell_length_b   9.52102774
_cell_length_c   7.15942000
_cell_angle_alpha   71.84351682
_cell_angle_beta   71.84351825
_cell_angle_gamma   80.61949115
_symmetry_Int_Tables_number   1
_chemical_formula_structural   ZrMnSeBr12
_chemical_formula_sum   'Zr1 Mn1 Se1 Br12'
_cell_volume   584.41908741
_cell_formula_units_Z   1
loop_
 _symmetry_equiv_pos_site_id
 _symmetry_equiv_pos_as_xyz
  1  'x, y, z'
loop_
 _atom_site_type_symbol
 _atom_site_label
 _atom_site_symmetry_multiplicity
 _atom_site_fract_x
 _atom_site_fract_y
 _atom_site_fract_z
 _atom_site_occupancy
  Zr  Zr0  1  0.269366  0.269366  0.736646  1
  Mn  Mn1  1  0.999296  0.999296  0.002606  1
  Se  Se2  1  0.725955  0.725955  0.266695  1
  Br  Br3  1  0.969522  0.246049  0.758024  1
  Br  Br4  1  0.246049  0.969522  0.758024  1
  Br  Br5  1  0.038828  0.761041  0.238931  1
  Br  Br6  1  0.761041  0.038828  0.238931  1
  Br  Br7  1  0.204888  0.520166  0.799435  1
  Br  Br8  1  0.520166  0.204888  0.799435  1
  Br  Br9  1  0.780248  0.486030  0.210356  1
  Br  Br10  1  0.486030  0.780248  0.210356  1
  Br  Br11  1  0.126323  0.126323  0.153280  1
  Br  Br12  1  0.880876  0.880876  0.841485  1
  Br  Br13  1  0.650933  0.650933  0.634039  1
  Br  Br14  1  0.340480  0.340480  0.351756  1
