# generated using pymatgen
data_Tm4AsRh12
_symmetry_space_group_name_H-M   'P 1'
_cell_length_a   7.16280132
_cell_length_b   7.16280091
_cell_length_c   7.16280100
_cell_angle_alpha   109.47121806
_cell_angle_beta   109.47121691
_cell_angle_gamma   109.47121751
_symmetry_Int_Tables_number   1
_chemical_formula_structural   Tm4AsRh12
_chemical_formula_sum   'Tm4 As1 Rh12'
_cell_volume   282.89601533
_cell_formula_units_Z   1
loop_
 _symmetry_equiv_pos_site_id
 _symmetry_equiv_pos_as_xyz
  1  'x, y, z'
loop_
 _atom_site_type_symbol
 _atom_site_label
 _atom_site_symmetry_multiplicity
 _atom_site_fract_x
 _atom_site_fract_y
 _atom_site_fract_z
 _atom_site_occupancy
  Tm  Tm0  1  0.000000  0.000000  0.500000  1
  Tm  Tm1  1  0.000000  0.500000  0.000000  1
  Tm  Tm2  1  0.500000  0.000000  0.000000  1
  Tm  Tm3  1  0.500000  0.500000  0.500000  1
  As  As4  1  0.000000  0.000000  0.000000  1
  Rh  Rh5  1  0.750000  0.250000  0.500000  1
  Rh  Rh6  1  0.750000  0.500000  0.250000  1
  Rh  Rh7  1  0.500000  0.250000  0.750000  1
  Rh  Rh8  1  0.250000  0.500000  0.750000  1
  Rh  Rh9  1  0.250000  0.750000  0.500000  1
  Rh  Rh10  1  0.500000  0.750000  0.250000  1
  Rh  Rh11  1  0.714625  0.714625  0.000000  1
  Rh  Rh12  1  0.285375  0.000000  0.285375  1
  Rh  Rh13  1  0.000000  0.285375  0.285375  1
  Rh  Rh14  1  0.285375  0.285375  0.000000  1
  Rh  Rh15  1  0.714625  0.000000  0.714625  1
  Rh  Rh16  1  0.000000  0.714625  0.714625  1
