# generated using pymatgen
data_Ho2Tm8CoNiSb4
_symmetry_space_group_name_H-M   'P 1'
_cell_length_a   7.78925300
_cell_length_b   8.72537600
_cell_length_c   12.03670000
_cell_angle_alpha   90.00000000
_cell_angle_beta   90.00000000
_cell_angle_gamma   90.00000000
_symmetry_Int_Tables_number   1
_chemical_formula_structural   Ho2Tm8CoNiSb4
_chemical_formula_sum   'Ho4 Tm16 Co2 Ni2 Sb8'
_cell_volume   818.06421892
_cell_formula_units_Z   2
loop_
 _symmetry_equiv_pos_site_id
 _symmetry_equiv_pos_as_xyz
  1  'x, y, z'
loop_
 _atom_site_type_symbol
 _atom_site_label
 _atom_site_symmetry_multiplicity
 _atom_site_fract_x
 _atom_site_fract_y
 _atom_site_fract_z
 _atom_site_occupancy
  Ho  Ho0  1  0.625697  0.750000  0.305173  1
  Ho  Ho1  1  0.125697  0.250000  0.194827  1
  Ho  Ho2  1  0.376439  0.250000  0.692831  1
  Ho  Ho3  1  0.876439  0.750000  0.807169  1
  Tm  Tm4  1  0.155843  0.750000  0.204096  1
  Tm  Tm5  1  0.655843  0.250000  0.295904  1
  Tm  Tm6  1  0.841868  0.250000  0.792682  1
  Tm  Tm7  1  0.341868  0.750000  0.707318  1
  Tm  Tm8  1  0.450145  0.750000  0.999134  1
  Tm  Tm9  1  0.950145  0.250000  0.500866  1
  Tm  Tm10  1  0.548106  0.250000  0.001520  1
  Tm  Tm11  1  0.048106  0.750000  0.498480  1
  Tm  Tm12  1  0.823115  0.957737  0.065646  1
  Tm  Tm13  1  0.323115  0.042263  0.434354  1
  Tm  Tm14  1  0.177787  0.464660  0.933529  1
  Tm  Tm15  1  0.677787  0.535340  0.566471  1
  Tm  Tm16  1  0.177787  0.035340  0.933529  1
  Tm  Tm17  1  0.677787  0.964660  0.566471  1
  Tm  Tm18  1  0.823115  0.542263  0.065646  1
  Tm  Tm19  1  0.323115  0.457737  0.434354  1
  Co  Co20  1  0.568796  0.250000  0.509216  1
  Co  Co21  1  0.068796  0.750000  0.990784  1
  Ni  Ni22  1  0.430688  0.750000  0.490758  1
  Ni  Ni23  1  0.930688  0.250000  0.009242  1
  Sb  Sb24  1  0.931193  0.991734  0.327932  1
  Sb  Sb25  1  0.431193  0.008266  0.172068  1
  Sb  Sb26  1  0.069114  0.491690  0.671744  1
  Sb  Sb27  1  0.569114  0.508310  0.828256  1
  Sb  Sb28  1  0.069114  0.008310  0.671744  1
  Sb  Sb29  1  0.569114  0.991690  0.828256  1
  Sb  Sb30  1  0.931193  0.508266  0.327932  1
  Sb  Sb31  1  0.431193  0.491734  0.172068  1
