# generated using pymatgen
data_Li2Zr(NiAs)3
_symmetry_space_group_name_H-M   'P 1'
_cell_length_a   6.24010888
_cell_length_b   6.16365310
_cell_length_c   3.88633200
_cell_angle_alpha   90.00000000
_cell_angle_beta   90.00000000
_cell_angle_gamma   119.59552052
_symmetry_Int_Tables_number   1
_chemical_formula_structural   Li2Zr(NiAs)3
_chemical_formula_sum   'Li2 Zr1 Ni3 As3'
_cell_volume   129.97403269
_cell_formula_units_Z   1
loop_
 _symmetry_equiv_pos_site_id
 _symmetry_equiv_pos_as_xyz
  1  'x, y, z'
loop_
 _atom_site_type_symbol
 _atom_site_label
 _atom_site_symmetry_multiplicity
 _atom_site_fract_x
 _atom_site_fract_y
 _atom_site_fract_z
 _atom_site_occupancy
  Li  Li0  1  0.431395  0.428562  0.500000  1
  Li  Li1  1  0.568605  0.997167  0.500000  1
  Zr  Zr2  1  0.000000  0.570674  0.500000  1
  Ni  Ni3  1  0.765768  0.757740  0.000000  1
  Ni  Ni4  1  0.000000  0.240281  0.000000  1
  Ni  Ni5  1  0.234232  0.991972  0.000000  1
  As  As6  1  0.651602  0.324543  0.000000  1
  As  As7  1  0.348398  0.672942  0.000000  1
  As  As8  1  0.000000  0.016121  0.500000  1
