# generated using pymatgen
data_Tb7Yb12ErSn16
_symmetry_space_group_name_H-M   'P 1'
_cell_length_a   7.85590546
_cell_length_b   8.43948661
_cell_length_c   16.09008330
_cell_angle_alpha   89.97934260
_cell_angle_beta   89.99185314
_cell_angle_gamma   89.96153396
_symmetry_Int_Tables_number   1
_chemical_formula_structural   Tb7Yb12ErSn16
_chemical_formula_sum   'Tb7 Yb12 Er1 Sn16'
_cell_volume   1066.76912890
_cell_formula_units_Z   1
loop_
 _symmetry_equiv_pos_site_id
 _symmetry_equiv_pos_as_xyz
  1  'x, y, z'
loop_
 _atom_site_type_symbol
 _atom_site_label
 _atom_site_symmetry_multiplicity
 _atom_site_fract_x
 _atom_site_fract_y
 _atom_site_fract_z
 _atom_site_occupancy
  Tb  Tb0  1  0.670438  0.167080  0.621945  1
  Tb  Tb1  1  0.170536  0.333252  0.877745  1
  Tb  Tb2  1  0.329446  0.833172  0.122032  1
  Tb  Tb3  1  0.829685  0.666683  0.378297  1
  Tb  Tb4  1  0.329302  0.833087  0.378396  1
  Tb  Tb5  1  0.829442  0.666745  0.122036  1
  Tb  Tb6  1  0.670710  0.167003  0.877655  1
  Yb  Yb7  1  0.502465  0.687470  0.593243  1
  Yb  Yb8  1  0.002873  0.812148  0.906635  1
  Yb  Yb9  1  0.497290  0.312170  0.093195  1
  Yb  Yb10  1  0.997566  0.187739  0.407278  1
  Yb  Yb11  1  0.497250  0.312224  0.406869  1
  Yb  Yb12  1  0.997186  0.187835  0.093177  1
  Yb  Yb13  1  0.502557  0.687651  0.906569  1
  Yb  Yb14  1  0.002821  0.812104  0.593134  1
  Yb  Yb15  1  0.832617  0.511276  0.749832  1
  Yb  Yb16  1  0.332926  0.988609  0.749689  1
  Yb  Yb17  1  0.167150  0.488436  0.250237  1
  Yb  Yb18  1  0.667001  0.011387  0.250047  1
  Er  Er19  1  0.170504  0.333576  0.622235  1
  Sn  Sn20  1  0.671603  0.964849  0.459662  1
  Sn  Sn21  1  0.172000  0.535267  0.040443  1
  Sn  Sn22  1  0.328127  0.035312  0.959350  1
  Sn  Sn23  1  0.829498  0.464159  0.540895  1
  Sn  Sn24  1  0.326652  0.036328  0.540838  1
  Sn  Sn25  1  0.827882  0.464635  0.959460  1
  Sn  Sn26  1  0.672041  0.964771  0.040411  1
  Sn  Sn27  1  0.172581  0.534598  0.460370  1
  Sn  Sn28  1  0.467334  0.375850  0.749169  1
  Sn  Sn29  1  0.968888  0.124964  0.749511  1
  Sn  Sn30  1  0.531789  0.623912  0.250191  1
  Sn  Sn31  1  0.031644  0.875969  0.250168  1
  Sn  Sn32  1  0.714666  0.872992  0.749782  1
  Sn  Sn33  1  0.213276  0.627112  0.749176  1
  Sn  Sn34  1  0.285998  0.127269  0.250185  1
  Sn  Sn35  1  0.786255  0.372366  0.250141  1
