# generated using pymatgen
data_Hf4CrSiGe2N
_symmetry_space_group_name_H-M   'P 1'
_cell_length_a   7.74297727
_cell_length_b   7.74297746
_cell_length_c   5.40060392
_cell_angle_alpha   89.91539580
_cell_angle_beta   89.91539147
_cell_angle_gamma   120.08561967
_symmetry_Int_Tables_number   1
_chemical_formula_structural   Hf4CrSiGe2N
_chemical_formula_sum   'Hf8 Cr2 Si2 Ge4 N2'
_cell_volume   280.16359444
_cell_formula_units_Z   2
loop_
 _symmetry_equiv_pos_site_id
 _symmetry_equiv_pos_as_xyz
  1  'x, y, z'
loop_
 _atom_site_type_symbol
 _atom_site_label
 _atom_site_symmetry_multiplicity
 _atom_site_fract_x
 _atom_site_fract_y
 _atom_site_fract_z
 _atom_site_occupancy
  Hf  Hf0  1  0.235735  0.003254  0.248690  1
  Hf  Hf1  1  0.764265  0.996746  0.751310  1
  Hf  Hf2  1  0.003254  0.235735  0.248690  1
  Hf  Hf3  1  0.996746  0.764265  0.751310  1
  Hf  Hf4  1  0.763641  0.763641  0.249611  1
  Hf  Hf5  1  0.236359  0.236359  0.750389  1
  Hf  Hf6  1  0.663184  0.336816  0.500000  1
  Hf  Hf7  1  0.336816  0.663184  0.500000  1
  Cr  Cr8  1  0.337417  0.662583  0.000000  1
  Cr  Cr9  1  0.662583  0.337417  0.000000  1
  Si  Si10  1  0.411180  0.411180  0.215672  1
  Si  Si11  1  0.588820  0.588820  0.784328  1
  Ge  Ge12  1  0.591938  0.001698  0.227684  1
  Ge  Ge13  1  0.408062  0.998302  0.772316  1
  Ge  Ge14  1  0.001698  0.591938  0.227684  1
  Ge  Ge15  1  0.998302  0.408062  0.772316  1
  N  N16  1  0.000000  0.000000  0.000000  1
  N  N17  1  0.000000  0.000000  0.500000  1
