# generated using pymatgen
data_NaYSc3Ni9As7
_symmetry_space_group_name_H-M   'P 1'
_cell_length_a   9.71798600
_cell_length_b   9.71798708
_cell_length_c   3.89434000
_cell_angle_alpha   90.00000000
_cell_angle_beta   90.00000000
_cell_angle_gamma   120.00000221
_symmetry_Int_Tables_number   1
_chemical_formula_structural   NaYSc3Ni9As7
_chemical_formula_sum   'Na1 Y1 Sc3 Ni9 As7'
_cell_volume   318.50560106
_cell_formula_units_Z   1
loop_
 _symmetry_equiv_pos_site_id
 _symmetry_equiv_pos_as_xyz
  1  'x, y, z'
loop_
 _atom_site_type_symbol
 _atom_site_label
 _atom_site_symmetry_multiplicity
 _atom_site_fract_x
 _atom_site_fract_y
 _atom_site_fract_z
 _atom_site_occupancy
  Na  Na0  1  0.666667  0.333333  0.500000  1
  Y  Y1  1  0.333333  0.666667  0.000000  1
  Sc  Sc2  1  0.232555  0.118669  0.500000  1
  Sc  Sc3  1  0.881331  0.113885  0.500000  1
  Sc  Sc4  1  0.886115  0.767445  0.500000  1
  Ni  Ni5  1  0.125747  0.286800  0.000000  1
  Ni  Ni6  1  0.713200  0.838948  0.000000  1
  Ni  Ni7  1  0.161052  0.874253  0.000000  1
  Ni  Ni8  1  0.418688  0.360172  0.000000  1
  Ni  Ni9  1  0.639828  0.058517  0.000000  1
  Ni  Ni10  1  0.941483  0.581312  0.000000  1
  Ni  Ni11  1  0.051437  0.441627  0.500000  1
  Ni  Ni12  1  0.558373  0.609810  0.500000  1
  Ni  Ni13  1  0.390190  0.948563  0.500000  1
  As  As14  1  0.286540  0.416171  0.500000  1
  As  As15  1  0.583829  0.870369  0.500000  1
  As  As16  1  0.129631  0.713460  0.500000  1
  As  As17  1  0.427247  0.109796  0.000000  1
  As  As18  1  0.890204  0.317451  0.000000  1
  As  As19  1  0.682549  0.572753  0.000000  1
  As  As20  1  0.000000  0.000000  0.000000  1
