# generated using pymatgen
data_Tb4Tm16Bi11Pb
_symmetry_space_group_name_H-M   'P 1'
_cell_length_a   8.16658192
_cell_length_b   9.39569448
_cell_length_c   11.87885500
_cell_angle_alpha   90.06187122
_cell_angle_beta   89.97280644
_cell_angle_gamma   90.00165755
_symmetry_Int_Tables_number   1
_chemical_formula_structural   Tb4Tm16Bi11Pb
_chemical_formula_sum   'Tb4 Tm16 Bi11 Pb1'
_cell_volume   911.47232800
_cell_formula_units_Z   1
loop_
 _symmetry_equiv_pos_site_id
 _symmetry_equiv_pos_as_xyz
  1  'x, y, z'
loop_
 _atom_site_type_symbol
 _atom_site_label
 _atom_site_symmetry_multiplicity
 _atom_site_fract_x
 _atom_site_fract_y
 _atom_site_fract_z
 _atom_site_occupancy
  Tb  Tb0  1  0.314908  0.249549  0.218452  1
  Tb  Tb1  1  0.812485  0.248361  0.282219  1
  Tb  Tb2  1  0.685947  0.750031  0.781980  1
  Tb  Tb3  1  0.186093  0.750291  0.718266  1
  Tm  Tm4  1  0.354462  0.751710  0.218782  1
  Tm  Tm5  1  0.849997  0.751253  0.282400  1
  Tm  Tm6  1  0.647694  0.250097  0.782291  1
  Tm  Tm7  1  0.147940  0.249662  0.717758  1
  Tm  Tm8  1  0.691840  0.565341  0.060021  1
  Tm  Tm9  1  0.193784  0.934485  0.439594  1
  Tm  Tm10  1  0.307992  0.065974  0.939874  1
  Tm  Tm11  1  0.808278  0.434411  0.560384  1
  Tm  Tm12  1  0.308227  0.434145  0.939565  1
  Tm  Tm13  1  0.807266  0.065753  0.559883  1
  Tm  Tm14  1  0.691662  0.934440  0.061306  1
  Tm  Tm15  1  0.191903  0.565418  0.439949  1
  Tm  Tm16  1  0.477714  0.247977  0.487531  1
  Tm  Tm17  1  0.976644  0.250160  0.010946  1
  Tm  Tm18  1  0.523659  0.751025  0.509866  1
  Tm  Tm19  1  0.023588  0.749845  0.989022  1
  Bi  Bi20  1  0.403775  0.749963  0.959904  1
  Bi  Bi21  1  0.904289  0.749994  0.540391  1
  Bi  Bi22  1  0.596344  0.250067  0.040111  1
  Bi  Bi23  1  0.095971  0.249947  0.459505  1
  Bi  Bi24  1  0.065363  0.505526  0.173905  1
  Bi  Bi25  1  0.434300  0.494367  0.673272  1
  Bi  Bi26  1  0.934422  0.005456  0.826269  1
  Bi  Bi27  1  0.434549  0.005558  0.674281  1
  Bi  Bi28  1  0.934197  0.494465  0.826281  1
  Bi  Bi29  1  0.565389  0.504840  0.326447  1
  Bi  Bi30  1  0.064888  0.994701  0.173355  1
  Pb  Pb31  1  0.564427  0.995188  0.326192  1
