# generated using pymatgen
data_Y6Al24Os5Pt3
_symmetry_space_group_name_H-M   'P 1'
_cell_length_a   8.82345200
_cell_length_b   8.84301052
_cell_length_c   9.55545627
_cell_angle_alpha   90.14577253
_cell_angle_beta   89.72480359
_cell_angle_gamma   119.57192504
_symmetry_Int_Tables_number   1
_chemical_formula_structural   Y6Al24Os5Pt3
_chemical_formula_sum   'Y6 Al24 Os5 Pt3'
_cell_volume   648.44471517
_cell_formula_units_Z   1
loop_
 _symmetry_equiv_pos_site_id
 _symmetry_equiv_pos_as_xyz
  1  'x, y, z'
loop_
 _atom_site_type_symbol
 _atom_site_label
 _atom_site_symmetry_multiplicity
 _atom_site_fract_x
 _atom_site_fract_y
 _atom_site_fract_z
 _atom_site_occupancy
  Y  Y0  1  0.188426  0.383500  0.250510  1
  Y  Y1  1  0.811574  0.616500  0.749490  1
  Y  Y2  1  0.613558  0.813002  0.252370  1
  Y  Y3  1  0.386442  0.186998  0.747630  1
  Y  Y4  1  0.194579  0.808340  0.251404  1
  Y  Y5  1  0.805421  0.191660  0.748596  1
  Al  Al6  1  0.335288  0.671448  0.028553  1
  Al  Al7  1  0.664712  0.328552  0.971447  1
  Al  Al8  1  0.669271  0.331546  0.527935  1
  Al  Al9  1  0.330729  0.668454  0.472065  1
  Al  Al10  1  0.157913  0.326011  0.574498  1
  Al  Al11  1  0.842087  0.673989  0.425502  1
  Al  Al12  1  0.673308  0.841081  0.575237  1
  Al  Al13  1  0.836693  0.675846  0.077662  1
  Al  Al14  1  0.326692  0.158919  0.424763  1
  Al  Al15  1  0.163307  0.324154  0.922338  1
  Al  Al16  1  0.163738  0.834926  0.576131  1
  Al  Al17  1  0.325571  0.158344  0.076571  1
  Al  Al18  1  0.836262  0.165074  0.423869  1
  Al  Al19  1  0.674429  0.841656  0.923429  1
  Al  Al20  1  0.831251  0.158758  0.078203  1
  Al  Al21  1  0.168749  0.841242  0.921797  1
  Al  Al22  1  0.560752  0.124742  0.250079  1
  Al  Al23  1  0.439248  0.875258  0.749921  1
  Al  Al24  1  0.873847  0.437326  0.252738  1
  Al  Al25  1  0.126153  0.562674  0.747262  1
  Al  Al26  1  0.562652  0.435928  0.249937  1
  Al  Al27  1  0.437348  0.564072  0.750063  1
  Al  Al28  1  0.998909  0.002560  0.250184  1
  Al  Al29  1  0.001091  0.997440  0.749816  1
  Os  Os30  1  0.500000  0.000000  0.000000  1
  Os  Os31  1  0.500000  0.000000  0.500000  1
  Os  Os32  1  0.000000  0.500000  0.500000  1
  Os  Os33  1  0.000000  0.000000  0.000000  1
  Os  Os34  1  0.000000  0.000000  0.500000  1
  Pt  Pt35  1  0.000000  0.500000  0.000000  1
  Pt  Pt36  1  0.500000  0.500000  0.000000  1
  Pt  Pt37  1  0.500000  0.500000  0.500000  1
