# generated using pymatgen
data_Tm3U3(Ni3Sb4)2
_symmetry_space_group_name_H-M   'P 1'
_cell_length_a   8.10364479
_cell_length_b   8.09517371
_cell_length_c   8.09517425
_cell_angle_alpha   109.51433936
_cell_angle_beta   109.27189164
_cell_angle_gamma   109.58529062
_symmetry_Int_Tables_number   1
_chemical_formula_structural   Tm3U3(Ni3Sb4)2
_chemical_formula_sum   'Tm3 U3 Ni6 Sb8'
_cell_volume   409.00993603
_cell_formula_units_Z   1
loop_
 _symmetry_equiv_pos_site_id
 _symmetry_equiv_pos_as_xyz
  1  'x, y, z'
loop_
 _atom_site_type_symbol
 _atom_site_label
 _atom_site_symmetry_multiplicity
 _atom_site_fract_x
 _atom_site_fract_y
 _atom_site_fract_z
 _atom_site_occupancy
  Tm  Tm0  1  0.874880  0.249325  0.124575  1
  Tm  Tm1  1  0.625120  0.749695  0.374445  1
  Tm  Tm2  1  0.250000  0.125903  0.875903  1
  U  U3  1  0.750000  0.373402  0.623402  1
  U  U4  1  0.122957  0.873755  0.249646  1
  U  U5  1  0.377043  0.626690  0.750798  1
  Ni  Ni6  1  0.378710  0.251415  0.621640  1
  Ni  Ni7  1  0.121290  0.742929  0.872705  1
  Ni  Ni8  1  0.250000  0.627143  0.377143  1
  Ni  Ni9  1  0.750000  0.871200  0.121200  1
  Ni  Ni10  1  0.630010  0.377106  0.261815  1
  Ni  Ni11  1  0.869990  0.131805  0.747096  1
  Sb  Sb12  1  0.659456  0.497039  0.001759  1
  Sb  Sb13  1  0.500448  0.997923  0.662177  1
  Sb  Sb14  1  0.999552  0.661728  0.497474  1
  Sb  Sb15  1  0.840544  0.842302  0.837582  1
  Sb  Sb16  1  0.501238  0.002213  0.160811  1
  Sb  Sb17  1  0.162829  0.499936  0.001746  1
  Sb  Sb18  1  0.998762  0.159572  0.500975  1
  Sb  Sb19  1  0.337171  0.338918  0.337108  1
