# generated using pymatgen
data_Li2La3ErPt3
_symmetry_space_group_name_H-M   'P 1'
_cell_length_a   7.70033500
_cell_length_b   7.62450648
_cell_length_c   4.18653700
_cell_angle_alpha   90.00000000
_cell_angle_beta   90.00000000
_cell_angle_gamma   120.32955212
_symmetry_Int_Tables_number   1
_chemical_formula_structural   Li2La3ErPt3
_chemical_formula_sum   'Li2 La3 Er1 Pt3'
_cell_volume   212.15590501
_cell_formula_units_Z   1
loop_
 _symmetry_equiv_pos_site_id
 _symmetry_equiv_pos_as_xyz
  1  'x, y, z'
loop_
 _atom_site_type_symbol
 _atom_site_label
 _atom_site_symmetry_multiplicity
 _atom_site_fract_x
 _atom_site_fract_y
 _atom_site_fract_z
 _atom_site_occupancy
  Li  Li0  1  0.004228  0.240825  0.500000  1
  Li  Li1  1  0.763401  0.759175  0.500000  1
  La  La2  1  0.417774  0.442190  0.000000  1
  La  La3  1  0.615567  0.000000  0.000000  1
  La  La4  1  0.975583  0.557810  0.000000  1
  Er  Er5  1  0.240245  0.000000  0.500000  1
  Pt  Pt6  1  0.002972  0.000000  0.000000  1
  Pt  Pt7  1  0.651936  0.323641  0.500000  1
  Pt  Pt8  1  0.328294  0.676359  0.500000  1
