# generated using pymatgen
data_Sc5TcAs2
_symmetry_space_group_name_H-M   'P 1'
_cell_length_a   5.88592800
_cell_length_b   7.81398390
_cell_length_c   7.97720605
_cell_angle_alpha   119.32543545
_cell_angle_beta   90.00000000
_cell_angle_gamma   90.00000000
_symmetry_Int_Tables_number   1
_chemical_formula_structural   Sc5TcAs2
_chemical_formula_sum   'Sc10 Tc2 As4'
_cell_volume   319.87551817
_cell_formula_units_Z   2
loop_
 _symmetry_equiv_pos_site_id
 _symmetry_equiv_pos_as_xyz
  1  'x, y, z'
loop_
 _atom_site_type_symbol
 _atom_site_label
 _atom_site_symmetry_multiplicity
 _atom_site_fract_x
 _atom_site_fract_y
 _atom_site_fract_z
 _atom_site_occupancy
  Sc  Sc0  1  0.000000  0.661135  0.322268  1
  Sc  Sc1  1  0.000000  0.338865  0.677732  1
  Sc  Sc2  1  0.500000  0.338865  0.677732  1
  Sc  Sc3  1  0.500000  0.661135  0.322268  1
  Sc  Sc4  1  0.750000  0.741796  0.765562  1
  Sc  Sc5  1  0.250000  0.258204  0.234438  1
  Sc  Sc6  1  0.750000  0.976235  0.234438  1
  Sc  Sc7  1  0.250000  0.023765  0.765562  1
  Sc  Sc8  1  0.750000  0.250675  0.000000  1
  Sc  Sc9  1  0.250000  0.749325  0.000000  1
  Tc  Tc10  1  0.750000  0.592570  0.000000  1
  Tc  Tc11  1  0.250000  0.407430  0.000000  1
  As  As12  1  0.750000  0.379077  0.388583  1
  As  As13  1  0.250000  0.620923  0.611417  1
  As  As14  1  0.750000  0.990495  0.611417  1
  As  As15  1  0.250000  0.009505  0.388583  1
