# generated using pymatgen
data_Ho3ErU2O12
_symmetry_space_group_name_H-M   'P 1'
_cell_length_a   6.48735262
_cell_length_b   6.48735150
_cell_length_c   6.62475800
_cell_angle_alpha   80.59076120
_cell_angle_beta   80.59076955
_cell_angle_gamma   120.61373004
_symmetry_Int_Tables_number   1
_chemical_formula_structural   Ho3ErU2O12
_chemical_formula_sum   'Ho3 Er1 U2 O12'
_cell_volume   226.50291096
_cell_formula_units_Z   1
loop_
 _symmetry_equiv_pos_site_id
 _symmetry_equiv_pos_as_xyz
  1  'x, y, z'
loop_
 _atom_site_type_symbol
 _atom_site_label
 _atom_site_symmetry_multiplicity
 _atom_site_fract_x
 _atom_site_fract_y
 _atom_site_fract_z
 _atom_site_occupancy
  Ho  Ho0  1  0.915242  0.084758  0.750000  1
  Ho  Ho1  1  0.249417  0.750583  0.750000  1
  Ho  Ho2  1  0.084700  0.915300  0.250000  1
  Er  Er3  1  0.750567  0.249433  0.250000  1
  U  U4  1  0.586443  0.413557  0.750000  1
  U  U5  1  0.413581  0.586419  0.250000  1
  O  O6  1  0.935006  0.771697  0.628497  1
  O  O7  1  0.627831  0.140473  0.624859  1
  O  O8  1  0.690712  0.534358  0.379751  1
  O  O9  1  0.465642  0.309288  0.120249  1
  O  O10  1  0.309437  0.465190  0.619959  1
  O  O11  1  0.139468  0.626835  0.125789  1
  O  O12  1  0.373165  0.860532  0.374211  1
  O  O13  1  0.228303  0.064994  0.871503  1
  O  O14  1  0.064405  0.228257  0.371293  1
  O  O15  1  0.771743  0.935595  0.128707  1
  O  O16  1  0.859527  0.372169  0.875141  1
  O  O17  1  0.534810  0.690563  0.880041  1
