# generated using pymatgen
data_Ca2HoSi4(PPd10)2
_symmetry_space_group_name_H-M   'P 1'
_cell_length_a   8.71046615
_cell_length_b   8.71723929
_cell_length_c   8.71918475
_cell_angle_alpha   59.93992775
_cell_angle_beta   60.01934275
_cell_angle_gamma   60.04345544
_symmetry_Int_Tables_number   1
_chemical_formula_structural   Ca2HoSi4(PPd10)2
_chemical_formula_sum   'Ca2 Ho1 Si4 P2 Pd20'
_cell_volume   468.15473231
_cell_formula_units_Z   1
loop_
 _symmetry_equiv_pos_site_id
 _symmetry_equiv_pos_as_xyz
  1  'x, y, z'
loop_
 _atom_site_type_symbol
 _atom_site_label
 _atom_site_symmetry_multiplicity
 _atom_site_fract_x
 _atom_site_fract_y
 _atom_site_fract_z
 _atom_site_occupancy
  Ca  Ca0  1  0.250048  0.249947  0.250075  1
  Ca  Ca1  1  0.749952  0.750053  0.749925  1
  Ho  Ho2  1  0.000000  0.000000  0.000000  1
  Si  Si3  1  0.733114  0.266925  0.266883  1
  Si  Si4  1  0.266886  0.733075  0.733117  1
  Si  Si5  1  0.266931  0.733079  0.266918  1
  Si  Si6  1  0.733069  0.266921  0.733082  1
  P  P7  1  0.266366  0.266651  0.733708  1
  P  P8  1  0.733634  0.733349  0.266292  1
  Pd  Pd9  1  0.384587  0.384618  0.386819  1
  Pd  Pd10  1  0.615413  0.615382  0.613181  1
  Pd  Pd11  1  0.384531  0.384594  0.844018  1
  Pd  Pd12  1  0.386829  0.843982  0.384569  1
  Pd  Pd13  1  0.615469  0.615406  0.155982  1
  Pd  Pd14  1  0.613171  0.156018  0.615431  1
  Pd  Pd15  1  0.844013  0.386857  0.384522  1
  Pd  Pd16  1  0.155987  0.613143  0.615478  1
  Pd  Pd17  1  0.344033  0.001647  0.998428  1
  Pd  Pd18  1  0.655967  0.998353  0.001572  1
  Pd  Pd19  1  0.001550  0.344116  0.655976  1
  Pd  Pd20  1  0.998450  0.655884  0.344024  1
  Pd  Pd21  1  0.001667  0.344125  0.998338  1
  Pd  Pd22  1  0.655927  0.998383  0.344052  1
  Pd  Pd23  1  0.998333  0.655875  0.001662  1
  Pd  Pd24  1  0.344073  0.001617  0.655948  1
  Pd  Pd25  1  0.000063  0.000048  0.345283  1
  Pd  Pd26  1  0.999937  0.999952  0.654717  1
  Pd  Pd27  1  0.654695  0.345380  0.999953  1
  Pd  Pd28  1  0.345305  0.654620  0.000047  1
