# generated using pymatgen
data_YbMn2O4
_symmetry_space_group_name_H-M   'P 1'
_cell_length_a   3.16133500
_cell_length_b   9.72123800
_cell_length_c   10.11863800
_cell_angle_alpha   90.00002473
_cell_angle_beta   89.99995470
_cell_angle_gamma   89.99992839
_symmetry_Int_Tables_number   1
_chemical_formula_structural   YbMn2O4
_chemical_formula_sum   'Yb4 Mn8 O16'
_cell_volume   310.96689301
_cell_formula_units_Z   4
loop_
 _symmetry_equiv_pos_site_id
 _symmetry_equiv_pos_as_xyz
  1  'x, y, z'
loop_
 _atom_site_type_symbol
 _atom_site_label
 _atom_site_symmetry_multiplicity
 _atom_site_fract_x
 _atom_site_fract_y
 _atom_site_fract_z
 _atom_site_occupancy
  Yb  Yb0  1  0.680198  0.749964  0.146935  1
  Yb  Yb1  1  0.680196  0.250034  0.353064  1
  Yb  Yb2  1  0.319802  0.750036  0.646935  1
  Yb  Yb3  1  0.319802  0.249965  0.853065  1
  Mn  Mn4  1  0.206401  0.069226  0.112230  1
  Mn  Mn5  1  0.793600  0.430772  0.612232  1
  Mn  Mn6  1  0.206376  0.930773  0.387765  1
  Mn  Mn7  1  0.793604  0.569227  0.887769  1
  Mn  Mn8  1  0.206618  0.569247  0.387810  1
  Mn  Mn9  1  0.793416  0.069241  0.612195  1
  Mn  Mn10  1  0.206611  0.430759  0.112190  1
  Mn  Mn11  1  0.793415  0.930756  0.887808  1
  O  O12  1  0.603256  0.999999  0.250000  1
  O  O13  1  0.603161  0.499998  0.250000  1
  O  O14  1  0.396831  0.000002  0.750001  1
  O  O15  1  0.396738  0.500000  0.749999  1
  O  O16  1  0.185798  0.249985  0.190397  1
  O  O17  1  0.814199  0.250016  0.690399  1
  O  O18  1  0.814201  0.749986  0.809601  1
  O  O19  1  0.185798  0.750013  0.309604  1
  O  O20  1  0.798938  0.889371  0.528596  1
  O  O21  1  0.201070  0.110666  0.471372  1
  O  O22  1  0.201076  0.889336  0.028627  1
  O  O23  1  0.201054  0.610628  0.028593  1
  O  O24  1  0.798943  0.110631  0.971405  1
  O  O25  1  0.798920  0.610666  0.528630  1
  O  O26  1  0.798922  0.389334  0.971370  1
  O  O27  1  0.201055  0.389369  0.471407  1
