# generated using pymatgen
data_Ti12ZnGa7O4
_symmetry_space_group_name_H-M   'P 1'
_cell_length_a   6.87200352
_cell_length_b   6.87200352
_cell_length_c   6.87200352
_cell_angle_alpha   89.84521718
_cell_angle_beta   90.15478282
_cell_angle_gamma   90.15478282
_symmetry_Int_Tables_number   1
_chemical_formula_structural   Ti12ZnGa7O4
_chemical_formula_sum   'Ti12 Zn1 Ga7 O4'
_cell_volume   324.52291950
_cell_formula_units_Z   1
loop_
 _symmetry_equiv_pos_site_id
 _symmetry_equiv_pos_as_xyz
  1  'x, y, z'
loop_
 _atom_site_type_symbol
 _atom_site_label
 _atom_site_symmetry_multiplicity
 _atom_site_fract_x
 _atom_site_fract_y
 _atom_site_fract_z
 _atom_site_occupancy
  Ti  Ti0  1  0.790565  0.958902  0.375433  1
  Ti  Ti1  1  0.707591  0.041300  0.874834  1
  Ti  Ti2  1  0.208934  0.457252  0.125021  1
  Ti  Ti3  1  0.292070  0.541921  0.624793  1
  Ti  Ti4  1  0.958700  0.374834  0.792409  1
  Ti  Ti5  1  0.041098  0.875433  0.709435  1
  Ti  Ti6  1  0.458079  0.124793  0.207930  1
  Ti  Ti7  1  0.542748  0.625021  0.291066  1
  Ti  Ti8  1  0.374979  0.791066  0.957252  1
  Ti  Ti9  1  0.875207  0.707930  0.041921  1
  Ti  Ti10  1  0.124567  0.209435  0.458902  1
  Ti  Ti11  1  0.625166  0.292409  0.541300  1
  Zn  Zn12  1  0.180347  0.819653  0.319653  1
  Ga  Ga13  1  0.319709  0.179405  0.820015  1
  Ga  Ga14  1  0.820595  0.320015  0.180291  1
  Ga  Ga15  1  0.679985  0.680291  0.679405  1
  Ga  Ga16  1  0.569531  0.430469  0.930469  1
  Ga  Ga17  1  0.426536  0.928731  0.567017  1
  Ga  Ga18  1  0.932983  0.573464  0.428731  1
  Ga  Ga19  1  0.071269  0.067017  0.073464  1
  O  O20  1  0.875133  0.124867  0.624867  1
  O  O21  1  0.624343  0.874897  0.125239  1
  O  O22  1  0.125103  0.625239  0.875657  1
  O  O23  1  0.374761  0.375657  0.374897  1
