# generated using pymatgen
data_Er5Tm7Co4BiIr
_symmetry_space_group_name_H-M   'P 1'
_cell_length_a   8.22612016
_cell_length_b   8.22493059
_cell_length_c   8.22493049
_cell_angle_alpha   110.79804108
_cell_angle_beta   111.28905161
_cell_angle_gamma   106.36517423
_symmetry_Int_Tables_number   1
_chemical_formula_structural   Er5Tm7Co4BiIr
_chemical_formula_sum   'Er5 Tm7 Co4 Bi1 Ir1'
_cell_volume   427.47350012
_cell_formula_units_Z   1
loop_
 _symmetry_equiv_pos_site_id
 _symmetry_equiv_pos_as_xyz
  1  'x, y, z'
loop_
 _atom_site_type_symbol
 _atom_site_label
 _atom_site_symmetry_multiplicity
 _atom_site_fract_x
 _atom_site_fract_y
 _atom_site_fract_z
 _atom_site_occupancy
  Er  Er0  1  0.283875  0.182783  0.466920  1
  Er  Er1  1  0.716044  0.817442  0.533340  1
  Er  Er2  1  0.283875  0.816954  0.101091  1
  Er  Er3  1  0.716044  0.182705  0.898603  1
  Er  Er4  1  0.619968  0.311284  0.308684  1
  Tm  Tm5  1  0.379346  0.688528  0.690818  1
  Tm  Tm6  1  0.002525  0.311509  0.691015  1
  Tm  Tm7  1  0.997835  0.688632  0.309204  1
  Tm  Tm8  1  0.213240  0.411395  0.198075  1
  Tm  Tm9  1  0.786857  0.588808  0.802294  1
  Tm  Tm10  1  0.213240  0.015165  0.801844  1
  Tm  Tm11  1  0.786857  0.984563  0.198049  1
  Co  Co12  1  0.000225  0.376646  0.376561  1
  Co  Co13  1  0.000225  0.623664  0.623580  1
  Co  Co14  1  0.388413  0.888457  0.499956  1
  Co  Co15  1  0.611374  0.111356  0.500018  1
  Bi  Bi16  1  0.499993  0.500072  0.999921  1
  Ir  Ir17  1  0.000063  0.000037  0.000026  1
