# generated using pymatgen
data_HfSc2Be2Rh5
_symmetry_space_group_name_H-M   'P 1'
_cell_length_a   9.58542500
_cell_length_b   9.58542500
_cell_length_c   3.21117500
_cell_angle_alpha   90.00000000
_cell_angle_beta   90.00000000
_cell_angle_gamma   90.00000000
_symmetry_Int_Tables_number   1
_chemical_formula_structural   HfSc2Be2Rh5
_chemical_formula_sum   'Hf2 Sc4 Be4 Rh10'
_cell_volume   295.04395494
_cell_formula_units_Z   2
loop_
 _symmetry_equiv_pos_site_id
 _symmetry_equiv_pos_as_xyz
  1  'x, y, z'
loop_
 _atom_site_type_symbol
 _atom_site_label
 _atom_site_symmetry_multiplicity
 _atom_site_fract_x
 _atom_site_fract_y
 _atom_site_fract_z
 _atom_site_occupancy
  Hf  Hf0  1  0.000000  0.000000  0.000000  1
  Hf  Hf1  1  0.500000  0.500000  0.000000  1
  Sc  Sc2  1  0.825960  0.325960  0.000000  1
  Sc  Sc3  1  0.325960  0.174040  0.000000  1
  Sc  Sc4  1  0.674040  0.825960  0.000000  1
  Sc  Sc5  1  0.174040  0.674040  0.000000  1
  Be  Be6  1  0.621717  0.121717  0.000000  1
  Be  Be7  1  0.121717  0.378283  0.000000  1
  Be  Be8  1  0.878283  0.621717  0.000000  1
  Be  Be9  1  0.378283  0.878283  0.000000  1
  Rh  Rh10  1  0.071874  0.214641  0.500000  1
  Rh  Rh11  1  0.214641  0.928126  0.500000  1
  Rh  Rh12  1  0.785359  0.071874  0.500000  1
  Rh  Rh13  1  0.928126  0.785359  0.500000  1
  Rh  Rh14  1  0.428126  0.714641  0.500000  1
  Rh  Rh15  1  0.571874  0.285359  0.500000  1
  Rh  Rh16  1  0.714641  0.571874  0.500000  1
  Rh  Rh17  1  0.285359  0.428126  0.500000  1
  Rh  Rh18  1  0.500000  0.000000  0.500000  1
  Rh  Rh19  1  0.000000  0.500000  0.500000  1
