# generated using pymatgen
data_Ge3Bi(Sb4Pt3)2
_symmetry_space_group_name_H-M   'P 1'
_cell_length_a   3.99402200
_cell_length_b   8.46922586
_cell_length_c   12.46861766
_cell_angle_alpha   97.13858672
_cell_angle_beta   90.00000000
_cell_angle_gamma   90.00000000
_symmetry_Int_Tables_number   1
_chemical_formula_structural   Ge3Bi(Sb4Pt3)2
_chemical_formula_sum   'Ge3 Bi1 Sb8 Pt6'
_cell_volume   418.49754450
_cell_formula_units_Z   1
loop_
 _symmetry_equiv_pos_site_id
 _symmetry_equiv_pos_as_xyz
  1  'x, y, z'
loop_
 _atom_site_type_symbol
 _atom_site_label
 _atom_site_symmetry_multiplicity
 _atom_site_fract_x
 _atom_site_fract_y
 _atom_site_fract_z
 _atom_site_occupancy
  Ge  Ge0  1  0.500000  0.324965  0.804921  1
  Ge  Ge1  1  0.500000  0.003812  0.139791  1
  Ge  Ge2  1  0.500000  0.660574  0.478350  1
  Bi  Bi3  1  0.500000  0.684998  0.191257  1
  Sb  Sb4  1  0.500000  0.349965  0.524909  1
  Sb  Sb5  1  0.500000  0.017001  0.858225  1
  Sb  Sb6  1  0.000000  0.310329  0.049104  1
  Sb  Sb7  1  0.000000  0.976511  0.383823  1
  Sb  Sb8  1  0.000000  0.643353  0.716517  1
  Sb  Sb9  1  0.000000  0.684996  0.947143  1
  Sb  Sb10  1  0.000000  0.353667  0.282165  1
  Sb  Sb11  1  0.000000  0.019254  0.614962  1
  Pt  Pt12  1  0.500000  0.828506  0.663822  1
  Pt  Pt13  1  0.500000  0.490205  0.990179  1
  Pt  Pt14  1  0.500000  0.161693  0.328873  1
  Pt  Pt15  1  0.000000  0.330038  0.671866  1
  Pt  Pt16  1  0.000000  0.997633  0.006107  1
  Pt  Pt17  1  0.000000  0.662497  0.347989  1
