# generated using pymatgen
data_Cs3RbSnI6
_symmetry_space_group_name_H-M   'P 1'
_cell_length_a   10.51280736
_cell_length_b   10.51280720
_cell_length_c   10.51280747
_cell_angle_alpha   90.57655146
_cell_angle_beta   90.57655006
_cell_angle_gamma   90.57655597
_symmetry_Int_Tables_number   1
_chemical_formula_structural   Cs3RbSnI6
_chemical_formula_sum   'Cs6 Rb2 Sn2 I12'
_cell_volume   1161.68853318
_cell_formula_units_Z   2
loop_
 _symmetry_equiv_pos_site_id
 _symmetry_equiv_pos_as_xyz
  1  'x, y, z'
loop_
 _atom_site_type_symbol
 _atom_site_label
 _atom_site_symmetry_multiplicity
 _atom_site_fract_x
 _atom_site_fract_y
 _atom_site_fract_z
 _atom_site_occupancy
  Cs  Cs0  1  0.750000  0.129248  0.370752  1
  Cs  Cs1  1  0.370752  0.750000  0.129248  1
  Cs  Cs2  1  0.129248  0.370752  0.750000  1
  Cs  Cs3  1  0.250000  0.870752  0.629248  1
  Cs  Cs4  1  0.629248  0.250000  0.870752  1
  Cs  Cs5  1  0.870752  0.629248  0.250000  1
  Rb  Rb6  1  0.250000  0.250000  0.250000  1
  Rb  Rb7  1  0.750000  0.750000  0.750000  1
  Sn  Sn8  1  0.000000  0.000000  0.000000  1
  Sn  Sn9  1  0.500000  0.500000  0.500000  1
  I  I10  1  0.447694  0.574811  0.792529  1
  I  I11  1  0.792529  0.447694  0.574811  1
  I  I12  1  0.574811  0.792529  0.447694  1
  I  I13  1  0.052306  0.707471  0.925189  1
  I  I14  1  0.925189  0.052306  0.707471  1
  I  I15  1  0.707471  0.925189  0.052306  1
  I  I16  1  0.552306  0.425189  0.207471  1
  I  I17  1  0.207471  0.552306  0.425189  1
  I  I18  1  0.425189  0.207471  0.552306  1
  I  I19  1  0.947694  0.292529  0.074811  1
  I  I20  1  0.292529  0.074811  0.947694  1
  I  I21  1  0.074811  0.947694  0.292529  1
