# generated using pymatgen
data_Pr17Sm(PaRh8)2
_symmetry_space_group_name_H-M   'P 1'
_cell_length_a   7.69642803
_cell_length_b   7.68880167
_cell_length_c   14.98825400
_cell_angle_alpha   90.29464736
_cell_angle_beta   89.99465488
_cell_angle_gamma   89.99954312
_symmetry_Int_Tables_number   1
_chemical_formula_structural   Pr17Sm(PaRh8)2
_chemical_formula_sum   'Pr17 Sm1 Pa2 Rh16'
_cell_volume   886.93781373
_cell_formula_units_Z   1
loop_
 _symmetry_equiv_pos_site_id
 _symmetry_equiv_pos_as_xyz
  1  'x, y, z'
loop_
 _atom_site_type_symbol
 _atom_site_label
 _atom_site_symmetry_multiplicity
 _atom_site_fract_x
 _atom_site_fract_y
 _atom_site_fract_z
 _atom_site_occupancy
  Pr  Pr0  1  0.337344  0.836225  0.120601  1
  Pr  Pr1  1  0.836262  0.665133  0.379372  1
  Pr  Pr2  1  0.335533  0.834425  0.379246  1
  Pr  Pr3  1  0.834597  0.666917  0.120839  1
  Pr  Pr4  1  0.662111  0.165073  0.879638  1
  Pr  Pr5  1  0.162080  0.334711  0.620335  1
  Pr  Pr6  1  0.515739  0.682062  0.593837  1
  Pr  Pr7  1  0.015830  0.817908  0.906122  1
  Pr  Pr8  1  0.489223  0.316325  0.097036  1
  Pr  Pr9  1  0.987658  0.182559  0.402814  1
  Pr  Pr10  1  0.485449  0.319417  0.407508  1
  Pr  Pr11  1  0.984422  0.179428  0.092566  1
  Pr  Pr12  1  0.511440  0.678342  0.907816  1
  Pr  Pr13  1  0.011613  0.821400  0.592184  1
  Pr  Pr14  1  0.820581  0.516230  0.748836  1
  Pr  Pr15  1  0.320463  0.983721  0.751155  1
  Pr  Pr16  1  0.174546  0.490279  0.249469  1
  Sm  Sm17  1  0.674658  0.010030  0.250043  1
  Pa  Pa18  1  0.659267  0.157380  0.624444  1
  Pa  Pa19  1  0.159291  0.342552  0.875615  1
  Rh  Rh20  1  0.692658  0.978591  0.476228  1
  Rh  Rh21  1  0.192682  0.521273  0.023257  1
  Rh  Rh22  1  0.296893  0.070383  0.956105  1
  Rh  Rh23  1  0.796824  0.429344  0.543807  1
  Rh  Rh24  1  0.343637  0.033700  0.549604  1
  Rh  Rh25  1  0.843539  0.466378  0.950542  1
  Rh  Rh26  1  0.666387  0.969621  0.043958  1
  Rh  Rh27  1  0.166060  0.530962  0.456967  1
  Rh  Rh28  1  0.466304  0.366352  0.745075  1
  Rh  Rh29  1  0.966256  0.133905  0.755033  1
  Rh  Rh30  1  0.540280  0.605310  0.251468  1
  Rh  Rh31  1  0.038158  0.897120  0.248544  1
  Rh  Rh32  1  0.704491  0.886382  0.737547  1
  Rh  Rh33  1  0.204488  0.613666  0.762431  1
  Rh  Rh34  1  0.303463  0.141351  0.250502  1
  Rh  Rh35  1  0.799776  0.355548  0.249457  1
