# generated using pymatgen
data_SmCoH6
_symmetry_space_group_name_H-M   'P 1'
_cell_length_a   4.78484468
_cell_length_b   4.78574690
_cell_length_c   4.79682785
_cell_angle_alpha   120.04463028
_cell_angle_beta   90.04044385
_cell_angle_gamma   119.86204181
_symmetry_Int_Tables_number   1
_chemical_formula_structural   SmCoH6
_chemical_formula_sum   'Sm1 Co1 H6'
_cell_volume   77.75250757
_cell_formula_units_Z   1
loop_
 _symmetry_equiv_pos_site_id
 _symmetry_equiv_pos_as_xyz
  1  'x, y, z'
loop_
 _atom_site_type_symbol
 _atom_site_label
 _atom_site_symmetry_multiplicity
 _atom_site_fract_x
 _atom_site_fract_y
 _atom_site_fract_z
 _atom_site_occupancy
  Sm  Sm0  1  0.377594  0.032952  0.893266  1
  Co  Co1  1  0.127551  0.534417  0.144032  1
  H  H2  1  0.348924  0.526250  0.368679  1
  H  H3  1  0.901901  0.542960  0.372059  1
  H  H4  1  0.346957  0.524860  0.909667  1
  H  H5  1  0.898621  0.080189  0.916960  1
  H  H6  1  0.901416  0.544593  0.926330  1
  H  H7  1  0.366759  0.987818  0.370735  1
