# generated using pymatgen
data_Na2Sr(SnP)6
_symmetry_space_group_name_H-M   'P 1'
_cell_length_a   6.82073819
_cell_length_b   6.82073879
_cell_length_c   9.58092600
_cell_angle_alpha   83.21692374
_cell_angle_beta   83.21692314
_cell_angle_gamma   119.73559414
_symmetry_Int_Tables_number   1
_chemical_formula_structural   Na2Sr(SnP)6
_chemical_formula_sum   'Na2 Sr1 Sn6 P6'
_cell_volume   376.17126010
_cell_formula_units_Z   1
loop_
 _symmetry_equiv_pos_site_id
 _symmetry_equiv_pos_as_xyz
  1  'x, y, z'
loop_
 _atom_site_type_symbol
 _atom_site_label
 _atom_site_symmetry_multiplicity
 _atom_site_fract_x
 _atom_site_fract_y
 _atom_site_fract_z
 _atom_site_occupancy
  Na  Na0  1  0.666756  0.333244  0.000000  1
  Na  Na1  1  0.333244  0.666756  0.000000  1
  Sr  Sr2  1  0.000000  0.000000  0.000000  1
  Sn  Sn3  1  0.549109  0.882242  0.364228  1
  Sn  Sn4  1  0.213440  0.213440  0.363631  1
  Sn  Sn5  1  0.882242  0.549109  0.364228  1
  Sn  Sn6  1  0.450891  0.117758  0.635772  1
  Sn  Sn7  1  0.117758  0.450891  0.635772  1
  Sn  Sn8  1  0.786560  0.786560  0.636369  1
  P  P9  1  0.407653  0.407653  0.779069  1
  P  P10  1  0.071917  0.735151  0.779464  1
  P  P11  1  0.735151  0.071917  0.779464  1
  P  P12  1  0.592347  0.592347  0.220931  1
  P  P13  1  0.264849  0.928083  0.220536  1
  P  P14  1  0.928083  0.264849  0.220536  1
