# generated using pymatgen
data_Tb4Nd16Si11Ir
_symmetry_space_group_name_H-M   'P 1'
_cell_length_a   11.42040399
_cell_length_b   11.42040399
_cell_length_c   6.58677667
_cell_angle_alpha   89.53929655
_cell_angle_beta   89.53929655
_cell_angle_gamma   89.90843690
_symmetry_Int_Tables_number   1
_chemical_formula_structural   Tb4Nd16Si11Ir
_chemical_formula_sum   'Tb4 Nd16 Si11 Ir1'
_cell_volume   859.02792681
_cell_formula_units_Z   1
loop_
 _symmetry_equiv_pos_site_id
 _symmetry_equiv_pos_as_xyz
  1  'x, y, z'
loop_
 _atom_site_type_symbol
 _atom_site_label
 _atom_site_symmetry_multiplicity
 _atom_site_fract_x
 _atom_site_fract_y
 _atom_site_fract_z
 _atom_site_occupancy
  Tb  Tb0  1  0.999475  0.998760  0.501055  1
  Tb  Tb1  1  0.001240  0.000525  0.998945  1
  Tb  Tb2  1  0.498737  0.508838  0.000111  1
  Tb  Tb3  1  0.491162  0.501263  0.499889  1
  Nd  Nd4  1  0.286741  0.088097  0.360009  1
  Nd  Nd5  1  0.294810  0.906836  0.862124  1
  Nd  Nd6  1  0.711283  0.087823  0.857477  1
  Nd  Nd7  1  0.714340  0.912463  0.358108  1
  Nd  Nd8  1  0.584895  0.793367  0.861720  1
  Nd  Nd9  1  0.589161  0.214445  0.356378  1
  Nd  Nd10  1  0.409667  0.783910  0.368099  1
  Nd  Nd11  1  0.412218  0.211232  0.859082  1
  Nd  Nd12  1  0.206633  0.415105  0.638280  1
  Nd  Nd13  1  0.216090  0.590333  0.131901  1
  Nd  Nd14  1  0.785555  0.410839  0.143622  1
  Nd  Nd15  1  0.788768  0.587782  0.640918  1
  Nd  Nd16  1  0.911903  0.713259  0.139991  1
  Nd  Nd17  1  0.912177  0.288717  0.642523  1
  Nd  Nd18  1  0.093164  0.705190  0.637876  1
  Nd  Nd19  1  0.087537  0.285660  0.141892  1
  Si  Si20  1  0.845694  0.154306  0.250000  1
  Si  Si21  1  0.846702  0.844527  0.750968  1
  Si  Si22  1  0.155473  0.153298  0.749032  1
  Si  Si23  1  0.152685  0.847315  0.250000  1
  Si  Si24  1  0.652440  0.347560  0.750000  1
  Si  Si25  1  0.656537  0.655255  0.251515  1
  Si  Si26  1  0.344745  0.343463  0.248485  1
  Si  Si27  1  0.501149  0.002126  0.116787  1
  Si  Si28  1  0.501212  0.002782  0.591116  1
  Si  Si29  1  0.997218  0.498788  0.908884  1
  Si  Si30  1  0.997874  0.498851  0.383213  1
  Ir  Ir31  1  0.352715  0.647285  0.750000  1
