# generated using pymatgen
data_Zr6GaSnC2
_symmetry_space_group_name_H-M   'P 1'
_cell_length_a   6.09407223
_cell_length_b   6.09407279
_cell_length_c   9.15430000
_cell_angle_alpha   90.00000000
_cell_angle_beta   90.00000000
_cell_angle_gamma   146.87937256
_symmetry_Int_Tables_number   1
_chemical_formula_structural   Zr6GaSnC2
_chemical_formula_sum   'Zr6 Ga1 Sn1 C2'
_cell_volume   185.76071024
_cell_formula_units_Z   1
loop_
 _symmetry_equiv_pos_site_id
 _symmetry_equiv_pos_as_xyz
  1  'x, y, z'
loop_
 _atom_site_type_symbol
 _atom_site_label
 _atom_site_symmetry_multiplicity
 _atom_site_fract_x
 _atom_site_fract_y
 _atom_site_fract_z
 _atom_site_occupancy
  Zr  Zr0  1  0.627759  0.372242  0.051054  1
  Zr  Zr1  1  0.950697  0.049305  0.250000  1
  Zr  Zr2  1  0.627759  0.372242  0.448946  1
  Zr  Zr3  1  0.374794  0.625207  0.536561  1
  Zr  Zr4  1  0.040265  0.959737  0.750000  1
  Zr  Zr5  1  0.374794  0.625207  0.963439  1
  Ga  Ga6  1  0.252034  0.747967  0.250000  1
  Sn  Sn7  1  0.749068  0.250933  0.750000  1
  C  C8  1  0.001418  0.998582  0.002153  1
  C  C9  1  0.001418  0.998582  0.497847  1
