# generated using pymatgen
data_Tb5Yb12Er3Si16
_symmetry_space_group_name_H-M   'P 1'
_cell_length_a   7.41369249
_cell_length_b   7.80494230
_cell_length_c   15.13983955
_cell_angle_alpha   90.01113868
_cell_angle_beta   89.97097828
_cell_angle_gamma   90.02980387
_symmetry_Int_Tables_number   1
_chemical_formula_structural   Tb5Yb12Er3Si16
_chemical_formula_sum   'Tb5 Yb12 Er3 Si16'
_cell_volume   876.04298232
_cell_formula_units_Z   1
loop_
 _symmetry_equiv_pos_site_id
 _symmetry_equiv_pos_as_xyz
  1  'x, y, z'
loop_
 _atom_site_type_symbol
 _atom_site_label
 _atom_site_symmetry_multiplicity
 _atom_site_fract_x
 _atom_site_fract_y
 _atom_site_fract_z
 _atom_site_occupancy
  Tb  Tb0  1  0.314383  0.177148  0.120753  1
  Tb  Tb1  1  0.814362  0.323298  0.378950  1
  Tb  Tb2  1  0.185459  0.677313  0.878842  1
  Tb  Tb3  1  0.685926  0.822466  0.621587  1
  Tb  Tb4  1  0.313607  0.176929  0.378874  1
  Yb  Yb5  1  0.972726  0.815607  0.403804  1
  Yb  Yb6  1  0.473136  0.684154  0.096086  1
  Yb  Yb7  1  0.527149  0.315863  0.596458  1
  Yb  Yb8  1  0.026892  0.184149  0.903782  1
  Yb  Yb9  1  0.027774  0.184317  0.596549  1
  Yb  Yb10  1  0.527937  0.315769  0.903621  1
  Yb  Yb11  1  0.472345  0.684136  0.403640  1
  Yb  Yb12  1  0.971800  0.815546  0.096193  1
  Yb  Yb13  1  0.353376  0.019863  0.749890  1
  Yb  Yb14  1  0.853255  0.480048  0.750183  1
  Yb  Yb15  1  0.146623  0.520213  0.249918  1
  Yb  Yb16  1  0.646794  0.979873  0.249660  1
  Er  Er17  1  0.814003  0.323963  0.120949  1
  Er  Er18  1  0.186200  0.676170  0.621385  1
  Er  Er19  1  0.686200  0.823771  0.878906  1
  Si  Si20  1  0.860357  0.533786  0.538884  1
  Si  Si21  1  0.361009  0.966668  0.961278  1
  Si  Si22  1  0.640709  0.032475  0.461944  1
  Si  Si23  1  0.139030  0.466642  0.038589  1
  Si  Si24  1  0.142799  0.467793  0.462663  1
  Si  Si25  1  0.644380  0.033161  0.037838  1
  Si  Si26  1  0.356689  0.965815  0.538708  1
  Si  Si27  1  0.855532  0.533283  0.962152  1
  Si  Si28  1  0.977785  0.883430  0.750534  1
  Si  Si29  1  0.477693  0.616490  0.749620  1
  Si  Si30  1  0.523066  0.384595  0.249112  1
  Si  Si31  1  0.021337  0.115836  0.249585  1
  Si  Si32  1  0.249586  0.394816  0.749397  1
  Si  Si33  1  0.749758  0.105033  0.750723  1
  Si  Si34  1  0.249379  0.894052  0.249779  1
  Si  Si35  1  0.750946  0.605526  0.249162  1
