# generated using pymatgen
data_La2Co18Si7Ge
_symmetry_space_group_name_H-M   'P 1'
_cell_length_a   7.98076120
_cell_length_b   7.98076138
_cell_length_c   8.01156701
_cell_angle_alpha   121.80183399
_cell_angle_beta   121.80182418
_cell_angle_gamma   87.00047454
_symmetry_Int_Tables_number   1
_chemical_formula_structural   La2Co18Si7Ge
_chemical_formula_sum   'La2 Co18 Si7 Ge1'
_cell_volume   350.16455787
_cell_formula_units_Z   1
loop_
 _symmetry_equiv_pos_site_id
 _symmetry_equiv_pos_as_xyz
  1  'x, y, z'
loop_
 _atom_site_type_symbol
 _atom_site_label
 _atom_site_symmetry_multiplicity
 _atom_site_fract_x
 _atom_site_fract_y
 _atom_site_fract_z
 _atom_site_occupancy
  La  La0  1  0.751274  0.749445  0.999921  1
  La  La1  1  0.249445  0.251274  0.999921  1
  Co  Co2  1  0.690031  0.449678  0.500255  1
  Co  Co3  1  0.450678  0.950678  0.752264  1
  Co  Co4  1  0.189420  0.689420  0.239453  1
  Co  Co5  1  0.557407  0.057407  0.255797  1
  Co  Co6  1  0.949678  0.190031  0.500255  1
  Co  Co7  1  0.198126  0.932118  0.133223  1
  Co  Co8  1  0.801697  0.069685  0.870290  1
  Co  Co9  1  0.432118  0.698126  0.133223  1
  Co  Co10  1  0.569685  0.301697  0.870290  1
  Co  Co11  1  0.698636  0.567949  0.268373  1
  Co  Co12  1  0.300235  0.427965  0.729875  1
  Co  Co13  1  0.927965  0.800235  0.729875  1
  Co  Co14  1  0.309559  0.547102  0.494877  1
  Co  Co15  1  0.809387  0.309387  0.758469  1
  Co  Co16  1  0.997422  0.497422  0.497530  1
  Co  Co17  1  0.499973  0.999973  0.500703  1
  Co  Co18  1  0.067949  0.198636  0.268373  1
  Co  Co19  1  0.047102  0.809559  0.494877  1
  Si  Si20  1  0.046264  0.546264  0.835936  1
  Si  Si21  1  0.546839  0.709369  0.498571  1
  Si  Si22  1  0.789955  0.952511  0.500760  1
  Si  Si23  1  0.452511  0.289955  0.500760  1
  Si  Si24  1  0.952789  0.452789  0.163464  1
  Si  Si25  1  0.709035  0.209035  0.162679  1
  Si  Si26  1  0.209369  0.046839  0.498571  1
  Ge  Ge27  1  0.295451  0.795451  0.841414  1
