# generated using pymatgen
data_Er4ScPt9
_symmetry_space_group_name_H-M   'P 1'
_cell_length_a   9.63886500
_cell_length_b   9.63886500
_cell_length_c   5.72016400
_cell_angle_alpha   90.00000000
_cell_angle_beta   90.00000000
_cell_angle_gamma   90.00000000
_symmetry_Int_Tables_number   1
_chemical_formula_structural   Er4ScPt9
_chemical_formula_sum   'Er8 Sc2 Pt18'
_cell_volume   531.44738662
_cell_formula_units_Z   2
loop_
 _symmetry_equiv_pos_site_id
 _symmetry_equiv_pos_as_xyz
  1  'x, y, z'
loop_
 _atom_site_type_symbol
 _atom_site_label
 _atom_site_symmetry_multiplicity
 _atom_site_fract_x
 _atom_site_fract_y
 _atom_site_fract_z
 _atom_site_occupancy
  Er  Er0  1  0.452705  0.809168  0.000000  1
  Er  Er1  1  0.547295  0.190832  0.000000  1
  Er  Er2  1  0.190832  0.547295  0.000000  1
  Er  Er3  1  0.809168  0.452705  0.000000  1
  Er  Er4  1  0.309168  0.047295  0.500000  1
  Er  Er5  1  0.690832  0.952705  0.500000  1
  Er  Er6  1  0.952705  0.690832  0.500000  1
  Er  Er7  1  0.047295  0.309168  0.500000  1
  Sc  Sc8  1  0.500000  0.500000  0.500000  1
  Sc  Sc9  1  0.000000  0.000000  0.000000  1
  Pt  Pt10  1  0.190023  0.809977  0.249629  1
  Pt  Pt11  1  0.809977  0.190023  0.750371  1
  Pt  Pt12  1  0.809977  0.190023  0.249629  1
  Pt  Pt13  1  0.190023  0.809977  0.750371  1
  Pt  Pt14  1  0.440986  0.777036  0.500000  1
  Pt  Pt15  1  0.559014  0.222964  0.500000  1
  Pt  Pt16  1  0.222964  0.559014  0.500000  1
  Pt  Pt17  1  0.777036  0.440986  0.500000  1
  Pt  Pt18  1  0.309977  0.309977  0.250371  1
  Pt  Pt19  1  0.690023  0.690023  0.749629  1
  Pt  Pt20  1  0.690023  0.690023  0.250371  1
  Pt  Pt21  1  0.309977  0.309977  0.749629  1
  Pt  Pt22  1  0.277036  0.059014  0.000000  1
  Pt  Pt23  1  0.722964  0.940986  0.000000  1
  Pt  Pt24  1  0.940986  0.722964  0.000000  1
  Pt  Pt25  1  0.059014  0.277036  0.000000  1
  Pt  Pt26  1  0.000000  0.000000  0.500000  1
  Pt  Pt27  1  0.500000  0.500000  0.000000  1
