# generated using pymatgen
data_CeEr2(InNi)3
_symmetry_space_group_name_H-M   'P 1'
_cell_length_a   7.50917902
_cell_length_b   7.55660174
_cell_length_c   3.72519700
_cell_angle_alpha   90.00000000
_cell_angle_beta   90.00000000
_cell_angle_gamma   120.20913498
_symmetry_Int_Tables_number   1
_chemical_formula_structural   CeEr2(InNi)3
_chemical_formula_sum   'Ce1 Er2 In3 Ni3'
_cell_volume   182.67527968
_cell_formula_units_Z   1
loop_
 _symmetry_equiv_pos_site_id
 _symmetry_equiv_pos_as_xyz
  1  'x, y, z'
loop_
 _atom_site_type_symbol
 _atom_site_label
 _atom_site_symmetry_multiplicity
 _atom_site_fract_x
 _atom_site_fract_y
 _atom_site_fract_z
 _atom_site_occupancy
  Ce  Ce0  1  0.000000  0.585712  0.500000  1
  Er  Er1  1  0.409768  0.410212  0.500000  1
  Er  Er2  1  0.590232  0.000445  0.500000  1
  In  In3  1  0.260996  0.005734  0.000000  1
  In  In4  1  0.739004  0.744738  0.000000  1
  In  In5  1  0.000000  0.249899  0.000000  1
  Ni  Ni6  1  0.326227  0.665969  0.000000  1
  Ni  Ni7  1  0.000000  0.997549  0.500000  1
  Ni  Ni8  1  0.673773  0.339741  0.000000  1
