# generated using pymatgen
data_Ti10GaCuSn6
_symmetry_space_group_name_H-M   'P 1'
_cell_length_a   8.24122600
_cell_length_b   8.24122644
_cell_length_c   5.56717300
_cell_angle_alpha   90.00000000
_cell_angle_beta   90.00000000
_cell_angle_gamma   120.00000628
_symmetry_Int_Tables_number   1
_chemical_formula_structural   Ti10GaCuSn6
_chemical_formula_sum   'Ti10 Ga1 Cu1 Sn6'
_cell_volume   327.45301417
_cell_formula_units_Z   1
loop_
 _symmetry_equiv_pos_site_id
 _symmetry_equiv_pos_as_xyz
  1  'x, y, z'
loop_
 _atom_site_type_symbol
 _atom_site_label
 _atom_site_symmetry_multiplicity
 _atom_site_fract_x
 _atom_site_fract_y
 _atom_site_fract_z
 _atom_site_occupancy
  Ti  Ti0  1  0.268378  0.000000  0.749961  1
  Ti  Ti1  1  0.731622  0.000000  0.250039  1
  Ti  Ti2  1  0.000000  0.268378  0.749961  1
  Ti  Ti3  1  0.000000  0.731622  0.250039  1
  Ti  Ti4  1  0.731622  0.731622  0.749961  1
  Ti  Ti5  1  0.268378  0.268378  0.250039  1
  Ti  Ti6  1  0.333333  0.666667  0.500000  1
  Ti  Ti7  1  0.666667  0.333333  0.500000  1
  Ti  Ti8  1  0.666667  0.333333  0.000000  1
  Ti  Ti9  1  0.333333  0.666667  0.000000  1
  Ga  Ga10  1  0.000000  0.000000  0.500000  1
  Cu  Cu11  1  0.000000  0.000000  0.000000  1
  Sn  Sn12  1  0.615201  0.000000  0.750184  1
  Sn  Sn13  1  0.384799  0.000000  0.249816  1
  Sn  Sn14  1  0.000000  0.615201  0.750184  1
  Sn  Sn15  1  0.000000  0.384799  0.249816  1
  Sn  Sn16  1  0.384799  0.384799  0.750184  1
  Sn  Sn17  1  0.615201  0.615201  0.249816  1
