# generated using pymatgen
data_Y2Er(TmPt2)2
_symmetry_space_group_name_H-M   'P 1'
_cell_length_a   7.45112600
_cell_length_b   7.52676600
_cell_length_c   14.64040800
_cell_angle_alpha   90.00000000
_cell_angle_beta   90.00000000
_cell_angle_gamma   90.00000000
_symmetry_Int_Tables_number   1
_chemical_formula_structural   Y2Er(TmPt2)2
_chemical_formula_sum   'Y8 Er4 Tm8 Pt16'
_cell_volume   821.07627193
_cell_formula_units_Z   4
loop_
 _symmetry_equiv_pos_site_id
 _symmetry_equiv_pos_as_xyz
  1  'x, y, z'
loop_
 _atom_site_type_symbol
 _atom_site_label
 _atom_site_symmetry_multiplicity
 _atom_site_fract_x
 _atom_site_fract_y
 _atom_site_fract_z
 _atom_site_occupancy
  Y  Y0  1  0.998127  0.820075  0.406961  1
  Y  Y1  1  0.498127  0.679925  0.093039  1
  Y  Y2  1  0.501873  0.320075  0.593039  1
  Y  Y3  1  0.001873  0.179925  0.906961  1
  Y  Y4  1  0.001689  0.179829  0.593014  1
  Y  Y5  1  0.501689  0.320171  0.906986  1
  Y  Y6  1  0.498311  0.679829  0.406986  1
  Y  Y7  1  0.998311  0.820171  0.093014  1
  Er  Er8  1  0.343832  0.167665  0.377479  1
  Er  Er9  1  0.843832  0.332335  0.122521  1
  Er  Er10  1  0.156168  0.667665  0.622521  1
  Er  Er11  1  0.656168  0.832335  0.877479  1
  Tm  Tm12  1  0.681302  0.989228  0.249997  1
  Tm  Tm13  1  0.181302  0.510772  0.250003  1
  Tm  Tm14  1  0.818698  0.489228  0.750003  1
  Tm  Tm15  1  0.318698  0.010772  0.749997  1
  Tm  Tm16  1  0.656192  0.832427  0.622515  1
  Tm  Tm17  1  0.156192  0.667573  0.877485  1
  Tm  Tm18  1  0.843808  0.332427  0.377485  1
  Tm  Tm19  1  0.343808  0.167573  0.122515  1
  Pt  Pt20  1  0.816181  0.641588  0.250085  1
  Pt  Pt21  1  0.316181  0.858412  0.249915  1
  Pt  Pt22  1  0.683819  0.141588  0.749915  1
  Pt  Pt23  1  0.183819  0.358412  0.750085  1
  Pt  Pt24  1  0.546232  0.385403  0.249998  1
  Pt  Pt25  1  0.046232  0.114597  0.250002  1
  Pt  Pt26  1  0.953768  0.885403  0.750002  1
  Pt  Pt27  1  0.453768  0.614597  0.749998  1
  Pt  Pt28  1  0.817335  0.533382  0.542119  1
  Pt  Pt29  1  0.317335  0.966618  0.957881  1
  Pt  Pt30  1  0.682665  0.033382  0.457881  1
  Pt  Pt31  1  0.182665  0.466618  0.042119  1
  Pt  Pt32  1  0.182196  0.466630  0.457759  1
  Pt  Pt33  1  0.682196  0.033370  0.042241  1
  Pt  Pt34  1  0.317804  0.966630  0.542241  1
  Pt  Pt35  1  0.817804  0.533370  0.957759  1
