# generated using pymatgen
data_Y2Al9NiOs2
_symmetry_space_group_name_H-M   'P 1'
_cell_length_a   7.53749834
_cell_length_b   7.53749857
_cell_length_c   9.53498700
_cell_angle_alpha   90.00000000
_cell_angle_beta   90.00000000
_cell_angle_gamma   119.99598395
_symmetry_Int_Tables_number   1
_chemical_formula_structural   Y2Al9NiOs2
_chemical_formula_sum   'Y4 Al18 Ni2 Os4'
_cell_volume   469.16195015
_cell_formula_units_Z   2
loop_
 _symmetry_equiv_pos_site_id
 _symmetry_equiv_pos_as_xyz
  1  'x, y, z'
loop_
 _atom_site_type_symbol
 _atom_site_label
 _atom_site_symmetry_multiplicity
 _atom_site_fract_x
 _atom_site_fract_y
 _atom_site_fract_z
 _atom_site_occupancy
  Y  Y0  1  0.994909  0.664081  0.250000  1
  Y  Y1  1  0.005091  0.335919  0.750000  1
  Y  Y2  1  0.664081  0.994909  0.250000  1
  Y  Y3  1  0.335919  0.005091  0.750000  1
  Al  Al4  1  0.121531  0.121531  0.250000  1
  Al  Al5  1  0.878469  0.878469  0.750000  1
  Al  Al6  1  0.001321  0.331781  0.071290  1
  Al  Al7  1  0.998679  0.668219  0.928710  1
  Al  Al8  1  0.998679  0.668219  0.571290  1
  Al  Al9  1  0.331781  0.001321  0.428710  1
  Al  Al10  1  0.001321  0.331781  0.428710  1
  Al  Al11  1  0.668219  0.998679  0.571290  1
  Al  Al12  1  0.668219  0.998679  0.928710  1
  Al  Al13  1  0.331781  0.001321  0.071290  1
  Al  Al14  1  0.333679  0.333679  0.546192  1
  Al  Al15  1  0.666321  0.666321  0.453808  1
  Al  Al16  1  0.666321  0.666321  0.046192  1
  Al  Al17  1  0.333679  0.333679  0.953808  1
  Al  Al18  1  0.335019  0.544698  0.250000  1
  Al  Al19  1  0.664981  0.455302  0.750000  1
  Al  Al20  1  0.544698  0.335019  0.250000  1
  Al  Al21  1  0.455302  0.664981  0.750000  1
  Ni  Ni22  1  0.000000  0.000000  0.000000  1
  Ni  Ni23  1  0.000000  0.000000  0.500000  1
  Os  Os24  1  0.672287  0.327713  0.000000  1
  Os  Os25  1  0.327713  0.672287  0.000000  1
  Os  Os26  1  0.327713  0.672287  0.500000  1
  Os  Os27  1  0.672287  0.327713  0.500000  1
