# generated using pymatgen
data_Zr5CdIn3Rh2
_symmetry_space_group_name_H-M   'P 1'
_cell_length_a   3.35375200
_cell_length_b   7.62550801
_cell_length_c   17.51233900
_cell_angle_alpha   90.00308813
_cell_angle_beta   90.00000000
_cell_angle_gamma   90.00000000
_symmetry_Int_Tables_number   1
_chemical_formula_structural   Zr5CdIn3Rh2
_chemical_formula_sum   'Zr10 Cd2 In6 Rh4'
_cell_volume   447.86165572
_cell_formula_units_Z   2
loop_
 _symmetry_equiv_pos_site_id
 _symmetry_equiv_pos_as_xyz
  1  'x, y, z'
loop_
 _atom_site_type_symbol
 _atom_site_label
 _atom_site_symmetry_multiplicity
 _atom_site_fract_x
 _atom_site_fract_y
 _atom_site_fract_z
 _atom_site_occupancy
  Zr  Zr0  1  0.000000  0.260155  0.221065  1
  Zr  Zr1  1  0.000000  0.638827  0.079907  1
  Zr  Zr2  1  0.000000  0.761360  0.279766  1
  Zr  Zr3  1  0.000000  0.861173  0.579893  1
  Zr  Zr4  1  0.000000  0.239577  0.721159  1
  Zr  Zr5  1  0.000000  0.738510  0.779854  1
  Zr  Zr6  1  0.000000  0.134958  0.420160  1
  Zr  Zr7  1  0.000000  0.000884  0.000254  1
  Zr  Zr8  1  0.000000  0.365159  0.920317  1
  Zr  Zr9  1  0.000000  0.499295  0.500124  1
  Cd  Cd10  1  0.500000  0.798430  0.431930  1
  Cd  Cd11  1  0.500000  0.701680  0.932054  1
  In  In12  1  0.500000  0.059478  0.851293  1
  In  In13  1  0.500000  0.561061  0.648866  1
  In  In14  1  0.500000  0.197544  0.566890  1
  In  In15  1  0.500000  0.938840  0.148882  1
  In  In16  1  0.500000  0.440686  0.351178  1
  In  In17  1  0.500000  0.302516  0.067033  1
  Rh  Rh18  1  0.500000  0.450958  0.806139  1
  Rh  Rh19  1  0.500000  0.548786  0.193591  1
  Rh  Rh20  1  0.500000  0.951143  0.693591  1
  Rh  Rh21  1  0.500000  0.048983  0.306055  1
