# generated using pymatgen
data_Tb3Sm2YNiI10
_symmetry_space_group_name_H-M   'P 1'
_cell_length_a   7.77563916
_cell_length_b   9.77267734
_cell_length_c   9.84053282
_cell_angle_alpha   107.19866953
_cell_angle_beta   96.74349743
_cell_angle_gamma   104.85049161
_symmetry_Int_Tables_number   1
_chemical_formula_structural   Tb3Sm2YNiI10
_chemical_formula_sum   'Tb3 Sm2 Y1 Ni1 I10'
_cell_volume   675.18950673
_cell_formula_units_Z   1
loop_
 _symmetry_equiv_pos_site_id
 _symmetry_equiv_pos_as_xyz
  1  'x, y, z'
loop_
 _atom_site_type_symbol
 _atom_site_label
 _atom_site_symmetry_multiplicity
 _atom_site_fract_x
 _atom_site_fract_y
 _atom_site_fract_z
 _atom_site_occupancy
  Tb  Tb0  1  0.030523  0.720654  0.916223  1
  Tb  Tb1  1  0.970186  0.279505  0.083907  1
  Tb  Tb2  1  0.660162  0.878887  0.839613  1
  Sm  Sm3  1  0.886035  0.958820  0.238358  1
  Sm  Sm4  1  0.114829  0.041235  0.761839  1
  Y  Y5  1  0.340525  0.121304  0.160517  1
  Ni  Ni6  1  0.999753  0.999906  0.999790  1
  I  I7  1  0.649262  0.550321  0.729237  1
  I  I8  1  0.350950  0.448874  0.270726  1
  I  I9  1  0.737180  0.911729  0.540583  1
  I  I10  1  0.263060  0.088451  0.459057  1
  I  I11  1  0.083663  0.373790  0.822145  1
  I  I12  1  0.916202  0.626064  0.177763  1
  I  I13  1  0.451307  0.815949  0.090735  1
  I  I14  1  0.548265  0.184927  0.910060  1
  I  I15  1  0.225688  0.741436  0.657481  1
  I  I16  1  0.772409  0.258146  0.341966  1
