# generated using pymatgen
data_Dy2YIn3AgRh2
_symmetry_space_group_name_H-M   'P 1'
_cell_length_a   7.79185992
_cell_length_b   7.80114602
_cell_length_c   3.81119100
_cell_angle_alpha   90.00000000
_cell_angle_beta   90.00000000
_cell_angle_gamma   120.01615422
_symmetry_Int_Tables_number   1
_chemical_formula_structural   Dy2YIn3AgRh2
_chemical_formula_sum   'Dy2 Y1 In3 Ag1 Rh2'
_cell_volume   200.59503123
_cell_formula_units_Z   1
loop_
 _symmetry_equiv_pos_site_id
 _symmetry_equiv_pos_as_xyz
  1  'x, y, z'
loop_
 _atom_site_type_symbol
 _atom_site_label
 _atom_site_symmetry_multiplicity
 _atom_site_fract_x
 _atom_site_fract_y
 _atom_site_fract_z
 _atom_site_occupancy
  Dy  Dy0  1  0.972832  0.585634  0.500000  1
  Dy  Dy1  1  0.414181  0.387193  0.500000  1
  Y  Y2  1  0.612454  0.026040  0.500000  1
  In  In3  1  0.002819  0.260029  0.000000  1
  In  In4  1  0.257206  0.997138  0.000000  1
  In  In5  1  0.739974  0.742825  0.000000  1
  Ag  Ag6  1  0.332922  0.666150  0.000000  1
  Rh  Rh7  1  0.000767  0.999935  0.500000  1
  Rh  Rh8  1  0.666845  0.335057  0.000000  1
