# generated using pymatgen
data_Ho3In3CoNiAg
_symmetry_space_group_name_H-M   'P 1'
_cell_length_a   7.72903600
_cell_length_b   7.72903641
_cell_length_c   3.68378800
_cell_angle_alpha   90.00000000
_cell_angle_beta   90.00000000
_cell_angle_gamma   119.99999823
_symmetry_Int_Tables_number   1
_chemical_formula_structural   Ho3In3CoNiAg
_chemical_formula_sum   'Ho3 In3 Co1 Ni1 Ag1'
_cell_volume   190.57939844
_cell_formula_units_Z   1
loop_
 _symmetry_equiv_pos_site_id
 _symmetry_equiv_pos_as_xyz
  1  'x, y, z'
loop_
 _atom_site_type_symbol
 _atom_site_label
 _atom_site_symmetry_multiplicity
 _atom_site_fract_x
 _atom_site_fract_y
 _atom_site_fract_z
 _atom_site_occupancy
  Ho  Ho0  1  0.964858  0.575941  0.500000  1
  Ho  Ho1  1  0.424059  0.388917  0.500000  1
  Ho  Ho2  1  0.611083  0.035142  0.500000  1
  In  In3  1  0.252103  0.997257  0.000000  1
  In  In4  1  0.745154  0.747897  0.000000  1
  In  In5  1  0.002743  0.254846  0.000000  1
  Co  Co6  1  0.666667  0.333333  0.000000  1
  Ni  Ni7  1  0.000000  0.000000  0.500000  1
  Ag  Ag8  1  0.333333  0.666667  0.000000  1
