# generated using pymatgen
data_ScTi4Co10GeB4
_symmetry_space_group_name_H-M   'P 1'
_cell_length_a   8.47972602
_cell_length_b   8.47256827
_cell_length_c   3.04065500
_cell_angle_alpha   90.00000000
_cell_angle_beta   90.00000000
_cell_angle_gamma   89.57190345
_symmetry_Int_Tables_number   1
_chemical_formula_structural   ScTi4Co10GeB4
_chemical_formula_sum   'Sc1 Ti4 Co10 Ge1 B4'
_cell_volume   218.44993610
_cell_formula_units_Z   1
loop_
 _symmetry_equiv_pos_site_id
 _symmetry_equiv_pos_as_xyz
  1  'x, y, z'
loop_
 _atom_site_type_symbol
 _atom_site_label
 _atom_site_symmetry_multiplicity
 _atom_site_fract_x
 _atom_site_fract_y
 _atom_site_fract_z
 _atom_site_occupancy
  Sc  Sc0  1  0.826864  0.321973  0.000000  1
  Ti  Ti1  1  0.500246  0.500475  0.000000  1
  Ti  Ti2  1  0.323973  0.173259  0.000000  1
  Ti  Ti3  1  0.675822  0.825983  0.000000  1
  Ti  Ti4  1  0.173407  0.677360  0.000000  1
  Co  Co5  1  0.497075  0.996735  0.500000  1
  Co  Co6  1  0.005597  0.505614  0.500000  1
  Co  Co7  1  0.079219  0.218900  0.500000  1
  Co  Co8  1  0.218179  0.928919  0.500000  1
  Co  Co9  1  0.775761  0.060898  0.500000  1
  Co  Co10  1  0.931057  0.783532  0.500000  1
  Co  Co11  1  0.427115  0.719886  0.500000  1
  Co  Co12  1  0.562278  0.274294  0.500000  1
  Co  Co13  1  0.721134  0.579558  0.500000  1
  Co  Co14  1  0.281452  0.430113  0.500000  1
  Ge  Ge15  1  0.999819  0.001355  0.000000  1
  B  B16  1  0.616190  0.116386  0.000000  1
  B  B17  1  0.125309  0.381826  0.000000  1
  B  B18  1  0.881379  0.624680  0.000000  1
  B  B19  1  0.378125  0.878254  0.000000  1
