# generated using pymatgen
data_Ho2Co12SiP6
_symmetry_space_group_name_H-M   'P 1'
_cell_length_a   9.01464000
_cell_length_b   9.01464065
_cell_length_c   3.58185900
_cell_angle_alpha   90.00000000
_cell_angle_beta   90.00000000
_cell_angle_gamma   119.99999760
_symmetry_Int_Tables_number   1
_chemical_formula_structural   Ho2Co12SiP6
_chemical_formula_sum   'Ho2 Co12 Si1 P6'
_cell_volume   252.07857503
_cell_formula_units_Z   1
loop_
 _symmetry_equiv_pos_site_id
 _symmetry_equiv_pos_as_xyz
  1  'x, y, z'
loop_
 _atom_site_type_symbol
 _atom_site_label
 _atom_site_symmetry_multiplicity
 _atom_site_fract_x
 _atom_site_fract_y
 _atom_site_fract_z
 _atom_site_occupancy
  Ho  Ho0  1  0.666667  0.333333  0.500000  1
  Ho  Ho1  1  0.333333  0.666667  0.000000  1
  Co  Co2  1  0.122482  0.841344  0.000000  1
  Co  Co3  1  0.385417  0.435861  0.500000  1
  Co  Co4  1  0.718862  0.877518  0.000000  1
  Co  Co5  1  0.564139  0.949555  0.500000  1
  Co  Co6  1  0.231464  0.101239  0.500000  1
  Co  Co7  1  0.869776  0.768536  0.500000  1
  Co  Co8  1  0.898761  0.130224  0.500000  1
  Co  Co9  1  0.939791  0.373929  0.000000  1
  Co  Co10  1  0.626071  0.565864  0.000000  1
  Co  Co11  1  0.434136  0.060209  0.000000  1
  Co  Co12  1  0.050445  0.614583  0.500000  1
  Co  Co13  1  0.158656  0.281138  0.000000  1
  Si  Si14  1  0.000000  0.000000  0.000000  1
  P  P15  1  0.597482  0.709574  0.500000  1
  P  P16  1  0.706497  0.112920  0.000000  1
  P  P17  1  0.887080  0.593578  0.000000  1
  P  P18  1  0.406422  0.293503  0.000000  1
  P  P19  1  0.290426  0.887909  0.500000  1
  P  P20  1  0.112091  0.402518  0.500000  1
