# generated using pymatgen
data_TbNdCdIrO7
_symmetry_space_group_name_H-M   'P 1'
_cell_length_a   6.45606589
_cell_length_b   6.65197611
_cell_length_c   7.58209300
_cell_angle_alpha   90.00000000
_cell_angle_beta   90.00000000
_cell_angle_gamma   111.70859406
_symmetry_Int_Tables_number   1
_chemical_formula_structural   TbNdCdIrO7
_chemical_formula_sum   'Tb2 Nd2 Cd2 Ir2 O14'
_cell_volume   302.52376617
_cell_formula_units_Z   2
loop_
 _symmetry_equiv_pos_site_id
 _symmetry_equiv_pos_as_xyz
  1  'x, y, z'
loop_
 _atom_site_type_symbol
 _atom_site_label
 _atom_site_symmetry_multiplicity
 _atom_site_fract_x
 _atom_site_fract_y
 _atom_site_fract_z
 _atom_site_occupancy
  Tb  Tb0  1  0.951197  0.487757  0.750000  1
  Tb  Tb1  1  0.048803  0.512243  0.250000  1
  Nd  Nd2  1  0.000000  0.000000  0.000000  1
  Nd  Nd3  1  0.000000  0.000000  0.500000  1
  Cd  Cd4  1  0.484403  0.977239  0.750000  1
  Cd  Cd5  1  0.515597  0.022761  0.250000  1
  Ir  Ir6  1  0.500000  0.500000  0.000000  1
  Ir  Ir7  1  0.500000  0.500000  0.500000  1
  O  O8  1  0.591860  0.516992  0.750000  1
  O  O9  1  0.408140  0.483008  0.250000  1
  O  O10  1  0.843035  0.122480  0.750000  1
  O  O11  1  0.156965  0.877520  0.250000  1
  O  O12  1  0.124603  0.852395  0.750000  1
  O  O13  1  0.875397  0.147605  0.250000  1
  O  O14  1  0.430963  0.194992  0.996362  1
  O  O15  1  0.569037  0.805008  0.496362  1
  O  O16  1  0.175434  0.430726  0.966423  1
  O  O17  1  0.824566  0.569274  0.466423  1
  O  O18  1  0.430963  0.194992  0.503638  1
  O  O19  1  0.569037  0.805008  0.003638  1
  O  O20  1  0.824566  0.569274  0.033577  1
  O  O21  1  0.175434  0.430726  0.533577  1
