# generated using pymatgen
data_Hf2Zr4GaSb2
_symmetry_space_group_name_H-M   'P 1'
_cell_length_a   7.61329700
_cell_length_b   7.61131484
_cell_length_c   3.93453800
_cell_angle_alpha   90.00000000
_cell_angle_beta   90.00000000
_cell_angle_gamma   120.00861073
_symmetry_Int_Tables_number   1
_chemical_formula_structural   Hf2Zr4GaSb2
_chemical_formula_sum   'Hf2 Zr4 Ga1 Sb2'
_cell_volume   197.43272776
_cell_formula_units_Z   1
loop_
 _symmetry_equiv_pos_site_id
 _symmetry_equiv_pos_as_xyz
  1  'x, y, z'
loop_
 _atom_site_type_symbol
 _atom_site_label
 _atom_site_symmetry_multiplicity
 _atom_site_fract_x
 _atom_site_fract_y
 _atom_site_fract_z
 _atom_site_occupancy
  Hf  Hf0  1  0.243641  0.242538  0.500000  1
  Hf  Hf1  1  0.001104  0.757461  0.500000  1
  Zr  Zr2  1  0.400524  0.000000  0.000000  1
  Zr  Zr3  1  0.000208  0.402288  0.000000  1
  Zr  Zr4  1  0.597921  0.597713  0.000000  1
  Zr  Zr5  1  0.756101  0.000000  0.500000  1
  Ga  Ga6  1  0.001554  0.000000  0.000000  1
  Sb  Sb7  1  0.666882  0.334820  0.500000  1
  Sb  Sb8  1  0.332064  0.665181  0.500000  1
