# generated using pymatgen
data_NaHo3(Pt2O7)2
_symmetry_space_group_name_H-M   'P 1'
_cell_length_a   7.24656432
_cell_length_b   7.24656532
_cell_length_c   7.24762900
_cell_angle_alpha   60.00486293
_cell_angle_beta   60.00485836
_cell_angle_gamma   60.00000408
_symmetry_Int_Tables_number   1
_chemical_formula_structural   NaHo3(Pt2O7)2
_chemical_formula_sum   'Na1 Ho3 Pt4 O14'
_cell_volume   269.13937216
_cell_formula_units_Z   1
loop_
 _symmetry_equiv_pos_site_id
 _symmetry_equiv_pos_as_xyz
  1  'x, y, z'
loop_
 _atom_site_type_symbol
 _atom_site_label
 _atom_site_symmetry_multiplicity
 _atom_site_fract_x
 _atom_site_fract_y
 _atom_site_fract_z
 _atom_site_occupancy
  Na  Na0  1  0.625000  0.625000  0.125000  1
  Ho  Ho1  1  0.625000  0.625000  0.625000  1
  Ho  Ho2  1  0.625000  0.125000  0.625000  1
  Ho  Ho3  1  0.125000  0.625000  0.625000  1
  Pt  Pt4  1  0.125000  0.125000  0.125000  1
  Pt  Pt5  1  0.625000  0.125000  0.125000  1
  Pt  Pt6  1  0.125000  0.625000  0.125000  1
  Pt  Pt7  1  0.125000  0.125000  0.625000  1
  O  O8  1  0.036306  0.462612  0.464776  1
  O  O9  1  0.793389  0.793389  0.220145  1
  O  O10  1  0.793389  0.193077  0.220145  1
  O  O11  1  0.462612  0.036306  0.464776  1
  O  O12  1  0.754956  0.754956  0.735133  1
  O  O13  1  0.036306  0.036306  0.464776  1
  O  O14  1  0.056923  0.456611  0.029855  1
  O  O15  1  0.787388  0.213694  0.785224  1
  O  O16  1  0.193077  0.793389  0.220145  1
  O  O17  1  0.213694  0.213694  0.785224  1
  O  O18  1  0.495044  0.495044  0.514867  1
  O  O19  1  0.456611  0.056923  0.029855  1
  O  O20  1  0.456611  0.456611  0.029855  1
  O  O21  1  0.213694  0.787388  0.785224  1
