# generated using pymatgen
data_Tl(S8I)3
_symmetry_space_group_name_H-M   'P 1'
_cell_length_a   15.37337498
_cell_length_b   15.37337506
_cell_length_c   15.37337442
_cell_angle_alpha   118.81822821
_cell_angle_beta   118.81822916
_cell_angle_gamma   118.81822644
_symmetry_Int_Tables_number   1
_chemical_formula_structural   Tl(S8I)3
_chemical_formula_sum   'Tl1 S24 I3'
_cell_volume   1020.76308986
_cell_formula_units_Z   1
loop_
 _symmetry_equiv_pos_site_id
 _symmetry_equiv_pos_as_xyz
  1  'x, y, z'
loop_
 _atom_site_type_symbol
 _atom_site_label
 _atom_site_symmetry_multiplicity
 _atom_site_fract_x
 _atom_site_fract_y
 _atom_site_fract_z
 _atom_site_occupancy
  Tl  Tl0  1  0.927262  0.927262  0.927262  1
  S  S1  1  0.803714  0.518625  0.518625  1
  S  S2  1  0.518625  0.518625  0.803714  1
  S  S3  1  0.518625  0.803714  0.518625  1
  S  S4  1  0.241172  0.368190  0.631714  1
  S  S5  1  0.359477  0.955149  0.359477  1
  S  S6  1  0.359477  0.359477  0.955149  1
  S  S7  1  0.955149  0.359477  0.359477  1
  S  S8  1  0.129055  0.738936  0.256290  1
  S  S9  1  0.256290  0.129055  0.738936  1
  S  S10  1  0.738936  0.256290  0.129055  1
  S  S11  1  0.738936  0.129055  0.256290  1
  S  S12  1  0.256290  0.738936  0.129055  1
  S  S13  1  0.129055  0.256290  0.738936  1
  S  S14  1  0.350733  0.880916  0.530232  1
  S  S15  1  0.530232  0.350733  0.880916  1
  S  S16  1  0.880916  0.530232  0.350733  1
  S  S17  1  0.880916  0.350733  0.530232  1
  S  S18  1  0.530232  0.880916  0.350733  1
  S  S19  1  0.350733  0.530232  0.880916  1
  S  S20  1  0.241172  0.631714  0.368190  1
  S  S21  1  0.368190  0.241172  0.631714  1
  S  S22  1  0.631714  0.368190  0.241172  1
  S  S23  1  0.631714  0.241172  0.368190  1
  S  S24  1  0.368190  0.631714  0.241172  1
  I  I25  1  0.822719  0.002885  0.002885  1
  I  I26  1  0.002885  0.002885  0.822719  1
  I  I27  1  0.002885  0.822719  0.002885  1
