# generated using pymatgen
data_Lu8Sc12SiBi11
_symmetry_space_group_name_H-M   'P 1'
_cell_length_a   7.83880860
_cell_length_b   9.08959626
_cell_length_c   11.56833134
_cell_angle_alpha   90.02726681
_cell_angle_beta   89.77589599
_cell_angle_gamma   89.99771008
_symmetry_Int_Tables_number   1
_chemical_formula_structural   Lu8Sc12SiBi11
_chemical_formula_sum   'Lu8 Sc12 Si1 Bi11'
_cell_volume   824.25577971
_cell_formula_units_Z   1
loop_
 _symmetry_equiv_pos_site_id
 _symmetry_equiv_pos_as_xyz
  1  'x, y, z'
loop_
 _atom_site_type_symbol
 _atom_site_label
 _atom_site_symmetry_multiplicity
 _atom_site_fract_x
 _atom_site_fract_y
 _atom_site_fract_z
 _atom_site_occupancy
  Lu  Lu0  1  0.354179  0.249999  0.295586  1
  Lu  Lu1  1  0.147934  0.750965  0.779743  1
  Lu  Lu2  1  0.849531  0.249821  0.217733  1
  Lu  Lu3  1  0.195127  0.249426  0.773385  1
  Lu  Lu4  1  0.811756  0.750276  0.218657  1
  Lu  Lu5  1  0.315471  0.750372  0.281756  1
  Lu  Lu6  1  0.666754  0.249977  0.706818  1
  Lu  Lu7  1  0.311357  0.548085  0.558437  1
  Sc  Sc8  1  0.035444  0.249103  0.510984  1
  Sc  Sc9  1  0.982586  0.750926  0.491569  1
  Sc  Sc10  1  0.479273  0.750154  0.010840  1
  Sc  Sc11  1  0.523636  0.249893  0.988545  1
  Sc  Sc12  1  0.652181  0.750216  0.718878  1
  Sc  Sc13  1  0.193837  0.067825  0.060044  1
  Sc  Sc14  1  0.805980  0.933037  0.940255  1
  Sc  Sc15  1  0.310782  0.951916  0.558555  1
  Sc  Sc16  1  0.805900  0.567080  0.940382  1
  Sc  Sc17  1  0.681688  0.075738  0.446635  1
  Sc  Sc18  1  0.193800  0.432209  0.060176  1
  Sc  Sc19  1  0.682399  0.424144  0.446532  1
  Si  Si20  1  0.406563  0.245675  0.535991  1
  Bi  Bi21  1  0.600026  0.752412  0.463483  1
  Bi  Bi22  1  0.096425  0.749988  0.039793  1
  Bi  Bi23  1  0.907654  0.250174  0.955493  1
  Bi  Bi24  1  0.062230  0.003425  0.329071  1
  Bi  Bi25  1  0.932484  0.997761  0.671007  1
  Bi  Bi26  1  0.439228  0.992459  0.827548  1
  Bi  Bi27  1  0.930492  0.502555  0.671656  1
  Bi  Bi28  1  0.562753  0.005441  0.171190  1
  Bi  Bi29  1  0.060532  0.496806  0.328270  1
  Bi  Bi30  1  0.562628  0.494770  0.171591  1
  Bi  Bi31  1  0.439369  0.507372  0.829399  1
