# generated using pymatgen
data_Rb5PrO4
_symmetry_space_group_name_H-M   'P 1'
_cell_length_a   6.69792100
_cell_length_b   8.70392000
_cell_length_c   9.34124200
_cell_angle_alpha   90.00000000
_cell_angle_beta   90.00000000
_cell_angle_gamma   90.00000000
_symmetry_Int_Tables_number   1
_chemical_formula_structural   Rb5PrO4
_chemical_formula_sum   'Rb10 Pr2 O8'
_cell_volume   544.57730059
_cell_formula_units_Z   2
loop_
 _symmetry_equiv_pos_site_id
 _symmetry_equiv_pos_as_xyz
  1  'x, y, z'
loop_
 _atom_site_type_symbol
 _atom_site_label
 _atom_site_symmetry_multiplicity
 _atom_site_fract_x
 _atom_site_fract_y
 _atom_site_fract_z
 _atom_site_occupancy
  Rb  Rb0  1  0.256115  0.762866  0.811057  1
  Rb  Rb1  1  0.256115  0.237134  0.811057  1
  Rb  Rb2  1  0.813427  0.500000  0.000000  1
  Rb  Rb3  1  0.256115  0.762866  0.188943  1
  Rb  Rb4  1  0.256115  0.237134  0.188943  1
  Rb  Rb5  1  0.743885  0.737134  0.311057  1
  Rb  Rb6  1  0.743885  0.262866  0.311057  1
  Rb  Rb7  1  0.186573  0.000000  0.500000  1
  Rb  Rb8  1  0.743885  0.737134  0.688943  1
  Rb  Rb9  1  0.743885  0.262866  0.688943  1
  Pr  Pr10  1  0.782168  0.000000  0.000000  1
  Pr  Pr11  1  0.217832  0.500000  0.500000  1
  O  O12  1  0.967050  0.000000  0.790912  1
  O  O13  1  0.600536  0.777675  0.000000  1
  O  O14  1  0.600536  0.222325  0.000000  1
  O  O15  1  0.967050  0.000000  0.209088  1
  O  O16  1  0.032950  0.500000  0.290912  1
  O  O17  1  0.399464  0.722325  0.500000  1
  O  O18  1  0.399464  0.277675  0.500000  1
  O  O19  1  0.032950  0.500000  0.709088  1
