# generated using pymatgen
data_GdBeGeH
_symmetry_space_group_name_H-M   'P 1'
_cell_length_a   3.94876600
_cell_length_b   3.94876600
_cell_length_c   7.22171800
_cell_angle_alpha   90.00000000
_cell_angle_beta   90.00000000
_cell_angle_gamma   90.00000000
_symmetry_Int_Tables_number   1
_chemical_formula_structural   GdBeGeH
_chemical_formula_sum   'Gd2 Be2 Ge2 H2'
_cell_volume   112.60646445
_cell_formula_units_Z   2
loop_
 _symmetry_equiv_pos_site_id
 _symmetry_equiv_pos_as_xyz
  1  'x, y, z'
loop_
 _atom_site_type_symbol
 _atom_site_label
 _atom_site_symmetry_multiplicity
 _atom_site_fract_x
 _atom_site_fract_y
 _atom_site_fract_z
 _atom_site_occupancy
  Gd  Gd0  1  0.500000  0.000000  0.330124  1
  Gd  Gd1  1  0.000000  0.500000  0.669876  1
  Be  Be2  1  0.500000  0.500000  0.000000  1
  Be  Be3  1  0.000000  0.000000  0.000000  1
  Ge  Ge4  1  0.500000  0.000000  0.819368  1
  Ge  Ge5  1  0.000000  0.500000  0.180632  1
  H  H6  1  0.000000  0.000000  0.500000  1
  H  H7  1  0.500000  0.500000  0.500000  1
