# generated using pymatgen
data_UHg3(SeBr3)2
_symmetry_space_group_name_H-M   'P 1'
_cell_length_a   7.91495400
_cell_length_b   7.48781740
_cell_length_c   14.10110791
_cell_angle_alpha   89.42652398
_cell_angle_beta   90.00000000
_cell_angle_gamma   90.00000000
_symmetry_Int_Tables_number   1
_chemical_formula_structural   UHg3(SeBr3)2
_chemical_formula_sum   'U2 Hg6 Se4 Br12'
_cell_volume   835.67059699
_cell_formula_units_Z   2
loop_
 _symmetry_equiv_pos_site_id
 _symmetry_equiv_pos_as_xyz
  1  'x, y, z'
loop_
 _atom_site_type_symbol
 _atom_site_label
 _atom_site_symmetry_multiplicity
 _atom_site_fract_x
 _atom_site_fract_y
 _atom_site_fract_z
 _atom_site_occupancy
  U  U0  1  0.000000  0.000000  0.000000  1
  U  U1  1  0.500000  0.000000  0.500000  1
  Hg  Hg2  1  0.711559  0.493958  0.254779  1
  Hg  Hg3  1  0.288441  0.506042  0.745221  1
  Hg  Hg4  1  0.211559  0.506042  0.245221  1
  Hg  Hg5  1  0.788441  0.493958  0.754779  1
  Hg  Hg6  1  0.000000  0.500000  0.500000  1
  Hg  Hg7  1  0.500000  0.500000  0.000000  1
  Se  Se8  1  0.963368  0.649439  0.333558  1
  Se  Se9  1  0.036632  0.350561  0.666442  1
  Se  Se10  1  0.463368  0.350561  0.166442  1
  Se  Se11  1  0.536632  0.649439  0.833558  1
  Br  Br12  1  0.455674  0.843387  0.323995  1
  Br  Br13  1  0.544326  0.156613  0.676005  1
  Br  Br14  1  0.955674  0.156613  0.176005  1
  Br  Br15  1  0.044326  0.843387  0.823995  1
  Br  Br16  1  0.302946  0.860936  0.063440  1
  Br  Br17  1  0.697054  0.139064  0.936560  1
  Br  Br18  1  0.802946  0.139064  0.436560  1
  Br  Br19  1  0.197054  0.860936  0.563440  1
  Br  Br20  1  0.841949  0.682074  0.064291  1
  Br  Br21  1  0.158051  0.317926  0.935709  1
  Br  Br22  1  0.341949  0.317926  0.435709  1
  Br  Br23  1  0.658051  0.682074  0.564291  1
