# generated using pymatgen
data_DyLu3NiAg
_symmetry_space_group_name_H-M   'P 1'
_cell_length_a   9.28902557
_cell_length_b   9.28902607
_cell_length_c   9.28902600
_cell_angle_alpha   60.00000026
_cell_angle_beta   59.99999848
_cell_angle_gamma   59.99999871
_symmetry_Int_Tables_number   1
_chemical_formula_structural   DyLu3NiAg
_chemical_formula_sum   'Dy4 Lu12 Ni4 Ag4'
_cell_volume   566.75519906
_cell_formula_units_Z   4
loop_
 _symmetry_equiv_pos_site_id
 _symmetry_equiv_pos_as_xyz
  1  'x, y, z'
loop_
 _atom_site_type_symbol
 _atom_site_label
 _atom_site_symmetry_multiplicity
 _atom_site_fract_x
 _atom_site_fract_y
 _atom_site_fract_z
 _atom_site_occupancy
  Dy  Dy0  1  0.352062  0.352062  0.352062  1
  Dy  Dy1  1  0.352062  0.352062  0.943812  1
  Dy  Dy2  1  0.352062  0.943812  0.352062  1
  Dy  Dy3  1  0.943812  0.352062  0.352062  1
  Lu  Lu4  1  0.812743  0.187257  0.187257  1
  Lu  Lu5  1  0.187257  0.812743  0.812743  1
  Lu  Lu6  1  0.187257  0.812743  0.187257  1
  Lu  Lu7  1  0.812743  0.187257  0.812743  1
  Lu  Lu8  1  0.187257  0.187257  0.812743  1
  Lu  Lu9  1  0.812743  0.812743  0.187257  1
  Lu  Lu10  1  0.934806  0.565194  0.565194  1
  Lu  Lu11  1  0.565194  0.934806  0.934806  1
  Lu  Lu12  1  0.565194  0.934806  0.565194  1
  Lu  Lu13  1  0.934806  0.565194  0.934806  1
  Lu  Lu14  1  0.565194  0.565194  0.934806  1
  Lu  Lu15  1  0.934806  0.934806  0.565194  1
  Ni  Ni16  1  0.142473  0.142473  0.142473  1
  Ni  Ni17  1  0.142473  0.142473  0.572581  1
  Ni  Ni18  1  0.142473  0.572581  0.142473  1
  Ni  Ni19  1  0.572581  0.142473  0.142473  1
  Ag  Ag20  1  0.583771  0.583771  0.583771  1
  Ag  Ag21  1  0.583771  0.583771  0.248686  1
  Ag  Ag22  1  0.583771  0.248686  0.583771  1
  Ag  Ag23  1  0.248686  0.583771  0.583771  1
