# generated using pymatgen
data_Th2Si2Ag
_symmetry_space_group_name_H-M   'P 1'
_cell_length_a   7.33076000
_cell_length_b   7.33076000
_cell_length_c   4.31507100
_cell_angle_alpha   90.00000000
_cell_angle_beta   90.00000000
_cell_angle_gamma   90.00000000
_symmetry_Int_Tables_number   1
_chemical_formula_structural   Th2Si2Ag
_chemical_formula_sum   'Th4 Si4 Ag2'
_cell_volume   231.89209754
_cell_formula_units_Z   2
loop_
 _symmetry_equiv_pos_site_id
 _symmetry_equiv_pos_as_xyz
  1  'x, y, z'
loop_
 _atom_site_type_symbol
 _atom_site_label
 _atom_site_symmetry_multiplicity
 _atom_site_fract_x
 _atom_site_fract_y
 _atom_site_fract_z
 _atom_site_occupancy
  Th  Th0  1  0.680492  0.180492  0.500000  1
  Th  Th1  1  0.319508  0.819508  0.500000  1
  Th  Th2  1  0.180492  0.319508  0.500000  1
  Th  Th3  1  0.819508  0.680492  0.500000  1
  Si  Si4  1  0.114761  0.614761  0.000000  1
  Si  Si5  1  0.885239  0.385239  0.000000  1
  Si  Si6  1  0.614761  0.885239  0.000000  1
  Si  Si7  1  0.385239  0.114761  0.000000  1
  Ag  Ag8  1  0.500000  0.500000  0.000000  1
  Ag  Ag9  1  0.000000  0.000000  0.000000  1
