# generated using pymatgen
data_Ca2Pr7Rh6
_symmetry_space_group_name_H-M   'P 1'
_cell_length_a   7.64739423
_cell_length_b   7.64739440
_cell_length_c   7.64739531
_cell_angle_alpha   71.60029069
_cell_angle_beta   71.60030037
_cell_angle_gamma   71.60028462
_symmetry_Int_Tables_number   1
_chemical_formula_structural   Ca2Pr7Rh6
_chemical_formula_sum   'Ca2 Pr7 Rh6'
_cell_volume   390.91994855
_cell_formula_units_Z   1
loop_
 _symmetry_equiv_pos_site_id
 _symmetry_equiv_pos_as_xyz
  1  'x, y, z'
loop_
 _atom_site_type_symbol
 _atom_site_label
 _atom_site_symmetry_multiplicity
 _atom_site_fract_x
 _atom_site_fract_y
 _atom_site_fract_z
 _atom_site_occupancy
  Ca  Ca0  1  0.996532  0.996532  0.996532  1
  Ca  Ca1  1  0.797569  0.797569  0.797569  1
  Pr  Pr2  1  0.198460  0.198460  0.198460  1
  Pr  Pr3  1  0.153994  0.393347  0.671371  1
  Pr  Pr4  1  0.671371  0.153994  0.393347  1
  Pr  Pr5  1  0.393347  0.671371  0.153994  1
  Pr  Pr6  1  0.845277  0.608752  0.329172  1
  Pr  Pr7  1  0.329172  0.845277  0.608752  1
  Pr  Pr8  1  0.608752  0.329172  0.845277  1
  Rh  Rh9  1  0.950875  0.180889  0.576846  1
  Rh  Rh10  1  0.576846  0.950875  0.180889  1
  Rh  Rh11  1  0.180889  0.576846  0.950875  1
  Rh  Rh12  1  0.053911  0.830575  0.412430  1
  Rh  Rh13  1  0.412430  0.053911  0.830575  1
  Rh  Rh14  1  0.830575  0.412430  0.053911  1
