# generated using pymatgen
data_Hf8Mn3Cr(Ni2P3)4
_symmetry_space_group_name_H-M   'P 1'
_cell_length_a   3.56857700
_cell_length_b   10.08561251
_cell_length_c   12.36780228
_cell_angle_alpha   90.09546993
_cell_angle_beta   90.00000000
_cell_angle_gamma   90.00000000
_symmetry_Int_Tables_number   1
_chemical_formula_structural   Hf8Mn3Cr(Ni2P3)4
_chemical_formula_sum   'Hf8 Mn3 Cr1 Ni8 P12'
_cell_volume   445.13247670
_cell_formula_units_Z   1
loop_
 _symmetry_equiv_pos_site_id
 _symmetry_equiv_pos_as_xyz
  1  'x, y, z'
loop_
 _atom_site_type_symbol
 _atom_site_label
 _atom_site_symmetry_multiplicity
 _atom_site_fract_x
 _atom_site_fract_y
 _atom_site_fract_z
 _atom_site_occupancy
  Hf  Hf0  1  0.250000  0.338935  0.996330  1
  Hf  Hf1  1  0.250000  0.161829  0.495970  1
  Hf  Hf2  1  0.750000  0.659930  0.003983  1
  Hf  Hf3  1  0.750000  0.838343  0.503569  1
  Hf  Hf4  1  0.250000  0.425752  0.707387  1
  Hf  Hf5  1  0.250000  0.073731  0.207774  1
  Hf  Hf6  1  0.750000  0.573808  0.292511  1
  Hf  Hf7  1  0.750000  0.927841  0.792981  1
  Mn  Mn8  1  0.250000  0.594156  0.484036  1
  Mn  Mn9  1  0.750000  0.094879  0.015327  1
  Mn  Mn10  1  0.750000  0.405757  0.515819  1
  Cr  Cr11  1  0.250000  0.905338  0.984976  1
  Ni  Ni12  1  0.250000  0.136252  0.716264  1
  Ni  Ni13  1  0.250000  0.364789  0.217113  1
  Ni  Ni14  1  0.750000  0.864252  0.283523  1
  Ni  Ni15  1  0.750000  0.634240  0.782635  1
  Ni  Ni16  1  0.250000  0.766867  0.166831  1
  Ni  Ni17  1  0.250000  0.732414  0.666753  1
  Ni  Ni18  1  0.750000  0.232749  0.833304  1
  Ni  Ni19  1  0.750000  0.268050  0.333477  1
  P  P20  1  0.250000  0.104633  0.895165  1
  P  P21  1  0.250000  0.396462  0.395881  1
  P  P22  1  0.750000  0.896598  0.105136  1
  P  P23  1  0.750000  0.603669  0.603913  1
  P  P24  1  0.250000  0.739950  0.855386  1
  P  P25  1  0.250000  0.759508  0.356741  1
  P  P26  1  0.750000  0.259476  0.143587  1
  P  P27  1  0.750000  0.240250  0.643090  1
  P  P28  1  0.250000  0.551476  0.128087  1
  P  P29  1  0.250000  0.948136  0.627867  1
  P  P30  1  0.750000  0.448133  0.872229  1
  P  P31  1  0.750000  0.051800  0.372358  1
