# generated using pymatgen
data_HfCo2B2Ir
_symmetry_space_group_name_H-M   'P 1'
_cell_length_a   5.83850734
_cell_length_b   5.83850699
_cell_length_c   5.83850668
_cell_angle_alpha   95.22983792
_cell_angle_beta   95.22983721
_cell_angle_gamma   95.22981856
_symmetry_Int_Tables_number   1
_chemical_formula_structural   HfCo2B2Ir
_chemical_formula_sum   'Hf3 Co6 B6 Ir3'
_cell_volume   196.37523999
_cell_formula_units_Z   3
loop_
 _symmetry_equiv_pos_site_id
 _symmetry_equiv_pos_as_xyz
  1  'x, y, z'
loop_
 _atom_site_type_symbol
 _atom_site_label
 _atom_site_symmetry_multiplicity
 _atom_site_fract_x
 _atom_site_fract_y
 _atom_site_fract_z
 _atom_site_occupancy
  Hf  Hf0  1  0.000000  0.000000  0.000000  1
  Hf  Hf1  1  0.667460  0.667460  0.667460  1
  Hf  Hf2  1  0.332540  0.332540  0.332540  1
  Co  Co3  1  0.691424  0.209684  0.691424  1
  Co  Co4  1  0.691424  0.691424  0.209684  1
  Co  Co5  1  0.209684  0.691424  0.691424  1
  Co  Co6  1  0.308576  0.790316  0.308576  1
  Co  Co7  1  0.308576  0.308576  0.790316  1
  Co  Co8  1  0.790316  0.308576  0.308576  1
  B  B9  1  0.384838  0.000000  0.615162  1
  B  B10  1  0.615162  0.384838  0.000000  1
  B  B11  1  0.000000  0.615162  0.384838  1
  B  B12  1  0.615162  0.000000  0.384838  1
  B  B13  1  0.384838  0.615162  0.000000  1
  B  B14  1  0.000000  0.384838  0.615162  1
  Ir  Ir15  1  0.500000  0.000000  0.000000  1
  Ir  Ir16  1  0.000000  0.500000  0.000000  1
  Ir  Ir17  1  0.000000  0.000000  0.500000  1
