# generated using pymatgen
data_CaTbNd2(NiAs)4
_symmetry_space_group_name_H-M   'P 1'
_cell_length_a   4.07684800
_cell_length_b   4.07684856
_cell_length_c   16.32248000
_cell_angle_alpha   90.00000000
_cell_angle_beta   90.00000000
_cell_angle_gamma   120.00001172
_symmetry_Int_Tables_number   1
_chemical_formula_structural   CaTbNd2(NiAs)4
_chemical_formula_sum   'Ca1 Tb1 Nd2 Ni4 As4'
_cell_volume   234.94479285
_cell_formula_units_Z   1
loop_
 _symmetry_equiv_pos_site_id
 _symmetry_equiv_pos_as_xyz
  1  'x, y, z'
loop_
 _atom_site_type_symbol
 _atom_site_label
 _atom_site_symmetry_multiplicity
 _atom_site_fract_x
 _atom_site_fract_y
 _atom_site_fract_z
 _atom_site_occupancy
  Ca  Ca0  1  0.000000  0.000000  0.250000  1
  Tb  Tb1  1  0.000000  0.000000  0.750000  1
  Nd  Nd2  1  0.000000  0.000000  0.998809  1
  Nd  Nd3  1  0.000000  0.000000  0.501191  1
  Ni  Ni4  1  0.333333  0.666667  0.122801  1
  Ni  Ni5  1  0.666667  0.333333  0.863990  1
  Ni  Ni6  1  0.666667  0.333333  0.636010  1
  Ni  Ni7  1  0.333333  0.666667  0.377199  1
  As  As8  1  0.333333  0.666667  0.627734  1
  As  As9  1  0.666667  0.333333  0.378452  1
  As  As10  1  0.666667  0.333333  0.121548  1
  As  As11  1  0.333333  0.666667  0.872266  1
