# generated using pymatgen
data_EuTaMn4P3
_symmetry_space_group_name_H-M   'P 1'
_cell_length_a   3.66794800
_cell_length_b   11.03635900
_cell_length_c   12.53236800
_cell_angle_alpha   90.00000000
_cell_angle_beta   90.00000000
_cell_angle_gamma   90.00000000
_symmetry_Int_Tables_number   1
_chemical_formula_structural   EuTaMn4P3
_chemical_formula_sum   'Eu4 Ta4 Mn16 P12'
_cell_volume   507.32016876
_cell_formula_units_Z   4
loop_
 _symmetry_equiv_pos_site_id
 _symmetry_equiv_pos_as_xyz
  1  'x, y, z'
loop_
 _atom_site_type_symbol
 _atom_site_label
 _atom_site_symmetry_multiplicity
 _atom_site_fract_x
 _atom_site_fract_y
 _atom_site_fract_z
 _atom_site_occupancy
  Eu  Eu0  1  0.250000  0.589903  0.707706  1
  Eu  Eu1  1  0.250000  0.910097  0.207706  1
  Eu  Eu2  1  0.750000  0.410097  0.292294  1
  Eu  Eu3  1  0.750000  0.089903  0.792294  1
  Ta  Ta4  1  0.250000  0.710753  0.983016  1
  Ta  Ta5  1  0.250000  0.789247  0.483016  1
  Ta  Ta6  1  0.750000  0.289247  0.016984  1
  Ta  Ta7  1  0.750000  0.210753  0.516984  1
  Mn  Mn8  1  0.250000  0.408521  0.495614  1
  Mn  Mn9  1  0.250000  0.091479  0.995614  1
  Mn  Mn10  1  0.750000  0.591479  0.504386  1
  Mn  Mn11  1  0.750000  0.908521  0.004386  1
  Mn  Mn12  1  0.250000  0.209249  0.178225  1
  Mn  Mn13  1  0.250000  0.290751  0.678225  1
  Mn  Mn14  1  0.750000  0.790751  0.821775  1
  Mn  Mn15  1  0.750000  0.709249  0.321775  1
  Mn  Mn16  1  0.250000  0.885080  0.692826  1
  Mn  Mn17  1  0.250000  0.614920  0.192826  1
  Mn  Mn18  1  0.750000  0.114920  0.307174  1
  Mn  Mn19  1  0.750000  0.385080  0.807174  1
  Mn  Mn20  1  0.250000  0.464769  0.936368  1
  Mn  Mn21  1  0.250000  0.035231  0.436368  1
  Mn  Mn22  1  0.750000  0.535231  0.063632  1
  Mn  Mn23  1  0.750000  0.964769  0.563632  1
  P  P24  1  0.250000  0.415004  0.117566  1
  P  P25  1  0.250000  0.084996  0.617566  1
  P  P26  1  0.750000  0.584996  0.882434  1
  P  P27  1  0.750000  0.915004  0.382434  1
  P  P28  1  0.250000  0.268709  0.867839  1
  P  P29  1  0.250000  0.231291  0.367839  1
  P  P30  1  0.750000  0.731291  0.132161  1
  P  P31  1  0.750000  0.768709  0.632161  1
  P  P32  1  0.250000  0.584798  0.381964  1
  P  P33  1  0.250000  0.915202  0.881964  1
  P  P34  1  0.750000  0.415202  0.618036  1
  P  P35  1  0.750000  0.084798  0.118036  1
