# generated using pymatgen
data_Yb2ScZnPt2
_symmetry_space_group_name_H-M   'P 1'
_cell_length_a   4.14399400
_cell_length_b   7.27821000
_cell_length_c   8.43054600
_cell_angle_alpha   90.00000000
_cell_angle_beta   90.00000000
_cell_angle_gamma   90.00000000
_symmetry_Int_Tables_number   1
_chemical_formula_structural   Yb2ScZnPt2
_chemical_formula_sum   'Yb4 Sc2 Zn2 Pt4'
_cell_volume   254.27250558
_cell_formula_units_Z   2
loop_
 _symmetry_equiv_pos_site_id
 _symmetry_equiv_pos_as_xyz
  1  'x, y, z'
loop_
 _atom_site_type_symbol
 _atom_site_label
 _atom_site_symmetry_multiplicity
 _atom_site_fract_x
 _atom_site_fract_y
 _atom_site_fract_z
 _atom_site_occupancy
  Yb  Yb0  1  0.750000  0.471807  0.830849  1
  Yb  Yb1  1  0.250000  0.041051  0.326898  1
  Yb  Yb2  1  0.750000  0.971807  0.669151  1
  Yb  Yb3  1  0.250000  0.541051  0.173102  1
  Sc  Sc4  1  0.250000  0.626841  0.556774  1
  Sc  Sc5  1  0.250000  0.126841  0.943226  1
  Zn  Zn6  1  0.750000  0.360086  0.433313  1
  Zn  Zn7  1  0.750000  0.860086  0.066687  1
  Pt  Pt8  1  0.250000  0.767763  0.866616  1
  Pt  Pt9  1  0.250000  0.267763  0.633384  1
  Pt  Pt10  1  0.750000  0.732452  0.373985  1
  Pt  Pt11  1  0.750000  0.232452  0.126015  1
