# generated using pymatgen
data_Nd2(Hf2Bi3)3
_symmetry_space_group_name_H-M   'P 1'
_cell_length_a   10.99758100
_cell_length_b   10.99758100
_cell_length_c   7.92006300
_cell_angle_alpha   90.00000000
_cell_angle_beta   90.00000000
_cell_angle_gamma   90.00000000
_symmetry_Int_Tables_number   1
_chemical_formula_structural   Nd2(Hf2Bi3)3
_chemical_formula_sum   'Nd4 Hf12 Bi18'
_cell_volume   957.90617943
_cell_formula_units_Z   2
loop_
 _symmetry_equiv_pos_site_id
 _symmetry_equiv_pos_as_xyz
  1  'x, y, z'
loop_
 _atom_site_type_symbol
 _atom_site_label
 _atom_site_symmetry_multiplicity
 _atom_site_fract_x
 _atom_site_fract_y
 _atom_site_fract_z
 _atom_site_occupancy
  Nd  Nd0  1  0.750000  0.750000  0.075771  1
  Nd  Nd1  1  0.250000  0.250000  0.427496  1
  Nd  Nd2  1  0.750000  0.750000  0.572505  1
  Nd  Nd3  1  0.250000  0.250000  0.924230  1
  Hf  Hf4  1  0.000000  0.000000  0.000000  1
  Hf  Hf5  1  0.500000  0.000000  0.000000  1
  Hf  Hf6  1  0.000000  0.500000  0.000000  1
  Hf  Hf7  1  0.500000  0.500000  0.000000  1
  Hf  Hf8  1  0.750000  0.105213  0.157743  1
  Hf  Hf9  1  0.750000  0.394786  0.157743  1
  Hf  Hf10  1  0.105213  0.750000  0.157743  1
  Hf  Hf11  1  0.394786  0.750000  0.157743  1
  Hf  Hf12  1  0.605213  0.249999  0.842258  1
  Hf  Hf13  1  0.894788  0.250000  0.842258  1
  Hf  Hf14  1  0.249999  0.605213  0.842258  1
  Hf  Hf15  1  0.250000  0.894788  0.842258  1
  Bi  Bi16  1  0.250000  0.001773  0.189152  1
  Bi  Bi17  1  0.001773  0.250000  0.189152  1
  Bi  Bi18  1  0.498226  0.249999  0.189152  1
  Bi  Bi19  1  0.249999  0.498226  0.189152  1
  Bi  Bi20  1  0.576903  0.576903  0.342843  1
  Bi  Bi21  1  0.923097  0.576903  0.342843  1
  Bi  Bi22  1  0.923097  0.923097  0.342843  1
  Bi  Bi23  1  0.576903  0.923097  0.342843  1
  Bi  Bi24  1  0.750000  0.250000  0.500000  1
  Bi  Bi25  1  0.250000  0.750000  0.500000  1
  Bi  Bi26  1  0.423097  0.076903  0.657157  1
  Bi  Bi27  1  0.076903  0.076903  0.657157  1
  Bi  Bi28  1  0.076903  0.423097  0.657157  1
  Bi  Bi29  1  0.423097  0.423097  0.657157  1
  Bi  Bi30  1  0.750000  0.501773  0.810849  1
  Bi  Bi31  1  0.501773  0.750000  0.810849  1
  Bi  Bi32  1  0.998227  0.750000  0.810849  1
  Bi  Bi33  1  0.750000  0.998227  0.810849  1
