# generated using pymatgen
data_Pr4SmDy3(Si3Rh)4
_symmetry_space_group_name_H-M   'P 1'
_cell_length_a   8.25525800
_cell_length_b   8.25525874
_cell_length_c   8.21797500
_cell_angle_alpha   90.00000000
_cell_angle_beta   90.00000000
_cell_angle_gamma   119.99999703
_symmetry_Int_Tables_number   1
_chemical_formula_structural   Pr4SmDy3(Si3Rh)4
_chemical_formula_sum   'Pr4 Sm1 Dy3 Si12 Rh4'
_cell_volume   485.01682127
_cell_formula_units_Z   1
loop_
 _symmetry_equiv_pos_site_id
 _symmetry_equiv_pos_as_xyz
  1  'x, y, z'
loop_
 _atom_site_type_symbol
 _atom_site_label
 _atom_site_symmetry_multiplicity
 _atom_site_fract_x
 _atom_site_fract_y
 _atom_site_fract_z
 _atom_site_occupancy
  Pr  Pr0  1  0.000000  0.000000  0.250000  1
  Pr  Pr1  1  0.504784  0.495216  0.250000  1
  Pr  Pr2  1  0.504784  0.009568  0.250000  1
  Pr  Pr3  1  0.990432  0.495216  0.250000  1
  Sm  Sm4  1  0.000000  0.000000  0.750000  1
  Dy  Dy5  1  0.492749  0.507251  0.750000  1
  Dy  Dy6  1  0.492749  0.985497  0.750000  1
  Dy  Dy7  1  0.014503  0.507251  0.750000  1
  Si  Si8  1  0.166460  0.833540  0.509012  1
  Si  Si9  1  0.166460  0.332921  0.509012  1
  Si  Si10  1  0.667079  0.833540  0.509012  1
  Si  Si11  1  0.832072  0.167928  0.507119  1
  Si  Si12  1  0.832072  0.664142  0.507119  1
  Si  Si13  1  0.335858  0.167928  0.507119  1
  Si  Si14  1  0.832072  0.167928  0.992881  1
  Si  Si15  1  0.832072  0.664142  0.992881  1
  Si  Si16  1  0.335858  0.167928  0.992881  1
  Si  Si17  1  0.166460  0.833540  0.990988  1
  Si  Si18  1  0.166460  0.332921  0.990988  1
  Si  Si19  1  0.667079  0.833540  0.990988  1
  Rh  Rh20  1  0.333333  0.666667  0.492735  1
  Rh  Rh21  1  0.666667  0.333333  0.544630  1
  Rh  Rh22  1  0.666667  0.333333  0.955370  1
  Rh  Rh23  1  0.333333  0.666667  0.007265  1
