# generated using pymatgen
data_Er2Al20Fe3Ir
_symmetry_space_group_name_H-M   'P 1'
_cell_length_a   6.75826849
_cell_length_b   6.76744914
_cell_length_c   8.99590789
_cell_angle_alpha   89.92784985
_cell_angle_beta   90.11882684
_cell_angle_gamma   96.90492283
_symmetry_Int_Tables_number   1
_chemical_formula_structural   Er2Al20Fe3Ir
_chemical_formula_sum   'Er2 Al20 Fe3 Ir1'
_cell_volume   408.45373644
_cell_formula_units_Z   1
loop_
 _symmetry_equiv_pos_site_id
 _symmetry_equiv_pos_as_xyz
  1  'x, y, z'
loop_
 _atom_site_type_symbol
 _atom_site_label
 _atom_site_symmetry_multiplicity
 _atom_site_fract_x
 _atom_site_fract_y
 _atom_site_fract_z
 _atom_site_occupancy
  Er  Er0  1  0.871424  0.126846  0.751264  1
  Er  Er1  1  0.128576  0.873154  0.248736  1
  Al  Al2  1  0.618915  0.372369  0.551018  1
  Al  Al3  1  0.381085  0.627631  0.448982  1
  Al  Al4  1  0.375658  0.625796  0.048954  1
  Al  Al5  1  0.624342  0.374204  0.951046  1
  Al  Al6  1  0.230361  0.220367  0.496245  1
  Al  Al7  1  0.769639  0.779633  0.503755  1
  Al  Al8  1  0.773112  0.774856  0.001534  1
  Al  Al9  1  0.226888  0.225144  0.998466  1
  Al  Al10  1  0.843158  0.157333  0.096929  1
  Al  Al11  1  0.156842  0.842667  0.903071  1
  Al  Al12  1  0.161641  0.847814  0.600610  1
  Al  Al13  1  0.838359  0.152186  0.399390  1
  Al  Al14  1  0.860725  0.586862  0.755721  1
  Al  Al15  1  0.139275  0.413138  0.244279  1
  Al  Al16  1  0.416027  0.136840  0.750914  1
  Al  Al17  1  0.583973  0.863160  0.249086  1
  Al  Al18  1  0.221934  0.479075  0.755619  1
  Al  Al19  1  0.778066  0.520925  0.244381  1
  Al  Al20  1  0.520108  0.780890  0.751362  1
  Al  Al21  1  0.479892  0.219110  0.248638  1
  Fe  Fe22  1  0.000000  0.500000  0.000000  1
  Fe  Fe23  1  0.500000  0.000000  0.000000  1
  Fe  Fe24  1  0.500000  0.000000  0.500000  1
  Ir  Ir25  1  0.000000  0.500000  0.500000  1
