# generated using pymatgen
data_GaPbIO6
_symmetry_space_group_name_H-M   'P 1'
_cell_length_a   5.23124100
_cell_length_b   5.23123973
_cell_length_c   5.47558900
_cell_angle_alpha   90.00000000
_cell_angle_beta   90.00000000
_cell_angle_gamma   119.99998905
_symmetry_Int_Tables_number   1
_chemical_formula_structural   GaPbIO6
_chemical_formula_sum   'Ga1 Pb1 I1 O6'
_cell_volume   129.76897459
_cell_formula_units_Z   1
loop_
 _symmetry_equiv_pos_site_id
 _symmetry_equiv_pos_as_xyz
  1  'x, y, z'
loop_
 _atom_site_type_symbol
 _atom_site_label
 _atom_site_symmetry_multiplicity
 _atom_site_fract_x
 _atom_site_fract_y
 _atom_site_fract_z
 _atom_site_occupancy
  Ga  Ga0  1  0.333333  0.666667  0.500000  1
  Pb  Pb1  1  0.000000  0.000000  0.000000  1
  I  I2  1  0.666667  0.333333  0.500000  1
  O  O3  1  0.387038  0.013850  0.699728  1
  O  O4  1  0.986150  0.373187  0.699728  1
  O  O5  1  0.626813  0.612962  0.699728  1
  O  O6  1  0.986150  0.612962  0.300272  1
  O  O7  1  0.626813  0.013850  0.300272  1
  O  O8  1  0.387038  0.373187  0.300272  1
