# generated using pymatgen
data_EuTaNbF12
_symmetry_space_group_name_H-M   'P 1'
_cell_length_a   5.43792784
_cell_length_b   5.88443753
_cell_length_c   9.47424100
_cell_angle_alpha   105.10110424
_cell_angle_beta   90.46338212
_cell_angle_gamma   118.81771389
_symmetry_Int_Tables_number   1
_chemical_formula_structural   EuTaNbF12
_chemical_formula_sum   'Eu1 Ta1 Nb1 F12'
_cell_volume   253.22816961
_cell_formula_units_Z   1
loop_
 _symmetry_equiv_pos_site_id
 _symmetry_equiv_pos_as_xyz
  1  'x, y, z'
loop_
 _atom_site_type_symbol
 _atom_site_label
 _atom_site_symmetry_multiplicity
 _atom_site_fract_x
 _atom_site_fract_y
 _atom_site_fract_z
 _atom_site_occupancy
  Eu  Eu0  1  0.001777  0.003969  0.004987  1
  Ta  Ta1  1  0.221162  0.482287  0.719762  1
  Nb  Nb2  1  0.781712  0.520061  0.281959  1
  F  F3  1  0.825076  0.261625  0.700925  1
  F  F4  1  0.180281  0.741312  0.296743  1
  F  F5  1  0.201646  0.718828  0.910967  1
  F  F6  1  0.719344  0.735902  0.446115  1
  F  F7  1  0.277857  0.265977  0.555848  1
  F  F8  1  0.799530  0.273923  0.370968  1
  F  F9  1  0.202439  0.722771  0.629065  1
  F  F10  1  0.361303  0.273637  0.213104  1
  F  F11  1  0.635090  0.723178  0.787735  1
  F  F12  1  0.740133  0.717938  0.145766  1
  F  F13  1  0.256305  0.280288  0.850534  1
  F  F14  1  0.796343  0.278305  0.085520  1
