# generated using pymatgen
data_Ce2ErCoSn3Rh2
_symmetry_space_group_name_H-M   'P 1'
_cell_length_a   7.45805818
_cell_length_b   7.44282120
_cell_length_c   3.95401700
_cell_angle_alpha   90.00000000
_cell_angle_beta   90.00000000
_cell_angle_gamma   119.93244454
_symmetry_Int_Tables_number   1
_chemical_formula_structural   Ce2ErCoSn3Rh2
_chemical_formula_sum   'Ce2 Er1 Co1 Sn3 Rh2'
_cell_volume   190.20755081
_cell_formula_units_Z   1
loop_
 _symmetry_equiv_pos_site_id
 _symmetry_equiv_pos_as_xyz
  1  'x, y, z'
loop_
 _atom_site_type_symbol
 _atom_site_label
 _atom_site_symmetry_multiplicity
 _atom_site_fract_x
 _atom_site_fract_y
 _atom_site_fract_z
 _atom_site_occupancy
  Ce  Ce0  1  0.589429  0.589268  0.000000  1
  Ce  Ce1  1  0.410571  0.999839  0.000000  1
  Er  Er2  1  0.000000  0.405970  0.000000  1
  Co  Co3  1  0.000000  0.997411  0.000000  1
  Sn  Sn4  1  0.242436  0.248473  0.500000  1
  Sn  Sn5  1  0.000000  0.748069  0.500000  1
  Sn  Sn6  1  0.757564  0.006037  0.500000  1
  Rh  Rh7  1  0.659451  0.332192  0.500000  1
  Rh  Rh8  1  0.340549  0.672742  0.500000  1
