# generated using pymatgen
data_Sm5Dy3(Si3Rh)4
_symmetry_space_group_name_H-M   'P 1'
_cell_length_a   8.21851500
_cell_length_b   8.21851581
_cell_length_c   8.07463200
_cell_angle_alpha   90.00000000
_cell_angle_beta   90.00000000
_cell_angle_gamma   119.99999270
_symmetry_Int_Tables_number   1
_chemical_formula_structural   Sm5Dy3(Si3Rh)4
_chemical_formula_sum   'Sm5 Dy3 Si12 Rh4'
_cell_volume   472.32414763
_cell_formula_units_Z   1
loop_
 _symmetry_equiv_pos_site_id
 _symmetry_equiv_pos_as_xyz
  1  'x, y, z'
loop_
 _atom_site_type_symbol
 _atom_site_label
 _atom_site_symmetry_multiplicity
 _atom_site_fract_x
 _atom_site_fract_y
 _atom_site_fract_z
 _atom_site_occupancy
  Sm  Sm0  1  0.000000  0.000000  0.250000  1
  Sm  Sm1  1  0.000000  0.000000  0.750000  1
  Sm  Sm2  1  0.506613  0.493387  0.250000  1
  Sm  Sm3  1  0.506613  0.013227  0.250000  1
  Sm  Sm4  1  0.986773  0.493387  0.250000  1
  Dy  Dy5  1  0.491515  0.508485  0.750000  1
  Dy  Dy6  1  0.491515  0.983030  0.750000  1
  Dy  Dy7  1  0.016970  0.508485  0.750000  1
  Si  Si8  1  0.166610  0.833390  0.504239  1
  Si  Si9  1  0.166610  0.333221  0.504239  1
  Si  Si10  1  0.666779  0.833390  0.504239  1
  Si  Si11  1  0.832350  0.167650  0.501709  1
  Si  Si12  1  0.832350  0.664699  0.501709  1
  Si  Si13  1  0.335301  0.167650  0.501709  1
  Si  Si14  1  0.832350  0.167650  0.998291  1
  Si  Si15  1  0.832350  0.664699  0.998291  1
  Si  Si16  1  0.335301  0.167650  0.998291  1
  Si  Si17  1  0.166610  0.833390  0.995761  1
  Si  Si18  1  0.166610  0.333221  0.995761  1
  Si  Si19  1  0.666779  0.833390  0.995761  1
  Rh  Rh20  1  0.333333  0.666667  0.478541  1
  Rh  Rh21  1  0.666667  0.333333  0.538283  1
  Rh  Rh22  1  0.666667  0.333333  0.961717  1
  Rh  Rh23  1  0.333333  0.666667  0.021459  1
