# generated using pymatgen
data_Sm6P12Rh17W
_symmetry_space_group_name_H-M   'P 1'
_cell_length_a   3.95917000
_cell_length_b   11.22361200
_cell_length_c   12.87502600
_cell_angle_alpha   90.00000000
_cell_angle_beta   90.00000000
_cell_angle_gamma   90.00000000
_symmetry_Int_Tables_number   1
_chemical_formula_structural   Sm6P12Rh17W
_chemical_formula_sum   'Sm6 P12 Rh17 W1'
_cell_volume   572.11707484
_cell_formula_units_Z   1
loop_
 _symmetry_equiv_pos_site_id
 _symmetry_equiv_pos_as_xyz
  1  'x, y, z'
loop_
 _atom_site_type_symbol
 _atom_site_label
 _atom_site_symmetry_multiplicity
 _atom_site_fract_x
 _atom_site_fract_y
 _atom_site_fract_z
 _atom_site_occupancy
  Sm  Sm0  1  0.000000  0.500000  0.518913  1
  Sm  Sm1  1  0.500000  0.000000  0.478778  1
  Sm  Sm2  1  0.500000  0.814688  0.205829  1
  Sm  Sm3  1  0.500000  0.185312  0.205829  1
  Sm  Sm4  1  0.000000  0.682908  0.797279  1
  Sm  Sm5  1  0.000000  0.317092  0.797279  1
  P  P6  1  0.500000  0.500000  0.876632  1
  P  P7  1  0.000000  0.000000  0.120669  1
  P  P8  1  0.500000  0.500000  0.344524  1
  P  P9  1  0.000000  0.000000  0.651753  1
  P  P10  1  0.500000  0.314179  0.617820  1
  P  P11  1  0.500000  0.685821  0.617820  1
  P  P12  1  0.000000  0.187272  0.382783  1
  P  P13  1  0.000000  0.812728  0.382783  1
  P  P14  1  0.500000  0.849162  0.891633  1
  P  P15  1  0.500000  0.150838  0.891633  1
  P  P16  1  0.000000  0.653079  0.109532  1
  P  P17  1  0.000000  0.346921  0.109532  1
  Rh  Rh18  1  0.000000  0.000000  0.832495  1
  Rh  Rh19  1  0.500000  0.500000  0.699171  1
  Rh  Rh20  1  0.000000  0.000000  0.298487  1
  Rh  Rh21  1  0.000000  0.500000  0.988901  1
  Rh  Rh22  1  0.500000  0.000000  0.020022  1
  Rh  Rh23  1  0.500000  0.332960  0.988590  1
  Rh  Rh24  1  0.500000  0.667040  0.988590  1
  Rh  Rh25  1  0.000000  0.167099  0.010099  1
  Rh  Rh26  1  0.000000  0.832901  0.010099  1
  Rh  Rh27  1  0.500000  0.292001  0.432140  1
  Rh  Rh28  1  0.500000  0.707999  0.432140  1
  Rh  Rh29  1  0.000000  0.203603  0.570039  1
  Rh  Rh30  1  0.000000  0.796397  0.570039  1
  Rh  Rh31  1  0.500000  0.874600  0.710804  1
  Rh  Rh32  1  0.500000  0.125400  0.710804  1
  Rh  Rh33  1  0.000000  0.623861  0.289716  1
  Rh  Rh34  1  0.000000  0.376139  0.289716  1
  W  W35  1  0.500000  0.500000  0.157125  1
