# generated using pymatgen
data_Rb2PaTe4
_symmetry_space_group_name_H-M   'P 1'
_cell_length_a   10.23582200
_cell_length_b   8.34347034
_cell_length_c   14.72758644
_cell_angle_alpha   73.08531743
_cell_angle_beta   90.00000000
_cell_angle_gamma   90.00000000
_symmetry_Int_Tables_number   1
_chemical_formula_structural   Rb2PaTe4
_chemical_formula_sum   'Rb8 Pa4 Te16'
_cell_volume   1203.35712972
_cell_formula_units_Z   4
loop_
 _symmetry_equiv_pos_site_id
 _symmetry_equiv_pos_as_xyz
  1  'x, y, z'
loop_
 _atom_site_type_symbol
 _atom_site_label
 _atom_site_symmetry_multiplicity
 _atom_site_fract_x
 _atom_site_fract_y
 _atom_site_fract_z
 _atom_site_occupancy
  Rb  Rb0  1  0.828736  0.165007  0.637798  1
  Rb  Rb1  1  0.328736  0.334993  0.362202  1
  Rb  Rb2  1  0.171264  0.834993  0.362202  1
  Rb  Rb3  1  0.671264  0.665007  0.637798  1
  Rb  Rb4  1  0.559343  0.258799  0.925841  1
  Rb  Rb5  1  0.059343  0.241201  0.074159  1
  Rb  Rb6  1  0.440657  0.741201  0.074159  1
  Rb  Rb7  1  0.940657  0.758799  0.925841  1
  Pa  Pa8  1  0.662600  0.040290  0.257420  1
  Pa  Pa9  1  0.162600  0.459710  0.742580  1
  Pa  Pa10  1  0.337400  0.959710  0.742580  1
  Pa  Pa11  1  0.837400  0.540290  0.257420  1
  Te  Te12  1  0.620823  0.076127  0.457571  1
  Te  Te13  1  0.120823  0.423873  0.542429  1
  Te  Te14  1  0.379177  0.923873  0.542429  1
  Te  Te15  1  0.879177  0.576127  0.457571  1
  Te  Te16  1  0.303284  0.597417  0.879975  1
  Te  Te17  1  0.803284  0.902583  0.120025  1
  Te  Te18  1  0.696716  0.402583  0.120025  1
  Te  Te19  1  0.196716  0.097417  0.879975  1
  Te  Te20  1  0.397246  0.096169  0.183669  1
  Te  Te21  1  0.897246  0.403831  0.816331  1
  Te  Te22  1  0.602754  0.903831  0.816331  1
  Te  Te23  1  0.102754  0.596169  0.183669  1
  Te  Te24  1  0.593480  0.669852  0.336823  1
  Te  Te25  1  0.093480  0.830148  0.663177  1
  Te  Te26  1  0.406520  0.330148  0.663177  1
  Te  Te27  1  0.906520  0.169852  0.336823  1
