# generated using pymatgen
data_Ho4Ta4Fe(Co5P4)3
_symmetry_space_group_name_H-M   'P 1'
_cell_length_a   3.67974800
_cell_length_b   10.51596786
_cell_length_c   11.97483119
_cell_angle_alpha   90.11876755
_cell_angle_beta   90.00000000
_cell_angle_gamma   90.00000000
_symmetry_Int_Tables_number   1
_chemical_formula_structural   Ho4Ta4Fe(Co5P4)3
_chemical_formula_sum   'Ho4 Ta4 Fe1 Co15 P12'
_cell_volume   463.37840999
_cell_formula_units_Z   1
loop_
 _symmetry_equiv_pos_site_id
 _symmetry_equiv_pos_as_xyz
  1  'x, y, z'
loop_
 _atom_site_type_symbol
 _atom_site_label
 _atom_site_symmetry_multiplicity
 _atom_site_fract_x
 _atom_site_fract_y
 _atom_site_fract_z
 _atom_site_occupancy
  Ho  Ho0  1  0.250000  0.583055  0.705141  1
  Ho  Ho1  1  0.250000  0.917733  0.206134  1
  Ho  Ho2  1  0.750000  0.417613  0.294575  1
  Ho  Ho3  1  0.750000  0.081790  0.793857  1
  Ta  Ta4  1  0.250000  0.706493  0.990068  1
  Ta  Ta5  1  0.250000  0.794793  0.490382  1
  Ta  Ta6  1  0.750000  0.293138  0.009888  1
  Ta  Ta7  1  0.750000  0.205179  0.510694  1
  Fe  Fe8  1  0.750000  0.964429  0.566152  1
  Co  Co9  1  0.250000  0.406523  0.489617  1
  Co  Co10  1  0.250000  0.093433  0.989721  1
  Co  Co11  1  0.750000  0.593728  0.510022  1
  Co  Co12  1  0.750000  0.906567  0.011125  1
  Co  Co13  1  0.250000  0.223239  0.176213  1
  Co  Co14  1  0.250000  0.276613  0.676076  1
  Co  Co15  1  0.750000  0.777049  0.824242  1
  Co  Co16  1  0.750000  0.723228  0.323469  1
  Co  Co17  1  0.250000  0.887228  0.702240  1
  Co  Co18  1  0.250000  0.611091  0.201781  1
  Co  Co19  1  0.750000  0.112215  0.297896  1
  Co  Co20  1  0.750000  0.388912  0.798398  1
  Co  Co21  1  0.250000  0.464891  0.933178  1
  Co  Co22  1  0.250000  0.036159  0.431835  1
  Co  Co23  1  0.750000  0.534805  0.066815  1
  P  P24  1  0.250000  0.422034  0.116513  1
  P  P25  1  0.250000  0.075281  0.615940  1
  P  P26  1  0.750000  0.578018  0.883327  1
  P  P27  1  0.750000  0.923098  0.384349  1
  P  P28  1  0.250000  0.268951  0.860321  1
  P  P29  1  0.250000  0.230927  0.360744  1
  P  P30  1  0.750000  0.730959  0.139310  1
  P  P31  1  0.750000  0.771041  0.639882  1
  P  P32  1  0.250000  0.590733  0.389724  1
  P  P33  1  0.250000  0.908781  0.890092  1
  P  P34  1  0.750000  0.409375  0.610179  1
  P  P35  1  0.750000  0.090897  0.110101  1
