# generated using pymatgen
data_Yb2Sc2Os3Ru5
_symmetry_space_group_name_H-M   'P 1'
_cell_length_a   5.19425506
_cell_length_b   5.18387655
_cell_length_c   8.80155571
_cell_angle_alpha   90.00000224
_cell_angle_beta   89.89761925
_cell_angle_gamma   119.93393055
_symmetry_Int_Tables_number   1
_chemical_formula_structural   Yb2Sc2Os3Ru5
_chemical_formula_sum   'Yb2 Sc2 Os3 Ru5'
_cell_volume   205.37890012
_cell_formula_units_Z   1
loop_
 _symmetry_equiv_pos_site_id
 _symmetry_equiv_pos_as_xyz
  1  'x, y, z'
loop_
 _atom_site_type_symbol
 _atom_site_label
 _atom_site_symmetry_multiplicity
 _atom_site_fract_x
 _atom_site_fract_y
 _atom_site_fract_z
 _atom_site_occupancy
  Yb  Yb0  1  0.341006  0.670504  0.437849  1
  Yb  Yb1  1  0.673228  0.336613  0.560755  1
  Sc  Sc2  1  0.665677  0.332838  0.929653  1
  Sc  Sc3  1  0.331438  0.665720  0.070341  1
  Os  Os4  1  0.162575  0.337658  0.754611  1
  Os  Os5  1  0.162575  0.824917  0.754611  1
  Os  Os6  1  0.328345  0.164172  0.248630  1
  Ru  Ru7  1  0.816363  0.649823  0.240930  1
  Ru  Ru8  1  0.648252  0.824126  0.760643  1
  Ru  Ru9  1  0.026709  0.013354  0.000721  1
  Ru  Ru10  1  0.816363  0.166540  0.240930  1
  Ru  Ru11  1  0.027468  0.013734  0.500328  1
