# generated using pymatgen
data_Sm3YRh4F28
_symmetry_space_group_name_H-M   'P 1'
_cell_length_a   5.58992128
_cell_length_b   9.00692065
_cell_length_c   12.05897262
_cell_angle_alpha   62.43092489
_cell_angle_beta   90.12340610
_cell_angle_gamma   90.04636988
_symmetry_Int_Tables_number   1
_chemical_formula_structural   Sm3YRh4F28
_chemical_formula_sum   'Sm3 Y1 Rh4 F28'
_cell_volume   538.20445029
_cell_formula_units_Z   1
loop_
 _symmetry_equiv_pos_site_id
 _symmetry_equiv_pos_as_xyz
  1  'x, y, z'
loop_
 _atom_site_type_symbol
 _atom_site_label
 _atom_site_symmetry_multiplicity
 _atom_site_fract_x
 _atom_site_fract_y
 _atom_site_fract_z
 _atom_site_occupancy
  Sm  Sm0  1  0.260658  0.185630  0.735033  1
  Sm  Sm1  1  0.239213  0.188602  0.234504  1
  Sm  Sm2  1  0.739112  0.810933  0.265388  1
  Y  Y3  1  0.761525  0.811191  0.765300  1
  Rh  Rh4  1  0.756555  0.276025  0.955356  1
  Rh  Rh5  1  0.257242  0.726392  0.545534  1
  Rh  Rh6  1  0.243117  0.726602  0.041663  1
  Rh  Rh7  1  0.744053  0.272551  0.457383  1
  F  F8  1  0.437241  0.706951  0.914986  1
  F  F9  1  0.936003  0.292997  0.584902  1
  F  F10  1  0.565310  0.294784  0.083039  1
  F  F11  1  0.064239  0.706622  0.417948  1
  F  F12  1  0.447892  0.280127  0.541437  1
  F  F13  1  0.945704  0.720419  0.955762  1
  F  F14  1  0.551186  0.719069  0.460003  1
  F  F15  1  0.053219  0.282250  0.040161  1
  F  F16  1  0.768141  0.518211  0.860054  1
  F  F17  1  0.268802  0.485249  0.640063  1
  F  F18  1  0.230495  0.485048  0.137657  1
  F  F19  1  0.731737  0.514001  0.361759  1
  F  F20  1  0.757089  0.034564  0.047721  1
  F  F21  1  0.257677  0.967357  0.452575  1
  F  F22  1  0.243542  0.968426  0.950422  1
  F  F23  1  0.742928  0.031239  0.549666  1
  F  F24  1  0.967592  0.729386  0.635203  1
  F  F25  1  0.466011  0.272510  0.866396  1
  F  F26  1  0.034219  0.271335  0.368306  1
  F  F27  1  0.533491  0.728076  0.132106  1
  F  F28  1  0.054449  0.744126  0.171509  1
  F  F29  1  0.556107  0.255372  0.327046  1
  F  F30  1  0.944499  0.257337  0.826146  1
  F  F31  1  0.449895  0.745742  0.674459  1
  F  F32  1  0.407265  0.967364  0.229838  1
  F  F33  1  0.907101  0.032382  0.270183  1
  F  F34  1  0.591902  0.026024  0.769573  1
  F  F35  1  0.084787  0.965105  0.730923  1
