# generated using pymatgen
data_TbNdMn3Tc14C3
_symmetry_space_group_name_H-M   'P 1'
_cell_length_a   6.93471427
_cell_length_b   6.93471401
_cell_length_c   6.93471278
_cell_angle_alpha   82.43800472
_cell_angle_beta   82.43800838
_cell_angle_gamma   82.43799455
_symmetry_Int_Tables_number   1
_chemical_formula_structural   TbNdMn3Tc14C3
_chemical_formula_sum   'Tb1 Nd1 Mn3 Tc14 C3'
_cell_volume   325.49299593
_cell_formula_units_Z   1
loop_
 _symmetry_equiv_pos_site_id
 _symmetry_equiv_pos_as_xyz
  1  'x, y, z'
loop_
 _atom_site_type_symbol
 _atom_site_label
 _atom_site_symmetry_multiplicity
 _atom_site_fract_x
 _atom_site_fract_y
 _atom_site_fract_z
 _atom_site_occupancy
  Tb  Tb0  1  0.348457  0.348457  0.348457  1
  Nd  Nd1  1  0.650023  0.650023  0.650023  1
  Mn  Mn2  1  0.999544  0.999544  0.500347  1
  Mn  Mn3  1  0.500347  0.999544  0.999544  1
  Mn  Mn4  1  0.999544  0.500347  0.999544  1
  Tc  Tc5  1  0.723198  0.276319  0.000489  1
  Tc  Tc6  1  0.000489  0.723198  0.276319  1
  Tc  Tc7  1  0.276319  0.000489  0.723198  1
  Tc  Tc8  1  0.000489  0.276319  0.723198  1
  Tc  Tc9  1  0.723198  0.000489  0.276319  1
  Tc  Tc10  1  0.276319  0.723198  0.000489  1
  Tc  Tc11  1  0.346693  0.346693  0.863088  1
  Tc  Tc12  1  0.863088  0.346693  0.346693  1
  Tc  Tc13  1  0.346693  0.863088  0.346693  1
  Tc  Tc14  1  0.652110  0.652110  0.140065  1
  Tc  Tc15  1  0.140065  0.652110  0.652110  1
  Tc  Tc16  1  0.652110  0.140065  0.652110  1
  Tc  Tc17  1  0.900791  0.900791  0.900791  1
  Tc  Tc18  1  0.099695  0.099695  0.099695  1
  C  C19  1  0.497532  0.497532  0.005763  1
  C  C20  1  0.005763  0.497532  0.497532  1
  C  C21  1  0.497532  0.005763  0.497532  1
