# generated using pymatgen
data_Dy3Er7Si5Pb
_symmetry_space_group_name_H-M   'P 1'
_cell_length_a   8.47924100
_cell_length_b   8.50776787
_cell_length_c   6.35328800
_cell_angle_alpha   90.00000000
_cell_angle_beta   90.00000000
_cell_angle_gamma   119.88914036
_symmetry_Int_Tables_number   1
_chemical_formula_structural   Dy3Er7Si5Pb
_chemical_formula_sum   'Dy3 Er7 Si5 Pb1'
_cell_volume   397.36155863
_cell_formula_units_Z   1
loop_
 _symmetry_equiv_pos_site_id
 _symmetry_equiv_pos_as_xyz
  1  'x, y, z'
loop_
 _atom_site_type_symbol
 _atom_site_label
 _atom_site_symmetry_multiplicity
 _atom_site_fract_x
 _atom_site_fract_y
 _atom_site_fract_z
 _atom_site_occupancy
  Dy  Dy0  1  0.998502  0.242729  0.250000  1
  Dy  Dy1  1  0.755773  0.757271  0.250000  1
  Dy  Dy2  1  0.240649  0.000000  0.250000  1
  Er  Er3  1  0.987562  0.747252  0.750000  1
  Er  Er4  1  0.766619  0.000000  0.750000  1
  Er  Er5  1  0.240308  0.252748  0.750000  1
  Er  Er6  1  0.674979  0.343745  0.003656  1
  Er  Er7  1  0.331233  0.656255  0.496344  1
  Er  Er8  1  0.331233  0.656255  0.003656  1
  Er  Er9  1  0.674979  0.343745  0.496344  1
  Si  Si10  1  0.394095  0.392599  0.250000  1
  Si  Si11  1  0.001497  0.607401  0.250000  1
  Si  Si12  1  0.998446  0.394350  0.750000  1
  Si  Si13  1  0.604096  0.605650  0.750000  1
  Si  Si14  1  0.605380  0.000000  0.250000  1
  Pb  Pb15  1  0.394647  0.000000  0.750000  1
