# generated using pymatgen
data_Nd3HfIn2Ir3
_symmetry_space_group_name_H-M   'P 1'
_cell_length_a   7.51552605
_cell_length_b   7.37312167
_cell_length_c   4.29547400
_cell_angle_alpha   90.00000000
_cell_angle_beta   90.00000000
_cell_angle_gamma   119.37515476
_symmetry_Int_Tables_number   1
_chemical_formula_structural   Nd3HfIn2Ir3
_chemical_formula_sum   'Nd3 Hf1 In2 Ir3'
_cell_volume   207.42098499
_cell_formula_units_Z   1
loop_
 _symmetry_equiv_pos_site_id
 _symmetry_equiv_pos_as_xyz
  1  'x, y, z'
loop_
 _atom_site_type_symbol
 _atom_site_label
 _atom_site_symmetry_multiplicity
 _atom_site_fract_x
 _atom_site_fract_y
 _atom_site_fract_z
 _atom_site_occupancy
  Nd  Nd0  1  0.579821  0.585808  0.000000  1
  Nd  Nd1  1  0.420179  0.005987  0.000000  1
  Nd  Nd2  1  0.000000  0.396210  0.000000  1
  Hf  Hf3  1  0.000000  0.758294  0.500000  1
  In  In4  1  0.250759  0.248705  0.500000  1
  In  In5  1  0.749241  0.997946  0.500000  1
  Ir  Ir6  1  0.000000  0.974182  0.000000  1
  Ir  Ir7  1  0.688540  0.360704  0.500000  1
  Ir  Ir8  1  0.311460  0.672165  0.500000  1
