# generated using pymatgen
data_Li6Ti5ZnPt12
_symmetry_space_group_name_H-M   'P 1'
_cell_length_a   4.12517700
_cell_length_b   6.79291600
_cell_length_c   12.32844600
_cell_angle_alpha   90.00000000
_cell_angle_beta   89.99894689
_cell_angle_gamma   90.00000000
_symmetry_Int_Tables_number   1
_chemical_formula_structural   Li6Ti5ZnPt12
_chemical_formula_sum   'Li6 Ti5 Zn1 Pt12'
_cell_volume   345.46747765
_cell_formula_units_Z   1
loop_
 _symmetry_equiv_pos_site_id
 _symmetry_equiv_pos_as_xyz
  1  'x, y, z'
loop_
 _atom_site_type_symbol
 _atom_site_label
 _atom_site_symmetry_multiplicity
 _atom_site_fract_x
 _atom_site_fract_y
 _atom_site_fract_z
 _atom_site_occupancy
  Li  Li0  1  0.000000  0.500001  0.000000  1
  Li  Li1  1  0.500013  0.000000  0.160883  1
  Li  Li2  1  0.999997  0.500001  0.331749  1
  Li  Li3  1  0.500000  0.000000  0.500000  1
  Li  Li4  1  0.000003  0.500001  0.668252  1
  Li  Li5  1  0.499988  0.000000  0.839117  1
  Ti  Ti6  1  0.500001  0.500001  0.166504  1
  Ti  Ti7  1  0.999999  0.000000  0.331685  1
  Ti  Ti8  1  0.500000  0.500001  0.500000  1
  Ti  Ti9  1  0.000001  0.000000  0.668314  1
  Ti  Ti10  1  0.499999  0.500001  0.833496  1
  Zn  Zn11  1  0.000000  0.000000  0.000000  1
  Pt  Pt12  1  0.499999  0.257084  0.000000  1
  Pt  Pt13  1  0.499999  0.742916  0.000000  1
  Pt  Pt14  1  0.000001  0.251317  0.165865  1
  Pt  Pt15  1  0.000001  0.748683  0.165865  1
  Pt  Pt16  1  0.499999  0.248756  0.332969  1
  Pt  Pt17  1  0.499999  0.751244  0.332969  1
  Pt  Pt18  1  0.000000  0.249775  0.500000  1
  Pt  Pt19  1  0.000000  0.750225  0.500000  1
  Pt  Pt20  1  0.500002  0.248756  0.667031  1
  Pt  Pt21  1  0.500002  0.751244  0.667031  1
  Pt  Pt22  1  0.999999  0.251317  0.834135  1
  Pt  Pt23  1  0.999999  0.748683  0.834135  1
