# generated using pymatgen
data_HoLuB6Os
_symmetry_space_group_name_H-M   'P 1'
_cell_length_a   3.61516400
_cell_length_b   9.06502800
_cell_length_c   11.45178500
_cell_angle_alpha   90.00000000
_cell_angle_beta   90.00000000
_cell_angle_gamma   90.00000000
_symmetry_Int_Tables_number   1
_chemical_formula_structural   HoLuB6Os
_chemical_formula_sum   'Ho4 Lu4 B24 Os4'
_cell_volume   375.29289227
_cell_formula_units_Z   4
loop_
 _symmetry_equiv_pos_site_id
 _symmetry_equiv_pos_as_xyz
  1  'x, y, z'
loop_
 _atom_site_type_symbol
 _atom_site_label
 _atom_site_symmetry_multiplicity
 _atom_site_fract_x
 _atom_site_fract_y
 _atom_site_fract_z
 _atom_site_occupancy
  Ho  Ho0  1  0.000000  0.321574  0.413986  1
  Ho  Ho1  1  0.000000  0.678426  0.586014  1
  Ho  Ho2  1  0.000000  0.821574  0.086014  1
  Ho  Ho3  1  0.000000  0.178426  0.913986  1
  Lu  Lu4  1  0.000000  0.944405  0.373276  1
  Lu  Lu5  1  0.000000  0.055595  0.626724  1
  Lu  Lu6  1  0.000000  0.444405  0.126724  1
  Lu  Lu7  1  0.000000  0.555595  0.873276  1
  B  B8  1  0.500000  0.554238  0.433095  1
  B  B9  1  0.500000  0.445762  0.566905  1
  B  B10  1  0.500000  0.054238  0.066905  1
  B  B11  1  0.500000  0.945762  0.933095  1
  B  B12  1  0.500000  0.749804  0.419894  1
  B  B13  1  0.500000  0.250196  0.580106  1
  B  B14  1  0.500000  0.249804  0.080106  1
  B  B15  1  0.500000  0.750196  0.919894  1
  B  B16  1  0.500000  0.792257  0.266186  1
  B  B17  1  0.500000  0.207743  0.733813  1
  B  B18  1  0.500000  0.292257  0.233814  1
  B  B19  1  0.500000  0.707743  0.766187  1
  B  B20  1  0.500000  0.631166  0.184395  1
  B  B21  1  0.500000  0.368834  0.815605  1
  B  B22  1  0.500000  0.131166  0.315605  1
  B  B23  1  0.500000  0.868834  0.684395  1
  B  B24  1  0.500000  0.982645  0.213651  1
  B  B25  1  0.500000  0.017355  0.786349  1
  B  B26  1  0.500000  0.482645  0.286349  1
  B  B27  1  0.500000  0.517355  0.713651  1
  B  B28  1  0.500000  0.604465  0.028809  1
  B  B29  1  0.500000  0.395535  0.971191  1
  B  B30  1  0.500000  0.104465  0.471191  1
  B  B31  1  0.500000  0.895535  0.528809  1
  Os  Os32  1  0.000000  0.638222  0.320513  1
  Os  Os33  1  0.000000  0.361778  0.679487  1
  Os  Os34  1  0.000000  0.138222  0.179487  1
  Os  Os35  1  0.000000  0.861778  0.820513  1
