# generated using pymatgen
data_TiNbCr(Co10B3)2
_symmetry_space_group_name_H-M   'P 1'
_cell_length_a   7.39442980
_cell_length_b   7.39442931
_cell_length_c   7.39443000
_cell_angle_alpha   59.99999693
_cell_angle_beta   59.99999912
_cell_angle_gamma   59.99999723
_symmetry_Int_Tables_number   1
_chemical_formula_structural   TiNbCr(Co10B3)2
_chemical_formula_sum   'Ti1 Nb1 Cr1 Co20 B6'
_cell_volume   285.89004589
_cell_formula_units_Z   1
loop_
 _symmetry_equiv_pos_site_id
 _symmetry_equiv_pos_as_xyz
  1  'x, y, z'
loop_
 _atom_site_type_symbol
 _atom_site_label
 _atom_site_symmetry_multiplicity
 _atom_site_fract_x
 _atom_site_fract_y
 _atom_site_fract_z
 _atom_site_occupancy
  Ti  Ti0  1  0.750000  0.750000  0.750000  1
  Nb  Nb1  1  0.250000  0.250000  0.250000  1
  Cr  Cr2  1  0.000000  0.000000  0.000000  1
  Co  Co3  1  0.847260  0.384247  0.384247  1
  Co  Co4  1  0.384247  0.847260  0.384247  1
  Co  Co5  1  0.384247  0.384247  0.847260  1
  Co  Co6  1  0.384247  0.384247  0.384247  1
  Co  Co7  1  0.145386  0.618204  0.618204  1
  Co  Co8  1  0.618204  0.145386  0.618204  1
  Co  Co9  1  0.618204  0.618204  0.145386  1
  Co  Co10  1  0.618204  0.618204  0.618204  1
  Co  Co11  1  0.661552  0.999627  0.999627  1
  Co  Co12  1  0.661552  0.999627  0.339196  1
  Co  Co13  1  0.661552  0.339196  0.999627  1
  Co  Co14  1  0.999627  0.661552  0.339196  1
  Co  Co15  1  0.999627  0.661552  0.999627  1
  Co  Co16  1  0.339196  0.661552  0.999627  1
  Co  Co17  1  0.999627  0.339196  0.661552  1
  Co  Co18  1  0.339196  0.999627  0.661552  1
  Co  Co19  1  0.999627  0.999627  0.661552  1
  Co  Co20  1  0.339196  0.999627  0.999627  1
  Co  Co21  1  0.999627  0.339196  0.999627  1
  Co  Co22  1  0.999627  0.999627  0.339196  1
  B  B23  1  0.727033  0.272967  0.272967  1
  B  B24  1  0.727033  0.272967  0.727033  1
  B  B25  1  0.727033  0.727033  0.272967  1
  B  B26  1  0.272967  0.727033  0.727033  1
  B  B27  1  0.272967  0.727033  0.272967  1
  B  B28  1  0.272967  0.272967  0.727033  1
