# generated using pymatgen
data_Tm3ZnCd(HgAu)2
_symmetry_space_group_name_H-M   'P 1'
_cell_length_a   3.70736200
_cell_length_b   7.83900931
_cell_length_c   7.85859813
_cell_angle_alpha   119.91757995
_cell_angle_beta   90.00000000
_cell_angle_gamma   90.00000000
_symmetry_Int_Tables_number   1
_chemical_formula_structural   Tm3ZnCd(HgAu)2
_chemical_formula_sum   'Tm3 Zn1 Cd1 Hg2 Au2'
_cell_volume   197.95294971
_cell_formula_units_Z   1
loop_
 _symmetry_equiv_pos_site_id
 _symmetry_equiv_pos_as_xyz
  1  'x, y, z'
loop_
 _atom_site_type_symbol
 _atom_site_label
 _atom_site_symmetry_multiplicity
 _atom_site_fract_x
 _atom_site_fract_y
 _atom_site_fract_z
 _atom_site_occupancy
  Tm  Tm0  1  0.000000  0.408478  0.410182  1
  Tm  Tm1  1  0.000000  0.998296  0.589818  1
  Tm  Tm2  1  0.000000  0.595759  0.000000  1
  Zn  Zn3  1  0.000000  0.001349  0.000000  1
  Cd  Cd4  1  0.500000  0.259291  0.000000  1
  Hg  Hg5  1  0.500000  0.740391  0.739123  1
  Hg  Hg6  1  0.500000  0.001268  0.260877  1
  Au  Au7  1  0.500000  0.662236  0.329304  1
  Au  Au8  1  0.500000  0.332932  0.670696  1
