# generated using pymatgen
data_Er3Th(Ga3Rh)6
_symmetry_space_group_name_H-M   'P 1'
_cell_length_a   7.60473855
_cell_length_b   7.60302864
_cell_length_c   9.51388500
_cell_angle_alpha   90.00000000
_cell_angle_beta   90.00000000
_cell_angle_gamma   119.82478542
_symmetry_Int_Tables_number   1
_chemical_formula_structural   Er3Th(Ga3Rh)6
_chemical_formula_sum   'Er3 Th1 Ga18 Rh6'
_cell_volume   477.22536597
_cell_formula_units_Z   1
loop_
 _symmetry_equiv_pos_site_id
 _symmetry_equiv_pos_as_xyz
  1  'x, y, z'
loop_
 _atom_site_type_symbol
 _atom_site_label
 _atom_site_symmetry_multiplicity
 _atom_site_fract_x
 _atom_site_fract_y
 _atom_site_fract_z
 _atom_site_occupancy
  Er  Er0  1  0.003814  0.331985  0.750000  1
  Er  Er1  1  0.669049  0.997227  0.250000  1
  Er  Er2  1  0.331283  0.002928  0.750000  1
  Th  Th3  1  0.996649  0.668101  0.250000  1
  Ga  Ga4  1  0.127386  0.129831  0.250000  1
  Ga  Ga5  1  0.875038  0.875637  0.750000  1
  Ga  Ga6  1  0.998921  0.329047  0.077289  1
  Ga  Ga7  1  0.000563  0.665654  0.916467  1
  Ga  Ga8  1  0.000563  0.665654  0.583533  1
  Ga  Ga9  1  0.339397  0.004336  0.422652  1
  Ga  Ga10  1  0.998921  0.329047  0.422711  1
  Ga  Ga11  1  0.665907  0.000789  0.579633  1
  Ga  Ga12  1  0.665907  0.000789  0.920367  1
  Ga  Ga13  1  0.339397  0.004336  0.077348  1
  Ga  Ga14  1  0.332486  0.332483  0.565512  1
  Ga  Ga15  1  0.662923  0.667739  0.437630  1
  Ga  Ga16  1  0.662923  0.667739  0.062370  1
  Ga  Ga17  1  0.332486  0.332483  0.934488  1
  Ga  Ga18  1  0.341032  0.546126  0.250000  1
  Ga  Ga19  1  0.661363  0.451796  0.750000  1
  Ga  Ga20  1  0.542553  0.335613  0.250000  1
  Ga  Ga21  1  0.452030  0.661222  0.750000  1
  Rh  Rh22  1  0.672335  0.329515  0.000163  1
  Rh  Rh23  1  0.326866  0.671091  0.000829  1
  Rh  Rh24  1  0.326866  0.671091  0.499171  1
  Rh  Rh25  1  0.672335  0.329515  0.499837  1
  Rh  Rh26  1  0.000502  0.999112  0.000335  1
  Rh  Rh27  1  0.000502  0.999112  0.499665  1
