# generated using pymatgen
data_La4Ga5I2
_symmetry_space_group_name_H-M   'P 1'
_cell_length_a   11.89608400
_cell_length_b   11.89616432
_cell_length_c   4.39023900
_cell_angle_alpha   90.00000000
_cell_angle_beta   90.00000000
_cell_angle_gamma   93.47780639
_symmetry_Int_Tables_number   1
_chemical_formula_structural   La4Ga5I2
_chemical_formula_sum   'La8 Ga10 I4'
_cell_volume   620.15263497
_cell_formula_units_Z   2
loop_
 _symmetry_equiv_pos_site_id
 _symmetry_equiv_pos_as_xyz
  1  'x, y, z'
loop_
 _atom_site_type_symbol
 _atom_site_label
 _atom_site_symmetry_multiplicity
 _atom_site_fract_x
 _atom_site_fract_y
 _atom_site_fract_z
 _atom_site_occupancy
  La  La0  1  0.666067  0.038527  0.500000  1
  La  La1  1  0.333933  0.961473  0.500000  1
  La  La2  1  0.038760  0.665986  0.500000  1
  La  La3  1  0.961240  0.334014  0.500000  1
  La  La4  1  0.723941  0.724190  0.000000  1
  La  La5  1  0.276059  0.275810  0.000000  1
  La  La6  1  0.371413  0.628336  0.000000  1
  La  La7  1  0.628587  0.371664  0.000000  1
  Ga  Ga8  1  0.578896  0.578928  0.500000  1
  Ga  Ga9  1  0.421104  0.421072  0.500000  1
  Ga  Ga10  1  0.537879  0.898254  0.000000  1
  Ga  Ga11  1  0.462121  0.101746  0.000000  1
  Ga  Ga12  1  0.898209  0.538019  0.000000  1
  Ga  Ga13  1  0.101791  0.461981  0.000000  1
  Ga  Ga14  1  0.510606  0.780477  0.500000  1
  Ga  Ga15  1  0.489394  0.219523  0.500000  1
  Ga  Ga16  1  0.219594  0.489385  0.500000  1
  Ga  Ga17  1  0.780406  0.510615  0.500000  1
  I  I18  1  0.122850  0.122972  0.500000  1
  I  I19  1  0.877150  0.877028  0.500000  1
  I  I20  1  0.824752  0.175221  0.000000  1
  I  I21  1  0.175248  0.824779  0.000000  1
