# generated using pymatgen
data_Sr2GaSiPt4
_symmetry_space_group_name_H-M   'P 1'
_cell_length_a   4.32586815
_cell_length_b   4.27112700
_cell_length_c   9.33457740
_cell_angle_alpha   90.00000000
_cell_angle_beta   103.39788139
_cell_angle_gamma   90.00000000
_symmetry_Int_Tables_number   1
_chemical_formula_structural   Sr2GaSiPt4
_chemical_formula_sum   'Sr2 Ga1 Si1 Pt4'
_cell_volume   167.77492105
_cell_formula_units_Z   1
loop_
 _symmetry_equiv_pos_site_id
 _symmetry_equiv_pos_as_xyz
  1  'x, y, z'
loop_
 _atom_site_type_symbol
 _atom_site_label
 _atom_site_symmetry_multiplicity
 _atom_site_fract_x
 _atom_site_fract_y
 _atom_site_fract_z
 _atom_site_occupancy
  Sr  Sr0  1  0.597485  0.250000  0.194968  1
  Sr  Sr1  1  0.404010  0.750000  0.808021  1
  Ga  Ga2  1  0.823001  0.250000  0.646001  1
  Si  Si3  1  0.178451  0.750000  0.356902  1
  Pt  Pt4  1  0.959226  0.250000  0.918451  1
  Pt  Pt5  1  0.049513  0.750000  0.099025  1
  Pt  Pt6  1  0.245423  0.250000  0.490846  1
  Pt  Pt7  1  0.742891  0.750000  0.485784  1
