# generated using pymatgen
data_Hf5ZrBeBi2
_symmetry_space_group_name_H-M   'P 1'
_cell_length_a   3.79976800
_cell_length_b   7.69932490
_cell_length_c   7.70630885
_cell_angle_alpha   119.97001873
_cell_angle_beta   90.00000000
_cell_angle_gamma   90.00000000
_symmetry_Int_Tables_number   1
_chemical_formula_structural   Hf5ZrBeBi2
_chemical_formula_sum   'Hf5 Zr1 Be1 Bi2'
_cell_volume   195.30703884
_cell_formula_units_Z   1
loop_
 _symmetry_equiv_pos_site_id
 _symmetry_equiv_pos_as_xyz
  1  'x, y, z'
loop_
 _atom_site_type_symbol
 _atom_site_label
 _atom_site_symmetry_multiplicity
 _atom_site_fract_x
 _atom_site_fract_y
 _atom_site_fract_z
 _atom_site_occupancy
  Hf  Hf0  1  0.500000  0.773090  0.771960  1
  Hf  Hf1  1  0.500000  0.001131  0.228040  1
  Hf  Hf2  1  0.500000  0.228688  0.000000  1
  Hf  Hf3  1  0.000000  0.383299  0.383087  1
  Hf  Hf4  1  0.000000  0.000212  0.616913  1
  Zr  Zr5  1  0.000000  0.612070  0.000000  1
  Be  Be6  1  0.000000  0.001219  0.000000  1
  Bi  Bi7  1  0.500000  0.667504  0.334713  1
  Bi  Bi8  1  0.500000  0.332790  0.665287  1
