# generated using pymatgen
data_Pr4MnOs7
_symmetry_space_group_name_H-M   'P 1'
_cell_length_a   5.43430235
_cell_length_b   5.43430167
_cell_length_c   8.99454816
_cell_angle_alpha   90.01802408
_cell_angle_beta   89.98197728
_cell_angle_gamma   119.89363993
_symmetry_Int_Tables_number   1
_chemical_formula_structural   Pr4MnOs7
_chemical_formula_sum   'Pr4 Mn1 Os7'
_cell_volume   230.28304065
_cell_formula_units_Z   1
loop_
 _symmetry_equiv_pos_site_id
 _symmetry_equiv_pos_as_xyz
  1  'x, y, z'
loop_
 _atom_site_type_symbol
 _atom_site_label
 _atom_site_symmetry_multiplicity
 _atom_site_fract_x
 _atom_site_fract_y
 _atom_site_fract_z
 _atom_site_occupancy
  Pr  Pr0  1  0.666638  0.333362  0.565029  1
  Pr  Pr1  1  0.333362  0.666638  0.434971  1
  Pr  Pr2  1  0.333355  0.666645  0.070167  1
  Pr  Pr3  1  0.666645  0.333355  0.929833  1
  Mn  Mn4  1  0.000000  0.000000  0.000000  1
  Os  Os5  1  0.000000  0.000000  0.500000  1
  Os  Os6  1  0.169541  0.339112  0.751653  1
  Os  Os7  1  0.169777  0.830223  0.751681  1
  Os  Os8  1  0.660888  0.830459  0.751653  1
  Os  Os9  1  0.830459  0.660888  0.248347  1
  Os  Os10  1  0.830223  0.169777  0.248319  1
  Os  Os11  1  0.339112  0.169541  0.248347  1
