# generated using pymatgen
data_Dy4TeC4Br
_symmetry_space_group_name_H-M   'P 1'
_cell_length_a   7.40300622
_cell_length_b   7.40300678
_cell_length_c   6.66238700
_cell_angle_alpha   100.10613928
_cell_angle_beta   100.10614006
_cell_angle_gamma   33.12543176
_symmetry_Int_Tables_number   1
_chemical_formula_structural   Dy4TeC4Br
_chemical_formula_sum   'Dy4 Te1 C4 Br1'
_cell_volume   196.16125145
_cell_formula_units_Z   1
loop_
 _symmetry_equiv_pos_site_id
 _symmetry_equiv_pos_as_xyz
  1  'x, y, z'
loop_
 _atom_site_type_symbol
 _atom_site_label
 _atom_site_symmetry_multiplicity
 _atom_site_fract_x
 _atom_site_fract_y
 _atom_site_fract_z
 _atom_site_occupancy
  Dy  Dy0  1  0.457138  0.853964  0.152744  1
  Dy  Dy1  1  0.146037  0.542862  0.347255  1
  Dy  Dy2  1  0.846887  0.469242  0.644672  1
  Dy  Dy3  1  0.530759  0.153114  0.855329  1
  Te  Te4  1  0.786248  0.213752  0.250000  1
  C  C5  1  0.098555  0.351035  0.025086  1
  C  C6  1  0.648965  0.901446  0.474913  1
  C  C7  1  0.346930  0.109788  0.528387  1
  C  C8  1  0.890213  0.653070  0.971614  1
  Br  Br9  1  0.248270  0.751730  0.750001  1
