# generated using pymatgen
data_CoNi3Se8
_symmetry_space_group_name_H-M   'P 1'
_cell_length_a   6.19571953
_cell_length_b   7.19397723
_cell_length_c   7.17304055
_cell_angle_alpha   60.33945207
_cell_angle_beta   55.32512236
_cell_angle_gamma   70.63258722
_symmetry_Int_Tables_number   1
_chemical_formula_structural   CoNi3Se8
_chemical_formula_sum   'Co1 Ni3 Se8'
_cell_volume   227.91894299
_cell_formula_units_Z   1
loop_
 _symmetry_equiv_pos_site_id
 _symmetry_equiv_pos_as_xyz
  1  'x, y, z'
loop_
 _atom_site_type_symbol
 _atom_site_label
 _atom_site_symmetry_multiplicity
 _atom_site_fract_x
 _atom_site_fract_y
 _atom_site_fract_z
 _atom_site_occupancy
  Co  Co0  1  0.499970  0.999993  0.250050  1
  Ni  Ni1  1  0.500072  0.500010  0.249907  1
  Ni  Ni2  1  0.499927  0.499962  0.750068  1
  Ni  Ni3  1  0.500012  0.000017  0.749997  1
  Se  Se4  1  0.266305  0.343995  0.191549  1
  Se  Se5  1  0.260632  0.852061  0.193842  1
  Se  Se6  1  0.733644  0.655996  0.308483  1
  Se  Se7  1  0.739382  0.147974  0.306136  1
  Se  Se8  1  0.260475  0.852226  0.687270  1
  Se  Se9  1  0.266037  0.348118  0.689929  1
  Se  Se10  1  0.739511  0.147749  0.812811  1
  Se  Se11  1  0.734037  0.651900  0.809956  1
