# generated using pymatgen
data_Pa(NbBr3)6
_symmetry_space_group_name_H-M   'P 1'
_cell_length_a   10.88291495
_cell_length_b   10.88182574
_cell_length_c   10.88335078
_cell_angle_alpha   55.95194336
_cell_angle_beta   55.95420708
_cell_angle_gamma   55.96293293
_symmetry_Int_Tables_number   1
_chemical_formula_structural   Pa(NbBr3)6
_chemical_formula_sum   'Pa1 Nb6 Br18'
_cell_volume   825.97655042
_cell_formula_units_Z   1
loop_
 _symmetry_equiv_pos_site_id
 _symmetry_equiv_pos_as_xyz
  1  'x, y, z'
loop_
 _atom_site_type_symbol
 _atom_site_label
 _atom_site_symmetry_multiplicity
 _atom_site_fract_x
 _atom_site_fract_y
 _atom_site_fract_z
 _atom_site_occupancy
  Pa  Pa0  1  0.000000  0.000000  0.000000  1
  Nb  Nb1  1  0.414934  0.314140  0.639405  1
  Nb  Nb2  1  0.360651  0.585059  0.685803  1
  Nb  Nb3  1  0.685817  0.360635  0.585045  1
  Nb  Nb4  1  0.314183  0.639365  0.414955  1
  Nb  Nb5  1  0.639349  0.414941  0.314197  1
  Nb  Nb6  1  0.585066  0.685860  0.360595  1
  Br  Br7  1  0.567341  0.166030  0.442554  1
  Br  Br8  1  0.225923  0.372906  0.902985  1
  Br  Br9  1  0.902982  0.225932  0.372863  1
  Br  Br10  1  0.372897  0.903025  0.225884  1
  Br  Br11  1  0.774077  0.627094  0.097015  1
  Br  Br12  1  0.097018  0.774068  0.627137  1
  Br  Br13  1  0.704932  0.961118  0.157311  1
  Br  Br14  1  0.961048  0.157336  0.704961  1
  Br  Br15  1  0.157323  0.704947  0.961092  1
  Br  Br16  1  0.295068  0.038882  0.842689  1
  Br  Br17  1  0.038952  0.842664  0.295039  1
  Br  Br18  1  0.842677  0.295053  0.038908  1
  Br  Br19  1  0.557433  0.432658  0.833998  1
  Br  Br20  1  0.165972  0.442543  0.567363  1
  Br  Br21  1  0.442567  0.567342  0.166002  1
  Br  Br22  1  0.432659  0.833970  0.557446  1
  Br  Br23  1  0.834028  0.557457  0.432637  1
  Br  Br24  1  0.627103  0.096975  0.774116  1
