# generated using pymatgen
data_Na14YbSn4
_symmetry_space_group_name_H-M   'P 1'
_cell_length_a   11.40434830
_cell_length_b   11.40441151
_cell_length_c   11.40147011
_cell_angle_alpha   109.52997168
_cell_angle_beta   109.33823184
_cell_angle_gamma   109.54018372
_symmetry_Int_Tables_number   1
_chemical_formula_structural   Na14YbSn4
_chemical_formula_sum   'Na28 Yb2 Sn8'
_cell_volume   1141.58774719
_cell_formula_units_Z   2
loop_
 _symmetry_equiv_pos_site_id
 _symmetry_equiv_pos_as_xyz
  1  'x, y, z'
loop_
 _atom_site_type_symbol
 _atom_site_label
 _atom_site_symmetry_multiplicity
 _atom_site_fract_x
 _atom_site_fract_y
 _atom_site_fract_z
 _atom_site_occupancy
  Na  Na0  1  0.751198  0.875752  0.125206  1
  Na  Na1  1  0.124357  0.750550  0.876050  1
  Na  Na2  1  0.373807  0.249450  0.625500  1
  Na  Na3  1  0.875446  0.124248  0.749453  1
  Na  Na4  1  0.080410  0.268022  0.108272  1
  Na  Na5  1  0.692058  0.030059  0.915759  1
  Na  Na6  1  0.882789  0.468032  0.154047  1
  Na  Na7  1  0.159163  0.891469  0.471174  1
  Na  Na8  1  0.339242  0.811771  0.729983  1
  Na  Na9  1  0.722517  0.336140  0.807918  1
  Na  Na10  1  0.029480  0.916565  0.692033  1
  Na  Na11  1  0.223476  0.307305  0.838511  1
  Na  Na12  1  0.190666  0.409823  0.532238  1
  Na  Na13  1  0.970374  0.384422  0.662812  1
  Na  Na14  1  0.309098  0.843145  0.220872  1
  Na  Na15  1  0.527471  0.188229  0.418213  1
  Na  Na16  1  0.386377  0.663860  0.971778  1
  Na  Na17  1  0.112916  0.083435  0.275469  1
  Na  Na18  1  0.267694  0.108531  0.079704  1
  Na  Na19  1  0.843853  0.220040  0.309365  1
  Na  Na20  1  0.414758  0.531968  0.186015  1
  Na  Na21  1  0.661998  0.969941  0.385699  1
  Na  Na22  1  0.623813  0.779960  0.589324  1
  Na  Na23  1  0.585951  0.615578  0.778390  1
  Na  Na24  1  0.780844  0.590177  0.622415  1
  Na  Na25  1  0.812390  0.731978  0.340250  1
  Na  Na26  1  0.916172  0.692695  0.031206  1
  Na  Na27  1  0.465954  0.156855  0.877728  1
  Yb  Yb28  1  0.624291  0.373458  0.248035  1
  Yb  Yb29  1  0.250833  0.626542  0.374577  1
  Sn  Sn30  1  0.420081  0.423848  0.412533  1
  Sn  Sn31  1  0.490936  0.986644  0.575207  1
  Sn  Sn32  1  0.583304  0.494701  0.006916  1
  Sn  Sn33  1  0.996233  0.576152  0.488685  1
  Sn  Sn34  1  0.088603  0.505299  0.012215  1
  Sn  Sn35  1  0.001052  0.084953  0.501420  1
  Sn  Sn36  1  0.504292  0.013356  0.088563  1
  Sn  Sn37  1  0.916099  0.915047  0.916467  1
