# generated using pymatgen
data_K5Ag(ClO)2
_symmetry_space_group_name_H-M   'P 1'
_cell_length_a   5.31462000
_cell_length_b   7.20718800
_cell_length_c   13.93795500
_cell_angle_alpha   90.00000000
_cell_angle_beta   90.00000000
_cell_angle_gamma   90.00000000
_symmetry_Int_Tables_number   1
_chemical_formula_structural   K5Ag(ClO)2
_chemical_formula_sum   'K10 Ag2 Cl4 O4'
_cell_volume   533.87197832
_cell_formula_units_Z   2
loop_
 _symmetry_equiv_pos_site_id
 _symmetry_equiv_pos_as_xyz
  1  'x, y, z'
loop_
 _atom_site_type_symbol
 _atom_site_label
 _atom_site_symmetry_multiplicity
 _atom_site_fract_x
 _atom_site_fract_y
 _atom_site_fract_z
 _atom_site_occupancy
  K  K0  1  0.500000  0.304931  0.612317  1
  K  K1  1  0.500000  0.195069  0.112317  1
  K  K2  1  0.000000  0.610336  0.731877  1
  K  K3  1  0.000000  0.500000  0.000000  1
  K  K4  1  0.500000  0.695069  0.387683  1
  K  K5  1  0.500000  0.804931  0.887683  1
  K  K6  1  0.000000  0.889664  0.231877  1
  K  K7  1  0.000000  0.389664  0.268123  1
  K  K8  1  0.000000  0.110336  0.768123  1
  K  K9  1  0.000000  0.000000  0.500000  1
  Ag  Ag10  1  0.000000  0.500000  0.500000  1
  Ag  Ag11  1  0.000000  0.000000  0.000000  1
  Cl  Cl12  1  0.500000  0.635766  0.152668  1
  Cl  Cl13  1  0.500000  0.364234  0.847332  1
  Cl  Cl14  1  0.500000  0.135766  0.347332  1
  Cl  Cl15  1  0.500000  0.864234  0.652668  1
  O  O16  1  0.000000  0.686574  0.388470  1
  O  O17  1  0.000000  0.813426  0.888470  1
  O  O18  1  0.000000  0.186574  0.111530  1
  O  O19  1  0.000000  0.313426  0.611530  1
