# generated using pymatgen
data_Tb3ScMn4O14
_symmetry_space_group_name_H-M   'P 1'
_cell_length_a   7.07022435
_cell_length_b   7.03665495
_cell_length_c   7.07022400
_cell_angle_alpha   59.84206402
_cell_angle_beta   60.00000164
_cell_angle_gamma   59.84206347
_symmetry_Int_Tables_number   1
_chemical_formula_structural   Tb3ScMn4O14
_chemical_formula_sum   'Tb3 Sc1 Mn4 O14'
_cell_volume   248.12855456
_cell_formula_units_Z   1
loop_
 _symmetry_equiv_pos_site_id
 _symmetry_equiv_pos_as_xyz
  1  'x, y, z'
loop_
 _atom_site_type_symbol
 _atom_site_label
 _atom_site_symmetry_multiplicity
 _atom_site_fract_x
 _atom_site_fract_y
 _atom_site_fract_z
 _atom_site_occupancy
  Tb  Tb0  1  0.125000  0.125000  0.625000  1
  Tb  Tb1  1  0.625000  0.125000  0.125000  1
  Tb  Tb2  1  0.125000  0.125000  0.125000  1
  Sc  Sc3  1  0.125000  0.625000  0.125000  1
  Mn  Mn4  1  0.625000  0.625000  0.625000  1
  Mn  Mn5  1  0.125000  0.625000  0.625000  1
  Mn  Mn6  1  0.625000  0.625000  0.125000  1
  Mn  Mn7  1  0.625000  0.125000  0.625000  1
  O  O8  1  0.294396  0.701455  0.709754  1
  O  O9  1  0.543795  0.956197  0.956213  1
  O  O10  1  0.709754  0.701455  0.294396  1
  O  O11  1  0.293787  0.293803  0.706205  1
  O  O12  1  0.007354  0.977939  0.007354  1
  O  O13  1  0.294396  0.701455  0.294396  1
  O  O14  1  0.706205  0.293803  0.706205  1
  O  O15  1  0.955604  0.548545  0.955604  1
  O  O16  1  0.540246  0.548545  0.955604  1
  O  O17  1  0.956213  0.956197  0.543795  1
  O  O18  1  0.242646  0.272061  0.242646  1
  O  O19  1  0.543795  0.956197  0.543795  1
  O  O20  1  0.706205  0.293803  0.293787  1
  O  O21  1  0.955604  0.548545  0.540246  1
