# generated using pymatgen
data_MgSc2Ga5Pt
_symmetry_space_group_name_H-M   'P 1'
_cell_length_a   6.88055700
_cell_length_b   6.59493129
_cell_length_c   4.08270500
_cell_angle_alpha   90.00000000
_cell_angle_beta   90.00000000
_cell_angle_gamma   121.44334261
_symmetry_Int_Tables_number   1
_chemical_formula_structural   MgSc2Ga5Pt
_chemical_formula_sum   'Mg1 Sc2 Ga5 Pt1'
_cell_volume   158.05583678
_cell_formula_units_Z   1
loop_
 _symmetry_equiv_pos_site_id
 _symmetry_equiv_pos_as_xyz
  1  'x, y, z'
loop_
 _atom_site_type_symbol
 _atom_site_label
 _atom_site_symmetry_multiplicity
 _atom_site_fract_x
 _atom_site_fract_y
 _atom_site_fract_z
 _atom_site_occupancy
  Mg  Mg0  1  0.593144  0.000000  0.000000  1
  Sc  Sc1  1  0.002510  0.576636  0.000000  1
  Sc  Sc2  1  0.425874  0.423364  0.000000  1
  Ga  Ga3  1  0.236668  0.000000  0.500000  1
  Ga  Ga4  1  0.002792  0.251818  0.500000  1
  Ga  Ga5  1  0.750974  0.748182  0.500000  1
  Ga  Ga6  1  0.335882  0.674680  0.500000  1
  Ga  Ga7  1  0.661204  0.325320  0.500000  1
  Pt  Pt8  1  0.990951  0.000000  0.000000  1
