# generated using pymatgen
data_Dy12TcIr2Os
_symmetry_space_group_name_H-M   'P 1'
_cell_length_a   6.38019214
_cell_length_b   7.36850775
_cell_length_c   9.11985400
_cell_angle_alpha   90.00000000
_cell_angle_beta   90.00000000
_cell_angle_gamma   90.10536499
_symmetry_Int_Tables_number   1
_chemical_formula_structural   Dy12TcIr2Os
_chemical_formula_sum   'Dy12 Tc1 Ir2 Os1'
_cell_volume   428.74636812
_cell_formula_units_Z   1
loop_
 _symmetry_equiv_pos_site_id
 _symmetry_equiv_pos_as_xyz
  1  'x, y, z'
loop_
 _atom_site_type_symbol
 _atom_site_label
 _atom_site_symmetry_multiplicity
 _atom_site_fract_x
 _atom_site_fract_y
 _atom_site_fract_z
 _atom_site_occupancy
  Dy  Dy0  1  0.331273  0.676399  0.061877  1
  Dy  Dy1  1  0.169293  0.174796  0.435424  1
  Dy  Dy2  1  0.670192  0.325132  0.564586  1
  Dy  Dy3  1  0.831471  0.823425  0.937450  1
  Dy  Dy4  1  0.670192  0.325132  0.935414  1
  Dy  Dy5  1  0.831471  0.823425  0.562550  1
  Dy  Dy6  1  0.331273  0.676399  0.438123  1
  Dy  Dy7  1  0.169293  0.174796  0.064576  1
  Dy  Dy8  1  0.869572  0.539157  0.250000  1
  Dy  Dy9  1  0.628521  0.038339  0.250000  1
  Dy  Dy10  1  0.131777  0.461675  0.750000  1
  Dy  Dy11  1  0.369688  0.960390  0.750000  1
  Tc  Tc12  1  0.038079  0.885369  0.250000  1
  Ir  Ir13  1  0.459172  0.383187  0.250000  1
  Ir  Ir14  1  0.957912  0.117296  0.750000  1
  Os  Os15  1  0.540822  0.615080  0.750000  1
