# generated using pymatgen
data_Tb2Fe6P6RuRh3
_symmetry_space_group_name_H-M   'P 1'
_cell_length_a   3.76911800
_cell_length_b   10.36309500
_cell_length_c   12.16792600
_cell_angle_alpha   90.00000000
_cell_angle_beta   90.00000000
_cell_angle_gamma   90.00000000
_symmetry_Int_Tables_number   1
_chemical_formula_structural   Tb2Fe6P6RuRh3
_chemical_formula_sum   'Tb4 Fe12 P12 Ru2 Rh6'
_cell_volume   475.27587867
_cell_formula_units_Z   2
loop_
 _symmetry_equiv_pos_site_id
 _symmetry_equiv_pos_as_xyz
  1  'x, y, z'
loop_
 _atom_site_type_symbol
 _atom_site_label
 _atom_site_symmetry_multiplicity
 _atom_site_fract_x
 _atom_site_fract_y
 _atom_site_fract_z
 _atom_site_occupancy
  Tb  Tb0  1  0.250000  0.582358  0.711097  1
  Tb  Tb1  1  0.250000  0.917642  0.211097  1
  Tb  Tb2  1  0.750000  0.420523  0.290159  1
  Tb  Tb3  1  0.750000  0.079477  0.790159  1
  Fe  Fe4  1  0.250000  0.223957  0.171208  1
  Fe  Fe5  1  0.250000  0.276043  0.671208  1
  Fe  Fe6  1  0.750000  0.775342  0.827495  1
  Fe  Fe7  1  0.750000  0.724658  0.327495  1
  Fe  Fe8  1  0.250000  0.878316  0.696885  1
  Fe  Fe9  1  0.250000  0.621684  0.196885  1
  Fe  Fe10  1  0.750000  0.120367  0.302858  1
  Fe  Fe11  1  0.750000  0.379633  0.802858  1
  Fe  Fe12  1  0.250000  0.458975  0.935878  1
  Fe  Fe13  1  0.250000  0.041025  0.435878  1
  Fe  Fe14  1  0.750000  0.537978  0.064579  1
  Fe  Fe15  1  0.750000  0.962022  0.564579  1
  P  P16  1  0.250000  0.429019  0.113601  1
  P  P17  1  0.250000  0.070981  0.613601  1
  P  P18  1  0.750000  0.573667  0.888850  1
  P  P19  1  0.750000  0.926333  0.388850  1
  P  P20  1  0.250000  0.274256  0.852866  1
  P  P21  1  0.250000  0.225744  0.352866  1
  P  P22  1  0.750000  0.724440  0.143951  1
  P  P23  1  0.750000  0.775560  0.643951  1
  P  P24  1  0.250000  0.609395  0.379233  1
  P  P25  1  0.250000  0.890605  0.879233  1
  P  P26  1  0.750000  0.394327  0.621422  1
  P  P27  1  0.750000  0.105673  0.121422  1
  Ru  Ru28  1  0.250000  0.704284  0.985041  1
  Ru  Ru29  1  0.250000  0.795716  0.485041  1
  Rh  Rh30  1  0.750000  0.293484  0.014732  1
  Rh  Rh31  1  0.750000  0.206516  0.514732  1
  Rh  Rh32  1  0.250000  0.404648  0.480268  1
  Rh  Rh33  1  0.250000  0.095352  0.980268  1
  Rh  Rh34  1  0.750000  0.596121  0.519877  1
  Rh  Rh35  1  0.750000  0.903879  0.019877  1
