# generated using pymatgen
data_Lu20Bi11Ru
_symmetry_space_group_name_H-M   'P 1'
_cell_length_a   8.01605701
_cell_length_b   9.38723200
_cell_length_c   11.81027712
_cell_angle_alpha   90.00000000
_cell_angle_beta   89.57477216
_cell_angle_gamma   90.00000000
_symmetry_Int_Tables_number   1
_chemical_formula_structural   Lu20Bi11Ru
_chemical_formula_sum   'Lu20 Bi11 Ru1'
_cell_volume   888.68218856
_cell_formula_units_Z   1
loop_
 _symmetry_equiv_pos_site_id
 _symmetry_equiv_pos_as_xyz
  1  'x, y, z'
loop_
 _atom_site_type_symbol
 _atom_site_label
 _atom_site_symmetry_multiplicity
 _atom_site_fract_x
 _atom_site_fract_y
 _atom_site_fract_z
 _atom_site_occupancy
  Lu  Lu0  1  0.049423  0.250000  0.506260  1
  Lu  Lu1  1  0.985325  0.750000  0.492336  1
  Lu  Lu2  1  0.478555  0.750000  0.012323  1
  Lu  Lu3  1  0.527150  0.250000  0.991612  1
  Lu  Lu4  1  0.357246  0.250000  0.305116  1
  Lu  Lu5  1  0.653594  0.750000  0.718885  1
  Lu  Lu6  1  0.147119  0.750000  0.778914  1
  Lu  Lu7  1  0.848905  0.250000  0.215571  1
  Lu  Lu8  1  0.207806  0.250000  0.770282  1
  Lu  Lu9  1  0.808458  0.750000  0.216247  1
  Lu  Lu10  1  0.313889  0.750000  0.279547  1
  Lu  Lu11  1  0.644076  0.250000  0.702252  1
  Lu  Lu12  1  0.192841  0.066841  0.064346  1
  Lu  Lu13  1  0.807719  0.933932  0.941302  1
  Lu  Lu14  1  0.315559  0.970698  0.557974  1
  Lu  Lu15  1  0.807719  0.566068  0.941302  1
  Lu  Lu16  1  0.678801  0.074111  0.446837  1
  Lu  Lu17  1  0.192841  0.433159  0.064346  1
  Lu  Lu18  1  0.678801  0.425889  0.446837  1
  Lu  Lu19  1  0.315559  0.529302  0.557974  1
  Bi  Bi20  1  0.594451  0.750000  0.459521  1
  Bi  Bi21  1  0.096906  0.750000  0.041596  1
  Bi  Bi22  1  0.911084  0.250000  0.950844  1
  Bi  Bi23  1  0.056948  0.998801  0.322053  1
  Bi  Bi24  1  0.930975  0.000260  0.675261  1
  Bi  Bi25  1  0.433671  0.991921  0.830553  1
  Bi  Bi26  1  0.930975  0.499740  0.675261  1
  Bi  Bi27  1  0.563740  0.004329  0.175371  1
  Bi  Bi28  1  0.056948  0.501199  0.322053  1
  Bi  Bi29  1  0.563740  0.495671  0.175371  1
  Bi  Bi30  1  0.433671  0.508079  0.830553  1
  Ru  Ru31  1  0.415506  0.250000  0.531300  1
