# generated using pymatgen
data_CeThCuSi4Pd
_symmetry_space_group_name_H-M   'P 1'
_cell_length_a   8.65694137
_cell_length_b   8.65694060
_cell_length_c   4.15036100
_cell_angle_alpha   90.00000000
_cell_angle_beta   90.00000000
_cell_angle_gamma   151.50474937
_symmetry_Int_Tables_number   1
_chemical_formula_structural   CeThCuSi4Pd
_chemical_formula_sum   'Ce1 Th1 Cu1 Si4 Pd1'
_cell_volume   148.39230455
_cell_formula_units_Z   1
loop_
 _symmetry_equiv_pos_site_id
 _symmetry_equiv_pos_as_xyz
  1  'x, y, z'
loop_
 _atom_site_type_symbol
 _atom_site_label
 _atom_site_symmetry_multiplicity
 _atom_site_fract_x
 _atom_site_fract_y
 _atom_site_fract_z
 _atom_site_occupancy
  Ce  Ce0  1  0.893868  0.106132  0.250000  1
  Th  Th1  1  0.100248  0.899752  0.750000  1
  Cu  Cu2  1  0.324418  0.675582  0.750000  1
  Si  Si3  1  0.533159  0.466841  0.250000  1
  Si  Si4  1  0.462325  0.537675  0.750000  1
  Si  Si5  1  0.251607  0.748393  0.250000  1
  Si  Si6  1  0.756076  0.243924  0.750000  1
  Pd  Pd7  1  0.678298  0.321702  0.250000  1
