# generated using pymatgen
data_Cs6CaTe4
_symmetry_space_group_name_H-M   'P 1'
_cell_length_a   12.15788200
_cell_length_b   12.15788229
_cell_length_c   9.31422100
_cell_angle_alpha   90.00000000
_cell_angle_beta   90.00000000
_cell_angle_gamma   119.99999922
_symmetry_Int_Tables_number   1
_chemical_formula_structural   Cs6CaTe4
_chemical_formula_sum   'Cs12 Ca2 Te8'
_cell_volume   1192.32055656
_cell_formula_units_Z   2
loop_
 _symmetry_equiv_pos_site_id
 _symmetry_equiv_pos_as_xyz
  1  'x, y, z'
loop_
 _atom_site_type_symbol
 _atom_site_label
 _atom_site_symmetry_multiplicity
 _atom_site_fract_x
 _atom_site_fract_y
 _atom_site_fract_z
 _atom_site_occupancy
  Cs  Cs0  1  0.147623  0.852377  0.544887  1
  Cs  Cs1  1  0.295245  0.147623  0.044887  1
  Cs  Cs2  1  0.852377  0.704755  0.044887  1
  Cs  Cs3  1  0.147623  0.295245  0.544887  1
  Cs  Cs4  1  0.704755  0.852377  0.544887  1
  Cs  Cs5  1  0.852377  0.147623  0.044887  1
  Cs  Cs6  1  0.527110  0.472890  0.364669  1
  Cs  Cs7  1  0.054219  0.527110  0.864669  1
  Cs  Cs8  1  0.472890  0.945781  0.864669  1
  Cs  Cs9  1  0.527110  0.054219  0.364669  1
  Cs  Cs10  1  0.945781  0.472890  0.364669  1
  Cs  Cs11  1  0.472890  0.527110  0.864669  1
  Ca  Ca12  1  0.333333  0.666667  0.248211  1
  Ca  Ca13  1  0.666667  0.333333  0.748211  1
  Te  Te14  1  0.333333  0.666667  0.579707  1
  Te  Te15  1  0.666667  0.333333  0.079707  1
  Te  Te16  1  0.193795  0.806205  0.148304  1
  Te  Te17  1  0.387589  0.193795  0.648304  1
  Te  Te18  1  0.806205  0.612411  0.648304  1
  Te  Te19  1  0.193795  0.387589  0.148304  1
  Te  Te20  1  0.612411  0.806205  0.148304  1
  Te  Te21  1  0.806205  0.193795  0.648304  1
