# generated using pymatgen
data_Tm4VFe(CoB8)2
_symmetry_space_group_name_H-M   'P 1'
_cell_length_a   3.35395000
_cell_length_b   5.87566836
_cell_length_c   11.37603218
_cell_angle_alpha   89.82548352
_cell_angle_beta   90.00000000
_cell_angle_gamma   90.00000000
_symmetry_Int_Tables_number   1
_chemical_formula_structural   Tm4VFe(CoB8)2
_chemical_formula_sum   'Tm4 V1 Fe1 Co2 B16'
_cell_volume   224.18298941
_cell_formula_units_Z   1
loop_
 _symmetry_equiv_pos_site_id
 _symmetry_equiv_pos_as_xyz
  1  'x, y, z'
loop_
 _atom_site_type_symbol
 _atom_site_label
 _atom_site_symmetry_multiplicity
 _atom_site_fract_x
 _atom_site_fract_y
 _atom_site_fract_z
 _atom_site_occupancy
  Tm  Tm0  1  0.500000  0.375388  0.152680  1
  Tm  Tm1  1  0.500000  0.626908  0.846974  1
  Tm  Tm2  1  0.500000  0.126523  0.647539  1
  Tm  Tm3  1  0.500000  0.872276  0.351531  1
  V  V4  1  0.500000  0.127922  0.916186  1
  Fe  Fe5  1  0.500000  0.873503  0.084407  1
  Co  Co6  1  0.500000  0.365080  0.409303  1
  Co  Co7  1  0.500000  0.633582  0.588176  1
  B  B8  1  0.000000  0.110531  0.049811  1
  B  B9  1  0.000000  0.882857  0.955592  1
  B  B10  1  0.000000  0.387528  0.546019  1
  B  B11  1  0.000000  0.612458  0.453066  1
  B  B12  1  0.000000  0.138178  0.467383  1
  B  B13  1  0.000000  0.861703  0.532044  1
  B  B14  1  0.000000  0.366935  0.969838  1
  B  B15  1  0.000000  0.636781  0.034158  1
  B  B16  1  0.000000  0.023412  0.193057  1
  B  B17  1  0.000000  0.972331  0.806785  1
  B  B18  1  0.000000  0.477579  0.690363  1
  B  B19  1  0.000000  0.524576  0.308415  1
  B  B20  1  0.000000  0.216029  0.315553  1
  B  B21  1  0.000000  0.782786  0.683642  1
  B  B22  1  0.000000  0.287526  0.812657  1
  B  B23  1  0.000000  0.717608  0.184823  1
