# generated using pymatgen
data_CrBi2PbF14
_symmetry_space_group_name_H-M   'P 1'
_cell_length_a   5.70802050
_cell_length_b   6.13507652
_cell_length_c   8.47132800
_cell_angle_alpha   79.22301384
_cell_angle_beta   89.61855200
_cell_angle_gamma   90.03482942
_symmetry_Int_Tables_number   1
_chemical_formula_structural   CrBi2PbF14
_chemical_formula_sum   'Cr1 Bi2 Pb1 F14'
_cell_volume   291.41933033
_cell_formula_units_Z   1
loop_
 _symmetry_equiv_pos_site_id
 _symmetry_equiv_pos_as_xyz
  1  'x, y, z'
loop_
 _atom_site_type_symbol
 _atom_site_label
 _atom_site_symmetry_multiplicity
 _atom_site_fract_x
 _atom_site_fract_y
 _atom_site_fract_z
 _atom_site_occupancy
  Cr  Cr0  1  0.208948  0.808295  0.777378  1
  Bi  Bi1  1  0.194390  0.660154  0.334665  1
  Bi  Bi2  1  0.688176  0.335126  0.690665  1
  Pb  Pb3  1  0.711084  0.200383  0.225128  1
  F  F4  1  0.370509  0.417442  0.529319  1
  F  F5  1  0.862379  0.560143  0.473075  1
  F  F6  1  0.924043  0.921422  0.219159  1
  F  F7  1  0.429767  0.046616  0.769417  1
  F  F8  1  0.424598  0.981855  0.242461  1
  F  F9  1  0.969992  0.013768  0.757289  1
  F  F10  1  0.511863  0.490360  0.209526  1
  F  F11  1  0.998403  0.570475  0.782467  1
  F  F12  1  0.207671  0.767761  0.992046  1
  F  F13  1  0.702587  0.245307  0.974721  1
  F  F14  1  0.223611  0.851947  0.549220  1
  F  F15  1  0.729263  0.128634  0.478484  1
  F  F16  1  0.027534  0.384512  0.215221  1
  F  F17  1  0.467906  0.615802  0.779760  1
