# generated using pymatgen
data_La5NdNp2O14
_symmetry_space_group_name_H-M   'P 1'
_cell_length_a   6.86336706
_cell_length_b   6.84254357
_cell_length_c   8.05565000
_cell_angle_alpha   90.00000000
_cell_angle_beta   90.00000000
_cell_angle_gamma   109.83978608
_symmetry_Int_Tables_number   1
_chemical_formula_structural   La5NdNp2O14
_chemical_formula_sum   'La5 Nd1 Np2 O14'
_cell_volume   355.86173057
_cell_formula_units_Z   1
loop_
 _symmetry_equiv_pos_site_id
 _symmetry_equiv_pos_as_xyz
  1  'x, y, z'
loop_
 _atom_site_type_symbol
 _atom_site_label
 _atom_site_symmetry_multiplicity
 _atom_site_fract_x
 _atom_site_fract_y
 _atom_site_fract_z
 _atom_site_occupancy
  La  La0  1  0.499402  0.499704  0.500938  1
  La  La1  1  0.499402  0.499704  0.999062  1
  La  La2  1  0.530390  0.001693  0.750000  1
  La  La3  1  0.001614  0.530648  0.250000  1
  La  La4  1  0.469176  0.998286  0.250000  1
  Nd  Nd5  1  0.997624  0.465562  0.750000  1
  Np  Np6  1  0.000219  0.999822  0.500866  1
  Np  Np7  1  0.000219  0.999822  0.999134  1
  O  O8  1  0.675705  0.918507  0.472259  1
  O  O9  1  0.921932  0.675284  0.531433  1
  O  O10  1  0.675705  0.918507  0.027741  1
  O  O11  1  0.921932  0.675284  0.968567  1
  O  O12  1  0.324778  0.081418  0.527952  1
  O  O13  1  0.080058  0.325927  0.474116  1
  O  O14  1  0.324778  0.081418  0.972048  1
  O  O15  1  0.080058  0.325927  0.025884  1
  O  O16  1  0.919195  0.085687  0.750000  1
  O  O17  1  0.080477  0.918691  0.250000  1
  O  O18  1  0.366194  0.628626  0.750000  1
  O  O19  1  0.630322  0.370175  0.250000  1
  O  O20  1  0.634973  0.365881  0.750000  1
  O  O21  1  0.365846  0.633428  0.250000  1
