# generated using pymatgen
data_LaGdDyTaO7
_symmetry_space_group_name_H-M   'P 1'
_cell_length_a   6.56729879
_cell_length_b   6.56729876
_cell_length_c   7.65751700
_cell_angle_alpha   90.00000000
_cell_angle_beta   90.00000000
_cell_angle_gamma   110.07109740
_symmetry_Int_Tables_number   1
_chemical_formula_structural   LaGdDyTaO7
_chemical_formula_sum   'La2 Gd2 Dy2 Ta2 O14'
_cell_volume   310.20644034
_cell_formula_units_Z   2
loop_
 _symmetry_equiv_pos_site_id
 _symmetry_equiv_pos_as_xyz
  1  'x, y, z'
loop_
 _atom_site_type_symbol
 _atom_site_label
 _atom_site_symmetry_multiplicity
 _atom_site_fract_x
 _atom_site_fract_y
 _atom_site_fract_z
 _atom_site_occupancy
  La  La0  1  0.000123  0.999877  0.000000  1
  La  La1  1  0.000123  0.999877  0.500000  1
  Gd  Gd2  1  0.515987  0.054988  0.250000  1
  Gd  Gd3  1  0.945012  0.484013  0.750000  1
  Dy  Dy4  1  0.053057  0.514934  0.250000  1
  Dy  Dy5  1  0.485066  0.946943  0.750000  1
  Ta  Ta6  1  0.499828  0.500172  0.000000  1
  Ta  Ta7  1  0.499828  0.500172  0.500000  1
  O  O8  1  0.883603  0.159928  0.250000  1
  O  O9  1  0.840072  0.116397  0.750000  1
  O  O10  1  0.816953  0.558419  0.036638  1
  O  O11  1  0.816953  0.558419  0.463362  1
  O  O12  1  0.441581  0.183047  0.963362  1
  O  O13  1  0.441581  0.183047  0.536638  1
  O  O14  1  0.572455  0.573309  0.750000  1
  O  O15  1  0.426691  0.427545  0.250000  1
  O  O16  1  0.559172  0.818113  0.030998  1
  O  O17  1  0.181887  0.440828  0.530998  1
  O  O18  1  0.559172  0.818113  0.469002  1
  O  O19  1  0.181887  0.440828  0.969002  1
  O  O20  1  0.121487  0.842518  0.750000  1
  O  O21  1  0.157482  0.878513  0.250000  1
