# generated using pymatgen
data_Ca(Pr3Ir2)3
_symmetry_space_group_name_H-M   'P 1'
_cell_length_a   11.35696300
_cell_length_b   11.35696300
_cell_length_c   6.55393900
_cell_angle_alpha   90.00000000
_cell_angle_beta   90.00000000
_cell_angle_gamma   90.00000000
_symmetry_Int_Tables_number   1
_chemical_formula_structural   Ca(Pr3Ir2)3
_chemical_formula_sum   'Ca2 Pr18 Ir12'
_cell_volume   845.33104084
_cell_formula_units_Z   2
loop_
 _symmetry_equiv_pos_site_id
 _symmetry_equiv_pos_as_xyz
  1  'x, y, z'
loop_
 _atom_site_type_symbol
 _atom_site_label
 _atom_site_symmetry_multiplicity
 _atom_site_fract_x
 _atom_site_fract_y
 _atom_site_fract_z
 _atom_site_occupancy
  Ca  Ca0  1  0.000000  0.000000  0.500000  1
  Ca  Ca1  1  0.000000  0.000000  0.000000  1
  Pr  Pr2  1  0.287969  0.088180  0.383876  1
  Pr  Pr3  1  0.287969  0.911820  0.883876  1
  Pr  Pr4  1  0.712031  0.088180  0.883876  1
  Pr  Pr5  1  0.712031  0.911820  0.383876  1
  Pr  Pr6  1  0.589591  0.791401  0.882445  1
  Pr  Pr7  1  0.589591  0.208599  0.382445  1
  Pr  Pr8  1  0.410409  0.791401  0.382445  1
  Pr  Pr9  1  0.410409  0.208599  0.882445  1
  Pr  Pr10  1  0.208599  0.410409  0.617555  1
  Pr  Pr11  1  0.208599  0.589591  0.117555  1
  Pr  Pr12  1  0.791401  0.410409  0.117555  1
  Pr  Pr13  1  0.791401  0.589591  0.617555  1
  Pr  Pr14  1  0.911820  0.712031  0.116124  1
  Pr  Pr15  1  0.911820  0.287969  0.616124  1
  Pr  Pr16  1  0.088180  0.712031  0.616124  1
  Pr  Pr17  1  0.088180  0.287969  0.116124  1
  Pr  Pr18  1  0.500000  0.500000  0.000000  1
  Pr  Pr19  1  0.500000  0.500000  0.500000  1
  Ir  Ir20  1  0.842559  0.157441  0.250000  1
  Ir  Ir21  1  0.842559  0.842559  0.750000  1
  Ir  Ir22  1  0.157441  0.157441  0.750000  1
  Ir  Ir23  1  0.157441  0.842559  0.250000  1
  Ir  Ir24  1  0.654264  0.345736  0.750000  1
  Ir  Ir25  1  0.654264  0.654264  0.250000  1
  Ir  Ir26  1  0.345736  0.345736  0.250000  1
  Ir  Ir27  1  0.345736  0.654264  0.750000  1
  Ir  Ir28  1  0.500000  0.000000  0.114595  1
  Ir  Ir29  1  0.500000  0.000000  0.614595  1
  Ir  Ir30  1  0.000000  0.500000  0.885405  1
  Ir  Ir31  1  0.000000  0.500000  0.385405  1
