# generated using pymatgen
data_HfSc5Co16(TcP6)2
_symmetry_space_group_name_H-M   'P 1'
_cell_length_a   11.95303468
_cell_length_b   11.95284967
_cell_length_c   3.63696100
_cell_angle_alpha   90.00000000
_cell_angle_beta   90.00000000
_cell_angle_gamma   119.99949880
_symmetry_Int_Tables_number   1
_chemical_formula_structural   HfSc5Co16(TcP6)2
_chemical_formula_sum   'Hf1 Sc5 Co16 Tc2 P12'
_cell_volume   450.00890320
_cell_formula_units_Z   1
loop_
 _symmetry_equiv_pos_site_id
 _symmetry_equiv_pos_as_xyz
  1  'x, y, z'
loop_
 _atom_site_type_symbol
 _atom_site_label
 _atom_site_symmetry_multiplicity
 _atom_site_fract_x
 _atom_site_fract_y
 _atom_site_fract_z
 _atom_site_occupancy
  Hf  Hf0  1  0.000000  0.556368  0.000000  1
  Sc  Sc1  1  0.818155  0.816556  0.500000  1
  Sc  Sc2  1  0.000000  0.177355  0.500000  1
  Sc  Sc3  1  0.334436  0.667609  0.000000  1
  Sc  Sc4  1  0.665564  0.333173  0.000000  1
  Sc  Sc5  1  0.181845  0.998402  0.500000  1
  Co  Co6  1  0.624624  0.823073  0.000000  1
  Co  Co7  1  0.375376  0.198448  0.000000  1
  Co  Co8  1  0.000000  0.721580  0.500000  1
  Co  Co9  1  0.282590  0.280822  0.500000  1
  Co  Co10  1  0.870654  0.350043  0.500000  1
  Co  Co11  1  0.717410  0.998231  0.500000  1
  Co  Co12  1  0.817695  0.626886  0.000000  1
  Co  Co13  1  0.182305  0.809191  0.000000  1
  Co  Co14  1  0.358050  0.876998  0.500000  1
  Co  Co15  1  0.129346  0.479389  0.500000  1
  Co  Co16  1  0.641950  0.518948  0.500000  1
  Co  Co17  1  0.000000  0.000098  0.000000  1
  Co  Co18  1  0.516327  0.646919  0.500000  1
  Co  Co19  1  0.483673  0.130593  0.500000  1
  Co  Co20  1  0.196791  0.369863  0.000000  1
  Co  Co21  1  0.803209  0.173071  0.000000  1
  Tc  Tc22  1  0.447593  0.449592  0.000000  1
  Tc  Tc23  1  0.552407  0.001999  0.000000  1
  P  P24  1  0.000000  0.345619  0.000000  1
  P  P25  1  0.824646  0.515302  0.500000  1
  P  P26  1  0.684240  0.165484  0.500000  1
  P  P27  1  0.176668  0.174013  0.000000  1
  P  P28  1  0.640153  0.644822  0.000000  1
  P  P29  1  0.823332  0.997345  0.000000  1
  P  P30  1  0.517070  0.834047  0.500000  1
  P  P31  1  0.175354  0.690654  0.500000  1
  P  P32  1  0.359847  0.004669  0.000000  1
  P  P33  1  0.482930  0.316979  0.500000  1
  P  P34  1  0.000000  0.824615  0.000000  1
  P  P35  1  0.315760  0.481243  0.500000  1
