# generated using pymatgen
data_ErTm2CoSn3Ir2
_symmetry_space_group_name_H-M   'P 1'
_cell_length_a   7.61586608
_cell_length_b   7.60883044
_cell_length_c   3.62587000
_cell_angle_alpha   90.00000000
_cell_angle_beta   90.00000000
_cell_angle_gamma   119.96945503
_symmetry_Int_Tables_number   1
_chemical_formula_structural   ErTm2CoSn3Ir2
_chemical_formula_sum   'Er1 Tm2 Co1 Sn3 Ir2'
_cell_volume   182.01771387
_cell_formula_units_Z   1
loop_
 _symmetry_equiv_pos_site_id
 _symmetry_equiv_pos_as_xyz
  1  'x, y, z'
loop_
 _atom_site_type_symbol
 _atom_site_label
 _atom_site_symmetry_multiplicity
 _atom_site_fract_x
 _atom_site_fract_y
 _atom_site_fract_z
 _atom_site_occupancy
  Er  Er0  1  0.000000  0.403979  0.500000  1
  Tm  Tm1  1  0.596071  0.596054  0.500000  1
  Tm  Tm2  1  0.403929  0.999983  0.500000  1
  Co  Co3  1  0.000000  0.999889  0.500000  1
  Sn  Sn4  1  0.000000  0.743143  0.000000  1
  Sn  Sn5  1  0.257415  0.257000  0.000000  1
  Sn  Sn6  1  0.742585  0.999585  0.000000  1
  Ir  Ir7  1  0.333993  0.667180  0.000000  1
  Ir  Ir8  1  0.666007  0.333187  0.000000  1
