# generated using pymatgen
data_DyErOsC2
_symmetry_space_group_name_H-M   'P 1'
_cell_length_a   5.11222800
_cell_length_b   6.44048600
_cell_length_c   9.72348400
_cell_angle_alpha   90.00000000
_cell_angle_beta   90.00000000
_cell_angle_gamma   90.00000000
_symmetry_Int_Tables_number   1
_chemical_formula_structural   DyErOsC2
_chemical_formula_sum   'Dy4 Er4 Os4 C8'
_cell_volume   320.14797494
_cell_formula_units_Z   4
loop_
 _symmetry_equiv_pos_site_id
 _symmetry_equiv_pos_as_xyz
  1  'x, y, z'
loop_
 _atom_site_type_symbol
 _atom_site_label
 _atom_site_symmetry_multiplicity
 _atom_site_fract_x
 _atom_site_fract_y
 _atom_site_fract_z
 _atom_site_occupancy
  Dy  Dy0  1  0.250000  0.471599  0.217100  1
  Dy  Dy1  1  0.250000  0.971599  0.282900  1
  Dy  Dy2  1  0.750000  0.528401  0.782900  1
  Dy  Dy3  1  0.750000  0.028401  0.717100  1
  Er  Er4  1  0.250000  0.821020  0.946827  1
  Er  Er5  1  0.250000  0.321020  0.553173  1
  Er  Er6  1  0.750000  0.178980  0.053173  1
  Er  Er7  1  0.750000  0.678980  0.446827  1
  Os  Os8  1  0.250000  0.277689  0.866123  1
  Os  Os9  1  0.250000  0.777689  0.633877  1
  Os  Os10  1  0.750000  0.722311  0.133877  1
  Os  Os11  1  0.750000  0.222311  0.366123  1
  C  C12  1  0.250000  0.042882  0.741449  1
  C  C13  1  0.250000  0.542882  0.758551  1
  C  C14  1  0.750000  0.957118  0.258551  1
  C  C15  1  0.750000  0.457118  0.241449  1
  C  C16  1  0.250000  0.671611  0.446211  1
  C  C17  1  0.250000  0.171611  0.053789  1
  C  C18  1  0.750000  0.328389  0.553789  1
  C  C19  1  0.750000  0.828389  0.946211  1
