# generated using pymatgen
data_Yb2Y2PtRh3O14
_symmetry_space_group_name_H-M   'P 1'
_cell_length_a   7.24263571
_cell_length_b   7.22332928
_cell_length_c   7.22512065
_cell_angle_alpha   60.00819486
_cell_angle_beta   60.03598321
_cell_angle_gamma   60.08814216
_symmetry_Int_Tables_number   1
_chemical_formula_structural   Yb2Y2PtRh3O14
_chemical_formula_sum   'Yb2 Y2 Pt1 Rh3 O14'
_cell_volume   267.54552166
_cell_formula_units_Z   1
loop_
 _symmetry_equiv_pos_site_id
 _symmetry_equiv_pos_as_xyz
  1  'x, y, z'
loop_
 _atom_site_type_symbol
 _atom_site_label
 _atom_site_symmetry_multiplicity
 _atom_site_fract_x
 _atom_site_fract_y
 _atom_site_fract_z
 _atom_site_occupancy
  Yb  Yb0  1  0.125000  0.125000  0.625000  1
  Yb  Yb1  1  0.625000  0.125000  0.125000  1
  Y  Y2  1  0.125000  0.625000  0.125000  1
  Y  Y3  1  0.125000  0.125000  0.125000  1
  Pt  Pt4  1  0.625000  0.625000  0.125000  1
  Rh  Rh5  1  0.625000  0.625000  0.625000  1
  Rh  Rh6  1  0.125000  0.625000  0.625000  1
  Rh  Rh7  1  0.625000  0.125000  0.625000  1
  O  O8  1  0.295066  0.701092  0.708262  1
  O  O9  1  0.536382  0.959288  0.958420  1
  O  O10  1  0.713618  0.704090  0.291580  1
  O  O11  1  0.295066  0.295581  0.708262  1
  O  O12  1  0.004223  0.996277  0.003224  1
  O  O13  1  0.289369  0.710407  0.289818  1
  O  O14  1  0.704031  0.297814  0.700340  1
  O  O15  1  0.960631  0.539593  0.960182  1
  O  O16  1  0.536382  0.545910  0.958420  1
  O  O17  1  0.954934  0.954419  0.541738  1
  O  O18  1  0.245777  0.253723  0.246776  1
  O  O19  1  0.545969  0.952186  0.549660  1
  O  O20  1  0.713618  0.290712  0.291580  1
  O  O21  1  0.954934  0.548908  0.541738  1
