# generated using pymatgen
data_Li4Ca2HoErSi8
_symmetry_space_group_name_H-M   'P 1'
_cell_length_a   3.78537000
_cell_length_b   7.76002357
_cell_length_c   10.37589773
_cell_angle_alpha   90.04589934
_cell_angle_beta   90.00000000
_cell_angle_gamma   90.00000000
_symmetry_Int_Tables_number   1
_chemical_formula_structural   Li4Ca2HoErSi8
_chemical_formula_sum   'Li4 Ca2 Ho1 Er1 Si8'
_cell_volume   304.78733705
_cell_formula_units_Z   1
loop_
 _symmetry_equiv_pos_site_id
 _symmetry_equiv_pos_as_xyz
  1  'x, y, z'
loop_
 _atom_site_type_symbol
 _atom_site_label
 _atom_site_symmetry_multiplicity
 _atom_site_fract_x
 _atom_site_fract_y
 _atom_site_fract_z
 _atom_site_occupancy
  Li  Li0  1  0.250000  0.995506  0.389912  1
  Li  Li1  1  0.750000  0.007200  0.608701  1
  Li  Li2  1  0.250000  0.496505  0.108800  1
  Li  Li3  1  0.750000  0.509708  0.890926  1
  Ca  Ca4  1  0.750000  0.863395  0.135372  1
  Ca  Ca5  1  0.750000  0.361735  0.365776  1
  Ho  Ho6  1  0.250000  0.131003  0.863886  1
  Er  Er7  1  0.250000  0.630036  0.636088  1
  Si  Si8  1  0.750000  0.267277  0.061252  1
  Si  Si9  1  0.250000  0.736450  0.927312  1
  Si  Si10  1  0.750000  0.765406  0.438970  1
  Si  Si11  1  0.250000  0.235186  0.573182  1
  Si  Si12  1  0.750000  0.839982  0.814563  1
  Si  Si13  1  0.250000  0.160962  0.170570  1
  Si  Si14  1  0.750000  0.340553  0.685276  1
  Si  Si15  1  0.250000  0.659100  0.329413  1
