# generated using pymatgen
data_Sr4Pu7UN16
_symmetry_space_group_name_H-M   'P 1'
_cell_length_a   10.08518885
_cell_length_b   3.49680400
_cell_length_c   11.83652976
_cell_angle_alpha   90.00000000
_cell_angle_beta   90.19964278
_cell_angle_gamma   90.00000000
_symmetry_Int_Tables_number   1
_chemical_formula_structural   Sr4Pu7UN16
_chemical_formula_sum   'Sr4 Pu7 U1 N16'
_cell_volume   417.42368060
_cell_formula_units_Z   1
loop_
 _symmetry_equiv_pos_site_id
 _symmetry_equiv_pos_as_xyz
  1  'x, y, z'
loop_
 _atom_site_type_symbol
 _atom_site_label
 _atom_site_symmetry_multiplicity
 _atom_site_fract_x
 _atom_site_fract_y
 _atom_site_fract_z
 _atom_site_occupancy
  Sr  Sr0  1  0.748806  0.500001  0.146241  1
  Sr  Sr1  1  0.248695  0.500001  0.355388  1
  Sr  Sr2  1  0.750087  0.000000  0.642840  1
  Sr  Sr3  1  0.254506  0.000000  0.852784  1
  Pu  Pu4  1  0.079231  0.500001  0.115283  1
  Pu  Pu5  1  0.422986  0.000000  0.112996  1
  Pu  Pu6  1  0.923483  0.000000  0.388387  1
  Pu  Pu7  1  0.577022  0.500001  0.387038  1
  Pu  Pu8  1  0.422372  0.000000  0.612034  1
  Pu  Pu9  1  0.076377  0.500001  0.611775  1
  Pu  Pu10  1  0.574121  0.500001  0.889153  1
  U  U11  1  0.925006  0.000000  0.886483  1
  N  N12  1  0.612295  0.000000  0.006904  1
  N  N13  1  0.940005  0.000000  0.068932  1
  N  N14  1  0.209305  0.000000  0.165512  1
  N  N15  1  0.487040  0.500001  0.214172  1
  N  N16  1  0.983543  0.500001  0.284872  1
  N  N17  1  0.710721  0.000000  0.337962  1
  N  N18  1  0.440807  0.000000  0.425170  1
  N  N19  1  0.112250  0.000000  0.493149  1
  N  N20  1  0.888466  0.500001  0.508489  1
  N  N21  1  0.559719  0.500001  0.574146  1
  N  N22  1  0.288653  0.500001  0.663313  1
  N  N23  1  0.010415  0.000000  0.717295  1
  N  N24  1  0.514496  0.000000  0.786657  1
  N  N25  1  0.797895  0.500001  0.839976  1
  N  N26  1  0.056536  0.500001  0.919912  1
  N  N27  1  0.385176  0.500001  0.993149  1
