# generated using pymatgen
data_Dy2Mn3Ni3P7Ir6
_symmetry_space_group_name_H-M   'P 1'
_cell_length_a   9.37810200
_cell_length_b   9.37810251
_cell_length_c   3.84984900
_cell_angle_alpha   90.00000000
_cell_angle_beta   90.00000000
_cell_angle_gamma   120.00000622
_symmetry_Int_Tables_number   1
_chemical_formula_structural   Dy2Mn3Ni3P7Ir6
_chemical_formula_sum   'Dy2 Mn3 Ni3 P7 Ir6'
_cell_volume   293.22718266
_cell_formula_units_Z   1
loop_
 _symmetry_equiv_pos_site_id
 _symmetry_equiv_pos_as_xyz
  1  'x, y, z'
loop_
 _atom_site_type_symbol
 _atom_site_label
 _atom_site_symmetry_multiplicity
 _atom_site_fract_x
 _atom_site_fract_y
 _atom_site_fract_z
 _atom_site_occupancy
  Dy  Dy0  1  0.666667  0.333333  0.000000  1
  Dy  Dy1  1  0.333333  0.666667  0.500000  1
  Mn  Mn2  1  0.127234  0.918485  0.500000  1
  Mn  Mn3  1  0.081515  0.208749  0.500000  1
  Mn  Mn4  1  0.791251  0.872766  0.500000  1
  Ni  Ni5  1  0.893360  0.731110  0.000000  1
  Ni  Ni6  1  0.268890  0.162251  0.000000  1
  Ni  Ni7  1  0.837750  0.106640  0.000000  1
  P  P8  1  0.113407  0.702286  0.000000  1
  P  P9  1  0.297714  0.411121  0.000000  1
  P  P10  1  0.588879  0.886593  0.000000  1
  P  P11  1  0.715255  0.599548  0.500000  1
  P  P12  1  0.400452  0.115708  0.500000  1
  P  P13  1  0.884292  0.284745  0.500000  1
  P  P14  1  0.000000  0.000000  0.000000  1
  Ir  Ir15  1  0.363461  0.937316  0.000000  1
  Ir  Ir16  1  0.062684  0.426145  0.000000  1
  Ir  Ir17  1  0.573855  0.636539  0.000000  1
  Ir  Ir18  1  0.947535  0.565757  0.500000  1
  Ir  Ir19  1  0.434243  0.381778  0.500000  1
  Ir  Ir20  1  0.618222  0.052465  0.500000  1
