# generated using pymatgen
data_Tb10AlBi5Se2
_symmetry_space_group_name_H-M   'P 1'
_cell_length_a   9.23737396
_cell_length_b   9.23737539
_cell_length_c   6.68448600
_cell_angle_alpha   90.00000000
_cell_angle_beta   90.00000000
_cell_angle_gamma   119.85931523
_symmetry_Int_Tables_number   1
_chemical_formula_structural   Tb10AlBi5Se2
_chemical_formula_sum   'Tb10 Al1 Bi5 Se2'
_cell_volume   494.66330465
_cell_formula_units_Z   1
loop_
 _symmetry_equiv_pos_site_id
 _symmetry_equiv_pos_as_xyz
  1  'x, y, z'
loop_
 _atom_site_type_symbol
 _atom_site_label
 _atom_site_symmetry_multiplicity
 _atom_site_fract_x
 _atom_site_fract_y
 _atom_site_fract_z
 _atom_site_occupancy
  Tb  Tb0  1  0.659993  0.335648  0.496483  1
  Tb  Tb1  1  0.335648  0.659993  0.496483  1
  Tb  Tb2  1  0.335648  0.659993  0.003517  1
  Tb  Tb3  1  0.659993  0.335648  0.003517  1
  Tb  Tb4  1  0.740491  0.740491  0.250000  1
  Tb  Tb5  1  0.257215  0.012181  0.250000  1
  Tb  Tb6  1  0.012181  0.257215  0.250000  1
  Tb  Tb7  1  0.252974  0.252974  0.750000  1
  Tb  Tb8  1  0.747626  0.001161  0.750000  1
  Tb  Tb9  1  0.001161  0.747626  0.750000  1
  Al  Al10  1  0.398768  0.398768  0.250000  1
  Bi  Bi11  1  0.607328  0.001393  0.250000  1
  Bi  Bi12  1  0.001393  0.607328  0.250000  1
  Bi  Bi13  1  0.603149  0.603149  0.750000  1
  Bi  Bi14  1  0.393411  0.998268  0.750000  1
  Bi  Bi15  1  0.998268  0.393411  0.750000  1
  Se  Se16  1  0.997377  0.997377  0.500055  1
  Se  Se17  1  0.997377  0.997377  0.999945  1
