# generated using pymatgen
data_Y20TcNiHg6
_symmetry_space_group_name_H-M   'P 1'
_cell_length_a   9.65338400
_cell_length_b   9.65338506
_cell_length_c   9.66147100
_cell_angle_alpha   90.00000000
_cell_angle_beta   90.00000000
_cell_angle_gamma   119.99999637
_symmetry_Int_Tables_number   1
_chemical_formula_structural   Y20TcNiHg6
_chemical_formula_sum   'Y20 Tc1 Ni1 Hg6'
_cell_volume   779.71001826
_cell_formula_units_Z   1
loop_
 _symmetry_equiv_pos_site_id
 _symmetry_equiv_pos_as_xyz
  1  'x, y, z'
loop_
 _atom_site_type_symbol
 _atom_site_label
 _atom_site_symmetry_multiplicity
 _atom_site_fract_x
 _atom_site_fract_y
 _atom_site_fract_z
 _atom_site_occupancy
  Y  Y0  1  0.000000  0.000000  0.500191  1
  Y  Y1  1  0.000000  0.000000  0.999809  1
  Y  Y2  1  0.540448  0.459552  0.250000  1
  Y  Y3  1  0.540448  0.080896  0.250000  1
  Y  Y4  1  0.919104  0.459552  0.250000  1
  Y  Y5  1  0.457237  0.542763  0.750000  1
  Y  Y6  1  0.457237  0.914472  0.750000  1
  Y  Y7  1  0.085528  0.542763  0.750000  1
  Y  Y8  1  0.208942  0.791058  0.439889  1
  Y  Y9  1  0.208942  0.417884  0.439889  1
  Y  Y10  1  0.582116  0.791058  0.439889  1
  Y  Y11  1  0.789907  0.210093  0.563834  1
  Y  Y12  1  0.789907  0.579812  0.563834  1
  Y  Y13  1  0.420188  0.210093  0.563834  1
  Y  Y14  1  0.789907  0.210093  0.936166  1
  Y  Y15  1  0.789907  0.579812  0.936166  1
  Y  Y16  1  0.420188  0.210093  0.936166  1
  Y  Y17  1  0.208942  0.791058  0.060111  1
  Y  Y18  1  0.208942  0.417884  0.060111  1
  Y  Y19  1  0.582116  0.791058  0.060111  1
  Tc  Tc20  1  0.333333  0.666667  0.250000  1
  Ni  Ni21  1  0.666667  0.333333  0.750000  1
  Hg  Hg22  1  0.880521  0.119479  0.250000  1
  Hg  Hg23  1  0.880521  0.761041  0.250000  1
  Hg  Hg24  1  0.238959  0.119479  0.250000  1
  Hg  Hg25  1  0.119379  0.880621  0.750000  1
  Hg  Hg26  1  0.119379  0.238758  0.750000  1
  Hg  Hg27  1  0.761242  0.880621  0.750000  1
