# generated using pymatgen
data_Er20AlBi11
_symmetry_space_group_name_H-M   'P 1'
_cell_length_a   8.17036954
_cell_length_b   9.43955300
_cell_length_c   11.93959504
_cell_angle_alpha   90.00000000
_cell_angle_beta   90.29145929
_cell_angle_gamma   90.00000000
_symmetry_Int_Tables_number   1
_chemical_formula_structural   Er20AlBi11
_chemical_formula_sum   'Er20 Al1 Bi11'
_cell_volume   920.82501017
_cell_formula_units_Z   1
loop_
 _symmetry_equiv_pos_site_id
 _symmetry_equiv_pos_as_xyz
  1  'x, y, z'
loop_
 _atom_site_type_symbol
 _atom_site_label
 _atom_site_symmetry_multiplicity
 _atom_site_fract_x
 _atom_site_fract_y
 _atom_site_fract_z
 _atom_site_occupancy
  Er  Er0  1  0.355157  0.750000  0.206904  1
  Er  Er1  1  0.852671  0.750000  0.284442  1
  Er  Er2  1  0.648661  0.250000  0.783910  1
  Er  Er3  1  0.148888  0.250000  0.716777  1
  Er  Er4  1  0.685006  0.570473  0.055080  1
  Er  Er5  1  0.193408  0.935213  0.439855  1
  Er  Er6  1  0.308431  0.051450  0.941012  1
  Er  Er7  1  0.806798  0.435602  0.559129  1
  Er  Er8  1  0.308431  0.448550  0.941012  1
  Er  Er9  1  0.806798  0.064398  0.559129  1
  Er  Er10  1  0.685006  0.929527  0.055080  1
  Er  Er11  1  0.193408  0.564787  0.439855  1
  Er  Er12  1  0.475605  0.250000  0.488772  1
  Er  Er13  1  0.979129  0.250000  0.010480  1
  Er  Er14  1  0.525599  0.750000  0.511558  1
  Er  Er15  1  0.034867  0.750000  0.989680  1
  Er  Er16  1  0.313730  0.250000  0.219224  1
  Er  Er17  1  0.811383  0.250000  0.281699  1
  Er  Er18  1  0.675028  0.750000  0.788041  1
  Er  Er19  1  0.190863  0.750000  0.722390  1
  Al  Al20  1  0.407575  0.750000  0.959602  1
  Bi  Bi21  1  0.908328  0.750000  0.544581  1
  Bi  Bi22  1  0.593637  0.250000  0.042400  1
  Bi  Bi23  1  0.093452  0.250000  0.457553  1
  Bi  Bi24  1  0.564849  0.995666  0.325642  1
  Bi  Bi25  1  0.063903  0.503046  0.175320  1
  Bi  Bi26  1  0.435374  0.496087  0.675001  1
  Bi  Bi27  1  0.934944  0.002835  0.824952  1
  Bi  Bi28  1  0.435374  0.003913  0.675001  1
  Bi  Bi29  1  0.934944  0.497165  0.824952  1
  Bi  Bi30  1  0.564849  0.504334  0.325642  1
  Bi  Bi31  1  0.063903  0.996954  0.175320  1
