# generated using pymatgen
data_Sm4Pa2TcOs5
_symmetry_space_group_name_H-M   'P 1'
_cell_length_a   5.84815700
_cell_length_b   5.83857202
_cell_length_c   8.39364500
_cell_angle_alpha   90.00000000
_cell_angle_beta   90.00000000
_cell_angle_gamma   120.05431508
_symmetry_Int_Tables_number   1
_chemical_formula_structural   Sm4Pa2TcOs5
_chemical_formula_sum   'Sm4 Pa2 Tc1 Os5'
_cell_volume   248.06696740
_cell_formula_units_Z   1
loop_
 _symmetry_equiv_pos_site_id
 _symmetry_equiv_pos_as_xyz
  1  'x, y, z'
loop_
 _atom_site_type_symbol
 _atom_site_label
 _atom_site_symmetry_multiplicity
 _atom_site_fract_x
 _atom_site_fract_y
 _atom_site_fract_z
 _atom_site_occupancy
  Sm  Sm0  1  0.334733  0.669466  0.435093  1
  Sm  Sm1  1  0.667444  0.334888  0.561004  1
  Sm  Sm2  1  0.667444  0.334888  0.938996  1
  Sm  Sm3  1  0.334733  0.669466  0.064907  1
  Pa  Pa4  1  0.002675  0.005351  0.998671  1
  Pa  Pa5  1  0.002675  0.005351  0.501329  1
  Tc  Tc6  1  0.159207  0.318415  0.750000  1
  Os  Os7  1  0.170596  0.827266  0.750000  1
  Os  Os8  1  0.338176  0.169931  0.250000  1
  Os  Os9  1  0.833891  0.667781  0.250000  1
  Os  Os10  1  0.656669  0.827266  0.750000  1
  Os  Os11  1  0.831756  0.169931  0.250000  1
