# generated using pymatgen
data_Yb5Ce(MnC3)4
_symmetry_space_group_name_H-M   'P 1'
_cell_length_a   8.08437507
_cell_length_b   8.05246494
_cell_length_c   4.99633200
_cell_angle_alpha   90.00000000
_cell_angle_beta   90.00000000
_cell_angle_gamma   120.27184748
_symmetry_Int_Tables_number   1
_chemical_formula_structural   Yb5Ce(MnC3)4
_chemical_formula_sum   'Yb5 Ce1 Mn4 C12'
_cell_volume   280.90600170
_cell_formula_units_Z   1
loop_
 _symmetry_equiv_pos_site_id
 _symmetry_equiv_pos_as_xyz
  1  'x, y, z'
loop_
 _atom_site_type_symbol
 _atom_site_label
 _atom_site_symmetry_multiplicity
 _atom_site_fract_x
 _atom_site_fract_y
 _atom_site_fract_z
 _atom_site_occupancy
  Yb  Yb0  1  0.613197  0.688402  0.750000  1
  Yb  Yb1  1  0.927361  0.612690  0.250000  1
  Yb  Yb2  1  0.687664  0.075872  0.250000  1
  Yb  Yb3  1  0.312497  0.921564  0.750000  1
  Yb  Yb4  1  0.073805  0.392171  0.750000  1
  Ce  Ce5  1  0.384297  0.310975  0.250000  1
  Mn  Mn6  1  0.996806  0.997545  0.497928  1
  Mn  Mn7  1  0.996806  0.997545  0.002072  1
  Mn  Mn8  1  0.667722  0.332338  0.750000  1
  Mn  Mn9  1  0.331448  0.665190  0.250000  1
  C  C10  1  0.953884  0.775092  0.750000  1
  C  C11  1  0.185641  0.958436  0.250000  1
  C  C12  1  0.772864  0.819304  0.250000  1
  C  C13  1  0.227515  0.186429  0.750000  1
  C  C14  1  0.821700  0.046441  0.750000  1
  C  C15  1  0.047007  0.224098  0.250000  1
  C  C16  1  0.859397  0.581616  0.750000  1
  C  C17  1  0.278220  0.856602  0.250000  1
  C  C18  1  0.579706  0.723537  0.250000  1
  C  C19  1  0.420904  0.272068  0.750000  1
  C  C20  1  0.136095  0.419471  0.250000  1
  C  C21  1  0.725460  0.142613  0.750000  1
