# generated using pymatgen
data_Lu3BC2N
_symmetry_space_group_name_H-M   'P 1'
_cell_length_a   3.47883020
_cell_length_b   3.47883030
_cell_length_c   15.54464600
_cell_angle_alpha   90.00000000
_cell_angle_beta   90.00000000
_cell_angle_gamma   89.88550085
_symmetry_Int_Tables_number   1
_chemical_formula_structural   Lu3BC2N
_chemical_formula_sum   'Lu6 B2 C4 N2'
_cell_volume   188.12497056
_cell_formula_units_Z   2
loop_
 _symmetry_equiv_pos_site_id
 _symmetry_equiv_pos_as_xyz
  1  'x, y, z'
loop_
 _atom_site_type_symbol
 _atom_site_label
 _atom_site_symmetry_multiplicity
 _atom_site_fract_x
 _atom_site_fract_y
 _atom_site_fract_z
 _atom_site_occupancy
  Lu  Lu0  1  0.052382  0.052382  0.250000  1
  Lu  Lu1  1  0.947616  0.947616  0.750000  1
  Lu  Lu2  1  0.548285  0.548285  0.393832  1
  Lu  Lu3  1  0.451717  0.451717  0.893832  1
  Lu  Lu4  1  0.451717  0.451717  0.606168  1
  Lu  Lu5  1  0.548285  0.548285  0.106168  1
  B  B6  1  0.000000  0.000000  0.500000  1
  B  B7  1  0.000000  0.000000  0.000000  1
  C  C8  1  0.042812  0.042812  0.405370  1
  C  C9  1  0.957189  0.957189  0.905370  1
  C  C10  1  0.957189  0.957189  0.594631  1
  C  C11  1  0.042812  0.042812  0.094631  1
  N  N12  1  0.555035  0.555035  0.250000  1
  N  N13  1  0.444966  0.444966  0.750000  1
