# generated using pymatgen
data_EuZnSi2Au
_symmetry_space_group_name_H-M   'P 1'
_cell_length_a   6.02221934
_cell_length_b   6.02221986
_cell_length_c   6.02221986
_cell_angle_alpha   138.59586605
_cell_angle_beta   138.59586781
_cell_angle_gamma   59.99161835
_symmetry_Int_Tables_number   1
_chemical_formula_structural   EuZnSi2Au
_chemical_formula_sum   'Eu1 Zn1 Si2 Au1'
_cell_volume   94.55373093
_cell_formula_units_Z   1
loop_
 _symmetry_equiv_pos_site_id
 _symmetry_equiv_pos_as_xyz
  1  'x, y, z'
loop_
 _atom_site_type_symbol
 _atom_site_label
 _atom_site_symmetry_multiplicity
 _atom_site_fract_x
 _atom_site_fract_y
 _atom_site_fract_z
 _atom_site_occupancy
  Eu  Eu0  1  0.000000  0.000000  0.000000  1
  Zn  Zn1  1  0.750000  0.250000  0.500000  1
  Si  Si2  1  0.612739  0.612739  0.000000  1
  Si  Si3  1  0.387261  0.387261  0.000000  1
  Au  Au4  1  0.250000  0.750000  0.500000  1
