# generated using pymatgen
data_Sr2TcMoO6
_symmetry_space_group_name_H-M   'P 1'
_cell_length_a   5.73850533
_cell_length_b   5.73850567
_cell_length_c   5.73916234
_cell_angle_alpha   121.20764405
_cell_angle_beta   121.20719440
_cell_angle_gamma   87.91431122
_symmetry_Int_Tables_number   1
_chemical_formula_structural   Sr2TcMoO6
_chemical_formula_sum   'Sr2 Tc1 Mo1 O6'
_cell_volume   131.11321314
_cell_formula_units_Z   1
loop_
 _symmetry_equiv_pos_site_id
 _symmetry_equiv_pos_as_xyz
  1  'x, y, z'
loop_
 _atom_site_type_symbol
 _atom_site_label
 _atom_site_symmetry_multiplicity
 _atom_site_fract_x
 _atom_site_fract_y
 _atom_site_fract_z
 _atom_site_occupancy
  Sr  Sr0  1  0.249996  0.749996  0.500000  1
  Sr  Sr1  1  0.750004  0.250004  0.500000  1
  Tc  Tc2  1  0.500000  0.500000  0.000000  1
  Mo  Mo3  1  0.000000  0.000000  0.000000  1
  O  O4  1  0.704468  0.794904  0.499372  1
  O  O5  1  0.295532  0.205096  0.500628  1
  O  O6  1  0.794835  0.295592  0.090426  1
  O  O7  1  0.205165  0.704408  0.909574  1
  O  O8  1  0.255064  0.255064  0.000000  1
  O  O9  1  0.744936  0.744936  0.000000  1
