# generated using pymatgen
data_TbYLu2(Ga3Rh)6
_symmetry_space_group_name_H-M   'P 1'
_cell_length_a   7.55155603
_cell_length_b   7.54998029
_cell_length_c   9.52015203
_cell_angle_alpha   90.00285390
_cell_angle_beta   90.00615376
_cell_angle_gamma   119.89357852
_symmetry_Int_Tables_number   1
_chemical_formula_structural   TbYLu2(Ga3Rh)6
_chemical_formula_sum   'Tb1 Y1 Lu2 Ga18 Rh6'
_cell_volume   470.56703997
_cell_formula_units_Z   1
loop_
 _symmetry_equiv_pos_site_id
 _symmetry_equiv_pos_as_xyz
  1  'x, y, z'
loop_
 _atom_site_type_symbol
 _atom_site_label
 _atom_site_symmetry_multiplicity
 _atom_site_fract_x
 _atom_site_fract_y
 _atom_site_fract_z
 _atom_site_occupancy
  Tb  Tb0  1  0.669020  0.997069  0.250025  1
  Y  Y1  1  0.996977  0.669136  0.250048  1
  Lu  Lu2  1  0.001618  0.329306  0.750067  1
  Lu  Lu3  1  0.329503  0.002125  0.749961  1
  Ga  Ga4  1  0.126677  0.126975  0.249970  1
  Ga  Ga5  1  0.873953  0.873981  0.749881  1
  Ga  Ga6  1  0.001340  0.335064  0.077705  1
  Ga  Ga7  1  0.001285  0.664738  0.917159  1
  Ga  Ga8  1  0.001085  0.664654  0.582871  1
  Ga  Ga9  1  0.335006  0.001527  0.422272  1
  Ga  Ga10  1  0.001393  0.335090  0.422294  1
  Ga  Ga11  1  0.664688  0.000747  0.582857  1
  Ga  Ga12  1  0.664583  0.000734  0.917206  1
  Ga  Ga13  1  0.334863  0.001320  0.077623  1
  Ga  Ga14  1  0.331167  0.331362  0.568896  1
  Ga  Ga15  1  0.667579  0.667397  0.437105  1
  Ga  Ga16  1  0.667627  0.667419  0.062988  1
  Ga  Ga17  1  0.331106  0.331194  0.931122  1
  Ga  Ga18  1  0.338092  0.547267  0.250018  1
  Ga  Ga19  1  0.661039  0.450871  0.750012  1
  Ga  Ga20  1  0.547292  0.338047  0.250017  1
  Ga  Ga21  1  0.450350  0.661055  0.750070  1
  Rh  Rh22  1  0.671851  0.329323  0.998827  1
  Rh  Rh23  1  0.329413  0.671830  0.999039  1
  Rh  Rh24  1  0.329060  0.672063  0.500941  1
  Rh  Rh25  1  0.672016  0.328871  0.501283  1
  Rh  Rh26  1  0.000624  0.000357  0.998199  1
  Rh  Rh27  1  0.000790  0.000480  0.501545  1
