# generated using pymatgen
data_Hf3Al3FeCoPt
_symmetry_space_group_name_H-M   'P 1'
_cell_length_a   7.05935300
_cell_length_b   7.05935236
_cell_length_c   6.78784300
_cell_angle_alpha   90.00000000
_cell_angle_beta   90.00000000
_cell_angle_gamma   120.00000770
_symmetry_Int_Tables_number   1
_chemical_formula_structural   Hf3Al3FeCoPt
_chemical_formula_sum   'Hf6 Al6 Fe2 Co2 Pt2'
_cell_volume   292.94908467
_cell_formula_units_Z   2
loop_
 _symmetry_equiv_pos_site_id
 _symmetry_equiv_pos_as_xyz
  1  'x, y, z'
loop_
 _atom_site_type_symbol
 _atom_site_label
 _atom_site_symmetry_multiplicity
 _atom_site_fract_x
 _atom_site_fract_y
 _atom_site_fract_z
 _atom_site_occupancy
  Hf  Hf0  1  0.607884  0.021610  0.750000  1
  Hf  Hf1  1  0.978390  0.586274  0.750000  1
  Hf  Hf2  1  0.413726  0.392116  0.750000  1
  Hf  Hf3  1  0.976655  0.585518  0.250000  1
  Hf  Hf4  1  0.608863  0.023345  0.250000  1
  Hf  Hf5  1  0.414482  0.391137  0.250000  1
  Al  Al6  1  0.749094  0.749679  0.999930  1
  Al  Al7  1  0.250321  0.999414  0.999930  1
  Al  Al8  1  0.000586  0.250906  0.999930  1
  Al  Al9  1  0.749094  0.749679  0.500070  1
  Al  Al10  1  0.250321  0.999414  0.500070  1
  Al  Al11  1  0.000586  0.250906  0.500070  1
  Fe  Fe12  1  0.666667  0.333333  0.998864  1
  Fe  Fe13  1  0.666667  0.333333  0.501136  1
  Co  Co14  1  0.000000  0.000000  0.750000  1
  Co  Co15  1  0.000000  0.000000  0.250000  1
  Pt  Pt16  1  0.333333  0.666667  0.498313  1
  Pt  Pt17  1  0.333333  0.666667  0.001688  1
