# generated using pymatgen
data_Y3Er2Tm3(CdNi)2
_symmetry_space_group_name_H-M   'P 1'
_cell_length_a   9.52743634
_cell_length_b   9.52743721
_cell_length_c   9.52743600
_cell_angle_alpha   60.00000420
_cell_angle_beta   60.00000118
_cell_angle_gamma   59.99999779
_symmetry_Int_Tables_number   1
_chemical_formula_structural   Y3Er2Tm3(CdNi)2
_chemical_formula_sum   'Y6 Er4 Tm6 Cd4 Ni4'
_cell_volume   611.52357377
_cell_formula_units_Z   2
loop_
 _symmetry_equiv_pos_site_id
 _symmetry_equiv_pos_as_xyz
  1  'x, y, z'
loop_
 _atom_site_type_symbol
 _atom_site_label
 _atom_site_symmetry_multiplicity
 _atom_site_fract_x
 _atom_site_fract_y
 _atom_site_fract_z
 _atom_site_occupancy
  Y  Y0  1  0.187856  0.812144  0.812144  1
  Y  Y1  1  0.812144  0.187856  0.187856  1
  Y  Y2  1  0.812144  0.187856  0.812144  1
  Y  Y3  1  0.187856  0.812144  0.187856  1
  Y  Y4  1  0.812144  0.812144  0.187856  1
  Y  Y5  1  0.187856  0.187856  0.812144  1
  Er  Er6  1  0.598233  0.598233  0.598233  1
  Er  Er7  1  0.598233  0.598233  0.205299  1
  Er  Er8  1  0.598233  0.205299  0.598233  1
  Er  Er9  1  0.205299  0.598233  0.598233  1
  Tm  Tm10  1  0.062462  0.437538  0.437538  1
  Tm  Tm11  1  0.437538  0.062462  0.062462  1
  Tm  Tm12  1  0.437538  0.062462  0.437538  1
  Tm  Tm13  1  0.062462  0.437538  0.062462  1
  Tm  Tm14  1  0.437538  0.437538  0.062462  1
  Tm  Tm15  1  0.062462  0.062462  0.437538  1
  Cd  Cd16  1  0.830649  0.830649  0.830649  1
  Cd  Cd17  1  0.830649  0.830649  0.508050  1
  Cd  Cd18  1  0.830649  0.508050  0.830649  1
  Cd  Cd19  1  0.508050  0.830649  0.830649  1
  Ni  Ni20  1  0.392216  0.392216  0.392216  1
  Ni  Ni21  1  0.392216  0.392216  0.823355  1
  Ni  Ni22  1  0.392216  0.823355  0.392216  1
  Ni  Ni23  1  0.823355  0.392216  0.392216  1
