# generated using pymatgen
data_Y9HoCd3Os
_symmetry_space_group_name_H-M   'P 1'
_cell_length_a   9.64076840
_cell_length_b   9.63886616
_cell_length_c   9.90370020
_cell_angle_alpha   89.99999992
_cell_angle_beta   89.92016473
_cell_angle_gamma   119.99347188
_symmetry_Int_Tables_number   1
_chemical_formula_structural   Y9HoCd3Os
_chemical_formula_sum   'Y18 Ho2 Cd6 Os2'
_cell_volume   797.06496399
_cell_formula_units_Z   2
loop_
 _symmetry_equiv_pos_site_id
 _symmetry_equiv_pos_as_xyz
  1  'x, y, z'
loop_
 _atom_site_type_symbol
 _atom_site_label
 _atom_site_symmetry_multiplicity
 _atom_site_fract_x
 _atom_site_fract_y
 _atom_site_fract_z
 _atom_site_occupancy
  Y  Y0  1  0.000696  0.000348  0.499611  1
  Y  Y1  1  0.999987  0.999994  0.000071  1
  Y  Y2  1  0.580731  0.790365  0.440865  1
  Y  Y3  1  0.790912  0.209659  0.559300  1
  Y  Y4  1  0.790912  0.581253  0.559300  1
  Y  Y5  1  0.418744  0.209372  0.559147  1
  Y  Y6  1  0.790606  0.209564  0.940511  1
  Y  Y7  1  0.790606  0.581042  0.940511  1
  Y  Y8  1  0.418898  0.209449  0.940580  1
  Y  Y9  1  0.209498  0.790472  0.059747  1
  Y  Y10  1  0.209498  0.419027  0.059747  1
  Y  Y11  1  0.580737  0.790368  0.059536  1
  Y  Y12  1  0.539794  0.459846  0.250231  1
  Y  Y13  1  0.539794  0.079949  0.250231  1
  Y  Y14  1  0.920603  0.460301  0.250464  1
  Y  Y15  1  0.459627  0.540000  0.749680  1
  Y  Y16  1  0.459627  0.919627  0.749680  1
  Y  Y17  1  0.080659  0.540330  0.749345  1
  Ho  Ho18  1  0.210053  0.789520  0.440087  1
  Ho  Ho19  1  0.210053  0.420534  0.440087  1
  Cd  Cd20  1  0.885493  0.114475  0.249990  1
  Cd  Cd21  1  0.885493  0.771021  0.249990  1
  Cd  Cd22  1  0.228978  0.114490  0.249896  1
  Cd  Cd23  1  0.114525  0.885417  0.749985  1
  Cd  Cd24  1  0.114525  0.229106  0.749985  1
  Cd  Cd25  1  0.770891  0.885445  0.749947  1
  Os  Os26  1  0.331596  0.665799  0.251612  1
  Os  Os27  1  0.666461  0.333230  0.749863  1
