# generated using pymatgen
data_HoTh3(Sn5Rh3)2
_symmetry_space_group_name_H-M   'P 1'
_cell_length_a   13.57030888
_cell_length_b   13.57030911
_cell_length_c   7.33290324
_cell_angle_alpha   90.10604259
_cell_angle_beta   89.89395637
_cell_angle_gamma   160.85889428
_symmetry_Int_Tables_number   1
_chemical_formula_structural   HoTh3(Sn5Rh3)2
_chemical_formula_sum   'Ho1 Th3 Sn10 Rh6'
_cell_volume   442.78250188
_cell_formula_units_Z   1
loop_
 _symmetry_equiv_pos_site_id
 _symmetry_equiv_pos_as_xyz
  1  'x, y, z'
loop_
 _atom_site_type_symbol
 _atom_site_label
 _atom_site_symmetry_multiplicity
 _atom_site_fract_x
 _atom_site_fract_y
 _atom_site_fract_z
 _atom_site_occupancy
  Ho  Ho0  1  0.525574  0.474426  0.263560  1
  Th  Th1  1  0.171578  0.828422  0.742401  1
  Th  Th2  1  0.828059  0.171941  0.242389  1
  Th  Th3  1  0.475133  0.524867  0.765141  1
  Sn  Sn4  1  0.878177  0.121823  0.768284  1
  Sn  Sn5  1  0.120070  0.879930  0.265778  1
  Sn  Sn6  1  0.704762  0.295238  0.447754  1
  Sn  Sn7  1  0.294883  0.705117  0.948453  1
  Sn  Sn8  1  0.596015  0.403985  0.891753  1
  Sn  Sn9  1  0.404476  0.595524  0.387066  1
  Sn  Sn10  1  0.953523  0.046477  0.108069  1
  Sn  Sn11  1  0.048581  0.951419  0.597362  1
  Sn  Sn12  1  0.290271  0.709729  0.523935  1
  Sn  Sn13  1  0.709271  0.290729  0.024734  1
  Rh  Rh14  1  0.050310  0.949690  0.982514  1
  Rh  Rh15  1  0.949027  0.050973  0.486958  1
  Rh  Rh16  1  0.776217  0.223783  0.732615  1
  Rh  Rh17  1  0.223042  0.776958  0.232713  1
  Rh  Rh18  1  0.395453  0.604547  0.014281  1
  Rh  Rh19  1  0.605577  0.394423  0.518243  1
