# generated using pymatgen
data_Y16MgCd3Ni3Ru
_symmetry_space_group_name_H-M   'P 1'
_cell_length_a   9.65645029
_cell_length_b   9.60397184
_cell_length_c   9.59588600
_cell_angle_alpha   60.02784681
_cell_angle_beta   60.20725680
_cell_angle_gamma   60.31769461
_symmetry_Int_Tables_number   1
_chemical_formula_structural   Y16MgCd3Ni3Ru
_chemical_formula_sum   'Y16 Mg1 Cd3 Ni3 Ru1'
_cell_volume   631.88978649
_cell_formula_units_Z   1
loop_
 _symmetry_equiv_pos_site_id
 _symmetry_equiv_pos_as_xyz
  1  'x, y, z'
loop_
 _atom_site_type_symbol
 _atom_site_label
 _atom_site_symmetry_multiplicity
 _atom_site_fract_x
 _atom_site_fract_y
 _atom_site_fract_z
 _atom_site_occupancy
  Y  Y0  1  0.437581  0.435203  0.063608  1
  Y  Y1  1  0.066526  0.059391  0.437042  1
  Y  Y2  1  0.436230  0.063074  0.065029  1
  Y  Y3  1  0.844654  0.848439  0.847273  1
  Y  Y4  1  0.690834  0.309152  0.310117  1
  Y  Y5  1  0.065477  0.436605  0.438116  1
  Y  Y6  1  0.313166  0.686953  0.688789  1
  Y  Y7  1  0.311322  0.310800  0.688939  1
  Y  Y8  1  0.844654  0.848439  0.459635  1
  Y  Y9  1  0.690301  0.687534  0.311082  1
  Y  Y10  1  0.453460  0.851643  0.847449  1
  Y  Y11  1  0.065477  0.436605  0.059802  1
  Y  Y12  1  0.848383  0.452293  0.849663  1
  Y  Y13  1  0.436230  0.063074  0.435668  1
  Y  Y14  1  0.313166  0.686953  0.311094  1
  Y  Y15  1  0.690834  0.309152  0.689896  1
  Mg  Mg16  1  0.075985  0.772262  0.075877  1
  Cd  Cd17  1  0.082041  0.080723  0.756224  1
  Cd  Cd18  1  0.756522  0.080604  0.081437  1
  Cd  Cd19  1  0.082041  0.080723  0.081013  1
  Ni  Ni20  1  0.640101  0.074948  0.642475  1
  Ni  Ni21  1  0.640458  0.642361  0.644235  1
  Ni  Ni22  1  0.640458  0.642361  0.072946  1
  Ru  Ru23  1  0.074100  0.640713  0.642593  1
