# generated using pymatgen
data_TbHf3(SbRh5)2
_symmetry_space_group_name_H-M   'P 1'
_cell_length_a   4.16897300
_cell_length_b   5.69827294
_cell_length_c   11.15501083
_cell_angle_alpha   89.93433922
_cell_angle_beta   90.00000000
_cell_angle_gamma   90.00000000
_symmetry_Int_Tables_number   1
_chemical_formula_structural   TbHf3(SbRh5)2
_chemical_formula_sum   'Tb1 Hf3 Sb2 Rh10'
_cell_volume   264.99766109
_cell_formula_units_Z   1
loop_
 _symmetry_equiv_pos_site_id
 _symmetry_equiv_pos_as_xyz
  1  'x, y, z'
loop_
 _atom_site_type_symbol
 _atom_site_label
 _atom_site_symmetry_multiplicity
 _atom_site_fract_x
 _atom_site_fract_y
 _atom_site_fract_z
 _atom_site_occupancy
  Tb  Tb0  1  0.500000  0.177794  0.642066  1
  Hf  Hf1  1  0.500000  0.827453  0.354883  1
  Hf  Hf2  1  0.500000  0.673528  0.855774  1
  Hf  Hf3  1  0.500000  0.328083  0.142716  1
  Sb  Sb4  1  0.000000  0.501166  0.497703  1
  Sb  Sb5  1  0.000000  0.998304  0.001457  1
  Rh  Rh6  1  0.500000  0.200504  0.897319  1
  Rh  Rh7  1  0.500000  0.800894  0.111386  1
  Rh  Rh8  1  0.500000  0.692587  0.610899  1
  Rh  Rh9  1  0.500000  0.304185  0.382021  1
  Rh  Rh10  1  0.000000  0.440551  0.752394  1
  Rh  Rh11  1  0.000000  0.568880  0.253647  1
  Rh  Rh12  1  0.000000  0.988546  0.492071  1
  Rh  Rh13  1  0.000000  0.501311  0.002300  1
  Rh  Rh14  1  0.000000  0.068469  0.243032  1
  Rh  Rh15  1  0.000000  0.927746  0.760333  1
