# generated using pymatgen
data_Dy3Hg3Pt2
_symmetry_space_group_name_H-M   'P 1'
_cell_length_a   7.65377100
_cell_length_b   7.65377201
_cell_length_c   3.69117600
_cell_angle_alpha   90.00000000
_cell_angle_beta   90.00000000
_cell_angle_gamma   119.99999995
_symmetry_Int_Tables_number   1
_chemical_formula_structural   Dy3Hg3Pt2
_chemical_formula_sum   'Dy3 Hg3 Pt2'
_cell_volume   187.26058285
_cell_formula_units_Z   1
loop_
 _symmetry_equiv_pos_site_id
 _symmetry_equiv_pos_as_xyz
  1  'x, y, z'
loop_
 _atom_site_type_symbol
 _atom_site_label
 _atom_site_symmetry_multiplicity
 _atom_site_fract_x
 _atom_site_fract_y
 _atom_site_fract_z
 _atom_site_occupancy
  Dy  Dy0  1  0.575918  0.000000  0.500000  1
  Dy  Dy1  1  0.424082  0.424081  0.500000  1
  Dy  Dy2  1  0.000000  0.575919  0.500000  1
  Hg  Hg3  1  0.229312  0.000000  0.000000  1
  Hg  Hg4  1  0.000000  0.229312  0.000000  1
  Hg  Hg5  1  0.770688  0.770687  0.000000  1
  Pt  Pt6  1  0.666666  0.333333  0.000000  1
  Pt  Pt7  1  0.333333  0.666667  0.000000  1
