# generated using pymatgen
data_Ho5Er2LuPt4
_symmetry_space_group_name_H-M   'P 1'
_cell_length_a   4.74985100
_cell_length_b   7.10955045
_cell_length_c   8.70022320
_cell_angle_alpha   89.95117182
_cell_angle_beta   90.00000000
_cell_angle_gamma   90.00000000
_symmetry_Int_Tables_number   1
_chemical_formula_structural   Ho5Er2LuPt4
_chemical_formula_sum   'Ho5 Er2 Lu1 Pt4'
_cell_volume   293.80038684
_cell_formula_units_Z   1
loop_
 _symmetry_equiv_pos_site_id
 _symmetry_equiv_pos_as_xyz
  1  'x, y, z'
loop_
 _atom_site_type_symbol
 _atom_site_label
 _atom_site_symmetry_multiplicity
 _atom_site_fract_x
 _atom_site_fract_y
 _atom_site_fract_z
 _atom_site_occupancy
  Ho  Ho0  1  0.750000  0.644596  0.420336  1
  Ho  Ho1  1  0.250000  0.990646  0.330407  1
  Ho  Ho2  1  0.250000  0.488506  0.168330  1
  Ho  Ho3  1  0.750000  0.011296  0.670221  1
  Ho  Ho4  1  0.750000  0.509747  0.830897  1
  Er  Er5  1  0.250000  0.856442  0.921390  1
  Er  Er6  1  0.250000  0.355351  0.579605  1
  Lu  Lu7  1  0.750000  0.143672  0.078895  1
  Pt  Pt8  1  0.250000  0.256064  0.907997  1
  Pt  Pt9  1  0.250000  0.757629  0.594028  1
  Pt  Pt10  1  0.750000  0.744289  0.091806  1
  Pt  Pt11  1  0.750000  0.241761  0.406089  1
