# generated using pymatgen
data_TbDy(SnPt2)2
_symmetry_space_group_name_H-M   'P 1'
_cell_length_a   4.56464200
_cell_length_b   4.56464206
_cell_length_c   9.15173500
_cell_angle_alpha   90.00000000
_cell_angle_beta   90.00000000
_cell_angle_gamma   119.99999957
_symmetry_Int_Tables_number   1
_chemical_formula_structural   TbDy(SnPt2)2
_chemical_formula_sum   'Tb1 Dy1 Sn2 Pt4'
_cell_volume   165.13818964
_cell_formula_units_Z   1
loop_
 _symmetry_equiv_pos_site_id
 _symmetry_equiv_pos_as_xyz
  1  'x, y, z'
loop_
 _atom_site_type_symbol
 _atom_site_label
 _atom_site_symmetry_multiplicity
 _atom_site_fract_x
 _atom_site_fract_y
 _atom_site_fract_z
 _atom_site_occupancy
  Tb  Tb0  1  0.666667  0.333333  0.750000  1
  Dy  Dy1  1  0.333333  0.666667  0.250000  1
  Sn  Sn2  1  0.000000  0.000000  0.499639  1
  Sn  Sn3  1  0.000000  0.000000  0.000361  1
  Pt  Pt4  1  0.333333  0.666667  0.910320  1
  Pt  Pt5  1  0.666667  0.333333  0.090801  1
  Pt  Pt6  1  0.666667  0.333333  0.409199  1
  Pt  Pt7  1  0.333333  0.666667  0.589680  1
