# generated using pymatgen
data_Tm2CuPRh5
_symmetry_space_group_name_H-M   'P 1'
_cell_length_a   5.96914011
_cell_length_b   5.88440331
_cell_length_c   5.88440410
_cell_angle_alpha   60.95502185
_cell_angle_beta   59.52248301
_cell_angle_gamma   59.52249636
_symmetry_Int_Tables_number   1
_chemical_formula_structural   Tm2CuPRh5
_chemical_formula_sum   'Tm2 Cu1 P1 Rh5'
_cell_volume   146.08946633
_cell_formula_units_Z   1
loop_
 _symmetry_equiv_pos_site_id
 _symmetry_equiv_pos_as_xyz
  1  'x, y, z'
loop_
 _atom_site_type_symbol
 _atom_site_label
 _atom_site_symmetry_multiplicity
 _atom_site_fract_x
 _atom_site_fract_y
 _atom_site_fract_z
 _atom_site_occupancy
  Tm  Tm0  1  0.249750  0.250250  0.250250  1
  Tm  Tm1  1  0.749750  0.750250  0.750250  1
  Cu  Cu2  1  0.778824  0.221175  0.221175  1
  P  P3  1  0.502034  0.497966  0.497966  1
  Rh  Rh4  1  0.233417  0.766582  0.238571  1
  Rh  Rh5  1  0.761428  0.766582  0.238571  1
  Rh  Rh6  1  0.233417  0.238571  0.766582  1
  Rh  Rh7  1  0.761428  0.238571  0.766582  1
  Rh  Rh8  1  0.229949  0.770050  0.770050  1
