# generated using pymatgen
data_Sm3Dy3TcBi2
_symmetry_space_group_name_H-M   'P 1'
_cell_length_a   8.40178600
_cell_length_b   8.40178590
_cell_length_c   4.33693100
_cell_angle_alpha   90.00000000
_cell_angle_beta   90.00000000
_cell_angle_gamma   120.00000039
_symmetry_Int_Tables_number   1
_chemical_formula_structural   Sm3Dy3TcBi2
_chemical_formula_sum   'Sm3 Dy3 Tc1 Bi2'
_cell_volume   265.12847185
_cell_formula_units_Z   1
loop_
 _symmetry_equiv_pos_site_id
 _symmetry_equiv_pos_as_xyz
  1  'x, y, z'
loop_
 _atom_site_type_symbol
 _atom_site_label
 _atom_site_symmetry_multiplicity
 _atom_site_fract_x
 _atom_site_fract_y
 _atom_site_fract_z
 _atom_site_occupancy
  Sm  Sm0  1  0.606127  0.000000  0.000000  1
  Sm  Sm1  1  0.000000  0.606127  0.000000  1
  Sm  Sm2  1  0.393873  0.393873  0.000000  1
  Dy  Dy3  1  0.229804  0.000000  0.500000  1
  Dy  Dy4  1  0.000000  0.229804  0.500000  1
  Dy  Dy5  1  0.770196  0.770196  0.500000  1
  Tc  Tc6  1  0.000000  0.000000  0.000000  1
  Bi  Bi7  1  0.333333  0.666667  0.500000  1
  Bi  Bi8  1  0.666667  0.333333  0.500000  1
