# generated using pymatgen
data_TbTa4TcRu4
_symmetry_space_group_name_H-M   'P 1'
_cell_length_a   3.19041100
_cell_length_b   3.19041100
_cell_length_c   16.66563500
_cell_angle_alpha   90.00000000
_cell_angle_beta   90.00000000
_cell_angle_gamma   90.00000000
_symmetry_Int_Tables_number   1
_chemical_formula_structural   TbTa4TcRu4
_chemical_formula_sum   'Tb1 Ta4 Tc1 Ru4'
_cell_volume   169.63487143
_cell_formula_units_Z   1
loop_
 _symmetry_equiv_pos_site_id
 _symmetry_equiv_pos_as_xyz
  1  'x, y, z'
loop_
 _atom_site_type_symbol
 _atom_site_label
 _atom_site_symmetry_multiplicity
 _atom_site_fract_x
 _atom_site_fract_y
 _atom_site_fract_z
 _atom_site_occupancy
  Tb  Tb0  1  0.000000  0.000000  0.500000  1
  Ta  Ta1  1  0.000000  0.000000  0.905691  1
  Ta  Ta2  1  0.000000  0.000000  0.094309  1
  Ta  Ta3  1  0.000000  0.000000  0.290786  1
  Ta  Ta4  1  0.000000  0.000000  0.709214  1
  Tc  Tc5  1  0.500000  0.500000  0.000000  1
  Ru  Ru6  1  0.500000  0.500000  0.189789  1
  Ru  Ru7  1  0.500000  0.500000  0.374362  1
  Ru  Ru8  1  0.500000  0.500000  0.625638  1
  Ru  Ru9  1  0.500000  0.500000  0.810211  1
