# generated using pymatgen
data_LiEuMgCoH8
_symmetry_space_group_name_H-M   'P 1'
_cell_length_a   4.37789300
_cell_length_b   4.37789314
_cell_length_c   6.30757300
_cell_angle_alpha   90.00000000
_cell_angle_beta   90.00000000
_cell_angle_gamma   119.99999141
_symmetry_Int_Tables_number   1
_chemical_formula_structural   LiEuMgCoH8
_chemical_formula_sum   'Li1 Eu1 Mg1 Co1 H8'
_cell_volume   104.69435217
_cell_formula_units_Z   1
loop_
 _symmetry_equiv_pos_site_id
 _symmetry_equiv_pos_as_xyz
  1  'x, y, z'
loop_
 _atom_site_type_symbol
 _atom_site_label
 _atom_site_symmetry_multiplicity
 _atom_site_fract_x
 _atom_site_fract_y
 _atom_site_fract_z
 _atom_site_occupancy
  Li  Li0  1  0.333334  0.666668  0.134165  1
  Eu  Eu1  1  0.000000  0.000000  0.494142  1
  Mg  Mg2  1  0.666666  0.333332  0.880772  1
  Co  Co3  1  0.000000  0.000000  0.994735  1
  H  H4  1  0.318626  0.159313  0.144632  1
  H  H5  1  0.840686  0.159313  0.144632  1
  H  H6  1  0.840686  0.681373  0.144632  1
  H  H7  1  0.333334  0.666668  0.433950  1
  H  H8  1  0.666666  0.333332  0.575897  1
  H  H9  1  0.163654  0.327309  0.850815  1
  H  H10  1  0.163654  0.836346  0.850815  1
  H  H11  1  0.672691  0.836346  0.850815  1
