# generated using pymatgen
data_Tb10In3Pb3S2
_symmetry_space_group_name_H-M   'P 1'
_cell_length_a   9.17875400
_cell_length_b   9.20766153
_cell_length_c   6.73104100
_cell_angle_alpha   90.00000000
_cell_angle_beta   90.00000000
_cell_angle_gamma   119.86064064
_symmetry_Int_Tables_number   1
_chemical_formula_structural   Tb10In3Pb3S2
_chemical_formula_sum   'Tb10 In3 Pb3 S2'
_cell_volume   493.34883065
_cell_formula_units_Z   1
loop_
 _symmetry_equiv_pos_site_id
 _symmetry_equiv_pos_as_xyz
  1  'x, y, z'
loop_
 _atom_site_type_symbol
 _atom_site_label
 _atom_site_symmetry_multiplicity
 _atom_site_fract_x
 _atom_site_fract_y
 _atom_site_fract_z
 _atom_site_occupancy
  Tb  Tb0  1  0.760011  0.760019  0.250000  1
  Tb  Tb1  1  0.998932  0.757719  0.750000  1
  Tb  Tb2  1  0.759777  0.001786  0.750000  1
  Tb  Tb3  1  0.332579  0.663485  0.502317  1
  Tb  Tb4  1  0.241449  0.244101  0.750000  1
  Tb  Tb5  1  0.002607  0.243511  0.250000  1
  Tb  Tb6  1  0.665910  0.333214  0.502161  1
  Tb  Tb7  1  0.242305  0.002345  0.250000  1
  Tb  Tb8  1  0.332579  0.663485  0.997683  1
  Tb  Tb9  1  0.665910  0.333214  0.997839  1
  In  In10  1  0.998851  0.400248  0.750000  1
  In  In11  1  0.400983  0.400325  0.250000  1
  In  In12  1  0.597892  0.598099  0.750000  1
  Pb  Pb13  1  0.396691  0.999158  0.750000  1
  Pb  Pb14  1  0.000404  0.599632  0.250000  1
  Pb  Pb15  1  0.602984  0.999955  0.250000  1
  S  S16  1  0.000068  0.999851  0.499204  1
  S  S17  1  0.000068  0.999851  0.000796  1
