# generated using pymatgen
data_Li2Ni3Mo3P7Ir6
_symmetry_space_group_name_H-M   'P 1'
_cell_length_a   9.38399100
_cell_length_b   9.38399123
_cell_length_c   3.81074200
_cell_angle_alpha   90.00000000
_cell_angle_beta   90.00000000
_cell_angle_gamma   120.00000975
_symmetry_Int_Tables_number   1
_chemical_formula_structural   Li2Ni3Mo3P7Ir6
_chemical_formula_sum   'Li2 Ni3 Mo3 P7 Ir6'
_cell_volume   290.61318331
_cell_formula_units_Z   1
loop_
 _symmetry_equiv_pos_site_id
 _symmetry_equiv_pos_as_xyz
  1  'x, y, z'
loop_
 _atom_site_type_symbol
 _atom_site_label
 _atom_site_symmetry_multiplicity
 _atom_site_fract_x
 _atom_site_fract_y
 _atom_site_fract_z
 _atom_site_occupancy
  Li  Li0  1  0.000000  0.000000  0.000000  1
  Li  Li1  1  0.333333  0.666667  0.500000  1
  Ni  Ni2  1  0.829882  0.608241  0.000000  1
  Ni  Ni3  1  0.778361  0.170118  0.000000  1
  Ni  Ni4  1  0.391759  0.221639  0.000000  1
  Mo  Mo5  1  0.875131  0.418203  0.500000  1
  Mo  Mo6  1  0.543072  0.124869  0.500000  1
  Mo  Mo7  1  0.581797  0.456928  0.500000  1
  P  P8  1  0.666667  0.333333  0.000000  1
  P  P9  1  0.083068  0.631599  0.000000  1
  P  P10  1  0.548531  0.916932  0.000000  1
  P  P11  1  0.368401  0.451469  0.000000  1
  P  P12  1  0.790457  0.743051  0.500000  1
  P  P13  1  0.952594  0.209543  0.500000  1
  P  P14  1  0.256949  0.047406  0.500000  1
  Ir  Ir15  1  0.098259  0.399313  0.000000  1
  Ir  Ir16  1  0.301054  0.901741  0.000000  1
  Ir  Ir17  1  0.600687  0.698946  0.000000  1
  Ir  Ir18  1  0.051105  0.770923  0.500000  1
  Ir  Ir19  1  0.719820  0.948895  0.500000  1
  Ir  Ir20  1  0.229077  0.280180  0.500000  1
