# generated using pymatgen
data_Sc24CuSi3Se8
_symmetry_space_group_name_H-M   'P 1'
_cell_length_a   3.80697600
_cell_length_b   10.30756495
_cell_length_c   19.12214473
_cell_angle_alpha   89.86479403
_cell_angle_beta   90.00000000
_cell_angle_gamma   90.00000000
_symmetry_Int_Tables_number   1
_chemical_formula_structural   Sc24CuSi3Se8
_chemical_formula_sum   'Sc24 Cu1 Si3 Se8'
_cell_volume   750.36334509
_cell_formula_units_Z   1
loop_
 _symmetry_equiv_pos_site_id
 _symmetry_equiv_pos_as_xyz
  1  'x, y, z'
loop_
 _atom_site_type_symbol
 _atom_site_label
 _atom_site_symmetry_multiplicity
 _atom_site_fract_x
 _atom_site_fract_y
 _atom_site_fract_z
 _atom_site_occupancy
  Sc  Sc0  1  0.250000  0.386315  0.992861  1
  Sc  Sc1  1  0.750000  0.613435  0.007861  1
  Sc  Sc2  1  0.750000  0.885273  0.507987  1
  Sc  Sc3  1  0.250000  0.112055  0.490244  1
  Sc  Sc4  1  0.250000  0.924324  0.645572  1
  Sc  Sc5  1  0.750000  0.075100  0.353763  1
  Sc  Sc6  1  0.750000  0.424802  0.856225  1
  Sc  Sc7  1  0.250000  0.575889  0.144491  1
  Sc  Sc8  1  0.250000  0.876534  0.027905  1
  Sc  Sc9  1  0.750000  0.123647  0.972503  1
  Sc  Sc10  1  0.750000  0.374789  0.470319  1
  Sc  Sc11  1  0.250000  0.619462  0.526857  1
  Sc  Sc12  1  0.250000  0.829667  0.389645  1
  Sc  Sc13  1  0.750000  0.178058  0.609636  1
  Sc  Sc14  1  0.750000  0.329951  0.109997  1
  Sc  Sc15  1  0.250000  0.671059  0.890310  1
  Sc  Sc16  1  0.250000  0.528996  0.339339  1
  Sc  Sc17  1  0.750000  0.469801  0.660820  1
  Sc  Sc18  1  0.750000  0.028637  0.158977  1
  Sc  Sc19  1  0.250000  0.971627  0.841213  1
  Sc  Sc20  1  0.250000  0.250907  0.231328  1
  Sc  Sc21  1  0.750000  0.749594  0.768624  1
  Sc  Sc22  1  0.750000  0.751719  0.268060  1
  Sc  Sc23  1  0.250000  0.248041  0.735054  1
  Cu  Cu24  1  0.250000  0.356948  0.577962  1
  Si  Si25  1  0.250000  0.141422  0.077372  1
  Si  Si26  1  0.750000  0.858760  0.922667  1
  Si  Si27  1  0.750000  0.641890  0.421173  1
  Se  Se28  1  0.250000  0.226535  0.877353  1
  Se  Se29  1  0.750000  0.773639  0.123757  1
  Se  Se30  1  0.750000  0.728053  0.625349  1
  Se  Se31  1  0.250000  0.273525  0.374808  1
  Se  Se32  1  0.250000  0.534028  0.764169  1
  Se  Se33  1  0.750000  0.465603  0.236224  1
  Se  Se34  1  0.750000  0.034516  0.736971  1
  Se  Se35  1  0.250000  0.965401  0.262604  1
