# generated using pymatgen
data_TbY2Al3Si2Ir
_symmetry_space_group_name_H-M   'P 1'
_cell_length_a   6.93166600
_cell_length_b   6.93535746
_cell_length_c   4.22691700
_cell_angle_alpha   90.00000000
_cell_angle_beta   90.00000000
_cell_angle_gamma   119.98239432
_symmetry_Int_Tables_number   1
_chemical_formula_structural   TbY2Al3Si2Ir
_chemical_formula_sum   'Tb1 Y2 Al3 Si2 Ir1'
_cell_volume   176.01020535
_cell_formula_units_Z   1
loop_
 _symmetry_equiv_pos_site_id
 _symmetry_equiv_pos_as_xyz
  1  'x, y, z'
loop_
 _atom_site_type_symbol
 _atom_site_label
 _atom_site_symmetry_multiplicity
 _atom_site_fract_x
 _atom_site_fract_y
 _atom_site_fract_z
 _atom_site_occupancy
  Tb  Tb0  1  0.417113  0.000000  0.000000  1
  Y  Y1  1  0.000063  0.417185  0.000000  1
  Y  Y2  1  0.582878  0.582815  0.000000  1
  Al  Al3  1  0.767867  0.000000  0.500001  1
  Al  Al4  1  0.232177  0.232188  0.500001  1
  Al  Al5  1  0.999989  0.767813  0.500001  1
  Si  Si6  1  0.666735  0.333458  0.500001  1
  Si  Si7  1  0.333277  0.666541  0.500001  1
  Ir  Ir8  1  0.999902  0.000000  0.000000  1
