# generated using pymatgen
data_LaMgP7Ru12
_symmetry_space_group_name_H-M   'P 1'
_cell_length_a   9.47176100
_cell_length_b   9.47176042
_cell_length_c   3.93171000
_cell_angle_alpha   90.00000000
_cell_angle_beta   90.00000000
_cell_angle_gamma   119.99999571
_symmetry_Int_Tables_number   1
_chemical_formula_structural   LaMgP7Ru12
_chemical_formula_sum   'La1 Mg1 P7 Ru12'
_cell_volume   305.47351564
_cell_formula_units_Z   1
loop_
 _symmetry_equiv_pos_site_id
 _symmetry_equiv_pos_as_xyz
  1  'x, y, z'
loop_
 _atom_site_type_symbol
 _atom_site_label
 _atom_site_symmetry_multiplicity
 _atom_site_fract_x
 _atom_site_fract_y
 _atom_site_fract_z
 _atom_site_occupancy
  La  La0  1  0.333333  0.666667  0.000000  1
  Mg  Mg1  1  0.666667  0.333333  0.500000  1
  P  P2  1  0.606811  0.714599  0.500000  1
  P  P3  1  0.000000  0.000000  0.000000  1
  P  P4  1  0.285401  0.892213  0.500000  1
  P  P5  1  0.107787  0.393189  0.500000  1
  P  P6  1  0.895581  0.584595  0.000000  1
  P  P7  1  0.415405  0.310984  0.000000  1
  P  P8  1  0.689016  0.104419  0.000000  1
  Ru  Ru9  1  0.559694  0.955389  0.500000  1
  Ru  Ru10  1  0.395695  0.440306  0.500000  1
  Ru  Ru11  1  0.911699  0.117187  0.500000  1
  Ru  Ru12  1  0.205487  0.088301  0.500000  1
  Ru  Ru13  1  0.882813  0.794513  0.500000  1
  Ru  Ru14  1  0.725915  0.881538  0.000000  1
  Ru  Ru15  1  0.118462  0.844376  0.000000  1
  Ru  Ru16  1  0.155624  0.274085  0.000000  1
  Ru  Ru17  1  0.434132  0.081133  0.000000  1
  Ru  Ru18  1  0.918867  0.353001  0.000000  1
  Ru  Ru19  1  0.646999  0.565868  0.000000  1
  Ru  Ru20  1  0.044611  0.604305  0.500000  1
