# generated using pymatgen
data_Pa2Al9ReIr2
_symmetry_space_group_name_H-M   'P 1'
_cell_length_a   7.61248926
_cell_length_b   7.61249038
_cell_length_c   9.30923900
_cell_angle_alpha   90.00000000
_cell_angle_beta   90.00000000
_cell_angle_gamma   118.27557005
_symmetry_Int_Tables_number   1
_chemical_formula_structural   Pa2Al9ReIr2
_chemical_formula_sum   'Pa4 Al18 Re2 Ir4'
_cell_volume   475.10048730
_cell_formula_units_Z   2
loop_
 _symmetry_equiv_pos_site_id
 _symmetry_equiv_pos_as_xyz
  1  'x, y, z'
loop_
 _atom_site_type_symbol
 _atom_site_label
 _atom_site_symmetry_multiplicity
 _atom_site_fract_x
 _atom_site_fract_y
 _atom_site_fract_z
 _atom_site_occupancy
  Pa  Pa0  1  0.995888  0.697171  0.250000  1
  Pa  Pa1  1  0.004112  0.302829  0.750000  1
  Pa  Pa2  1  0.697171  0.995888  0.250000  1
  Pa  Pa3  1  0.302829  0.004112  0.750000  1
  Al  Al4  1  0.147631  0.147631  0.250000  1
  Al  Al5  1  0.852369  0.852369  0.750000  1
  Al  Al6  1  0.006157  0.346161  0.080669  1
  Al  Al7  1  0.993843  0.653839  0.919331  1
  Al  Al8  1  0.993843  0.653839  0.580669  1
  Al  Al9  1  0.346161  0.006157  0.419331  1
  Al  Al10  1  0.006157  0.346161  0.419331  1
  Al  Al11  1  0.653839  0.993843  0.580669  1
  Al  Al12  1  0.653839  0.993843  0.919331  1
  Al  Al13  1  0.346161  0.006157  0.080669  1
  Al  Al14  1  0.336220  0.336220  0.544288  1
  Al  Al15  1  0.663780  0.663780  0.455712  1
  Al  Al16  1  0.663780  0.663780  0.044288  1
  Al  Al17  1  0.336220  0.336220  0.955712  1
  Al  Al18  1  0.348050  0.560431  0.250000  1
  Al  Al19  1  0.651950  0.439569  0.750000  1
  Al  Al20  1  0.560431  0.348050  0.250000  1
  Al  Al21  1  0.439569  0.651950  0.750000  1
  Re  Re22  1  0.000000  0.000000  0.000000  1
  Re  Re23  1  0.000000  0.000000  0.500000  1
  Ir  Ir24  1  0.673661  0.326339  0.000000  1
  Ir  Ir25  1  0.326339  0.673661  0.000000  1
  Ir  Ir26  1  0.326339  0.673661  0.500000  1
  Ir  Ir27  1  0.673661  0.326339  0.500000  1
