# generated using pymatgen
data_Tc3S4I
_symmetry_space_group_name_H-M   'P 1'
_cell_length_a   12.00199600
_cell_length_b   6.43829289
_cell_length_c   11.43376221
_cell_angle_alpha   66.77145181
_cell_angle_beta   90.00000000
_cell_angle_gamma   90.00000000
_symmetry_Int_Tables_number   1
_chemical_formula_structural   Tc3S4I
_chemical_formula_sum   'Tc12 S16 I4'
_cell_volume   811.89528224
_cell_formula_units_Z   4
loop_
 _symmetry_equiv_pos_site_id
 _symmetry_equiv_pos_as_xyz
  1  'x, y, z'
loop_
 _atom_site_type_symbol
 _atom_site_label
 _atom_site_symmetry_multiplicity
 _atom_site_fract_x
 _atom_site_fract_y
 _atom_site_fract_z
 _atom_site_occupancy
  Tc  Tc0  1  0.555488  0.036193  0.342184  1
  Tc  Tc1  1  0.944512  0.036193  0.842184  1
  Tc  Tc2  1  0.444512  0.963807  0.657816  1
  Tc  Tc3  1  0.055488  0.963807  0.157816  1
  Tc  Tc4  1  0.357504  0.960331  0.450499  1
  Tc  Tc5  1  0.142496  0.960331  0.950499  1
  Tc  Tc6  1  0.642496  0.039669  0.549501  1
  Tc  Tc7  1  0.857504  0.039669  0.049501  1
  Tc  Tc8  1  0.524481  0.693835  0.558291  1
  Tc  Tc9  1  0.975519  0.693835  0.058291  1
  Tc  Tc10  1  0.475519  0.306165  0.441709  1
  Tc  Tc11  1  0.024481  0.306165  0.941709  1
  S  S12  1  0.438260  0.724008  0.353762  1
  S  S13  1  0.061740  0.724008  0.853762  1
  S  S14  1  0.561740  0.275992  0.646238  1
  S  S15  1  0.938260  0.275992  0.146238  1
  S  S16  1  0.343470  0.649913  0.653178  1
  S  S17  1  0.156530  0.649913  0.153178  1
  S  S18  1  0.656530  0.350087  0.346822  1
  S  S19  1  0.843470  0.350087  0.846822  1
  S  S20  1  0.397559  0.277375  0.256399  1
  S  S21  1  0.102441  0.277375  0.756399  1
  S  S22  1  0.602441  0.722625  0.743601  1
  S  S23  1  0.897559  0.722625  0.243601  1
  S  S24  1  0.702074  0.787724  0.455529  1
  S  S25  1  0.797926  0.787724  0.955529  1
  S  S26  1  0.297926  0.212276  0.544471  1
  S  S27  1  0.202074  0.212276  0.044471  1
  I  I28  1  0.132470  0.886275  0.404150  1
  I  I29  1  0.367530  0.886275  0.904150  1
  I  I30  1  0.867530  0.113725  0.595850  1
  I  I31  1  0.632470  0.113725  0.095850  1
