# generated using pymatgen
data_Gd2GeCl2
_symmetry_space_group_name_H-M   'P 1'
_cell_length_a   4.15247700
_cell_length_b   4.15247726
_cell_length_c   9.74955700
_cell_angle_alpha   90.00000000
_cell_angle_beta   90.00000000
_cell_angle_gamma   120.00002186
_symmetry_Int_Tables_number   1
_chemical_formula_structural   Gd2GeCl2
_chemical_formula_sum   'Gd2 Ge1 Cl2'
_cell_volume   145.58945381
_cell_formula_units_Z   1
loop_
 _symmetry_equiv_pos_site_id
 _symmetry_equiv_pos_as_xyz
  1  'x, y, z'
loop_
 _atom_site_type_symbol
 _atom_site_label
 _atom_site_symmetry_multiplicity
 _atom_site_fract_x
 _atom_site_fract_y
 _atom_site_fract_z
 _atom_site_occupancy
  Gd  Gd0  1  0.333333  0.666667  0.169062  1
  Gd  Gd1  1  0.666667  0.333333  0.830938  1
  Ge  Ge2  1  0.000000  0.000000  0.000000  1
  Cl  Cl3  1  0.333333  0.666667  0.670867  1
  Cl  Cl4  1  0.666667  0.333333  0.329133  1
