# generated using pymatgen
data_ErTm3Mg2(B2Rh5)2
_symmetry_space_group_name_H-M   'P 1'
_cell_length_a   9.59550906
_cell_length_b   9.59550906
_cell_length_c   3.17411500
_cell_angle_alpha   90.00000000
_cell_angle_beta   90.00000000
_cell_angle_gamma   89.98683969
_symmetry_Int_Tables_number   1
_chemical_formula_structural   ErTm3Mg2(B2Rh5)2
_chemical_formula_sum   'Er1 Tm3 Mg2 B4 Rh10'
_cell_volume   292.25280352
_cell_formula_units_Z   1
loop_
 _symmetry_equiv_pos_site_id
 _symmetry_equiv_pos_as_xyz
  1  'x, y, z'
loop_
 _atom_site_type_symbol
 _atom_site_label
 _atom_site_symmetry_multiplicity
 _atom_site_fract_x
 _atom_site_fract_y
 _atom_site_fract_z
 _atom_site_occupancy
  Er  Er0  1  0.675634  0.175634  0.000000  1
  Tm  Tm1  1  0.324404  0.824404  0.000000  1
  Tm  Tm2  1  0.175592  0.324408  0.000000  1
  Tm  Tm3  1  0.824408  0.675592  0.000000  1
  Mg  Mg4  1  0.000028  0.999973  0.000000  1
  Mg  Mg5  1  0.499973  0.500028  0.000000  1
  B  B6  1  0.122995  0.622995  0.000000  1
  B  B7  1  0.877113  0.377113  0.000000  1
  B  B8  1  0.622946  0.876965  0.000000  1
  B  B9  1  0.376965  0.122946  0.000000  1
  Rh  Rh10  1  0.499796  0.999796  0.500000  1
  Rh  Rh11  1  0.999985  0.499985  0.500000  1
  Rh  Rh12  1  0.223569  0.070700  0.500000  1
  Rh  Rh13  1  0.776510  0.929088  0.500000  1
  Rh  Rh14  1  0.070706  0.776407  0.500000  1
  Rh  Rh15  1  0.723633  0.429548  0.500000  1
  Rh  Rh16  1  0.929548  0.223633  0.500000  1
  Rh  Rh17  1  0.276407  0.570706  0.500000  1
  Rh  Rh18  1  0.570700  0.723569  0.500000  1
  Rh  Rh19  1  0.429088  0.276510  0.500000  1
