# generated using pymatgen
data_Gd2Al2RuRh
_symmetry_space_group_name_H-M   'P 1'
_cell_length_a   4.05985500
_cell_length_b   6.89858400
_cell_length_c   8.02545900
_cell_angle_alpha   90.00000000
_cell_angle_beta   90.00000000
_cell_angle_gamma   90.00000000
_symmetry_Int_Tables_number   1
_chemical_formula_structural   Gd2Al2RuRh
_chemical_formula_sum   'Gd4 Al4 Ru2 Rh2'
_cell_volume   224.77104256
_cell_formula_units_Z   2
loop_
 _symmetry_equiv_pos_site_id
 _symmetry_equiv_pos_as_xyz
  1  'x, y, z'
loop_
 _atom_site_type_symbol
 _atom_site_label
 _atom_site_symmetry_multiplicity
 _atom_site_fract_x
 _atom_site_fract_y
 _atom_site_fract_z
 _atom_site_occupancy
  Gd  Gd0  1  0.250000  0.965598  0.321625  1
  Gd  Gd1  1  0.750000  0.535712  0.822755  1
  Gd  Gd2  1  0.250000  0.465598  0.178375  1
  Gd  Gd3  1  0.750000  0.035712  0.677245  1
  Al  Al4  1  0.750000  0.636511  0.440012  1
  Al  Al5  1  0.750000  0.136511  0.059988  1
  Al  Al6  1  0.250000  0.361564  0.557758  1
  Al  Al7  1  0.250000  0.861564  0.942242  1
  Ru  Ru8  1  0.750000  0.765362  0.123260  1
  Ru  Ru9  1  0.750000  0.265362  0.376740  1
  Rh  Rh10  1  0.250000  0.235253  0.875369  1
  Rh  Rh11  1  0.250000  0.735253  0.624631  1
