# generated using pymatgen
data_Gd6Y2Si12Pd3Au
_symmetry_space_group_name_H-M   'P 1'
_cell_length_a   8.20900903
_cell_length_b   8.21015169
_cell_length_c   8.19572400
_cell_angle_alpha   90.00233384
_cell_angle_beta   90.00039804
_cell_angle_gamma   120.00459166
_symmetry_Int_Tables_number   1
_chemical_formula_structural   Gd6Y2Si12Pd3Au
_chemical_formula_sum   'Gd6 Y2 Si12 Pd3 Au1'
_cell_volume   478.34338711
_cell_formula_units_Z   1
loop_
 _symmetry_equiv_pos_site_id
 _symmetry_equiv_pos_as_xyz
  1  'x, y, z'
loop_
 _atom_site_type_symbol
 _atom_site_label
 _atom_site_symmetry_multiplicity
 _atom_site_fract_x
 _atom_site_fract_y
 _atom_site_fract_z
 _atom_site_occupancy
  Gd  Gd0  1  0.501402  0.002778  0.252272  1
  Gd  Gd1  1  0.500475  0.000902  0.747851  1
  Gd  Gd2  1  0.997178  0.498591  0.252316  1
  Gd  Gd3  1  0.999051  0.499522  0.747783  1
  Gd  Gd4  1  0.501410  0.498629  0.252257  1
  Gd  Gd5  1  0.500473  0.499565  0.747824  1
  Y  Y6  1  0.999986  0.999998  0.251618  1
  Y  Y7  1  0.999983  0.999984  0.748111  1
  Si  Si8  1  0.161845  0.323612  0.999265  1
  Si  Si9  1  0.833392  0.666775  0.000550  1
  Si  Si10  1  0.676452  0.838224  0.999222  1
  Si  Si11  1  0.834870  0.669801  0.501643  1
  Si  Si12  1  0.333163  0.166581  0.000460  1
  Si  Si13  1  0.165526  0.330998  0.498299  1
  Si  Si14  1  0.161837  0.838227  0.999160  1
  Si  Si15  1  0.330210  0.165107  0.501686  1
  Si  Si16  1  0.833387  0.166612  0.000384  1
  Si  Si17  1  0.669072  0.834539  0.498348  1
  Si  Si18  1  0.834876  0.165074  0.501756  1
  Si  Si19  1  0.165533  0.834537  0.498372  1
  Pd  Pd20  1  0.666653  0.333341  0.999544  1
  Pd  Pd21  1  0.666581  0.333297  0.501316  1
  Pd  Pd22  1  0.333343  0.666661  0.498603  1
  Au  Au23  1  0.333303  0.666646  0.001358  1
