# generated using pymatgen
data_TbSmAg2(Pt2O7)2
_symmetry_space_group_name_H-M   'P 1'
_cell_length_a   7.20049636
_cell_length_b   7.27500256
_cell_length_c   7.26449643
_cell_angle_alpha   61.42854144
_cell_angle_beta   60.29100759
_cell_angle_gamma   60.33821245
_symmetry_Int_Tables_number   1
_chemical_formula_structural   TbSmAg2(Pt2O7)2
_chemical_formula_sum   'Tb1 Sm1 Ag2 Pt4 O14'
_cell_volume   273.18101098
_cell_formula_units_Z   1
loop_
 _symmetry_equiv_pos_site_id
 _symmetry_equiv_pos_as_xyz
  1  'x, y, z'
loop_
 _atom_site_type_symbol
 _atom_site_label
 _atom_site_symmetry_multiplicity
 _atom_site_fract_x
 _atom_site_fract_y
 _atom_site_fract_z
 _atom_site_occupancy
  Tb  Tb0  1  0.625000  0.125000  0.625000  1
  Sm  Sm1  1  0.625000  0.625000  0.125000  1
  Ag  Ag2  1  0.625000  0.625000  0.625000  1
  Ag  Ag3  1  0.125000  0.625000  0.625000  1
  Pt  Pt4  1  0.125000  0.125000  0.125000  1
  Pt  Pt5  1  0.625000  0.125000  0.125000  1
  Pt  Pt6  1  0.125000  0.625000  0.125000  1
  Pt  Pt7  1  0.125000  0.125000  0.625000  1
  O  O8  1  0.046219  0.453541  0.454022  1
  O  O9  1  0.790937  0.796014  0.196498  1
  O  O10  1  0.782578  0.215034  0.219810  1
  O  O11  1  0.459977  0.055054  0.455361  1
  O  O12  1  0.033448  0.453986  0.053502  1
  O  O13  1  0.764484  0.739440  0.731591  1
  O  O14  1  0.029607  0.055054  0.455361  1
  O  O15  1  0.216552  0.796014  0.196498  1
  O  O16  1  0.220393  0.194946  0.794639  1
  O  O17  1  0.485516  0.510560  0.518409  1
  O  O18  1  0.790023  0.194946  0.794639  1
  O  O19  1  0.467422  0.034966  0.030190  1
  O  O20  1  0.459063  0.453986  0.053502  1
  O  O21  1  0.203781  0.796459  0.795978  1
