# generated using pymatgen
data_LiTmAg5NO11
_symmetry_space_group_name_H-M   'P 1'
_cell_length_a   7.22894306
_cell_length_b   6.98180756
_cell_length_c   6.98180727
_cell_angle_alpha   60.20118564
_cell_angle_beta   59.72567936
_cell_angle_gamma   59.72566953
_symmetry_Int_Tables_number   1
_chemical_formula_structural   LiTmAg5NO11
_chemical_formula_sum   'Li1 Tm1 Ag5 N1 O11'
_cell_volume   248.50359979
_cell_formula_units_Z   1
loop_
 _symmetry_equiv_pos_site_id
 _symmetry_equiv_pos_as_xyz
  1  'x, y, z'
loop_
 _atom_site_type_symbol
 _atom_site_label
 _atom_site_symmetry_multiplicity
 _atom_site_fract_x
 _atom_site_fract_y
 _atom_site_fract_z
 _atom_site_occupancy
  Li  Li0  1  0.508283  0.996575  0.996575  1
  Tm  Tm1  1  0.000330  0.998829  0.998829  1
  Ag  Ag2  1  0.499654  0.499376  0.000509  1
  Ag  Ag3  1  0.499654  0.000509  0.499376  1
  Ag  Ag4  1  0.003454  0.998071  0.496853  1
  Ag  Ag5  1  0.991291  0.499195  0.499195  1
  Ag  Ag6  1  0.003454  0.496853  0.998071  1
  N  N7  1  0.497348  0.504282  0.504282  1
  O  O8  1  0.596526  0.137571  0.137571  1
  O  O9  1  0.145508  0.580252  0.133433  1
  O  O10  1  0.134155  0.134163  0.134163  1
  O  O11  1  0.145508  0.133433  0.580252  1
  O  O12  1  0.600330  0.639527  0.324432  1
  O  O13  1  0.600330  0.324432  0.639527  1
  O  O14  1  0.288403  0.551303  0.551303  1
  O  O15  1  0.853330  0.866670  0.416772  1
  O  O16  1  0.853330  0.416772  0.866670  1
  O  O17  1  0.875284  0.859948  0.859948  1
  O  O18  1  0.403827  0.862236  0.862236  1
