# generated using pymatgen
data_AcNd9(Si2Hg)2
_symmetry_space_group_name_H-M   'P 1'
_cell_length_a   7.78450621
_cell_length_b   7.78450410
_cell_length_c   9.30325600
_cell_angle_alpha   114.75086362
_cell_angle_beta   114.75086455
_cell_angle_gamma   90.08774707
_symmetry_Int_Tables_number   1
_chemical_formula_structural   AcNd9(Si2Hg)2
_chemical_formula_sum   'Ac1 Nd9 Si4 Hg2'
_cell_volume   454.13100298
_cell_formula_units_Z   1
loop_
 _symmetry_equiv_pos_site_id
 _symmetry_equiv_pos_as_xyz
  1  'x, y, z'
loop_
 _atom_site_type_symbol
 _atom_site_label
 _atom_site_symmetry_multiplicity
 _atom_site_fract_x
 _atom_site_fract_y
 _atom_site_fract_z
 _atom_site_occupancy
  Ac  Ac0  1  0.527698  0.027698  0.706752  1
  Nd  Nd1  1  0.500200  0.502004  0.001558  1
  Nd  Nd2  1  0.002004  0.000200  0.001558  1
  Nd  Nd3  1  0.961055  0.815548  0.277889  1
  Nd  Nd4  1  0.315548  0.461055  0.277889  1
  Nd  Nd5  1  0.813826  0.313826  0.279497  1
  Nd  Nd6  1  0.462917  0.962917  0.276582  1
  Nd  Nd7  1  0.036043  0.187044  0.722591  1
  Nd  Nd8  1  0.687044  0.536043  0.722591  1
  Nd  Nd9  1  0.184930  0.684930  0.724450  1
  Si  Si10  1  0.617630  0.883690  0.005891  1
  Si  Si11  1  0.383690  0.117630  0.005891  1
  Si  Si12  1  0.889884  0.389884  0.003879  1
  Si  Si13  1  0.117373  0.617373  0.002250  1
  Hg  Hg14  1  0.755899  0.744259  0.495366  1
  Hg  Hg15  1  0.244259  0.255899  0.495366  1
