# generated using pymatgen
data_Ce3Al11CoSiOs3
_symmetry_space_group_name_H-M   'P 1'
_cell_length_a   8.80162200
_cell_length_b   8.80162229
_cell_length_c   9.46093000
_cell_angle_alpha   90.00000000
_cell_angle_beta   90.00000000
_cell_angle_gamma   120.00000644
_symmetry_Int_Tables_number   1
_chemical_formula_structural   Ce3Al11CoSiOs3
_chemical_formula_sum   'Ce6 Al22 Co2 Si2 Os6'
_cell_volume   634.73123904
_cell_formula_units_Z   2
loop_
 _symmetry_equiv_pos_site_id
 _symmetry_equiv_pos_as_xyz
  1  'x, y, z'
loop_
 _atom_site_type_symbol
 _atom_site_label
 _atom_site_symmetry_multiplicity
 _atom_site_fract_x
 _atom_site_fract_y
 _atom_site_fract_z
 _atom_site_occupancy
  Ce  Ce0  1  0.194822  0.389641  0.250037  1
  Ce  Ce1  1  0.805178  0.610359  0.749963  1
  Ce  Ce2  1  0.610359  0.805178  0.250037  1
  Ce  Ce3  1  0.389641  0.194822  0.749963  1
  Ce  Ce4  1  0.194822  0.805178  0.250037  1
  Ce  Ce5  1  0.805178  0.194822  0.749963  1
  Al  Al6  1  0.666667  0.333333  0.514467  1
  Al  Al7  1  0.333333  0.666667  0.485533  1
  Al  Al8  1  0.160058  0.320115  0.576063  1
  Al  Al9  1  0.839942  0.679885  0.423937  1
  Al  Al10  1  0.679885  0.839942  0.576063  1
  Al  Al11  1  0.839312  0.678625  0.077037  1
  Al  Al12  1  0.320115  0.160058  0.423937  1
  Al  Al13  1  0.160688  0.321375  0.922963  1
  Al  Al14  1  0.160058  0.839942  0.576063  1
  Al  Al15  1  0.321375  0.160688  0.077037  1
  Al  Al16  1  0.839942  0.160058  0.423937  1
  Al  Al17  1  0.678625  0.839312  0.922963  1
  Al  Al18  1  0.839312  0.160688  0.077037  1
  Al  Al19  1  0.160688  0.839312  0.922963  1
  Al  Al20  1  0.563176  0.126350  0.250197  1
  Al  Al21  1  0.436824  0.873650  0.749803  1
  Al  Al22  1  0.873650  0.436824  0.250197  1
  Al  Al23  1  0.126350  0.563176  0.749803  1
  Al  Al24  1  0.563176  0.436824  0.250197  1
  Al  Al25  1  0.436824  0.563176  0.749803  1
  Al  Al26  1  0.000000  0.000000  0.249683  1
  Al  Al27  1  0.000000  0.000000  0.750317  1
  Co  Co28  1  0.000000  0.000000  0.000000  1
  Co  Co29  1  0.000000  0.000000  0.500000  1
  Si  Si30  1  0.333333  0.666667  0.034210  1
  Si  Si31  1  0.666667  0.333333  0.965790  1
  Os  Os32  1  0.500000  0.000000  0.000000  1
  Os  Os33  1  0.000000  0.500000  0.000000  1
  Os  Os34  1  0.500000  0.000000  0.500000  1
  Os  Os35  1  0.500000  0.500000  0.000000  1
  Os  Os36  1  0.000000  0.500000  0.500000  1
  Os  Os37  1  0.500000  0.500000  0.500000  1
