# generated using pymatgen
data_Tb3CdIn3Ni2
_symmetry_space_group_name_H-M   'P 1'
_cell_length_a   7.85662600
_cell_length_b   7.85662539
_cell_length_c   3.69943500
_cell_angle_alpha   90.00000000
_cell_angle_beta   90.00000000
_cell_angle_gamma   120.00000257
_symmetry_Int_Tables_number   1
_chemical_formula_structural   Tb3CdIn3Ni2
_chemical_formula_sum   'Tb3 Cd1 In3 Ni2'
_cell_volume   197.75986072
_cell_formula_units_Z   1
loop_
 _symmetry_equiv_pos_site_id
 _symmetry_equiv_pos_as_xyz
  1  'x, y, z'
loop_
 _atom_site_type_symbol
 _atom_site_label
 _atom_site_symmetry_multiplicity
 _atom_site_fract_x
 _atom_site_fract_y
 _atom_site_fract_z
 _atom_site_occupancy
  Tb  Tb0  1  0.034871  0.614119  0.500000  1
  Tb  Tb1  1  0.579249  0.965129  0.500000  1
  Tb  Tb2  1  0.385881  0.420751  0.500000  1
  Cd  Cd3  1  0.666667  0.333333  0.000000  1
  In  In4  1  0.995228  0.247583  0.000000  1
  In  In5  1  0.252355  0.004772  0.000000  1
  In  In6  1  0.752417  0.747645  0.000000  1
  Ni  Ni7  1  0.000000  0.000000  0.500000  1
  Ni  Ni8  1  0.333333  0.666667  0.000000  1
