# generated using pymatgen
data_Hf9CuW4
_symmetry_space_group_name_H-M   'P 1'
_cell_length_a   8.72837300
_cell_length_b   8.72837297
_cell_length_c   8.53382600
_cell_angle_alpha   90.00000000
_cell_angle_beta   90.00000000
_cell_angle_gamma   119.99999634
_symmetry_Int_Tables_number   1
_chemical_formula_structural   Hf9CuW4
_chemical_formula_sum   'Hf18 Cu2 W8'
_cell_volume   563.04230050
_cell_formula_units_Z   2
loop_
 _symmetry_equiv_pos_site_id
 _symmetry_equiv_pos_as_xyz
  1  'x, y, z'
loop_
 _atom_site_type_symbol
 _atom_site_label
 _atom_site_symmetry_multiplicity
 _atom_site_fract_x
 _atom_site_fract_y
 _atom_site_fract_z
 _atom_site_occupancy
  Hf  Hf0  1  0.197624  0.802376  0.444921  1
  Hf  Hf1  1  0.197624  0.395250  0.444921  1
  Hf  Hf2  1  0.604750  0.802376  0.444921  1
  Hf  Hf3  1  0.802376  0.197624  0.555079  1
  Hf  Hf4  1  0.802376  0.604750  0.555079  1
  Hf  Hf5  1  0.395250  0.197624  0.555079  1
  Hf  Hf6  1  0.802376  0.197624  0.944921  1
  Hf  Hf7  1  0.802376  0.604750  0.944921  1
  Hf  Hf8  1  0.395250  0.197624  0.944921  1
  Hf  Hf9  1  0.197624  0.802376  0.055079  1
  Hf  Hf10  1  0.197624  0.395250  0.055079  1
  Hf  Hf11  1  0.604750  0.802376  0.055079  1
  Hf  Hf12  1  0.541691  0.458309  0.250000  1
  Hf  Hf13  1  0.541691  0.083383  0.250000  1
  Hf  Hf14  1  0.916617  0.458309  0.250000  1
  Hf  Hf15  1  0.458309  0.541691  0.750000  1
  Hf  Hf16  1  0.458309  0.916617  0.750000  1
  Hf  Hf17  1  0.083383  0.541691  0.750000  1
  Cu  Cu18  1  0.333333  0.666667  0.250000  1
  Cu  Cu19  1  0.666667  0.333333  0.750000  1
  W  W20  1  0.888424  0.111576  0.250000  1
  W  W21  1  0.888424  0.776847  0.250000  1
  W  W22  1  0.223153  0.111576  0.250000  1
  W  W23  1  0.111576  0.888424  0.750000  1
  W  W24  1  0.111576  0.223153  0.750000  1
  W  W25  1  0.776847  0.888424  0.750000  1
  W  W26  1  0.000000  0.000000  0.500000  1
  W  W27  1  0.000000  0.000000  0.000000  1
