# generated using pymatgen
data_La15YCd4Ir3Ru
_symmetry_space_group_name_H-M   'P 1'
_cell_length_a   10.05766054
_cell_length_b   10.11323017
_cell_length_c   10.05845013
_cell_angle_alpha   59.96466785
_cell_angle_beta   60.72393294
_cell_angle_gamma   59.91708152
_symmetry_Int_Tables_number   1
_chemical_formula_structural   La15YCd4Ir3Ru
_chemical_formula_sum   'La15 Y1 Cd4 Ir3 Ru1'
_cell_volume   726.65729484
_cell_formula_units_Z   1
loop_
 _symmetry_equiv_pos_site_id
 _symmetry_equiv_pos_as_xyz
  1  'x, y, z'
loop_
 _atom_site_type_symbol
 _atom_site_label
 _atom_site_symmetry_multiplicity
 _atom_site_fract_x
 _atom_site_fract_y
 _atom_site_fract_z
 _atom_site_occupancy
  La  La0  1  0.444018  0.437695  0.058323  1
  La  La1  1  0.060449  0.060977  0.442108  1
  La  La2  1  0.442998  0.062226  0.059991  1
  La  La3  1  0.844441  0.850320  0.842257  1
  La  La4  1  0.690254  0.308607  0.313481  1
  La  La5  1  0.058589  0.438523  0.443291  1
  La  La6  1  0.311562  0.685297  0.690803  1
  La  La7  1  0.311057  0.312759  0.691014  1
  La  La8  1  0.850708  0.845922  0.455844  1
  La  La9  1  0.690388  0.686285  0.313115  1
  La  La10  1  0.453601  0.848652  0.850550  1
  La  La11  1  0.058684  0.443938  0.058766  1
  La  La12  1  0.845215  0.458703  0.843406  1
  La  La13  1  0.443355  0.056756  0.443830  1
  La  La14  1  0.307475  0.689200  0.312616  1
  Y  Y15  1  0.692211  0.307456  0.692653  1
  Cd  Cd16  1  0.078983  0.761603  0.078772  1
  Cd  Cd17  1  0.075306  0.081711  0.761263  1
  Cd  Cd18  1  0.761590  0.081685  0.075139  1
  Cd  Cd19  1  0.078635  0.079417  0.078572  1
  Ir  Ir20  1  0.638890  0.079612  0.640768  1
  Ir  Ir21  1  0.636988  0.643503  0.639857  1
  Ir  Ir22  1  0.639925  0.640992  0.077437  1
  Ru  Ru23  1  0.084679  0.638160  0.636142  1
