# generated using pymatgen
data_Ca5Pd
_symmetry_space_group_name_H-M   'P 1'
_cell_length_a   6.89988200
_cell_length_b   7.64632200
_cell_length_c   16.10450000
_cell_angle_alpha   90.00000000
_cell_angle_beta   90.00000000
_cell_angle_gamma   90.00000000
_symmetry_Int_Tables_number   1
_chemical_formula_structural   Ca5Pd
_chemical_formula_sum   'Ca20 Pd4'
_cell_volume   849.65279874
_cell_formula_units_Z   4
loop_
 _symmetry_equiv_pos_site_id
 _symmetry_equiv_pos_as_xyz
  1  'x, y, z'
loop_
 _atom_site_type_symbol
 _atom_site_label
 _atom_site_symmetry_multiplicity
 _atom_site_fract_x
 _atom_site_fract_y
 _atom_site_fract_z
 _atom_site_occupancy
  Ca  Ca0  1  0.350040  0.311390  0.061027  1
  Ca  Ca1  1  0.649960  0.688610  0.938973  1
  Ca  Ca2  1  0.850040  0.188610  0.938973  1
  Ca  Ca3  1  0.649960  0.688610  0.561027  1
  Ca  Ca4  1  0.149960  0.811390  0.061027  1
  Ca  Ca5  1  0.350040  0.311390  0.438973  1
  Ca  Ca6  1  0.149960  0.811390  0.438973  1
  Ca  Ca7  1  0.850040  0.188610  0.561027  1
  Ca  Ca8  1  0.155228  0.096630  0.250000  1
  Ca  Ca9  1  0.844772  0.903370  0.750000  1
  Ca  Ca10  1  0.655228  0.403370  0.750000  1
  Ca  Ca11  1  0.344772  0.596630  0.250000  1
  Ca  Ca12  1  0.326242  0.037772  0.641393  1
  Ca  Ca13  1  0.673758  0.962228  0.358607  1
  Ca  Ca14  1  0.826242  0.462228  0.358607  1
  Ca  Ca15  1  0.673758  0.962228  0.141393  1
  Ca  Ca16  1  0.173758  0.537772  0.641393  1
  Ca  Ca17  1  0.326242  0.037772  0.858607  1
  Ca  Ca18  1  0.173758  0.537772  0.858607  1
  Ca  Ca19  1  0.826242  0.462228  0.141393  1
  Pd  Pd20  1  0.541790  0.260732  0.250000  1
  Pd  Pd21  1  0.458210  0.739268  0.750000  1
  Pd  Pd22  1  0.041790  0.239268  0.750000  1
  Pd  Pd23  1  0.958210  0.760732  0.250000  1
