# generated using pymatgen
data_Tb4Ga2B4Ru3Rh7
_symmetry_space_group_name_H-M   'P 1'
_cell_length_a   9.62323700
_cell_length_b   9.63200200
_cell_length_c   3.11959900
_cell_angle_alpha   90.00000000
_cell_angle_beta   90.00000000
_cell_angle_gamma   89.99955365
_symmetry_Int_Tables_number   1
_chemical_formula_structural   Tb4Ga2B4Ru3Rh7
_chemical_formula_sum   'Tb4 Ga2 B4 Ru3 Rh7'
_cell_volume   289.15886954
_cell_formula_units_Z   1
loop_
 _symmetry_equiv_pos_site_id
 _symmetry_equiv_pos_as_xyz
  1  'x, y, z'
loop_
 _atom_site_type_symbol
 _atom_site_label
 _atom_site_symmetry_multiplicity
 _atom_site_fract_x
 _atom_site_fract_y
 _atom_site_fract_z
 _atom_site_occupancy
  Tb  Tb0  1  0.827405  0.322909  0.000000  1
  Tb  Tb1  1  0.321485  0.175987  0.000000  1
  Tb  Tb2  1  0.675854  0.824373  0.000000  1
  Tb  Tb3  1  0.176315  0.673966  0.000000  1
  Ga  Ga4  1  0.000366  0.004157  0.000000  1
  Ga  Ga5  1  0.499442  0.499942  0.000000  1
  B  B6  1  0.619909  0.120350  0.000000  1
  B  B7  1  0.117874  0.374347  0.000000  1
  B  B8  1  0.880542  0.620500  0.000000  1
  B  B9  1  0.379187  0.879481  0.000000  1
  Ru  Ru10  1  0.069407  0.219075  0.500000  1
  Ru  Ru11  1  0.499532  0.000022  0.500000  1
  Ru  Ru12  1  0.999988  0.501780  0.500000  1
  Rh  Rh13  1  0.219091  0.928603  0.500000  1
  Rh  Rh14  1  0.780180  0.069094  0.500000  1
  Rh  Rh15  1  0.930952  0.783059  0.500000  1
  Rh  Rh16  1  0.430930  0.718809  0.500000  1
  Rh  Rh17  1  0.570225  0.281290  0.500000  1
  Rh  Rh18  1  0.718998  0.570451  0.500000  1
  Rh  Rh19  1  0.282316  0.431804  0.500000  1
