# generated using pymatgen
data_Ni(IrS4)2
_symmetry_space_group_name_H-M   'P 1'
_cell_length_a   5.71151274
_cell_length_b   5.67162851
_cell_length_c   5.66890700
_cell_angle_alpha   90.03869893
_cell_angle_beta   90.59227465
_cell_angle_gamma   91.03182633
_symmetry_Int_Tables_number   1
_chemical_formula_structural   Ni(IrS4)2
_chemical_formula_sum   'Ni1 Ir2 S8'
_cell_volume   183.59652891
_cell_formula_units_Z   1
loop_
 _symmetry_equiv_pos_site_id
 _symmetry_equiv_pos_as_xyz
  1  'x, y, z'
loop_
 _atom_site_type_symbol
 _atom_site_label
 _atom_site_symmetry_multiplicity
 _atom_site_fract_x
 _atom_site_fract_y
 _atom_site_fract_z
 _atom_site_occupancy
  Ni  Ni0  1  0.000000  0.500000  0.500000  1
  Ir  Ir1  1  0.500000  0.000000  0.500000  1
  Ir  Ir2  1  0.500000  0.500000  0.000000  1
  S  S3  1  0.392203  0.889848  0.106342  1
  S  S4  1  0.102794  0.400166  0.887754  1
  S  S5  1  0.894623  0.107416  0.397271  1
  S  S6  1  0.607797  0.110152  0.893658  1
  S  S7  1  0.897206  0.599834  0.112246  1
  S  S8  1  0.105377  0.892584  0.602729  1
  S  S9  1  0.610964  0.613185  0.611366  1
  S  S10  1  0.389036  0.386815  0.388634  1
