# generated using pymatgen
data_Lu16In4IrRuRh2
_symmetry_space_group_name_H-M   'P 1'
_cell_length_a   9.47829173
_cell_length_b   9.47829282
_cell_length_c   9.49609772
_cell_angle_alpha   59.76739643
_cell_angle_beta   59.76739184
_cell_angle_gamma   59.75314732
_symmetry_Int_Tables_number   1
_chemical_formula_structural   Lu16In4IrRuRh2
_chemical_formula_sum   'Lu16 In4 Ir1 Ru1 Rh2'
_cell_volume   599.98920107
_cell_formula_units_Z   1
loop_
 _symmetry_equiv_pos_site_id
 _symmetry_equiv_pos_as_xyz
  1  'x, y, z'
loop_
 _atom_site_type_symbol
 _atom_site_label
 _atom_site_symmetry_multiplicity
 _atom_site_fract_x
 _atom_site_fract_y
 _atom_site_fract_z
 _atom_site_occupancy
  Lu  Lu0  1  0.599401  0.599401  0.600284  1
  Lu  Lu1  1  0.598311  0.598311  0.204839  1
  Lu  Lu2  1  0.598907  0.204618  0.598493  1
  Lu  Lu3  1  0.204618  0.598907  0.598493  1
  Lu  Lu4  1  0.059190  0.441203  0.441168  1
  Lu  Lu5  1  0.441130  0.058035  0.057657  1
  Lu  Lu6  1  0.441203  0.059190  0.441168  1
  Lu  Lu7  1  0.058035  0.441130  0.057657  1
  Lu  Lu8  1  0.441161  0.441161  0.059101  1
  Lu  Lu9  1  0.058480  0.058480  0.440625  1
  Lu  Lu10  1  0.189265  0.808907  0.811665  1
  Lu  Lu11  1  0.808488  0.189883  0.189854  1
  Lu  Lu12  1  0.808907  0.189265  0.811665  1
  Lu  Lu13  1  0.189883  0.808488  0.189854  1
  Lu  Lu14  1  0.810950  0.810950  0.188603  1
  Lu  Lu15  1  0.191567  0.191567  0.807881  1
  In  In16  1  0.833125  0.833125  0.833981  1
  In  In17  1  0.833573  0.833573  0.499769  1
  In  In18  1  0.833364  0.499831  0.833714  1
  In  In19  1  0.499831  0.833364  0.833714  1
  Ir  Ir20  1  0.391521  0.391521  0.826923  1
  Ru  Ru21  1  0.389499  0.389499  0.390620  1
  Rh  Rh22  1  0.392380  0.827212  0.391135  1
  Rh  Rh23  1  0.827212  0.392380  0.391135  1
