# generated using pymatgen
data_Yb3Hf(Ir2O7)2
_symmetry_space_group_name_H-M   'P 1'
_cell_length_a   7.14872991
_cell_length_b   7.17418339
_cell_length_c   7.17418300
_cell_angle_alpha   59.99999717
_cell_angle_beta   59.88214477
_cell_angle_gamma   59.88214868
_symmetry_Int_Tables_number   1
_chemical_formula_structural   Yb3Hf(Ir2O7)2
_chemical_formula_sum   'Yb3 Hf1 Ir4 O14'
_cell_volume   259.70653281
_cell_formula_units_Z   1
loop_
 _symmetry_equiv_pos_site_id
 _symmetry_equiv_pos_as_xyz
  1  'x, y, z'
loop_
 _atom_site_type_symbol
 _atom_site_label
 _atom_site_symmetry_multiplicity
 _atom_site_fract_x
 _atom_site_fract_y
 _atom_site_fract_z
 _atom_site_occupancy
  Yb  Yb0  1  0.125000  0.625000  0.125000  1
  Yb  Yb1  1  0.125000  0.125000  0.625000  1
  Yb  Yb2  1  0.125000  0.125000  0.125000  1
  Hf  Hf3  1  0.625000  0.125000  0.125000  1
  Ir  Ir4  1  0.125000  0.625000  0.625000  1
  Ir  Ir5  1  0.625000  0.125000  0.625000  1
  Ir  Ir6  1  0.625000  0.625000  0.125000  1
  Ir  Ir7  1  0.625000  0.625000  0.625000  1
  O  O8  1  0.687503  0.731395  0.290551  1
  O  O9  1  0.294392  0.290181  0.707714  1
  O  O10  1  0.687503  0.290551  0.731395  1
  O  O11  1  0.294392  0.707714  0.290181  1
  O  O12  1  0.294392  0.707714  0.707714  1
  O  O13  1  0.687503  0.290551  0.290551  1
  O  O14  1  0.562497  0.518605  0.959449  1
  O  O15  1  0.955608  0.959819  0.542286  1
  O  O16  1  0.562497  0.959449  0.518605  1
  O  O17  1  0.955608  0.542286  0.959819  1
  O  O18  1  0.955608  0.542286  0.542286  1
  O  O19  1  0.562497  0.959449  0.959449  1
  O  O20  1  0.280000  0.240000  0.240000  1
  O  O21  1  0.970000  0.010000  0.010000  1
