# generated using pymatgen
data_Sm2FeTe2(SO7)2
_symmetry_space_group_name_H-M   'P 1'
_cell_length_a   5.39166661
_cell_length_b   8.03603713
_cell_length_c   8.29916206
_cell_angle_alpha   115.44417389
_cell_angle_beta   106.71984370
_cell_angle_gamma   85.95404137
_symmetry_Int_Tables_number   1
_chemical_formula_structural   Sm2FeTe2(SO7)2
_chemical_formula_sum   'Sm2 Fe1 Te2 S2 O14'
_cell_volume   310.39195005
_cell_formula_units_Z   1
loop_
 _symmetry_equiv_pos_site_id
 _symmetry_equiv_pos_as_xyz
  1  'x, y, z'
loop_
 _atom_site_type_symbol
 _atom_site_label
 _atom_site_symmetry_multiplicity
 _atom_site_fract_x
 _atom_site_fract_y
 _atom_site_fract_z
 _atom_site_occupancy
  Sm  Sm0  1  0.085012  0.251344  0.984643  1
  Sm  Sm1  1  0.914988  0.748656  0.015357  1
  Fe  Fe2  1  0.000000  0.000000  0.500000  1
  Te  Te3  1  0.520130  0.272356  0.663922  1
  Te  Te4  1  0.479870  0.727644  0.336078  1
  S  S5  1  0.767522  0.246224  0.250955  1
  S  S6  1  0.232478  0.753776  0.749045  1
  O  O7  1  0.902317  0.404357  0.256409  1
  O  O8  1  0.097683  0.595643  0.743591  1
  O  O9  1  0.868513  0.226479  0.427132  1
  O  O10  1  0.131487  0.773521  0.572868  1
  O  O11  1  0.484261  0.269557  0.215860  1
  O  O12  1  0.515739  0.730443  0.784140  1
  O  O13  1  0.823631  0.078951  0.090985  1
  O  O14  1  0.176369  0.921049  0.909015  1
  O  O15  1  0.752450  0.437068  0.892287  1
  O  O16  1  0.247550  0.562932  0.107713  1
  O  O17  1  0.285795  0.195029  0.753700  1
  O  O18  1  0.714205  0.804971  0.246300  1
  O  O19  1  0.751821  0.080370  0.666929  1
  O  O20  1  0.248179  0.919630  0.333071  1
