# generated using pymatgen
data_La2Nd8Sn20IrPd7
_symmetry_space_group_name_H-M   'P 1'
_cell_length_a   14.28160700
_cell_length_b   14.30144139
_cell_length_c   4.66903000
_cell_angle_alpha   90.00000000
_cell_angle_beta   90.00000000
_cell_angle_gamma   90.01335298
_symmetry_Int_Tables_number   1
_chemical_formula_structural   La2Nd8Sn20IrPd7
_chemical_formula_sum   'La2 Nd8 Sn20 Ir1 Pd7'
_cell_volume   953.63798458
_cell_formula_units_Z   1
loop_
 _symmetry_equiv_pos_site_id
 _symmetry_equiv_pos_as_xyz
  1  'x, y, z'
loop_
 _atom_site_type_symbol
 _atom_site_label
 _atom_site_symmetry_multiplicity
 _atom_site_fract_x
 _atom_site_fract_y
 _atom_site_fract_z
 _atom_site_occupancy
  La  La0  1  0.390583  0.108790  0.500000  1
  La  La1  1  0.609622  0.891438  0.500000  1
  Nd  Nd2  1  0.500278  0.498659  0.000000  1
  Nd  Nd3  1  0.999214  0.996338  0.000000  1
  Nd  Nd4  1  0.680329  0.179870  0.500000  1
  Nd  Nd5  1  0.319650  0.818948  0.500000  1
  Nd  Nd6  1  0.179543  0.321098  0.500000  1
  Nd  Nd7  1  0.823254  0.681515  0.500000  1
  Nd  Nd8  1  0.892364  0.393522  0.500000  1
  Nd  Nd9  1  0.105196  0.610592  0.500000  1
  Sn  Sn10  1  0.569149  0.069081  0.000000  1
  Sn  Sn11  1  0.429785  0.930914  0.000000  1
  Sn  Sn12  1  0.069133  0.432913  0.000000  1
  Sn  Sn13  1  0.930924  0.571969  0.000000  1
  Sn  Sn14  1  0.653204  0.700511  0.000000  1
  Sn  Sn15  1  0.347734  0.298589  0.000000  1
  Sn  Sn16  1  0.151407  0.796346  0.000000  1
  Sn  Sn17  1  0.848632  0.201152  0.000000  1
  Sn  Sn18  1  0.298984  0.652096  0.000000  1
  Sn  Sn19  1  0.702142  0.347364  0.000000  1
  Sn  Sn20  1  0.200000  0.151833  0.000000  1
  Sn  Sn21  1  0.800701  0.847468  0.000000  1
  Sn  Sn22  1  0.662855  0.501514  0.500000  1
  Sn  Sn23  1  0.337270  0.499841  0.500000  1
  Sn  Sn24  1  0.160794  0.996568  0.500000  1
  Sn  Sn25  1  0.837586  0.999990  0.500000  1
  Sn  Sn26  1  0.499785  0.661602  0.500000  1
  Sn  Sn27  1  0.501169  0.338022  0.500000  1
  Sn  Sn28  1  0.001516  0.161889  0.500000  1
  Sn  Sn29  1  0.996240  0.837524  0.500000  1
  Ir  Ir30  1  0.967511  0.756639  0.000000  1
  Pd  Pd31  1  0.745430  0.531301  0.000000  1
  Pd  Pd32  1  0.255671  0.467357  0.000000  1
  Pd  Pd33  1  0.243375  0.967175  0.000000  1
  Pd  Pd34  1  0.755553  0.032299  0.000000  1
  Pd  Pd35  1  0.468495  0.745228  0.000000  1
  Pd  Pd36  1  0.532803  0.255186  0.000000  1
  Pd  Pd37  1  0.032115  0.246861  0.000000  1
