# generated using pymatgen
data_YbMn2(Sb6Ru)2
_symmetry_space_group_name_H-M   'P 1'
_cell_length_a   8.12608120
_cell_length_b   8.13251856
_cell_length_c   8.13251817
_cell_angle_alpha   109.49755166
_cell_angle_beta   109.47621755
_cell_angle_gamma   109.47197153
_symmetry_Int_Tables_number   1
_chemical_formula_structural   YbMn2(Sb6Ru)2
_chemical_formula_sum   'Yb1 Mn2 Sb12 Ru2'
_cell_volume   413.55883082
_cell_formula_units_Z   1
loop_
 _symmetry_equiv_pos_site_id
 _symmetry_equiv_pos_as_xyz
  1  'x, y, z'
loop_
 _atom_site_type_symbol
 _atom_site_label
 _atom_site_symmetry_multiplicity
 _atom_site_fract_x
 _atom_site_fract_y
 _atom_site_fract_z
 _atom_site_occupancy
  Yb  Yb0  1  0.000000  0.000000  0.000000  1
  Mn  Mn1  1  0.500000  0.500000  0.500000  1
  Mn  Mn2  1  0.500000  0.000000  0.000000  1
  Sb  Sb3  1  0.662224  0.843182  0.504845  1
  Sb  Sb4  1  0.337776  0.156818  0.495155  1
  Sb  Sb5  1  0.842164  0.179973  0.337010  1
  Sb  Sb6  1  0.820049  0.662100  0.157948  1
  Sb  Sb7  1  0.842164  0.505153  0.662191  1
  Sb  Sb8  1  0.179951  0.337900  0.842052  1
  Sb  Sb9  1  0.157836  0.820027  0.662990  1
  Sb  Sb10  1  0.505186  0.661816  0.843370  1
  Sb  Sb11  1  0.494814  0.338184  0.156630  1
  Sb  Sb12  1  0.157836  0.494847  0.337809  1
  Sb  Sb13  1  0.337776  0.842622  0.180958  1
  Sb  Sb14  1  0.662224  0.157378  0.819042  1
  Ru  Ru15  1  0.000000  0.000000  0.500000  1
  Ru  Ru16  1  0.000000  0.500000  0.000000  1
