# generated using pymatgen
data_Y4Ga17SiIr6
_symmetry_space_group_name_H-M   'P 1'
_cell_length_a   7.59031744
_cell_length_b   7.57105516
_cell_length_c   9.49912090
_cell_angle_alpha   90.07021307
_cell_angle_beta   89.80006173
_cell_angle_gamma   119.90379322
_symmetry_Int_Tables_number   1
_chemical_formula_structural   Y4Ga17SiIr6
_chemical_formula_sum   'Y4 Ga17 Si1 Ir6'
_cell_volume   473.20342990
_cell_formula_units_Z   1
loop_
 _symmetry_equiv_pos_site_id
 _symmetry_equiv_pos_as_xyz
  1  'x, y, z'
loop_
 _atom_site_type_symbol
 _atom_site_label
 _atom_site_symmetry_multiplicity
 _atom_site_fract_x
 _atom_site_fract_y
 _atom_site_fract_z
 _atom_site_occupancy
  Y  Y0  1  0.996953  0.664841  0.248159  1
  Y  Y1  1  0.002837  0.331168  0.751088  1
  Y  Y2  1  0.673738  0.002029  0.248170  1
  Y  Y3  1  0.330723  0.002712  0.749991  1
  Ga  Ga4  1  0.129752  0.129139  0.250911  1
  Ga  Ga5  1  0.873067  0.874196  0.750759  1
  Ga  Ga6  1  0.999054  0.671207  0.917728  1
  Ga  Ga7  1  0.000558  0.665953  0.579902  1
  Ga  Ga8  1  0.333856  0.998168  0.419854  1
  Ga  Ga9  1  0.999532  0.334581  0.420842  1
  Ga  Ga10  1  0.665235  0.000240  0.579979  1
  Ga  Ga11  1  0.658340  0.994179  0.917853  1
  Ga  Ga12  1  0.333656  0.997952  0.081199  1
  Ga  Ga13  1  0.332318  0.331621  0.564212  1
  Ga  Ga14  1  0.668510  0.668969  0.435321  1
  Ga  Ga15  1  0.668015  0.669094  0.066792  1
  Ga  Ga16  1  0.338634  0.332582  0.934050  1
  Ga  Ga17  1  0.341077  0.546084  0.251627  1
  Ga  Ga18  1  0.661202  0.452198  0.751186  1
  Ga  Ga19  1  0.547418  0.339656  0.250528  1
  Ga  Ga20  1  0.451791  0.659389  0.750445  1
  Si  Si21  1  0.999819  0.334371  0.072296  1
  Ir  Ir22  1  0.684225  0.329537  0.003532  1
  Ir  Ir23  1  0.312865  0.655771  0.001661  1
  Ir  Ir24  1  0.328177  0.671040  0.500461  1
  Ir  Ir25  1  0.671293  0.328641  0.500214  1
  Ir  Ir26  1  0.998067  0.014741  0.001468  1
  Ir  Ir27  1  0.999287  0.999941  0.499772  1
