# generated using pymatgen
data_Sr4VNi8As7O32
_symmetry_space_group_name_H-M   'P 1'
_cell_length_a   8.35741304
_cell_length_b   9.68044554
_cell_length_c   9.67739675
_cell_angle_alpha   100.71611923
_cell_angle_beta   115.65700351
_cell_angle_gamma   64.35067785
_symmetry_Int_Tables_number   1
_chemical_formula_structural   Sr4VNi8As7O32
_chemical_formula_sum   'Sr4 V1 Ni8 As7 O32'
_cell_volume   636.19496587
_cell_formula_units_Z   1
loop_
 _symmetry_equiv_pos_site_id
 _symmetry_equiv_pos_as_xyz
  1  'x, y, z'
loop_
 _atom_site_type_symbol
 _atom_site_label
 _atom_site_symmetry_multiplicity
 _atom_site_fract_x
 _atom_site_fract_y
 _atom_site_fract_z
 _atom_site_occupancy
  Sr  Sr0  1  0.493821  0.001653  0.999844  1
  Sr  Sr1  1  0.995439  0.998786  0.999042  1
  Sr  Sr2  1  0.246913  0.499762  0.501755  1
  Sr  Sr3  1  0.744684  0.499621  0.499123  1
  V  V4  1  0.403282  0.321810  0.834669  1
  Ni  Ni5  1  0.100824  0.338083  0.004893  1
  Ni  Ni6  1  0.347578  0.502009  0.161852  1
  Ni  Ni7  1  0.936001  0.002737  0.337963  1
  Ni  Ni8  1  0.849187  0.838191  0.497938  1
  Ni  Ni9  1  0.187649  0.161049  0.500269  1
  Ni  Ni10  1  0.602294  0.995921  0.661734  1
  Ni  Ni11  1  0.689379  0.500251  0.838178  1
  Ni  Ni12  1  0.437710  0.661998  0.996888  1
  As  As13  1  0.890046  0.680299  0.168193  1
  As  As14  1  0.818337  0.332559  0.178253  1
  As  As15  1  0.390196  0.832526  0.320229  1
  As  As16  1  0.472485  0.179015  0.333660  1
  As  As17  1  0.319724  0.821550  0.666888  1
  As  As18  1  0.901979  0.167654  0.679582  1
  As  As19  1  0.974495  0.665561  0.820532  1
  O  O20  1  0.686123  0.674225  0.011177  1
  O  O21  1  0.865735  0.333360  0.020306  1
  O  O22  1  0.388897  0.846012  0.144830  1
  O  O23  1  0.888992  0.855370  0.154015  1
  O  O24  1  0.293304  0.166016  0.162851  1
  O  O25  1  0.095359  0.521435  0.168191  1
  O  O26  1  0.797811  0.161480  0.165536  1
  O  O27  1  0.607545  0.489044  0.171995  1
  O  O28  1  0.185603  0.988893  0.326727  1
  O  O29  1  0.382825  0.661251  0.332312  1
  O  O30  1  0.678827  0.020892  0.333649  1
  O  O31  1  0.882742  0.667680  0.339383  1
  O  O32  1  0.484602  0.354331  0.346802  1
  O  O33  1  0.992911  0.345638  0.353688  1
  O  O34  1  0.595984  0.832953  0.478861  1
  O  O35  1  0.425051  0.172456  0.490163  1
  O  O36  1  0.108711  0.827731  0.510619  1
  O  O37  1  0.948892  0.167099  0.520686  1
  O  O38  1  0.987736  0.651655  0.645361  1
  O  O39  1  0.494529  0.646797  0.652774  1
  O  O40  1  0.214344  0.328409  0.662134  1
  O  O41  1  0.366356  0.980046  0.666277  1
  O  O42  1  0.711031  0.339211  0.667338  1
  O  O43  1  0.848507  0.010742  0.672867  1
  O  O44  1  0.926189  0.509731  0.827153  1
  O  O45  1  0.795347  0.836752  0.831986  1
  O  O46  1  0.455643  0.480280  0.835589  1
  O  O47  1  0.300315  0.833758  0.838207  1
  O  O48  1  0.590310  0.144813  0.843481  1
  O  O49  1  0.090023  0.153917  0.855169  1
  O  O50  1  0.180111  0.666275  0.979094  1
  O  O51  1  0.340418  0.330709  0.989294  1
