# generated using pymatgen
data_Dy9Ho(Co2Rh)2
_symmetry_space_group_name_H-M   'P 1'
_cell_length_a   7.10456771
_cell_length_b   7.10456751
_cell_length_c   8.72727393
_cell_angle_alpha   114.01854860
_cell_angle_beta   114.01854669
_cell_angle_gamma   90.00000878
_symmetry_Int_Tables_number   1
_chemical_formula_structural   Dy9Ho(Co2Rh)2
_chemical_formula_sum   'Dy9 Ho1 Co4 Rh2'
_cell_volume   360.20779031
_cell_formula_units_Z   1
loop_
 _symmetry_equiv_pos_site_id
 _symmetry_equiv_pos_as_xyz
  1  'x, y, z'
loop_
 _atom_site_type_symbol
 _atom_site_label
 _atom_site_symmetry_multiplicity
 _atom_site_fract_x
 _atom_site_fract_y
 _atom_site_fract_z
 _atom_site_occupancy
  Dy  Dy0  1  0.000000  0.000000  0.000000  1
  Dy  Dy1  1  0.463893  0.318768  0.282397  1
  Dy  Dy2  1  0.963630  0.463893  0.282397  1
  Dy  Dy3  1  0.318768  0.818504  0.282397  1
  Dy  Dy4  1  0.818504  0.963630  0.282397  1
  Dy  Dy5  1  0.181495  0.036371  0.717602  1
  Dy  Dy6  1  0.681231  0.181495  0.717602  1
  Dy  Dy7  1  0.036371  0.536106  0.717602  1
  Dy  Dy8  1  0.536106  0.681231  0.717602  1
  Ho  Ho9  1  0.500000  0.500000  0.000000  1
  Co  Co10  1  0.612172  0.112582  0.000000  1
  Co  Co11  1  0.112582  0.387829  0.000000  1
  Co  Co12  1  0.887418  0.612172  0.000000  1
  Co  Co13  1  0.387829  0.887418  0.000000  1
  Rh  Rh14  1  0.250089  0.250089  0.500178  1
  Rh  Rh15  1  0.749911  0.749911  0.499822  1
