# generated using pymatgen
data_Sm3Er3Al19Si5Os8
_symmetry_space_group_name_H-M   'P 1'
_cell_length_a   8.72802200
_cell_length_b   8.71326929
_cell_length_c   9.62160400
_cell_angle_alpha   90.00000000
_cell_angle_beta   90.00000000
_cell_angle_gamma   120.05602418
_symmetry_Int_Tables_number   1
_chemical_formula_structural   Sm3Er3Al19Si5Os8
_chemical_formula_sum   'Sm3 Er3 Al19 Si5 Os8'
_cell_volume   633.32936728
_cell_formula_units_Z   1
loop_
 _symmetry_equiv_pos_site_id
 _symmetry_equiv_pos_as_xyz
  1  'x, y, z'
loop_
 _atom_site_type_symbol
 _atom_site_label
 _atom_site_symmetry_multiplicity
 _atom_site_fract_x
 _atom_site_fract_y
 _atom_site_fract_z
 _atom_site_occupancy
  Sm  Sm0  1  0.807555  0.615109  0.750000  1
  Sm  Sm1  1  0.386292  0.193188  0.750000  1
  Sm  Sm2  1  0.806898  0.193188  0.750000  1
  Er  Er3  1  0.195677  0.391356  0.250000  1
  Er  Er4  1  0.606279  0.805567  0.250000  1
  Er  Er5  1  0.199287  0.805567  0.250000  1
  Al  Al6  1  0.165161  0.330322  0.575718  1
  Al  Al7  1  0.835031  0.670061  0.420837  1
  Al  Al8  1  0.668919  0.834843  0.574369  1
  Al  Al9  1  0.835031  0.670061  0.079163  1
  Al  Al10  1  0.328472  0.165213  0.420968  1
  Al  Al11  1  0.165161  0.330322  0.924282  1
  Al  Al12  1  0.165925  0.834843  0.574369  1
  Al  Al13  1  0.328472  0.165213  0.079032  1
  Al  Al14  1  0.836741  0.165213  0.420968  1
  Al  Al15  1  0.668919  0.834843  0.925631  1
  Al  Al16  1  0.836741  0.165213  0.079032  1
  Al  Al17  1  0.165925  0.834843  0.925631  1
  Al  Al18  1  0.436225  0.872449  0.750000  1
  Al  Al19  1  0.873295  0.433720  0.250000  1
  Al  Al20  1  0.129158  0.565138  0.750000  1
  Al  Al21  1  0.560424  0.433720  0.250000  1
  Al  Al22  1  0.435979  0.565138  0.750000  1
  Al  Al23  1  0.999850  0.999700  0.250000  1
  Al  Al24  1  0.000496  0.000991  0.750000  1
  Si  Si25  1  0.332561  0.665123  0.039360  1
  Si  Si26  1  0.667398  0.334794  0.964795  1
  Si  Si27  1  0.667398  0.334794  0.535205  1
  Si  Si28  1  0.332561  0.665123  0.460640  1
  Si  Si29  1  0.563520  0.127041  0.250000  1
  Os  Os30  1  0.500047  0.000092  0.008502  1
  Os  Os31  1  0.000442  0.499720  0.002558  1
  Os  Os32  1  0.500047  0.000092  0.491498  1
  Os  Os33  1  0.499278  0.499720  0.002558  1
  Os  Os34  1  0.000442  0.499720  0.497442  1
  Os  Os35  1  0.499278  0.499720  0.497442  1
  Os  Os36  1  0.999560  0.999119  0.000524  1
  Os  Os37  1  0.999560  0.999119  0.499476  1
