# generated using pymatgen
data_CeUZn16Pt
_symmetry_space_group_name_H-M   'P 1'
_cell_length_a   6.85139530
_cell_length_b   6.85139440
_cell_length_c   6.82655806
_cell_angle_alpha   82.64849046
_cell_angle_beta   82.64849315
_cell_angle_gamma   82.94933525
_symmetry_Int_Tables_number   1
_chemical_formula_structural   CeUZn16Pt
_chemical_formula_sum   'Ce1 U1 Zn16 Pt1'
_cell_volume   313.35435957
_cell_formula_units_Z   1
loop_
 _symmetry_equiv_pos_site_id
 _symmetry_equiv_pos_as_xyz
  1  'x, y, z'
loop_
 _atom_site_type_symbol
 _atom_site_label
 _atom_site_symmetry_multiplicity
 _atom_site_fract_x
 _atom_site_fract_y
 _atom_site_fract_z
 _atom_site_occupancy
  Ce  Ce0  1  0.657093  0.657093  0.664732  1
  U  U1  1  0.337999  0.337999  0.334150  1
  Zn  Zn2  1  0.699252  0.298370  0.999692  1
  Zn  Zn3  1  0.001320  0.702189  0.297623  1
  Zn  Zn4  1  0.296319  0.003726  0.704064  1
  Zn  Zn5  1  0.003726  0.296319  0.704064  1
  Zn  Zn6  1  0.702189  0.001320  0.297623  1
  Zn  Zn7  1  0.298370  0.699252  0.999692  1
  Zn  Zn8  1  0.351748  0.843010  0.351136  1
  Zn  Zn9  1  0.843010  0.351748  0.351136  1
  Zn  Zn10  1  0.648149  0.161191  0.645324  1
  Zn  Zn11  1  0.647996  0.647996  0.162193  1
  Zn  Zn12  1  0.161191  0.648149  0.645324  1
  Zn  Zn13  1  0.000118  0.000118  0.500567  1
  Zn  Zn14  1  0.500146  0.999314  0.999422  1
  Zn  Zn15  1  0.999314  0.500146  0.999422  1
  Zn  Zn16  1  0.898823  0.898823  0.898886  1
  Zn  Zn17  1  0.102239  0.102239  0.101111  1
  Pt  Pt18  1  0.350999  0.350999  0.843840  1
