# generated using pymatgen
data_La3Tb6Dy7(CdNi)4
_symmetry_space_group_name_H-M   'P 1'
_cell_length_a   9.66452779
_cell_length_b   9.64778982
_cell_length_c   9.64779000
_cell_angle_alpha   59.99999938
_cell_angle_beta   60.05727355
_cell_angle_gamma   60.05726624
_symmetry_Int_Tables_number   1
_chemical_formula_structural   La3Tb6Dy7(CdNi)4
_chemical_formula_sum   'La3 Tb6 Dy7 Cd4 Ni4'
_cell_volume   636.64409136
_cell_formula_units_Z   1
loop_
 _symmetry_equiv_pos_site_id
 _symmetry_equiv_pos_as_xyz
  1  'x, y, z'
loop_
 _atom_site_type_symbol
 _atom_site_label
 _atom_site_symmetry_multiplicity
 _atom_site_fract_x
 _atom_site_fract_y
 _atom_site_fract_z
 _atom_site_occupancy
  La  La0  1  0.345770  0.350936  0.350936  1
  La  La1  1  0.345770  0.350936  0.952360  1
  La  La2  1  0.345770  0.952360  0.350936  1
  Tb  Tb3  1  0.933010  0.566428  0.566428  1
  Tb  Tb4  1  0.566329  0.933831  0.933831  1
  Tb  Tb5  1  0.566329  0.933831  0.566008  1
  Tb  Tb6  1  0.933010  0.566428  0.934134  1
  Tb  Tb7  1  0.566329  0.566008  0.933831  1
  Tb  Tb8  1  0.933010  0.934134  0.566428  1
  Dy  Dy9  1  0.947458  0.350848  0.350848  1
  Dy  Dy10  1  0.814592  0.186789  0.186789  1
  Dy  Dy11  1  0.186543  0.814432  0.814432  1
  Dy  Dy12  1  0.186543  0.814432  0.184594  1
  Dy  Dy13  1  0.814592  0.186789  0.811831  1
  Dy  Dy14  1  0.186543  0.184594  0.814432  1
  Dy  Dy15  1  0.814592  0.811831  0.186789  1
  Cd  Cd16  1  0.586539  0.580004  0.580004  1
  Cd  Cd17  1  0.586539  0.580004  0.253452  1
  Cd  Cd18  1  0.586539  0.253452  0.580004  1
  Cd  Cd19  1  0.254621  0.581793  0.581793  1
  Ni  Ni20  1  0.139015  0.141480  0.141480  1
  Ni  Ni21  1  0.139015  0.141480  0.578024  1
  Ni  Ni22  1  0.139015  0.578024  0.141480  1
  Ni  Ni23  1  0.582527  0.139158  0.139158  1
