# generated using pymatgen
data_Dy9ErSn5Sb
_symmetry_space_group_name_H-M   'P 1'
_cell_length_a   8.97783301
_cell_length_b   8.97062736
_cell_length_c   6.50606302
_cell_angle_alpha   89.99129774
_cell_angle_beta   90.00509789
_cell_angle_gamma   120.02775498
_symmetry_Int_Tables_number   1
_chemical_formula_structural   Dy9ErSn5Sb
_chemical_formula_sum   'Dy9 Er1 Sn5 Sb1'
_cell_volume   453.65082129
_cell_formula_units_Z   1
loop_
 _symmetry_equiv_pos_site_id
 _symmetry_equiv_pos_as_xyz
  1  'x, y, z'
loop_
 _atom_site_type_symbol
 _atom_site_label
 _atom_site_symmetry_multiplicity
 _atom_site_fract_x
 _atom_site_fract_y
 _atom_site_fract_z
 _atom_site_occupancy
  Dy  Dy0  1  0.998135  0.759861  0.749932  1
  Dy  Dy1  1  0.000749  0.239358  0.250066  1
  Dy  Dy2  1  0.761312  0.760723  0.250082  1
  Dy  Dy3  1  0.761480  0.999949  0.749944  1
  Dy  Dy4  1  0.238219  0.240195  0.749945  1
  Dy  Dy5  1  0.239286  0.999955  0.250049  1
  Dy  Dy6  1  0.667428  0.334258  0.000112  1
  Dy  Dy7  1  0.667418  0.334243  0.499893  1
  Dy  Dy8  1  0.333188  0.665748  0.000133  1
  Er  Er9  1  0.333194  0.665591  0.499782  1
  Sn  Sn10  1  0.395353  0.394999  0.250246  1
  Sn  Sn11  1  0.000983  0.605327  0.250260  1
  Sn  Sn12  1  0.000225  0.395646  0.749763  1
  Sn  Sn13  1  0.604274  0.604715  0.749758  1
  Sn  Sn14  1  0.605136  0.999700  0.250237  1
  Sb  Sb15  1  0.393618  0.999732  0.749799  1
