# generated using pymatgen
data_Ba2Si3GePd5
_symmetry_space_group_name_H-M   'P 1'
_cell_length_a   9.03523168
_cell_length_b   9.03523092
_cell_length_c   5.74552216
_cell_angle_alpha   90.02175047
_cell_angle_beta   89.97824555
_cell_angle_gamma   102.86115536
_symmetry_Int_Tables_number   1
_chemical_formula_structural   Ba2Si3GePd5
_chemical_formula_sum   'Ba4 Si6 Ge2 Pd10'
_cell_volume   457.27089946
_cell_formula_units_Z   2
loop_
 _symmetry_equiv_pos_site_id
 _symmetry_equiv_pos_as_xyz
  1  'x, y, z'
loop_
 _atom_site_type_symbol
 _atom_site_label
 _atom_site_symmetry_multiplicity
 _atom_site_fract_x
 _atom_site_fract_y
 _atom_site_fract_z
 _atom_site_occupancy
  Ba  Ba0  1  0.357469  0.644605  0.034628  1
  Ba  Ba1  1  0.644605  0.357469  0.965372  1
  Ba  Ba2  1  0.144614  0.856357  0.533676  1
  Ba  Ba3  1  0.856357  0.144614  0.466324  1
  Si  Si4  1  0.953173  0.704031  0.060152  1
  Si  Si5  1  0.704031  0.953173  0.939848  1
  Si  Si6  1  0.200479  0.447129  0.561019  1
  Si  Si7  1  0.447129  0.200479  0.438981  1
  Si  Si8  1  0.050933  0.296938  0.940186  1
  Si  Si9  1  0.296938  0.050933  0.059814  1
  Ge  Ge10  1  0.789373  0.543219  0.441856  1
  Ge  Ge11  1  0.543219  0.789373  0.558144  1
  Pd  Pd12  1  0.027536  0.480373  0.247108  1
  Pd  Pd13  1  0.480373  0.027536  0.752892  1
  Pd  Pd14  1  0.984335  0.521392  0.754868  1
  Pd  Pd15  1  0.521392  0.984335  0.245132  1
  Pd  Pd16  1  0.225513  0.270892  0.249888  1
  Pd  Pd17  1  0.270892  0.225513  0.750112  1
  Pd  Pd18  1  0.780119  0.733523  0.755261  1
  Pd  Pd19  1  0.733523  0.780119  0.244739  1
  Pd  Pd20  1  0.002949  0.002949  0.000000  1
  Pd  Pd21  1  0.485050  0.485050  0.500000  1
