# generated using pymatgen
data_NdDy11Fe2I17
_symmetry_space_group_name_H-M   'P 1'
_cell_length_a   9.77228028
_cell_length_b   11.82096669
_cell_length_c   11.73577345
_cell_angle_alpha   74.04482740
_cell_angle_beta   75.09887410
_cell_angle_gamma   65.37924664
_symmetry_Int_Tables_number   1
_chemical_formula_structural   NdDy11Fe2I17
_chemical_formula_sum   'Nd1 Dy11 Fe2 I17'
_cell_volume   1169.07801750
_cell_formula_units_Z   1
loop_
 _symmetry_equiv_pos_site_id
 _symmetry_equiv_pos_as_xyz
  1  'x, y, z'
loop_
 _atom_site_type_symbol
 _atom_site_label
 _atom_site_symmetry_multiplicity
 _atom_site_fract_x
 _atom_site_fract_y
 _atom_site_fract_z
 _atom_site_occupancy
  Nd  Nd0  1  0.140510  0.712347  0.154546  1
  Dy  Dy1  1  0.451700  0.494171  0.320864  1
  Dy  Dy2  1  0.546247  0.671709  0.013823  1
  Dy  Dy3  1  0.275037  0.979229  0.110399  1
  Dy  Dy4  1  0.855877  0.288602  0.845472  1
  Dy  Dy5  1  0.415544  0.241860  0.718994  1
  Dy  Dy6  1  0.723200  0.026806  0.887248  1
  Dy  Dy7  1  0.552043  0.498976  0.680018  1
  Dy  Dy8  1  0.458070  0.325944  0.980395  1
  Dy  Dy9  1  0.575931  0.757192  0.278063  1
  Dy  Dy10  1  0.815807  0.194595  0.590691  1
  Dy  Dy11  1  0.179462  0.808439  0.414889  1
  Fe  Fe12  1  0.360707  0.737007  0.213570  1
  Fe  Fe13  1  0.635727  0.262604  0.785229  1
  I  I14  1  0.056464  0.100851  0.327758  1
  I  I15  1  0.467333  0.947073  0.844002  1
  I  I16  1  0.429526  0.808564  0.535904  1
  I  I17  1  0.573173  0.189658  0.461079  1
  I  I18  1  0.831297  0.714008  0.045818  1
  I  I19  1  0.236050  0.410081  0.239347  1
  I  I20  1  0.689495  0.371530  0.102383  1
  I  I21  1  0.532939  0.048770  0.157315  1
  I  I22  1  0.742979  0.474208  0.414115  1
  I  I23  1  0.882847  0.788199  0.378837  1
  I  I24  1  0.949712  0.899977  0.674130  1
  I  I25  1  0.163173  0.287084  0.955526  1
  I  I26  1  0.315695  0.629538  0.894597  1
  I  I27  1  0.998870  0.004390  0.000459  1
  I  I28  1  0.114148  0.217309  0.631225  1
  I  I29  1  0.773838  0.581881  0.761800  1
  I  I30  1  0.256596  0.527395  0.581503  1
