# generated using pymatgen
data_TbEr5FeBi2
_symmetry_space_group_name_H-M   'P 1'
_cell_length_a   8.28681700
_cell_length_b   8.28047302
_cell_length_c   4.16395500
_cell_angle_alpha   90.00000000
_cell_angle_beta   90.00000000
_cell_angle_gamma   120.02534284
_symmetry_Int_Tables_number   1
_chemical_formula_structural   TbEr5FeBi2
_chemical_formula_sum   'Tb1 Er5 Fe1 Bi2'
_cell_volume   247.38228185
_cell_formula_units_Z   1
loop_
 _symmetry_equiv_pos_site_id
 _symmetry_equiv_pos_as_xyz
  1  'x, y, z'
loop_
 _atom_site_type_symbol
 _atom_site_label
 _atom_site_symmetry_multiplicity
 _atom_site_fract_x
 _atom_site_fract_y
 _atom_site_fract_z
 _atom_site_occupancy
  Tb  Tb0  1  0.609538  0.000000  0.000000  1
  Er  Er1  1  0.229749  0.000000  0.500000  1
  Er  Er2  1  0.000491  0.229969  0.500000  1
  Er  Er3  1  0.770522  0.770031  0.500000  1
  Er  Er4  1  0.999936  0.610117  0.000000  1
  Er  Er5  1  0.389819  0.389883  0.000000  1
  Fe  Fe6  1  0.000672  0.000000  0.000000  1
  Bi  Bi7  1  0.332598  0.665924  0.500000  1
  Bi  Bi8  1  0.666675  0.334076  0.500000  1
