# generated using pymatgen
data_Sm5Pb11
_symmetry_space_group_name_H-M   'P 1'
_cell_length_a   4.54770851
_cell_length_b   4.62833692
_cell_length_c   22.58497100
_cell_angle_alpha   95.88113960
_cell_angle_beta   95.77832552
_cell_angle_gamma   90.00000491
_symmetry_Int_Tables_number   1
_chemical_formula_structural   Sm5Pb11
_chemical_formula_sum   'Sm5 Pb11'
_cell_volume   470.44547133
_cell_formula_units_Z   1
loop_
 _symmetry_equiv_pos_site_id
 _symmetry_equiv_pos_as_xyz
  1  'x, y, z'
loop_
 _atom_site_type_symbol
 _atom_site_label
 _atom_site_symmetry_multiplicity
 _atom_site_fract_x
 _atom_site_fract_y
 _atom_site_fract_z
 _atom_site_occupancy
  Sm  Sm0  1  0.999981  0.000170  0.000030  1
  Sm  Sm1  1  0.619483  0.619117  0.236720  1
  Sm  Sm2  1  0.190832  0.691076  0.383669  1
  Sm  Sm3  1  0.808940  0.308603  0.616356  1
  Sm  Sm4  1  0.381192  0.380585  0.763291  1
  Pb  Pb5  1  0.499955  0.500129  0.000034  1
  Pb  Pb6  1  0.059977  0.559415  0.120100  1
  Pb  Pb7  1  0.560299  0.060292  0.121147  1
  Pb  Pb8  1  0.130039  0.129742  0.260837  1
  Pb  Pb9  1  0.680921  0.181093  0.361796  1
  Pb  Pb10  1  0.248968  0.248769  0.499189  1
  Pb  Pb11  1  0.750371  0.750829  0.500790  1
  Pb  Pb12  1  0.319341  0.818506  0.638133  1
  Pb  Pb13  1  0.869973  0.869859  0.739105  1
  Pb  Pb14  1  0.439775  0.940487  0.878875  1
  Pb  Pb15  1  0.939956  0.441332  0.879927  1
