# generated using pymatgen
data_Y8AgHgRh2
_symmetry_space_group_name_H-M   'P 1'
_cell_length_a   9.61036179
_cell_length_b   9.61036248
_cell_length_c   9.61014400
_cell_angle_alpha   60.00075889
_cell_angle_beta   60.00075654
_cell_angle_gamma   59.95698681
_symmetry_Int_Tables_number   1
_chemical_formula_structural   Y8AgHgRh2
_chemical_formula_sum   'Y16 Ag2 Hg2 Rh4'
_cell_volume   627.41947929
_cell_formula_units_Z   2
loop_
 _symmetry_equiv_pos_site_id
 _symmetry_equiv_pos_as_xyz
  1  'x, y, z'
loop_
 _atom_site_type_symbol
 _atom_site_label
 _atom_site_symmetry_multiplicity
 _atom_site_fract_x
 _atom_site_fract_y
 _atom_site_fract_z
 _atom_site_occupancy
  Y  Y0  1  0.602098  0.602098  0.602568  1
  Y  Y1  1  0.602098  0.602098  0.193237  1
  Y  Y2  1  0.601149  0.195170  0.601841  1
  Y  Y3  1  0.195170  0.601149  0.601841  1
  Y  Y4  1  0.060516  0.438410  0.439907  1
  Y  Y5  1  0.438410  0.060516  0.061167  1
  Y  Y6  1  0.438410  0.060516  0.439907  1
  Y  Y7  1  0.060516  0.438410  0.061167  1
  Y  Y8  1  0.439592  0.439592  0.060408  1
  Y  Y9  1  0.061515  0.061515  0.438485  1
  Y  Y10  1  0.185239  0.813362  0.814094  1
  Y  Y11  1  0.813362  0.185239  0.187306  1
  Y  Y12  1  0.813362  0.185239  0.814094  1
  Y  Y13  1  0.185239  0.813362  0.187306  1
  Y  Y14  1  0.812306  0.812306  0.187694  1
  Y  Y15  1  0.185495  0.185495  0.814505  1
  Ag  Ag16  1  0.834022  0.834022  0.830280  1
  Ag  Ag17  1  0.834022  0.834022  0.501675  1
  Hg  Hg18  1  0.837338  0.497668  0.832496  1
  Hg  Hg19  1  0.497668  0.837338  0.832496  1
  Rh  Rh20  1  0.393494  0.393494  0.391148  1
  Rh  Rh21  1  0.393494  0.393494  0.821865  1
  Rh  Rh22  1  0.394200  0.821287  0.392257  1
  Rh  Rh23  1  0.821287  0.394200  0.392257  1
