# generated using pymatgen
data_Tb2Y2BS3
_symmetry_space_group_name_H-M   'P 1'
_cell_length_a   6.76733467
_cell_length_b   6.76733463
_cell_length_c   6.76733501
_cell_angle_alpha   131.94199402
_cell_angle_beta   131.94198955
_cell_angle_gamma   70.32065619
_symmetry_Int_Tables_number   1
_chemical_formula_structural   Tb2Y2BS3
_chemical_formula_sum   'Tb2 Y2 B1 S3'
_cell_volume   168.04961274
_cell_formula_units_Z   1
loop_
 _symmetry_equiv_pos_site_id
 _symmetry_equiv_pos_as_xyz
  1  'x, y, z'
loop_
 _atom_site_type_symbol
 _atom_site_label
 _atom_site_symmetry_multiplicity
 _atom_site_fract_x
 _atom_site_fract_y
 _atom_site_fract_z
 _atom_site_occupancy
  Tb  Tb0  1  0.234731  0.234731  0.000000  1
  Tb  Tb1  1  0.765269  0.765269  0.000000  1
  Y  Y2  1  0.500000  0.000000  0.500000  1
  Y  Y3  1  0.000000  0.500000  0.500000  1
  B  B4  1  0.000000  0.000000  0.000000  1
  S  S5  1  0.750000  0.250000  0.500000  1
  S  S6  1  0.250000  0.750000  0.500000  1
  S  S7  1  0.500000  0.500000  0.000000  1
