# generated using pymatgen
data_Dy2ScGa5Co
_symmetry_space_group_name_H-M   'P 1'
_cell_length_a   6.78588200
_cell_length_b   6.78588390
_cell_length_c   4.17840600
_cell_angle_alpha   90.00000000
_cell_angle_beta   90.00000000
_cell_angle_gamma   118.76754891
_symmetry_Int_Tables_number   1
_chemical_formula_structural   Dy2ScGa5Co
_chemical_formula_sum   'Dy2 Sc1 Ga5 Co1'
_cell_volume   168.66098117
_cell_formula_units_Z   1
loop_
 _symmetry_equiv_pos_site_id
 _symmetry_equiv_pos_as_xyz
  1  'x, y, z'
loop_
 _atom_site_type_symbol
 _atom_site_label
 _atom_site_symmetry_multiplicity
 _atom_site_fract_x
 _atom_site_fract_y
 _atom_site_fract_z
 _atom_site_occupancy
  Dy  Dy0  1  0.595055  0.997677  0.000000  1
  Dy  Dy1  1  0.997677  0.595055  0.000000  1
  Sc  Sc2  1  0.389546  0.389546  0.000000  1
  Ga  Ga3  1  0.233843  0.000549  0.500000  1
  Ga  Ga4  1  0.000549  0.233843  0.500000  1
  Ga  Ga5  1  0.769833  0.769833  0.500000  1
  Ga  Ga6  1  0.338227  0.657225  0.500000  1
  Ga  Ga7  1  0.657225  0.338227  0.500000  1
  Co  Co8  1  0.018045  0.018045  0.000000  1
