# generated using pymatgen
data_Zr6Ni5P12Ru13
_symmetry_space_group_name_H-M   'P 1'
_cell_length_a   3.85279400
_cell_length_b   10.57221249
_cell_length_c   12.46215581
_cell_angle_alpha   89.73122702
_cell_angle_beta   90.00139464
_cell_angle_gamma   90.00126032
_symmetry_Int_Tables_number   1
_chemical_formula_structural   Zr6Ni5P12Ru13
_chemical_formula_sum   'Zr6 Ni5 P12 Ru13'
_cell_volume   507.60988434
_cell_formula_units_Z   1
loop_
 _symmetry_equiv_pos_site_id
 _symmetry_equiv_pos_as_xyz
  1  'x, y, z'
loop_
 _atom_site_type_symbol
 _atom_site_label
 _atom_site_symmetry_multiplicity
 _atom_site_fract_x
 _atom_site_fract_y
 _atom_site_fract_z
 _atom_site_occupancy
  Zr  Zr0  1  0.751900  0.000650  0.473042  1
  Zr  Zr1  1  0.251894  0.499599  0.528674  1
  Zr  Zr2  1  0.251836  0.677504  0.787494  1
  Zr  Zr3  1  0.251816  0.322733  0.788592  1
  Zr  Zr4  1  0.751840  0.823131  0.211335  1
  Zr  Zr5  1  0.751823  0.177365  0.208937  1
  Ni  Ni6  1  0.251681  0.822676  0.012107  1
  Ni  Ni7  1  0.751723  0.337240  0.984549  1
  Ni  Ni8  1  0.751655  0.672518  0.985864  1
  Ni  Ni9  1  0.251865  0.999999  0.297319  1
  Ni  Ni10  1  0.751813  0.499974  0.701363  1
  P  P11  1  0.251913  0.179682  0.382364  1
  P  P12  1  0.251909  0.820122  0.382140  1
  P  P13  1  0.751887  0.318858  0.618093  1
  P  P14  1  0.751913  0.680459  0.616704  1
  P  P15  1  0.251778  0.998165  0.125862  1
  P  P16  1  0.751750  0.503651  0.872167  1
  P  P17  1  0.251783  0.655193  0.110734  1
  P  P18  1  0.251691  0.348523  0.112173  1
  P  P19  1  0.751750  0.841749  0.887952  1
  P  P20  1  0.751732  0.156971  0.895360  1
  P  P21  1  0.251872  0.999190  0.651585  1
  P  P22  1  0.751895  0.500564  0.349515  1
  Ru  Ru23  1  0.751750  0.990932  0.017740  1
  Ru  Ru24  1  0.251765  0.501863  0.982051  1
  Ru  Ru25  1  0.251906  0.196658  0.569316  1
  Ru  Ru26  1  0.251883  0.802087  0.567371  1
  Ru  Ru27  1  0.751795  0.302267  0.432350  1
  Ru  Ru28  1  0.751919  0.697404  0.431717  1
  Ru  Ru29  1  0.251854  0.628026  0.287568  1
  Ru  Ru30  1  0.251868  0.373628  0.288317  1
  Ru  Ru31  1  0.751954  0.872191  0.711593  1
  Ru  Ru32  1  0.751851  0.128597  0.717224  1
  Ru  Ru33  1  0.251726  0.173320  0.010863  1
  Ru  Ru34  1  0.251794  0.991859  0.844580  1
  Ru  Ru35  1  0.751820  0.504650  0.155385  1
