# generated using pymatgen
data_YbErIrO6
_symmetry_space_group_name_H-M   'P 1'
_cell_length_a   5.26745081
_cell_length_b   9.10921416
_cell_length_c   9.82505800
_cell_angle_alpha   90.00000000
_cell_angle_beta   90.00000000
_cell_angle_gamma   90.09524430
_symmetry_Int_Tables_number   1
_chemical_formula_structural   YbErIrO6
_chemical_formula_sum   'Yb4 Er4 Ir4 O24'
_cell_volume   471.42859776
_cell_formula_units_Z   4
loop_
 _symmetry_equiv_pos_site_id
 _symmetry_equiv_pos_as_xyz
  1  'x, y, z'
loop_
 _atom_site_type_symbol
 _atom_site_label
 _atom_site_symmetry_multiplicity
 _atom_site_fract_x
 _atom_site_fract_y
 _atom_site_fract_z
 _atom_site_occupancy
  Yb  Yb0  1  0.023794  0.403757  0.032019  1
  Yb  Yb1  1  0.042847  0.279777  0.626556  1
  Yb  Yb2  1  0.457153  0.720223  0.126556  1
  Yb  Yb3  1  0.476206  0.596243  0.532019  1
  Er  Er4  1  0.524018  0.101168  0.969642  1
  Er  Er5  1  0.541704  0.219332  0.373577  1
  Er  Er6  1  0.958296  0.780668  0.873577  1
  Er  Er7  1  0.975982  0.898832  0.469642  1
  Ir  Ir8  1  0.042333  0.003160  0.148505  1
  Ir  Ir9  1  0.457667  0.996840  0.648505  1
  Ir  Ir10  1  0.548592  0.496737  0.851323  1
  Ir  Ir11  1  0.951408  0.503263  0.351323  1
  O  O12  1  0.063326  0.653169  0.475066  1
  O  O13  1  0.154441  0.561488  0.206742  1
  O  O14  1  0.175648  0.856937  0.266811  1
  O  O15  1  0.167152  0.869060  0.682961  1
  O  O16  1  0.230795  0.386209  0.420248  1
  O  O17  1  0.254436  0.085681  0.499971  1
  O  O18  1  0.245564  0.914319  0.999971  1
  O  O19  1  0.269205  0.613791  0.920248  1
  O  O20  1  0.332848  0.130940  0.182961  1
  O  O21  1  0.324352  0.143063  0.766811  1
  O  O22  1  0.345559  0.438512  0.706742  1
  O  O23  1  0.436674  0.346831  0.975066  1
  O  O24  1  0.579168  0.842359  0.531800  1
  O  O25  1  0.662969  0.941372  0.801282  1
  O  O26  1  0.695327  0.640930  0.735349  1
  O  O27  1  0.679988  0.631914  0.316508  1
  O  O28  1  0.732237  0.110036  0.569835  1
  O  O29  1  0.749479  0.404325  0.491806  1
  O  O30  1  0.750521  0.595675  0.991806  1
  O  O31  1  0.767763  0.889964  0.069835  1
  O  O32  1  0.820012  0.368086  0.816508  1
  O  O33  1  0.804673  0.359070  0.235349  1
  O  O34  1  0.837031  0.058628  0.301282  1
  O  O35  1  0.920832  0.157641  0.031800  1
