# generated using pymatgen
data_Dy5P12Ir16W3
_symmetry_space_group_name_H-M   'P 1'
_cell_length_a   12.68825700
_cell_length_b   12.68825684
_cell_length_c   3.99490800
_cell_angle_alpha   90.00000000
_cell_angle_beta   90.00000000
_cell_angle_gamma   119.99999780
_symmetry_Int_Tables_number   1
_chemical_formula_structural   Dy5P12Ir16W3
_chemical_formula_sum   'Dy5 P12 Ir16 W3'
_cell_volume   556.98224533
_cell_formula_units_Z   1
loop_
 _symmetry_equiv_pos_site_id
 _symmetry_equiv_pos_as_xyz
  1  'x, y, z'
loop_
 _atom_site_type_symbol
 _atom_site_label
 _atom_site_symmetry_multiplicity
 _atom_site_fract_x
 _atom_site_fract_y
 _atom_site_fract_z
 _atom_site_occupancy
  Dy  Dy0  1  0.333333  0.666667  0.500000  1
  Dy  Dy1  1  0.666667  0.333333  0.500000  1
  Dy  Dy2  1  0.000000  0.812428  0.000000  1
  Dy  Dy3  1  0.187572  0.187572  0.000000  1
  Dy  Dy4  1  0.812428  0.000000  0.000000  1
  P  P5  1  0.000000  0.639730  0.500000  1
  P  P6  1  0.360270  0.360270  0.500000  1
  P  P7  1  0.639730  0.000000  0.500000  1
  P  P8  1  0.516429  0.685220  0.000000  1
  P  P9  1  0.314780  0.831210  0.000000  1
  P  P10  1  0.168790  0.483571  0.000000  1
  P  P11  1  0.483571  0.168790  0.000000  1
  P  P12  1  0.685220  0.516429  0.000000  1
  P  P13  1  0.831210  0.314780  0.000000  1
  P  P14  1  0.000000  0.176246  0.500000  1
  P  P15  1  0.823754  0.823754  0.500000  1
  P  P16  1  0.176246  0.000000  0.500000  1
  Ir  Ir17  1  0.508004  0.866768  0.000000  1
  Ir  Ir18  1  0.133232  0.641237  0.000000  1
  Ir  Ir19  1  0.358763  0.491996  0.000000  1
  Ir  Ir20  1  0.491996  0.358763  0.000000  1
  Ir  Ir21  1  0.866768  0.508004  0.000000  1
  Ir  Ir22  1  0.641237  0.133232  0.000000  1
  Ir  Ir23  1  0.000000  0.287183  0.000000  1
  Ir  Ir24  1  0.712817  0.712817  0.000000  1
  Ir  Ir25  1  0.287183  0.000000  0.000000  1
  Ir  Ir26  1  0.625118  0.803439  0.500000  1
  Ir  Ir27  1  0.196561  0.821679  0.500000  1
  Ir  Ir28  1  0.178321  0.374882  0.500000  1
  Ir  Ir29  1  0.374882  0.178321  0.500000  1
  Ir  Ir30  1  0.803439  0.625118  0.500000  1
  Ir  Ir31  1  0.821679  0.196561  0.500000  1
  Ir  Ir32  1  0.000000  0.000000  0.500000  1
  W  W33  1  0.000000  0.453945  0.500000  1
  W  W34  1  0.546055  0.546055  0.500000  1
  W  W35  1  0.453945  0.000000  0.500000  1
