# generated using pymatgen
data_TbEr2Co8P6Ru
_symmetry_space_group_name_H-M   'P 1'
_cell_length_a   3.69906400
_cell_length_b   10.51665400
_cell_length_c   12.24282300
_cell_angle_alpha   90.00000000
_cell_angle_beta   90.00000000
_cell_angle_gamma   90.00000000
_symmetry_Int_Tables_number   1
_chemical_formula_structural   TbEr2Co8P6Ru
_chemical_formula_sum   'Tb2 Er4 Co16 P12 Ru2'
_cell_volume   476.26756055
_cell_formula_units_Z   2
loop_
 _symmetry_equiv_pos_site_id
 _symmetry_equiv_pos_as_xyz
  1  'x, y, z'
loop_
 _atom_site_type_symbol
 _atom_site_label
 _atom_site_symmetry_multiplicity
 _atom_site_fract_x
 _atom_site_fract_y
 _atom_site_fract_z
 _atom_site_occupancy
  Tb  Tb0  1  0.000000  0.500000  0.524397  1
  Tb  Tb1  1  0.500000  0.000000  0.475603  1
  Er  Er2  1  0.500000  0.817002  0.206613  1
  Er  Er3  1  0.500000  0.182998  0.206613  1
  Er  Er4  1  0.000000  0.682998  0.793387  1
  Er  Er5  1  0.000000  0.317002  0.793387  1
  Co  Co6  1  0.500000  0.500000  0.704724  1
  Co  Co7  1  0.000000  0.000000  0.295276  1
  Co  Co8  1  0.000000  0.500000  0.985926  1
  Co  Co9  1  0.500000  0.000000  0.014074  1
  Co  Co10  1  0.500000  0.332341  0.990504  1
  Co  Co11  1  0.500000  0.667659  0.990504  1
  Co  Co12  1  0.000000  0.167659  0.009496  1
  Co  Co13  1  0.000000  0.832341  0.009496  1
  Co  Co14  1  0.500000  0.296945  0.430654  1
  Co  Co15  1  0.500000  0.703055  0.430654  1
  Co  Co16  1  0.000000  0.203055  0.569346  1
  Co  Co17  1  0.000000  0.796945  0.569346  1
  Co  Co18  1  0.500000  0.878715  0.708452  1
  Co  Co19  1  0.500000  0.121285  0.708452  1
  Co  Co20  1  0.000000  0.621285  0.291548  1
  Co  Co21  1  0.000000  0.378715  0.291548  1
  P  P22  1  0.500000  0.500000  0.881513  1
  P  P23  1  0.000000  0.000000  0.118487  1
  P  P24  1  0.500000  0.500000  0.349574  1
  P  P25  1  0.000000  0.000000  0.650426  1
  P  P26  1  0.500000  0.311064  0.616715  1
  P  P27  1  0.500000  0.688936  0.616715  1
  P  P28  1  0.000000  0.188936  0.383285  1
  P  P29  1  0.000000  0.811064  0.383285  1
  P  P30  1  0.500000  0.845965  0.893101  1
  P  P31  1  0.500000  0.154035  0.893101  1
  P  P32  1  0.000000  0.654035  0.106899  1
  P  P33  1  0.000000  0.345965  0.106899  1
  Ru  Ru34  1  0.500000  0.500000  0.158843  1
  Ru  Ru35  1  0.000000  0.000000  0.841157  1
