# generated using pymatgen
data_Pr(Y3In2)3
_symmetry_space_group_name_H-M   'P 1'
_cell_length_a   9.22705334
_cell_length_b   9.22705155
_cell_length_c   9.24318201
_cell_angle_alpha   96.30039769
_cell_angle_beta   96.40942257
_cell_angle_gamma   141.09965791
_symmetry_Int_Tables_number   1
_chemical_formula_structural   Pr(Y3In2)3
_chemical_formula_sum   'Pr1 Y9 In6'
_cell_volume   466.07851413
_cell_formula_units_Z   1
loop_
 _symmetry_equiv_pos_site_id
 _symmetry_equiv_pos_as_xyz
  1  'x, y, z'
loop_
 _atom_site_type_symbol
 _atom_site_label
 _atom_site_symmetry_multiplicity
 _atom_site_fract_x
 _atom_site_fract_y
 _atom_site_fract_z
 _atom_site_occupancy
  Pr  Pr0  1  0.083724  0.780037  0.863761  1
  Y  Y1  1  0.716578  0.419235  0.135812  1
  Y  Y2  1  0.283902  0.581234  0.865135  1
  Y  Y3  1  0.582616  0.716805  0.299419  1
  Y  Y4  1  0.216158  0.082815  0.298973  1
  Y  Y5  1  0.916565  0.216757  0.133322  1
  Y  Y6  1  0.750286  0.249417  0.499213  1
  Y  Y7  1  0.249796  0.748927  0.499213  1
  Y  Y8  1  0.783009  0.919271  0.702281  1
  Y  Y9  1  0.416673  0.284571  0.701245  1
  In  In10  1  0.837121  0.660198  0.497320  1
  In  In11  1  0.341889  0.839056  0.180944  1
  In  In12  1  0.749844  0.752102  0.000996  1
  In  In13  1  0.661961  0.160227  0.822189  1
  In  In14  1  0.160986  0.338196  0.499184  1
  In  In15  1  0.248893  0.251150  0.000996  1
