# generated using pymatgen
data_Dy10Er2Co3Si8Ni
_symmetry_space_group_name_H-M   'P 1'
_cell_length_a   4.08598900
_cell_length_b   11.14359466
_cell_length_c   11.31053135
_cell_angle_alpha   90.08573788
_cell_angle_beta   90.00000000
_cell_angle_gamma   90.00000000
_symmetry_Int_Tables_number   1
_chemical_formula_structural   Dy10Er2Co3Si8Ni
_chemical_formula_sum   'Dy10 Er2 Co3 Si8 Ni1'
_cell_volume   514.99738225
_cell_formula_units_Z   1
loop_
 _symmetry_equiv_pos_site_id
 _symmetry_equiv_pos_as_xyz
  1  'x, y, z'
loop_
 _atom_site_type_symbol
 _atom_site_label
 _atom_site_symmetry_multiplicity
 _atom_site_fract_x
 _atom_site_fract_y
 _atom_site_fract_z
 _atom_site_occupancy
  Dy  Dy0  1  0.250000  0.060117  0.880868  1
  Dy  Dy1  1  0.250000  0.441112  0.382094  1
  Dy  Dy2  1  0.250000  0.124785  0.556409  1
  Dy  Dy3  1  0.250000  0.373392  0.057442  1
  Dy  Dy4  1  0.750000  0.872409  0.442378  1
  Dy  Dy5  1  0.750000  0.624915  0.944364  1
  Dy  Dy6  1  0.250000  0.802171  0.715740  1
  Dy  Dy7  1  0.250000  0.701026  0.219251  1
  Dy  Dy8  1  0.750000  0.199116  0.281996  1
  Dy  Dy9  1  0.750000  0.300712  0.782845  1
  Er  Er10  1  0.750000  0.943379  0.117397  1
  Er  Er11  1  0.750000  0.557360  0.618508  1
  Co  Co12  1  0.250000  0.364560  0.631043  1
  Co  Co13  1  0.250000  0.134851  0.130093  1
  Co  Co14  1  0.750000  0.632963  0.371155  1
  Si  Si15  1  0.250000  0.816234  0.975927  1
  Si  Si16  1  0.250000  0.683149  0.477126  1
  Si  Si17  1  0.750000  0.183596  0.024281  1
  Si  Si18  1  0.750000  0.316135  0.525359  1
  Si  Si19  1  0.250000  0.496067  0.801122  1
  Si  Si20  1  0.250000  0.003554  0.300286  1
  Si  Si21  1  0.750000  0.506391  0.197675  1
  Si  Si22  1  0.750000  0.995458  0.695773  1
  Ni  Ni23  1  0.750000  0.866551  0.870866  1
