# generated using pymatgen
data_LiLaSiSn
_symmetry_space_group_name_H-M   'P 1'
_cell_length_a   9.60682025
_cell_length_b   9.60681907
_cell_length_c   4.24234300
_cell_angle_alpha   90.00000000
_cell_angle_beta   90.00000000
_cell_angle_gamma   152.85450713
_symmetry_Int_Tables_number   1
_chemical_formula_structural   LiLaSiSn
_chemical_formula_sum   'Li2 La2 Si2 Sn2'
_cell_volume   178.63619068
_cell_formula_units_Z   2
loop_
 _symmetry_equiv_pos_site_id
 _symmetry_equiv_pos_as_xyz
  1  'x, y, z'
loop_
 _atom_site_type_symbol
 _atom_site_label
 _atom_site_symmetry_multiplicity
 _atom_site_fract_x
 _atom_site_fract_y
 _atom_site_fract_z
 _atom_site_occupancy
  Li  Li0  1  0.663624  0.336376  0.250000  1
  Li  Li1  1  0.336376  0.663624  0.750000  1
  La  La2  1  0.905172  0.094828  0.250000  1
  La  La3  1  0.094828  0.905173  0.750000  1
  Si  Si4  1  0.532586  0.467414  0.250000  1
  Si  Si5  1  0.467414  0.532586  0.750000  1
  Sn  Sn6  1  0.247552  0.752448  0.250000  1
  Sn  Sn7  1  0.752448  0.247552  0.750000  1
