# generated using pymatgen
data_TbHo3GeBr6
_symmetry_space_group_name_H-M   'P 1'
_cell_length_a   4.06243000
_cell_length_b   13.22862710
_cell_length_c   14.02262054
_cell_angle_alpha   90.12294116
_cell_angle_beta   90.00000000
_cell_angle_gamma   90.00000000
_symmetry_Int_Tables_number   1
_chemical_formula_structural   TbHo3GeBr6
_chemical_formula_sum   'Tb2 Ho6 Ge2 Br12'
_cell_volume   753.57910341
_cell_formula_units_Z   2
loop_
 _symmetry_equiv_pos_site_id
 _symmetry_equiv_pos_as_xyz
  1  'x, y, z'
loop_
 _atom_site_type_symbol
 _atom_site_label
 _atom_site_symmetry_multiplicity
 _atom_site_fract_x
 _atom_site_fract_y
 _atom_site_fract_z
 _atom_site_occupancy
  Tb  Tb0  1  0.000000  0.619427  0.920708  1
  Tb  Tb1  1  0.000000  0.380573  0.079292  1
  Ho  Ho2  1  0.500000  0.118235  0.340869  1
  Ho  Ho3  1  0.500000  0.881765  0.659131  1
  Ho  Ho4  1  0.500000  0.618514  0.159342  1
  Ho  Ho5  1  0.500000  0.381486  0.840658  1
  Ho  Ho6  1  0.000000  0.118109  0.578436  1
  Ho  Ho7  1  0.000000  0.881891  0.421564  1
  Ge  Ge8  1  0.500000  0.000000  0.500000  1
  Ge  Ge9  1  0.500000  0.500000  0.000000  1
  Br  Br10  1  0.500000  0.242293  0.164187  1
  Br  Br11  1  0.500000  0.757707  0.835813  1
  Br  Br12  1  0.500000  0.744858  0.337398  1
  Br  Br13  1  0.500000  0.255142  0.662602  1
  Br  Br14  1  0.000000  0.254754  0.411351  1
  Br  Br15  1  0.000000  0.745246  0.588649  1
  Br  Br16  1  0.000000  0.755375  0.090127  1
  Br  Br17  1  0.000000  0.244625  0.909873  1
  Br  Br18  1  0.000000  0.001894  0.243640  1
  Br  Br19  1  0.000000  0.998106  0.756360  1
  Br  Br20  1  0.000000  0.503412  0.257504  1
  Br  Br21  1  0.000000  0.496588  0.742496  1
