# generated using pymatgen
data_YPa3(SnPt2)2
_symmetry_space_group_name_H-M   'P 1'
_cell_length_a   7.79774947
_cell_length_b   7.79774947
_cell_length_c   3.70760200
_cell_angle_alpha   90.00000000
_cell_angle_beta   90.00000000
_cell_angle_gamma   90.69994938
_symmetry_Int_Tables_number   1
_chemical_formula_structural   YPa3(SnPt2)2
_chemical_formula_sum   'Y1 Pa3 Sn2 Pt4'
_cell_volume   225.42353457
_cell_formula_units_Z   1
loop_
 _symmetry_equiv_pos_site_id
 _symmetry_equiv_pos_as_xyz
  1  'x, y, z'
loop_
 _atom_site_type_symbol
 _atom_site_label
 _atom_site_symmetry_multiplicity
 _atom_site_fract_x
 _atom_site_fract_y
 _atom_site_fract_z
 _atom_site_occupancy
  Y  Y0  1  0.674184  0.825816  0.500001  1
  Pa  Pa1  1  0.329511  0.170488  0.500001  1
  Pa  Pa2  1  0.825798  0.326627  0.500001  1
  Pa  Pa3  1  0.173372  0.674202  0.500001  1
  Sn  Sn4  1  0.991629  0.996256  0.000000  1
  Sn  Sn5  1  0.503744  0.508371  0.000000  1
  Pt  Pt6  1  0.624086  0.138410  0.000000  1
  Pt  Pt7  1  0.134654  0.365345  0.000000  1
  Pt  Pt8  1  0.881431  0.618569  0.000000  1
  Pt  Pt9  1  0.361589  0.875914  0.000000  1
