# generated using pymatgen
data_Zr8In4PdPt6Au
_symmetry_space_group_name_H-M   'P 1'
_cell_length_a   7.58862182
_cell_length_b   7.58862226
_cell_length_c   6.93868998
_cell_angle_alpha   89.97221809
_cell_angle_beta   90.02777664
_cell_angle_gamma   90.07565047
_symmetry_Int_Tables_number   1
_chemical_formula_structural   Zr8In4PdPt6Au
_chemical_formula_sum   'Zr8 In4 Pd1 Pt6 Au1'
_cell_volume   399.57917777
_cell_formula_units_Z   1
loop_
 _symmetry_equiv_pos_site_id
 _symmetry_equiv_pos_as_xyz
  1  'x, y, z'
loop_
 _atom_site_type_symbol
 _atom_site_label
 _atom_site_symmetry_multiplicity
 _atom_site_fract_x
 _atom_site_fract_y
 _atom_site_fract_z
 _atom_site_occupancy
  Zr  Zr0  1  0.149149  0.154832  0.006040  1
  Zr  Zr1  1  0.845168  0.850851  0.006040  1
  Zr  Zr2  1  0.651497  0.348503  0.499590  1
  Zr  Zr3  1  0.353844  0.646156  0.494291  1
  Zr  Zr4  1  0.685335  0.314665  0.001900  1
  Zr  Zr5  1  0.317357  0.682643  0.003430  1
  Zr  Zr6  1  0.808532  0.812120  0.495583  1
  Zr  Zr7  1  0.187880  0.191468  0.495583  1
  In  In8  1  0.497761  0.000639  0.250394  1
  In  In9  1  0.503924  0.001184  0.751630  1
  In  In10  1  0.999361  0.502239  0.250394  1
  In  In11  1  0.998816  0.496076  0.751630  1
  Pd  Pd12  1  0.869991  0.130009  0.714955  1
  Pt  Pt13  1  0.370631  0.368893  0.215208  1
  Pt  Pt14  1  0.631705  0.630641  0.784502  1
  Pt  Pt15  1  0.631107  0.629369  0.215208  1
  Pt  Pt16  1  0.868790  0.131210  0.285132  1
  Pt  Pt17  1  0.369359  0.368295  0.784502  1
  Pt  Pt18  1  0.130242  0.869758  0.282736  1
  Au  Au19  1  0.129546  0.870454  0.711248  1
