# generated using pymatgen
data_La3Al4CuSi3Ni2
_symmetry_space_group_name_H-M   'P 1'
_cell_length_a   13.90588441
_cell_length_b   13.90588371
_cell_length_c   4.24372600
_cell_angle_alpha   90.00000000
_cell_angle_beta   90.00000000
_cell_angle_gamma   162.71919836
_symmetry_Int_Tables_number   1
_chemical_formula_structural   La3Al4CuSi3Ni2
_chemical_formula_sum   'La3 Al4 Cu1 Si3 Ni2'
_cell_volume   243.77059914
_cell_formula_units_Z   1
loop_
 _symmetry_equiv_pos_site_id
 _symmetry_equiv_pos_as_xyz
  1  'x, y, z'
loop_
 _atom_site_type_symbol
 _atom_site_label
 _atom_site_symmetry_multiplicity
 _atom_site_fract_x
 _atom_site_fract_y
 _atom_site_fract_z
 _atom_site_occupancy
  La  La0  1  0.004920  0.995080  0.000000  1
  La  La1  1  0.689652  0.310348  0.500000  1
  La  La2  1  0.313824  0.686176  0.500000  1
  Al  Al3  1  0.595155  0.404845  0.000000  1
  Al  Al4  1  0.409817  0.590183  0.000000  1
  Al  Al5  1  0.909649  0.090351  0.500000  1
  Al  Al6  1  0.095737  0.904263  0.500000  1
  Cu  Cu7  1  0.857051  0.142949  0.000000  1
  Si  Si8  1  0.771038  0.228962  0.000000  1
  Si  Si9  1  0.226079  0.773921  0.000000  1
  Si  Si10  1  0.534781  0.465219  0.500000  1
  Ni  Ni11  1  0.139234  0.860766  0.000000  1
  Ni  Ni12  1  0.453065  0.546935  0.500000  1
