# generated using pymatgen
data_K6HoErF12
_symmetry_space_group_name_H-M   'P 1'
_cell_length_a   6.61363901
_cell_length_b   6.38519167
_cell_length_c   11.10243320
_cell_angle_alpha   55.40486687
_cell_angle_beta   90.00420420
_cell_angle_gamma   89.99811336
_symmetry_Int_Tables_number   1
_chemical_formula_structural   K6HoErF12
_chemical_formula_sum   'K6 Ho1 Er1 F12'
_cell_volume   385.94891816
_cell_formula_units_Z   1
loop_
 _symmetry_equiv_pos_site_id
 _symmetry_equiv_pos_as_xyz
  1  'x, y, z'
loop_
 _atom_site_type_symbol
 _atom_site_label
 _atom_site_symmetry_multiplicity
 _atom_site_fract_x
 _atom_site_fract_y
 _atom_site_fract_z
 _atom_site_occupancy
  K  K0  1  0.500000  0.500000  0.000000  1
  K  K1  1  0.000000  0.500000  0.500000  1
  K  K2  1  0.050153  0.731158  0.755211  1
  K  K3  1  0.949847  0.268842  0.244789  1
  K  K4  1  0.550494  0.266979  0.746650  1
  K  K5  1  0.449506  0.733021  0.253350  1
  Ho  Ho6  1  0.500000  0.000000  0.500000  1
  Er  Er7  1  0.000000  0.000000  0.000000  1
  F  F8  1  0.772707  0.765328  0.568554  1
  F  F9  1  0.227293  0.234672  0.431446  1
  F  F10  1  0.271050  0.233210  0.932021  1
  F  F11  1  0.728950  0.766790  0.067979  1
  F  F12  1  0.444046  0.887977  0.723114  1
  F  F13  1  0.555954  0.112023  0.276886  1
  F  F14  1  0.944545  0.111078  0.778383  1
  F  F15  1  0.055455  0.888922  0.221617  1
  F  F16  1  0.326241  0.669788  0.550548  1
  F  F17  1  0.673759  0.330212  0.449452  1
  F  F18  1  0.826591  0.327823  0.950056  1
  F  F19  1  0.173409  0.672177  0.049944  1
