# generated using pymatgen
data_ScMn4CrP3
_symmetry_space_group_name_H-M   'P 1'
_cell_length_a   3.52121500
_cell_length_b   10.65965500
_cell_length_c   12.21925200
_cell_angle_alpha   90.00000000
_cell_angle_beta   90.00000000
_cell_angle_gamma   90.00000000
_symmetry_Int_Tables_number   1
_chemical_formula_structural   ScMn4CrP3
_chemical_formula_sum   'Sc4 Mn16 Cr4 P12'
_cell_volume   458.64885499
_cell_formula_units_Z   4
loop_
 _symmetry_equiv_pos_site_id
 _symmetry_equiv_pos_as_xyz
  1  'x, y, z'
loop_
 _atom_site_type_symbol
 _atom_site_label
 _atom_site_symmetry_multiplicity
 _atom_site_fract_x
 _atom_site_fract_y
 _atom_site_fract_z
 _atom_site_occupancy
  Sc  Sc0  1  0.250000  0.584583  0.706272  1
  Sc  Sc1  1  0.250000  0.915417  0.206272  1
  Sc  Sc2  1  0.750000  0.415417  0.293728  1
  Sc  Sc3  1  0.750000  0.084583  0.793728  1
  Mn  Mn4  1  0.250000  0.410261  0.491605  1
  Mn  Mn5  1  0.250000  0.089739  0.991605  1
  Mn  Mn6  1  0.750000  0.589739  0.508395  1
  Mn  Mn7  1  0.750000  0.910261  0.008395  1
  Mn  Mn8  1  0.250000  0.214050  0.181228  1
  Mn  Mn9  1  0.250000  0.285951  0.681228  1
  Mn  Mn10  1  0.750000  0.785951  0.818772  1
  Mn  Mn11  1  0.750000  0.714049  0.318772  1
  Mn  Mn12  1  0.250000  0.883587  0.694379  1
  Mn  Mn13  1  0.250000  0.616413  0.194379  1
  Mn  Mn14  1  0.750000  0.116413  0.305621  1
  Mn  Mn15  1  0.750000  0.383587  0.805621  1
  Mn  Mn16  1  0.250000  0.464143  0.935168  1
  Mn  Mn17  1  0.250000  0.035857  0.435168  1
  Mn  Mn18  1  0.750000  0.535857  0.064832  1
  Mn  Mn19  1  0.750000  0.964143  0.564832  1
  Cr  Cr20  1  0.250000  0.711052  0.983173  1
  Cr  Cr21  1  0.250000  0.788948  0.483173  1
  Cr  Cr22  1  0.750000  0.288948  0.016827  1
  Cr  Cr23  1  0.750000  0.211052  0.516827  1
  P  P24  1  0.250000  0.411303  0.118599  1
  P  P25  1  0.250000  0.088697  0.618599  1
  P  P26  1  0.750000  0.588697  0.881401  1
  P  P27  1  0.750000  0.911303  0.381401  1
  P  P28  1  0.250000  0.259836  0.873677  1
  P  P29  1  0.250000  0.240164  0.373677  1
  P  P30  1  0.750000  0.740164  0.126323  1
  P  P31  1  0.750000  0.759836  0.626323  1
  P  P32  1  0.250000  0.590416  0.383211  1
  P  P33  1  0.250000  0.909584  0.883211  1
  P  P34  1  0.750000  0.409584  0.616789  1
  P  P35  1  0.750000  0.090416  0.116789  1
