# generated using pymatgen
data_Er4FeTc7
_symmetry_space_group_name_H-M   'P 1'
_cell_length_a   5.38757814
_cell_length_b   5.38757846
_cell_length_c   8.79177200
_cell_angle_alpha   90.00000000
_cell_angle_beta   90.00000000
_cell_angle_gamma   121.58927375
_symmetry_Int_Tables_number   1
_chemical_formula_structural   Er4FeTc7
_chemical_formula_sum   'Er4 Fe1 Tc7'
_cell_volume   217.37720288
_cell_formula_units_Z   1
loop_
 _symmetry_equiv_pos_site_id
 _symmetry_equiv_pos_as_xyz
  1  'x, y, z'
loop_
 _atom_site_type_symbol
 _atom_site_label
 _atom_site_symmetry_multiplicity
 _atom_site_fract_x
 _atom_site_fract_y
 _atom_site_fract_z
 _atom_site_occupancy
  Er  Er0  1  0.334677  0.665323  0.436957  1
  Er  Er1  1  0.666273  0.333727  0.561672  1
  Er  Er2  1  0.666273  0.333727  0.938328  1
  Er  Er3  1  0.334677  0.665323  0.063043  1
  Fe  Fe4  1  0.828068  0.171932  0.250000  1
  Tc  Tc5  1  0.002576  0.997424  0.492218  1
  Tc  Tc6  1  0.002576  0.997424  0.007782  1
  Tc  Tc7  1  0.823392  0.656999  0.250000  1
  Tc  Tc8  1  0.343001  0.176608  0.250000  1
  Tc  Tc9  1  0.169562  0.830438  0.750000  1
  Tc  Tc10  1  0.170142  0.341217  0.750000  1
  Tc  Tc11  1  0.658783  0.829858  0.750000  1
