# generated using pymatgen
data_Tm16CdIn3(IrRh)2
_symmetry_space_group_name_H-M   'P 1'
_cell_length_a   9.52068371
_cell_length_b   9.52068387
_cell_length_c   9.53559375
_cell_angle_alpha   59.97315768
_cell_angle_beta   59.97315878
_cell_angle_gamma   59.92730497
_symmetry_Int_Tables_number   1
_chemical_formula_structural   Tm16CdIn3(IrRh)2
_chemical_formula_sum   'Tm16 Cd1 In3 Ir2 Rh2'
_cell_volume   610.59568896
_cell_formula_units_Z   1
loop_
 _symmetry_equiv_pos_site_id
 _symmetry_equiv_pos_as_xyz
  1  'x, y, z'
loop_
 _atom_site_type_symbol
 _atom_site_label
 _atom_site_symmetry_multiplicity
 _atom_site_fract_x
 _atom_site_fract_y
 _atom_site_fract_z
 _atom_site_occupancy
  Tm  Tm0  1  0.060235  0.060235  0.439530  1
  Tm  Tm1  1  0.437598  0.064107  0.436399  1
  Tm  Tm2  1  0.060951  0.439538  0.060858  1
  Tm  Tm3  1  0.050309  0.649121  0.648719  1
  Tm  Tm4  1  0.436387  0.436387  0.064719  1
  Tm  Tm5  1  0.649121  0.050309  0.648719  1
  Tm  Tm6  1  0.188602  0.812611  0.189041  1
  Tm  Tm7  1  0.188590  0.188590  0.812646  1
  Tm  Tm8  1  0.809881  0.809881  0.190816  1
  Tm  Tm9  1  0.439538  0.060951  0.060858  1
  Tm  Tm10  1  0.812611  0.188602  0.189041  1
  Tm  Tm11  1  0.064107  0.437598  0.436399  1
  Tm  Tm12  1  0.810240  0.190388  0.809899  1
  Tm  Tm13  1  0.190388  0.810240  0.809899  1
  Tm  Tm14  1  0.648894  0.648894  0.050635  1
  Tm  Tm15  1  0.651924  0.651924  0.651055  1
  Cd  Cd16  1  0.417486  0.417486  0.417351  1
  In  In17  1  0.748382  0.417234  0.417177  1
  In  In18  1  0.417234  0.748382  0.417177  1
  In  In19  1  0.417242  0.417242  0.748385  1
  Ir  Ir20  1  0.858697  0.858697  0.425673  1
  Ir  Ir21  1  0.857130  0.857130  0.857373  1
  Rh  Rh22  1  0.425836  0.858620  0.858814  1
  Rh  Rh23  1  0.858620  0.425836  0.858814  1
