# generated using pymatgen
data_Pr3Tm(AuO3)4
_symmetry_space_group_name_H-M   'P 1'
_cell_length_a   3.90378709
_cell_length_b   5.63463900
_cell_length_c   12.96244500
_cell_angle_alpha   90.00000000
_cell_angle_beta   90.24974417
_cell_angle_gamma   90.00000000
_symmetry_Int_Tables_number   1
_chemical_formula_structural   Pr3Tm(AuO3)4
_chemical_formula_sum   'Pr3 Tm1 Au4 O12'
_cell_volume   285.12481783
_cell_formula_units_Z   1
loop_
 _symmetry_equiv_pos_site_id
 _symmetry_equiv_pos_as_xyz
  1  'x, y, z'
loop_
 _atom_site_type_symbol
 _atom_site_label
 _atom_site_symmetry_multiplicity
 _atom_site_fract_x
 _atom_site_fract_y
 _atom_site_fract_z
 _atom_site_occupancy
  Pr  Pr0  1  0.259555  0.750000  0.079694  1
  Pr  Pr1  1  0.263912  0.250000  0.424643  1
  Pr  Pr2  1  0.737392  0.250000  0.916466  1
  Tm  Tm3  1  0.738411  0.750000  0.579065  1
  Au  Au4  1  0.058740  0.750000  0.824651  1
  Au  Au5  1  0.066732  0.250000  0.667076  1
  Au  Au6  1  0.938382  0.250000  0.171834  1
  Au  Au7  1  0.939158  0.750000  0.334324  1
  O  O8  1  0.197390  0.500283  0.252905  1
  O  O9  1  0.798481  0.993944  0.741044  1
  O  O10  1  0.798481  0.506056  0.741044  1
  O  O11  1  0.197390  0.999717  0.252905  1
  O  O12  1  0.741824  0.493847  0.076944  1
  O  O13  1  0.743946  0.510575  0.431177  1
  O  O14  1  0.255485  0.994787  0.919526  1
  O  O15  1  0.261733  0.988578  0.579526  1
  O  O16  1  0.743946  0.989425  0.431177  1
  O  O17  1  0.741824  0.006153  0.076944  1
  O  O18  1  0.261733  0.511422  0.579526  1
  O  O19  1  0.255485  0.505213  0.919526  1
