# generated using pymatgen
data_Li4GeSe4
_symmetry_space_group_name_H-M   'P 1'
_cell_length_a   6.52469200
_cell_length_b   8.25521100
_cell_length_c   14.83403100
_cell_angle_alpha   90.00000000
_cell_angle_beta   90.00000000
_cell_angle_gamma   90.00000000
_symmetry_Int_Tables_number   1
_chemical_formula_structural   Li4GeSe4
_chemical_formula_sum   'Li16 Ge4 Se16'
_cell_volume   799.00109757
_cell_formula_units_Z   4
loop_
 _symmetry_equiv_pos_site_id
 _symmetry_equiv_pos_as_xyz
  1  'x, y, z'
loop_
 _atom_site_type_symbol
 _atom_site_label
 _atom_site_symmetry_multiplicity
 _atom_site_fract_x
 _atom_site_fract_y
 _atom_site_fract_z
 _atom_site_occupancy
  Li  Li0  1  0.500000  0.000000  0.000000  1
  Li  Li1  1  0.500000  0.500000  0.000000  1
  Li  Li2  1  0.873202  0.250000  0.085257  1
  Li  Li3  1  0.308038  0.501454  0.176095  1
  Li  Li4  1  0.308038  0.998546  0.176095  1
  Li  Li5  1  0.808038  0.001454  0.323905  1
  Li  Li6  1  0.808038  0.498546  0.323905  1
  Li  Li7  1  0.373202  0.750000  0.414743  1
  Li  Li8  1  0.000000  0.000000  0.500000  1
  Li  Li9  1  0.000000  0.500000  0.500000  1
  Li  Li10  1  0.626798  0.250000  0.585257  1
  Li  Li11  1  0.191962  0.501454  0.676095  1
  Li  Li12  1  0.191962  0.998546  0.676095  1
  Li  Li13  1  0.691962  0.001454  0.823905  1
  Li  Li14  1  0.691962  0.498546  0.823905  1
  Li  Li15  1  0.126798  0.750000  0.914743  1
  Ge  Ge16  1  0.852247  0.750000  0.089209  1
  Ge  Ge17  1  0.352247  0.250000  0.410791  1
  Ge  Ge18  1  0.647753  0.750000  0.589209  1
  Ge  Ge19  1  0.147753  0.250000  0.910791  1
  Se  Se20  1  0.272468  0.250000  0.064153  1
  Se  Se21  1  0.217393  0.750000  0.086432  1
  Se  Se22  1  0.715241  0.511052  0.156959  1
  Se  Se23  1  0.715241  0.988948  0.156959  1
  Se  Se24  1  0.215241  0.011052  0.343041  1
  Se  Se25  1  0.215241  0.488948  0.343041  1
  Se  Se26  1  0.717393  0.250000  0.413568  1
  Se  Se27  1  0.772468  0.750000  0.435847  1
  Se  Se28  1  0.227532  0.250000  0.564153  1
  Se  Se29  1  0.282607  0.750000  0.586432  1
  Se  Se30  1  0.784759  0.511052  0.656959  1
  Se  Se31  1  0.784759  0.988948  0.656959  1
  Se  Se32  1  0.284759  0.011052  0.843041  1
  Se  Se33  1  0.284759  0.488948  0.843041  1
  Se  Se34  1  0.782607  0.250000  0.913568  1
  Se  Se35  1  0.727532  0.750000  0.935847  1
