# generated using pymatgen
data_Pr5PPb3
_symmetry_space_group_name_H-M   'P 1'
_cell_length_a   9.58072100
_cell_length_b   9.58072095
_cell_length_c   7.14614100
_cell_angle_alpha   90.00000000
_cell_angle_beta   90.00000000
_cell_angle_gamma   119.99999673
_symmetry_Int_Tables_number   1
_chemical_formula_structural   Pr5PPb3
_chemical_formula_sum   'Pr10 P2 Pb6'
_cell_volume   568.06575742
_cell_formula_units_Z   2
loop_
 _symmetry_equiv_pos_site_id
 _symmetry_equiv_pos_as_xyz
  1  'x, y, z'
loop_
 _atom_site_type_symbol
 _atom_site_label
 _atom_site_symmetry_multiplicity
 _atom_site_fract_x
 _atom_site_fract_y
 _atom_site_fract_z
 _atom_site_occupancy
  Pr  Pr0  1  0.763461  0.763461  0.250000  1
  Pr  Pr1  1  0.236539  0.000000  0.250000  1
  Pr  Pr2  1  0.000000  0.236539  0.250000  1
  Pr  Pr3  1  0.236539  0.236539  0.750000  1
  Pr  Pr4  1  0.763461  0.000000  0.750000  1
  Pr  Pr5  1  0.000000  0.763461  0.750000  1
  Pr  Pr6  1  0.666667  0.333333  0.500000  1
  Pr  Pr7  1  0.333333  0.666667  0.500000  1
  Pr  Pr8  1  0.333333  0.666667  0.000000  1
  Pr  Pr9  1  0.666667  0.333333  0.000000  1
  P  P10  1  0.000000  0.000000  0.500000  1
  P  P11  1  0.000000  0.000000  0.000000  1
  Pb  Pb12  1  0.400840  0.400840  0.250000  1
  Pb  Pb13  1  0.599160  0.000000  0.250000  1
  Pb  Pb14  1  0.000000  0.599160  0.250000  1
  Pb  Pb15  1  0.599160  0.599160  0.750000  1
  Pb  Pb16  1  0.400840  0.000000  0.750000  1
  Pb  Pb17  1  0.000000  0.400840  0.750000  1
