# generated using pymatgen
data_Th8Sc11Si16Ru
_symmetry_space_group_name_H-M   'P 1'
_cell_length_a   7.16668649
_cell_length_b   7.46564746
_cell_length_c   14.13520100
_cell_angle_alpha   90.00000000
_cell_angle_beta   90.00000000
_cell_angle_gamma   90.24320216
_symmetry_Int_Tables_number   1
_chemical_formula_structural   Th8Sc11Si16Ru
_chemical_formula_sum   'Th8 Sc11 Si16 Ru1'
_cell_volume   756.28234148
_cell_formula_units_Z   1
loop_
 _symmetry_equiv_pos_site_id
 _symmetry_equiv_pos_as_xyz
  1  'x, y, z'
loop_
 _atom_site_type_symbol
 _atom_site_label
 _atom_site_symmetry_multiplicity
 _atom_site_fract_x
 _atom_site_fract_y
 _atom_site_fract_z
 _atom_site_occupancy
  Th  Th0  1  0.001130  0.676063  0.602067  1
  Th  Th1  1  0.005720  0.326588  0.405816  1
  Th  Th2  1  0.504631  0.174519  0.404560  1
  Th  Th3  1  0.005720  0.326588  0.094184  1
  Th  Th4  1  0.493330  0.829781  0.600835  1
  Th  Th5  1  0.001130  0.676063  0.897933  1
  Th  Th6  1  0.493330  0.829781  0.899165  1
  Th  Th7  1  0.504631  0.174519  0.095440  1
  Sc  Sc8  1  0.831137  0.003602  0.250000  1
  Sc  Sc9  1  0.333383  0.497687  0.250000  1
  Sc  Sc10  1  0.668175  0.500808  0.750000  1
  Sc  Sc11  1  0.334578  0.322594  0.623846  1
  Sc  Sc12  1  0.663550  0.674088  0.375711  1
  Sc  Sc13  1  0.162211  0.826012  0.376639  1
  Sc  Sc14  1  0.663550  0.674088  0.124289  1
  Sc  Sc15  1  0.835960  0.172442  0.626067  1
  Sc  Sc16  1  0.334578  0.322594  0.876154  1
  Sc  Sc17  1  0.835960  0.172442  0.873933  1
  Sc  Sc18  1  0.162211  0.826012  0.123361  1
  Si  Si19  1  0.045069  0.365938  0.750000  1
  Si  Si20  1  0.959430  0.622114  0.250000  1
  Si  Si21  1  0.458816  0.877179  0.250000  1
  Si  Si22  1  0.526201  0.119823  0.750000  1
  Si  Si23  1  0.302042  0.609495  0.750000  1
  Si  Si24  1  0.706742  0.375458  0.250000  1
  Si  Si25  1  0.204692  0.122018  0.250000  1
  Si  Si26  1  0.802052  0.881115  0.750000  1
  Si  Si27  1  0.159398  0.038224  0.545187  1
  Si  Si28  1  0.837573  0.961701  0.463202  1
  Si  Si29  1  0.338225  0.540195  0.461848  1
  Si  Si30  1  0.837573  0.961701  0.036798  1
  Si  Si31  1  0.666162  0.465226  0.540977  1
  Si  Si32  1  0.159398  0.038224  0.954813  1
  Si  Si33  1  0.666162  0.465226  0.959023  1
  Si  Si34  1  0.338225  0.540195  0.038152  1
  Ru  Ru35  1  0.157326  0.009896  0.750000  1
