# generated using pymatgen
data_Tb7Dy2Er3(Si2Ni)4
_symmetry_space_group_name_H-M   'P 1'
_cell_length_a   4.12159700
_cell_length_b   11.24631832
_cell_length_c   11.27763030
_cell_angle_alpha   90.13917512
_cell_angle_beta   90.00000000
_cell_angle_gamma   90.00000000
_symmetry_Int_Tables_number   1
_chemical_formula_structural   Tb7Dy2Er3(Si2Ni)4
_chemical_formula_sum   'Tb7 Dy2 Er3 Si8 Ni4'
_cell_volume   522.74810729
_cell_formula_units_Z   1
loop_
 _symmetry_equiv_pos_site_id
 _symmetry_equiv_pos_as_xyz
  1  'x, y, z'
loop_
 _atom_site_type_symbol
 _atom_site_label
 _atom_site_symmetry_multiplicity
 _atom_site_fract_x
 _atom_site_fract_y
 _atom_site_fract_z
 _atom_site_occupancy
  Tb  Tb0  1  0.250000  0.440400  0.382516  1
  Tb  Tb1  1  0.250000  0.124760  0.558373  1
  Tb  Tb2  1  0.250000  0.374730  0.057130  1
  Tb  Tb3  1  0.750000  0.875117  0.442090  1
  Tb  Tb4  1  0.750000  0.625204  0.941830  1
  Tb  Tb5  1  0.250000  0.803787  0.714619  1
  Tb  Tb6  1  0.250000  0.696674  0.214202  1
  Dy  Dy7  1  0.750000  0.195335  0.285374  1
  Dy  Dy8  1  0.750000  0.303601  0.785490  1
  Er  Er9  1  0.250000  0.058569  0.883381  1
  Er  Er10  1  0.750000  0.941987  0.116541  1
  Er  Er11  1  0.750000  0.558289  0.616788  1
  Si  Si12  1  0.250000  0.815142  0.975516  1
  Si  Si13  1  0.250000  0.685524  0.475625  1
  Si  Si14  1  0.750000  0.184669  0.024478  1
  Si  Si15  1  0.750000  0.313987  0.525680  1
  Si  Si16  1  0.250000  0.495468  0.802004  1
  Si  Si17  1  0.250000  0.004282  0.301916  1
  Si  Si18  1  0.750000  0.504700  0.196604  1
  Si  Si19  1  0.750000  0.996329  0.698212  1
  Ni  Ni20  1  0.250000  0.366953  0.629779  1
  Ni  Ni21  1  0.250000  0.133236  0.129402  1
  Ni  Ni22  1  0.750000  0.633337  0.371039  1
  Ni  Ni23  1  0.750000  0.867922  0.871412  1
