# generated using pymatgen
data_LiAg3I20
_symmetry_space_group_name_H-M   'P 1'
_cell_length_a   9.22144403
_cell_length_b   10.93432626
_cell_length_c   13.58271092
_cell_angle_alpha   102.04259533
_cell_angle_beta   88.79805845
_cell_angle_gamma   89.84039996
_symmetry_Int_Tables_number   1
_chemical_formula_structural   LiAg3I20
_chemical_formula_sum   'Li1 Ag3 I20'
_cell_volume   1339.07790368
_cell_formula_units_Z   1
loop_
 _symmetry_equiv_pos_site_id
 _symmetry_equiv_pos_as_xyz
  1  'x, y, z'
loop_
 _atom_site_type_symbol
 _atom_site_label
 _atom_site_symmetry_multiplicity
 _atom_site_fract_x
 _atom_site_fract_y
 _atom_site_fract_z
 _atom_site_occupancy
  Li  Li0  1  0.062914  0.845325  0.463284  1
  Ag  Ag1  1  0.423551  0.825645  0.962274  1
  Ag  Ag2  1  0.590930  0.168361  0.035048  1
  Ag  Ag3  1  0.915532  0.221288  0.582582  1
  I  I4  1  0.233785  0.527301  0.588211  1
  I  I5  1  0.789209  0.489040  0.405866  1
  I  I6  1  0.717706  0.482349  0.886882  1
  I  I7  1  0.285791  0.506063  0.102188  1
  I  I8  1  0.151235  0.328199  0.686231  1
  I  I9  1  0.910770  0.675962  0.315401  1
  I  I10  1  0.601948  0.685707  0.810331  1
  I  I11  1  0.398748  0.304853  0.181324  1
  I  I12  1  0.347996  0.918767  0.698638  1
  I  I13  1  0.649143  0.086313  0.301989  1
  I  I14  1  0.842313  0.063764  0.757736  1
  I  I15  1  0.134843  0.916124  0.228412  1
  I  I16  1  0.162785  0.733424  0.026921  1
  I  I17  1  0.844605  0.258801  0.959875  1
  I  I18  1  0.656343  0.268262  0.500929  1
  I  I19  1  0.332430  0.742984  0.496185  1
  I  I20  1  0.816560  0.871910  0.582191  1
  I  I21  1  0.126294  0.083079  0.425847  1
  I  I22  1  0.349212  0.064528  0.902940  1
  I  I23  1  0.655356  0.931952  0.098715  1
