# generated using pymatgen
data_Ho20IrRu8Pt3
_symmetry_space_group_name_H-M   'P 1'
_cell_length_a   10.81519866
_cell_length_b   10.81519881
_cell_length_c   6.39647201
_cell_angle_alpha   90.03255585
_cell_angle_beta   90.03255076
_cell_angle_gamma   90.10120215
_symmetry_Int_Tables_number   1
_chemical_formula_structural   Ho20IrRu8Pt3
_chemical_formula_sum   'Ho20 Ir1 Ru8 Pt3'
_cell_volume   748.18447956
_cell_formula_units_Z   1
loop_
 _symmetry_equiv_pos_site_id
 _symmetry_equiv_pos_as_xyz
  1  'x, y, z'
loop_
 _atom_site_type_symbol
 _atom_site_label
 _atom_site_symmetry_multiplicity
 _atom_site_fract_x
 _atom_site_fract_y
 _atom_site_fract_z
 _atom_site_occupancy
  Ho  Ho0  1  0.295341  0.085548  0.372801  1
  Ho  Ho1  1  0.293152  0.910829  0.878621  1
  Ho  Ho2  1  0.706989  0.086047  0.878590  1
  Ho  Ho3  1  0.704872  0.914286  0.373091  1
  Ho  Ho4  1  0.583669  0.791527  0.877249  1
  Ho  Ho5  1  0.585513  0.205491  0.373357  1
  Ho  Ho6  1  0.413232  0.793165  0.377660  1
  Ho  Ho7  1  0.413701  0.206880  0.879032  1
  Ho  Ho8  1  0.208473  0.416331  0.622751  1
  Ho  Ho9  1  0.206835  0.586768  0.122340  1
  Ho  Ho10  1  0.794509  0.414487  0.126643  1
  Ho  Ho11  1  0.793120  0.586299  0.620968  1
  Ho  Ho12  1  0.914452  0.704659  0.127199  1
  Ho  Ho13  1  0.913953  0.293011  0.621410  1
  Ho  Ho14  1  0.089171  0.706848  0.621379  1
  Ho  Ho15  1  0.085714  0.295128  0.126909  1
  Ho  Ho16  1  0.000234  0.999765  0.496058  1
  Ho  Ho17  1  0.000235  0.999766  0.003942  1
  Ho  Ho18  1  0.498535  0.501396  0.003128  1
  Ho  Ho19  1  0.498604  0.501465  0.496872  1
  Ir  Ir20  1  0.347383  0.652617  0.750000  1
  Ru  Ru21  1  0.848135  0.151865  0.250000  1
  Ru  Ru22  1  0.151353  0.848647  0.250000  1
  Ru  Ru23  1  0.652732  0.652737  0.250134  1
  Ru  Ru24  1  0.347263  0.347268  0.249866  1
  Ru  Ru25  1  0.500172  0.000338  0.122659  1
  Ru  Ru26  1  0.500187  0.000576  0.625155  1
  Ru  Ru27  1  0.999424  0.499813  0.874845  1
  Ru  Ru28  1  0.999662  0.499828  0.377341  1
  Pt  Pt29  1  0.846635  0.846673  0.749876  1
  Pt  Pt30  1  0.153327  0.153365  0.750124  1
  Pt  Pt31  1  0.653423  0.346577  0.750000  1
