# generated using pymatgen
data_K5Yb(MoH9)3
_symmetry_space_group_name_H-M   'P 1'
_cell_length_a   9.47510200
_cell_length_b   9.22818938
_cell_length_c   5.29232800
_cell_angle_alpha   90.00000000
_cell_angle_beta   90.00000000
_cell_angle_gamma   119.14166222
_symmetry_Int_Tables_number   1
_chemical_formula_structural   K5Yb(MoH9)3
_chemical_formula_sum   'K5 Yb1 Mo3 H27'
_cell_volume   404.17501197
_cell_formula_units_Z   1
loop_
 _symmetry_equiv_pos_site_id
 _symmetry_equiv_pos_as_xyz
  1  'x, y, z'
loop_
 _atom_site_type_symbol
 _atom_site_label
 _atom_site_symmetry_multiplicity
 _atom_site_fract_x
 _atom_site_fract_y
 _atom_site_fract_z
 _atom_site_occupancy
  K  K0  1  0.748728  0.759254  0.500000  1
  K  K1  1  0.251272  0.010525  0.500000  1
  K  K2  1  0.000000  0.596308  0.000000  1
  K  K3  1  0.378028  0.384081  0.000000  1
  K  K4  1  0.621972  0.006053  0.000000  1
  Yb  Yb5  1  0.000000  0.256221  0.500000  1
  Mo  Mo6  1  0.675180  0.309556  0.500000  1
  Mo  Mo7  1  0.324820  0.634377  0.500000  1
  Mo  Mo8  1  0.000000  0.022910  0.000000  1
  H  H9  1  0.814554  0.305012  0.717690  1
  H  H10  1  0.633689  0.443615  0.696476  1
  H  H11  1  0.541704  0.194917  0.743809  1
  H  H12  1  0.185446  0.490459  0.282310  1
  H  H13  1  0.541704  0.194917  0.256191  1
  H  H14  1  0.814554  0.305012  0.282310  1
  H  H15  1  0.633689  0.443615  0.303524  1
  H  H16  1  0.366311  0.809927  0.696476  1
  H  H17  1  0.458296  0.653216  0.743809  1
  H  H18  1  0.183804  0.025000  0.000000  1
  H  H19  1  0.816196  0.841196  0.000000  1
  H  H20  1  0.000000  0.214391  0.000000  1
  H  H21  1  0.872564  0.025290  0.240944  1
  H  H22  1  0.127436  0.152726  0.759056  1
  H  H23  1  0.000000  0.879220  0.782037  1
  H  H24  1  0.000000  0.879220  0.217963  1
  H  H25  1  0.127436  0.152726  0.240944  1
  H  H26  1  0.872564  0.025290  0.759056  1
  H  H27  1  0.152478  0.656626  0.500000  1
  H  H28  1  0.404983  0.854162  0.500000  1
  H  H29  1  0.347184  0.457215  0.500000  1
  H  H30  1  0.595017  0.449178  0.500000  1
  H  H31  1  0.847522  0.504148  0.500000  1
  H  H32  1  0.652816  0.110032  0.500000  1
  H  H33  1  0.185446  0.490459  0.717690  1
  H  H34  1  0.366311  0.809927  0.303524  1
  H  H35  1  0.458296  0.653216  0.256191  1
