# generated using pymatgen
data_Pr3Mg3Hg2Ru
_symmetry_space_group_name_H-M   'P 1'
_cell_length_a   7.99947200
_cell_length_b   7.99947376
_cell_length_c   4.13898700
_cell_angle_alpha   90.00000000
_cell_angle_beta   90.00000000
_cell_angle_gamma   119.99999273
_symmetry_Int_Tables_number   1
_chemical_formula_structural   Pr3Mg3Hg2Ru
_chemical_formula_sum   'Pr3 Mg3 Hg2 Ru1'
_cell_volume   229.37573149
_cell_formula_units_Z   1
loop_
 _symmetry_equiv_pos_site_id
 _symmetry_equiv_pos_as_xyz
  1  'x, y, z'
loop_
 _atom_site_type_symbol
 _atom_site_label
 _atom_site_symmetry_multiplicity
 _atom_site_fract_x
 _atom_site_fract_y
 _atom_site_fract_z
 _atom_site_occupancy
  Pr  Pr0  1  0.600853  0.033636  0.000000  1
  Pr  Pr1  1  0.966364  0.567217  0.000000  1
  Pr  Pr2  1  0.432783  0.399147  0.000000  1
  Mg  Mg3  1  0.255871  0.003212  0.500000  1
  Mg  Mg4  1  0.996788  0.252658  0.500000  1
  Mg  Mg5  1  0.747342  0.744129  0.500000  1
  Hg  Hg6  1  0.333333  0.666667  0.500000  1
  Hg  Hg7  1  0.000000  0.000000  0.000000  1
  Ru  Ru8  1  0.666667  0.333333  0.500000  1
