# generated using pymatgen
data_Lu2Pa2Ge6Os7
_symmetry_space_group_name_H-M   'P 1'
_cell_length_a   7.21928815
_cell_length_b   7.23989626
_cell_length_c   7.23989555
_cell_angle_alpha   109.51570108
_cell_angle_beta   109.50674406
_cell_angle_gamma   109.50674767
_symmetry_Int_Tables_number   1
_chemical_formula_structural   Lu2Pa2Ge6Os7
_chemical_formula_sum   'Lu2 Pa2 Ge6 Os7'
_cell_volume   290.88167210
_cell_formula_units_Z   1
loop_
 _symmetry_equiv_pos_site_id
 _symmetry_equiv_pos_as_xyz
  1  'x, y, z'
loop_
 _atom_site_type_symbol
 _atom_site_label
 _atom_site_symmetry_multiplicity
 _atom_site_fract_x
 _atom_site_fract_y
 _atom_site_fract_z
 _atom_site_occupancy
  Lu  Lu0  1  0.000000  0.000000  0.500000  1
  Lu  Lu1  1  0.000000  0.500000  0.000000  1
  Pa  Pa2  1  0.500000  0.000000  0.000000  1
  Pa  Pa3  1  0.500000  0.500000  0.500000  1
  Ge  Ge4  1  0.695734  0.690130  0.005604  1
  Ge  Ge5  1  0.304266  0.994396  0.309870  1
  Ge  Ge6  1  0.000000  0.310385  0.310385  1
  Ge  Ge7  1  0.304266  0.309870  0.994396  1
  Ge  Ge8  1  0.695734  0.005604  0.690130  1
  Ge  Ge9  1  0.000000  0.689615  0.689615  1
  Os  Os10  1  0.747194  0.249831  0.497364  1
  Os  Os11  1  0.747194  0.497364  0.249831  1
  Os  Os12  1  0.500000  0.250000  0.750000  1
  Os  Os13  1  0.252806  0.502636  0.750169  1
  Os  Os14  1  0.252806  0.750169  0.502636  1
  Os  Os15  1  0.500000  0.750000  0.250000  1
  Os  Os16  1  0.000000  0.000000  0.000000  1
