# generated using pymatgen
data_Ce2(TcB2)3
_symmetry_space_group_name_H-M   'P 1'
_cell_length_a   6.26762160
_cell_length_b   6.26762063
_cell_length_c   7.52967900
_cell_angle_alpha   90.60139529
_cell_angle_beta   90.60139193
_cell_angle_gamma   114.42028526
_symmetry_Int_Tables_number   1
_chemical_formula_structural   Ce2(TcB2)3
_chemical_formula_sum   'Ce4 Tc6 B12'
_cell_volume   269.27628852
_cell_formula_units_Z   2
loop_
 _symmetry_equiv_pos_site_id
 _symmetry_equiv_pos_as_xyz
  1  'x, y, z'
loop_
 _atom_site_type_symbol
 _atom_site_label
 _atom_site_symmetry_multiplicity
 _atom_site_fract_x
 _atom_site_fract_y
 _atom_site_fract_z
 _atom_site_occupancy
  Ce  Ce0  1  0.097364  0.445326  0.331044  1
  Ce  Ce1  1  0.554674  0.902636  0.168956  1
  Ce  Ce2  1  0.902636  0.554674  0.668956  1
  Ce  Ce3  1  0.445326  0.097364  0.831044  1
  Tc  Tc4  1  0.589609  0.410391  0.250000  1
  Tc  Tc5  1  0.410391  0.589609  0.750000  1
  Tc  Tc6  1  0.988827  0.804765  0.088404  1
  Tc  Tc7  1  0.195235  0.011173  0.411596  1
  Tc  Tc8  1  0.011173  0.195235  0.911596  1
  Tc  Tc9  1  0.804765  0.988827  0.588404  1
  B  B10  1  0.244582  0.155075  0.134179  1
  B  B11  1  0.844925  0.755418  0.365821  1
  B  B12  1  0.755418  0.844925  0.865821  1
  B  B13  1  0.155075  0.244582  0.634179  1
  B  B14  1  0.581763  0.157831  0.483770  1
  B  B15  1  0.842169  0.418237  0.016230  1
  B  B16  1  0.418237  0.842169  0.516230  1
  B  B17  1  0.157831  0.581763  0.983770  1
  B  B18  1  0.444435  0.350026  0.535010  1
  B  B19  1  0.649974  0.555565  0.964990  1
  B  B20  1  0.555565  0.649974  0.464990  1
  B  B21  1  0.350026  0.444435  0.035010  1
