# generated using pymatgen
data_Hf4Nb3Si3PW
_symmetry_space_group_name_H-M   'P 1'
_cell_length_a   3.55895800
_cell_length_b   6.96612636
_cell_length_c   8.37834152
_cell_angle_alpha   89.91124174
_cell_angle_beta   90.00000000
_cell_angle_gamma   90.00000000
_symmetry_Int_Tables_number   1
_chemical_formula_structural   Hf4Nb3Si3PW
_chemical_formula_sum   'Hf4 Nb3 Si3 P1 W1'
_cell_volume   207.71685991
_cell_formula_units_Z   1
loop_
 _symmetry_equiv_pos_site_id
 _symmetry_equiv_pos_as_xyz
  1  'x, y, z'
loop_
 _atom_site_type_symbol
 _atom_site_label
 _atom_site_symmetry_multiplicity
 _atom_site_fract_x
 _atom_site_fract_y
 _atom_site_fract_z
 _atom_site_occupancy
  Hf  Hf0  1  0.250000  0.041599  0.668097  1
  Hf  Hf1  1  0.250000  0.537179  0.832608  1
  Hf  Hf2  1  0.750000  0.461292  0.168675  1
  Hf  Hf3  1  0.750000  0.955961  0.336815  1
  Nb  Nb4  1  0.750000  0.863528  0.938504  1
  Nb  Nb5  1  0.750000  0.366597  0.562020  1
  Nb  Nb6  1  0.250000  0.137586  0.057634  1
  Si  Si7  1  0.250000  0.257530  0.358649  1
  Si  Si8  1  0.250000  0.757635  0.143475  1
  Si  Si9  1  0.750000  0.743970  0.636261  1
  P  P10  1  0.750000  0.242735  0.857966  1
  W  W11  1  0.250000  0.634387  0.439297  1
