# generated using pymatgen
data_Lu6Fe7Co16
_symmetry_space_group_name_H-M   'P 1'
_cell_length_a   8.29748900
_cell_length_b   8.29748968
_cell_length_c   8.29748900
_cell_angle_alpha   120.00000126
_cell_angle_beta   90.00000000
_cell_angle_gamma   120.00000126
_symmetry_Int_Tables_number   1
_chemical_formula_structural   Lu6Fe7Co16
_chemical_formula_sum   'Lu6 Fe7 Co16'
_cell_volume   403.94764217
_cell_formula_units_Z   1
loop_
 _symmetry_equiv_pos_site_id
 _symmetry_equiv_pos_as_xyz
  1  'x, y, z'
loop_
 _atom_site_type_symbol
 _atom_site_label
 _atom_site_symmetry_multiplicity
 _atom_site_fract_x
 _atom_site_fract_y
 _atom_site_fract_z
 _atom_site_occupancy
  Lu  Lu0  1  0.711518  0.000000  0.288483  1
  Lu  Lu1  1  0.288484  0.000000  0.288484  1
  Lu  Lu2  1  0.288484  0.576967  0.288484  1
  Lu  Lu3  1  0.711517  0.000000  0.711517  1
  Lu  Lu4  1  0.288483  0.000000  0.711518  1
  Lu  Lu5  1  0.711518  0.423035  0.711518  1
  Fe  Fe6  1  0.000000  0.000000  0.000000  1
  Fe  Fe7  1  0.500000  0.000000  0.000000  1
  Fe  Fe8  1  0.000000  0.500000  0.000000  1
  Fe  Fe9  1  0.500000  0.500000  0.000000  1
  Fe  Fe10  1  0.000000  0.000000  0.500000  1
  Fe  Fe11  1  0.000000  0.500000  0.500000  1
  Fe  Fe12  1  0.500000  0.500000  0.500000  1
  Co  Co13  1  0.675889  0.351778  0.027667  1
  Co  Co14  1  0.367407  0.244938  0.122469  1
  Co  Co15  1  0.877529  0.244938  0.122469  1
  Co  Co16  1  0.877529  0.755060  0.122469  1
  Co  Co17  1  0.675889  0.351778  0.324111  1
  Co  Co18  1  0.675889  0.648222  0.324111  1
  Co  Co19  1  0.972333  0.648222  0.324111  1
  Co  Co20  1  0.122469  0.244938  0.367407  1
  Co  Co21  1  0.877529  0.755060  0.632591  1
  Co  Co22  1  0.027667  0.351778  0.675889  1
  Co  Co23  1  0.324111  0.351778  0.675889  1
  Co  Co24  1  0.324111  0.648222  0.675889  1
  Co  Co25  1  0.122469  0.244938  0.877529  1
  Co  Co26  1  0.122469  0.755060  0.877529  1
  Co  Co27  1  0.632591  0.755060  0.877529  1
  Co  Co28  1  0.324111  0.648222  0.972333  1
