# generated using pymatgen
data_LiTlB4O7
_symmetry_space_group_name_H-M   'P 1'
_cell_length_a   8.81127000
_cell_length_b   11.45887600
_cell_length_c   13.07206200
_cell_angle_alpha   90.00000000
_cell_angle_beta   90.00000000
_cell_angle_gamma   90.00000000
_symmetry_Int_Tables_number   1
_chemical_formula_structural   LiTlB4O7
_chemical_formula_sum   'Li8 Tl8 B32 O56'
_cell_volume   1319.85015632
_cell_formula_units_Z   8
loop_
 _symmetry_equiv_pos_site_id
 _symmetry_equiv_pos_as_xyz
  1  'x, y, z'
loop_
 _atom_site_type_symbol
 _atom_site_label
 _atom_site_symmetry_multiplicity
 _atom_site_fract_x
 _atom_site_fract_y
 _atom_site_fract_z
 _atom_site_occupancy
  Li  Li0  1  0.755461  0.672283  0.808841  1
  Li  Li1  1  0.255461  0.827717  0.191159  1
  Li  Li2  1  0.244539  0.172283  0.691159  1
  Li  Li3  1  0.744539  0.327717  0.308841  1
  Li  Li4  1  0.084106  0.646880  0.881385  1
  Li  Li5  1  0.584106  0.853120  0.118615  1
  Li  Li6  1  0.915894  0.146880  0.618615  1
  Li  Li7  1  0.415894  0.353120  0.381385  1
  Tl  Tl8  1  0.376818  0.446316  0.108902  1
  Tl  Tl9  1  0.876818  0.053684  0.891098  1
  Tl  Tl10  1  0.623182  0.946316  0.391098  1
  Tl  Tl11  1  0.123182  0.553684  0.608902  1
  Tl  Tl12  1  0.688411  0.375842  0.794838  1
  Tl  Tl13  1  0.188411  0.124158  0.205162  1
  Tl  Tl14  1  0.311589  0.875842  0.705162  1
  Tl  Tl15  1  0.811589  0.624158  0.294838  1
  B  B16  1  0.364449  0.723516  0.988268  1
  B  B17  1  0.864449  0.776484  0.011732  1
  B  B18  1  0.635551  0.223516  0.511732  1
  B  B19  1  0.135551  0.276484  0.488268  1
  B  B20  1  0.428942  0.597122  0.836774  1
  B  B21  1  0.928942  0.902878  0.163226  1
  B  B22  1  0.571058  0.097122  0.663226  1
  B  B23  1  0.071058  0.402878  0.336774  1
  B  B24  1  0.236745  0.421633  0.840790  1
  B  B25  1  0.736745  0.078367  0.159210  1
  B  B26  1  0.763255  0.921633  0.659210  1
  B  B27  1  0.263255  0.578367  0.340790  1
  B  B28  1  0.066479  0.255215  0.806648  1
  B  B29  1  0.566479  0.244785  0.193352  1
  B  B30  1  0.933521  0.755215  0.693352  1
  B  B31  1  0.433521  0.744785  0.306648  1
  B  B32  1  0.008876  0.391646  0.953080  1
  B  B33  1  0.508876  0.108354  0.046920  1
  B  B34  1  0.991124  0.891646  0.546920  1
  B  B35  1  0.491124  0.608354  0.453080  1
  B  B36  1  0.996403  0.379929  0.144354  1
  B  B37  1  0.496403  0.120071  0.855646  1
  B  B38  1  0.003597  0.879929  0.355646  1
  B  B39  1  0.503597  0.620071  0.644354  1
  B  B40  1  0.798985  0.486454  0.052693  1
  B  B41  1  0.298985  0.013546  0.947307  1
  B  B42  1  0.201015  0.986454  0.447307  1
  B  B43  1  0.701015  0.513546  0.552693  1
  B  B44  1  0.628589  0.643552  0.979247  1
  B  B45  1  0.128589  0.856448  0.020753  1
  B  B46  1  0.371411  0.143552  0.520753  1
  B  B47  1  0.871411  0.356448  0.479247  1
  O  O48  1  0.320693  0.668930  0.898799  1
  O  O49  1  0.820693  0.831070  0.101201  1
  O  O50  1  0.679307  0.168930  0.601201  1
  O  O51  1  0.179307  0.331070  0.398799  1
  O  O52  1  0.433223  0.651699  0.732968  1
  O  O53  1  0.933223  0.848301  0.267032  1
  O  O54  1  0.566777  0.151699  0.767032  1
  O  O55  1  0.066777  0.348301  0.232968  1
  O  O56  1  0.369932  0.476107  0.819961  1
  O  O57  1  0.869932  0.023893  0.180039  1
  O  O58  1  0.630068  0.976107  0.680039  1
  O  O59  1  0.130068  0.523893  0.319961  1
  O  O60  1  0.206598  0.315328  0.790580  1
  O  O61  1  0.706598  0.184672  0.209420  1
  O  O62  1  0.793402  0.815328  0.709420  1
  O  O63  1  0.293402  0.684672  0.290580  1
  O  O64  1  0.033204  0.164328  0.745809  1
  O  O65  1  0.533204  0.335672  0.254191  1
  O  O66  1  0.966796  0.664328  0.754191  1
  O  O67  1  0.466796  0.835672  0.245809  1
  O  O68  1  0.974411  0.290377  0.886688  1
  O  O69  1  0.474411  0.209623  0.113312  1
  O  O70  1  0.025589  0.790377  0.613312  1
  O  O71  1  0.525589  0.709623  0.386688  1
  O  O72  1  0.128828  0.466786  0.906317  1
  O  O73  1  0.628828  0.033214  0.093683  1
  O  O74  1  0.871172  0.966786  0.593683  1
  O  O75  1  0.371172  0.533214  0.406317  1
  O  O76  1  0.870854  0.463010  0.962468  1
  O  O77  1  0.370854  0.036990  0.037532  1
  O  O78  1  0.129146  0.963010  0.537532  1
  O  O79  1  0.629146  0.536990  0.462468  1
  O  O80  1  0.063259  0.350219  0.053598  1
  O  O81  1  0.563259  0.149781  0.946402  1
  O  O82  1  0.936741  0.850219  0.446402  1
  O  O83  1  0.436741  0.649781  0.553598  1
  O  O84  1  0.857312  0.440757  0.145239  1
  O  O85  1  0.357312  0.059243  0.854761  1
  O  O86  1  0.142688  0.940757  0.354761  1
  O  O87  1  0.642688  0.559243  0.645239  1
  O  O88  1  0.672472  0.554887  0.058713  1
  O  O89  1  0.172472  0.945113  0.941287  1
  O  O90  1  0.327528  0.054887  0.441287  1
  O  O91  1  0.827528  0.445113  0.558713  1
  O  O92  1  0.579621  0.591840  0.882053  1
  O  O93  1  0.079621  0.908160  0.117947  1
  O  O94  1  0.420379  0.091840  0.617947  1
  O  O95  1  0.920379  0.408160  0.382053  1
  O  O96  1  0.763959  0.714298  0.953061  1
  O  O97  1  0.263959  0.785702  0.046939  1
  O  O98  1  0.236041  0.214298  0.546939  1
  O  O99  1  0.736041  0.285702  0.453061  1
  O  O100  1  0.510674  0.717954  0.025940  1
  O  O101  1  0.010674  0.782046  0.974060  1
  O  O102  1  0.489326  0.217954  0.474060  1
  O  O103  1  0.989326  0.282046  0.525940  1
