# generated using pymatgen
data_Li3ErLu2Si2Ge
_symmetry_space_group_name_H-M   'P 1'
_cell_length_a   6.85174600
_cell_length_b   6.89936751
_cell_length_c   4.20229800
_cell_angle_alpha   90.00000000
_cell_angle_beta   90.00000000
_cell_angle_gamma   119.77194473
_symmetry_Int_Tables_number   1
_chemical_formula_structural   Li3ErLu2Si2Ge
_chemical_formula_sum   'Li3 Er1 Lu2 Si2 Ge1'
_cell_volume   172.43342601
_cell_formula_units_Z   1
loop_
 _symmetry_equiv_pos_site_id
 _symmetry_equiv_pos_as_xyz
  1  'x, y, z'
loop_
 _atom_site_type_symbol
 _atom_site_label
 _atom_site_symmetry_multiplicity
 _atom_site_fract_x
 _atom_site_fract_y
 _atom_site_fract_z
 _atom_site_occupancy
  Li  Li0  1  0.235017  0.000000  0.500000  1
  Li  Li1  1  0.000315  0.235341  0.500000  1
  Li  Li2  1  0.764974  0.764659  0.500000  1
  Er  Er3  1  0.570263  0.000000  0.000000  1
  Lu  Lu4  1  0.999897  0.571666  0.000000  1
  Lu  Lu5  1  0.428231  0.428334  0.000000  1
  Si  Si6  1  0.331691  0.664478  0.500000  1
  Si  Si7  1  0.667213  0.335522  0.500000  1
  Ge  Ge8  1  0.002399  0.000000  0.000000  1
