# generated using pymatgen
data_U2Fe(Co10B3)2
_symmetry_space_group_name_H-M   'P 1'
_cell_length_a   7.50001740
_cell_length_b   7.50001725
_cell_length_c   7.50001800
_cell_angle_alpha   60.00000552
_cell_angle_beta   60.00000617
_cell_angle_gamma   60.00000856
_symmetry_Int_Tables_number   1
_chemical_formula_structural   U2Fe(Co10B3)2
_chemical_formula_sum   'U2 Fe1 Co20 B6'
_cell_volume   298.31281316
_cell_formula_units_Z   1
loop_
 _symmetry_equiv_pos_site_id
 _symmetry_equiv_pos_as_xyz
  1  'x, y, z'
loop_
 _atom_site_type_symbol
 _atom_site_label
 _atom_site_symmetry_multiplicity
 _atom_site_fract_x
 _atom_site_fract_y
 _atom_site_fract_z
 _atom_site_occupancy
  U  U0  1  0.250000  0.250000  0.250000  1
  U  U1  1  0.750000  0.750000  0.750000  1
  Fe  Fe2  1  0.000000  0.000000  0.000000  1
  Co  Co3  1  0.850652  0.383117  0.383117  1
  Co  Co4  1  0.383117  0.850652  0.383117  1
  Co  Co5  1  0.383117  0.383117  0.850652  1
  Co  Co6  1  0.383117  0.383117  0.383117  1
  Co  Co7  1  0.149348  0.616883  0.616883  1
  Co  Co8  1  0.616883  0.149348  0.616883  1
  Co  Co9  1  0.616883  0.616883  0.149348  1
  Co  Co10  1  0.616883  0.616883  0.616883  1
  Co  Co11  1  0.663409  0.000000  0.000000  1
  Co  Co12  1  0.663409  0.000000  0.336591  1
  Co  Co13  1  0.663409  0.336591  0.000000  1
  Co  Co14  1  0.000000  0.663409  0.336591  1
  Co  Co15  1  0.000000  0.663409  0.000000  1
  Co  Co16  1  0.336591  0.663409  0.000000  1
  Co  Co17  1  0.000000  0.336591  0.663409  1
  Co  Co18  1  0.336591  0.000000  0.663409  1
  Co  Co19  1  0.000000  0.000000  0.663409  1
  Co  Co20  1  0.336591  0.000000  0.000000  1
  Co  Co21  1  0.000000  0.336591  0.000000  1
  Co  Co22  1  0.000000  0.000000  0.336591  1
  B  B23  1  0.726691  0.273309  0.273309  1
  B  B24  1  0.726691  0.273309  0.726691  1
  B  B25  1  0.726691  0.726691  0.273309  1
  B  B26  1  0.273309  0.726691  0.726691  1
  B  B27  1  0.273309  0.726691  0.273309  1
  B  B28  1  0.273309  0.273309  0.726691  1
