# generated using pymatgen
data_Dy12Co3Si8Rh
_symmetry_space_group_name_H-M   'P 1'
_cell_length_a   4.12565600
_cell_length_b   11.16146708
_cell_length_c   11.43919504
_cell_angle_alpha   90.20281348
_cell_angle_beta   90.00000000
_cell_angle_gamma   90.00000000
_symmetry_Int_Tables_number   1
_chemical_formula_structural   Dy12Co3Si8Rh
_chemical_formula_sum   'Dy12 Co3 Si8 Rh1'
_cell_volume   526.75302708
_cell_formula_units_Z   1
loop_
 _symmetry_equiv_pos_site_id
 _symmetry_equiv_pos_as_xyz
  1  'x, y, z'
loop_
 _atom_site_type_symbol
 _atom_site_label
 _atom_site_symmetry_multiplicity
 _atom_site_fract_x
 _atom_site_fract_y
 _atom_site_fract_z
 _atom_site_occupancy
  Dy  Dy0  1  0.250000  0.059160  0.881916  1
  Dy  Dy1  1  0.250000  0.441152  0.382147  1
  Dy  Dy2  1  0.750000  0.943538  0.121493  1
  Dy  Dy3  1  0.750000  0.557732  0.618277  1
  Dy  Dy4  1  0.250000  0.128237  0.556183  1
  Dy  Dy5  1  0.250000  0.372717  0.058841  1
  Dy  Dy6  1  0.750000  0.873712  0.440690  1
  Dy  Dy7  1  0.750000  0.621710  0.943515  1
  Dy  Dy8  1  0.250000  0.801448  0.712278  1
  Dy  Dy9  1  0.250000  0.697973  0.218308  1
  Dy  Dy10  1  0.750000  0.199919  0.282289  1
  Dy  Dy11  1  0.750000  0.301272  0.781953  1
  Co  Co12  1  0.250000  0.364484  0.630008  1
  Co  Co13  1  0.250000  0.135575  0.130478  1
  Co  Co14  1  0.750000  0.634967  0.370592  1
  Si  Si15  1  0.250000  0.811465  0.982201  1
  Si  Si16  1  0.250000  0.683040  0.474288  1
  Si  Si17  1  0.750000  0.184345  0.025721  1
  Si  Si18  1  0.750000  0.317591  0.525829  1
  Si  Si19  1  0.250000  0.493353  0.801400  1
  Si  Si20  1  0.250000  0.007658  0.302710  1
  Si  Si21  1  0.750000  0.504776  0.199153  1
  Si  Si22  1  0.750000  0.998986  0.691642  1
  Rh  Rh23  1  0.750000  0.865193  0.868083  1
