# generated using pymatgen
data_Ca20Si11Pd
_symmetry_space_group_name_H-M   'P 1'
_cell_length_a   7.65077700
_cell_length_b   7.65077700
_cell_length_c   14.76573600
_cell_angle_alpha   90.00000000
_cell_angle_beta   90.00000000
_cell_angle_gamma   90.00000000
_symmetry_Int_Tables_number   1
_chemical_formula_structural   Ca20Si11Pd
_chemical_formula_sum   'Ca20 Si11 Pd1'
_cell_volume   864.30333052
_cell_formula_units_Z   1
loop_
 _symmetry_equiv_pos_site_id
 _symmetry_equiv_pos_as_xyz
  1  'x, y, z'
loop_
 _atom_site_type_symbol
 _atom_site_label
 _atom_site_symmetry_multiplicity
 _atom_site_fract_x
 _atom_site_fract_y
 _atom_site_fract_z
 _atom_site_occupancy
  Ca  Ca0  1  0.000000  0.500000  0.248164  1
  Ca  Ca1  1  0.500000  0.000000  0.249579  1
  Ca  Ca2  1  0.500000  0.000000  0.750223  1
  Ca  Ca3  1  0.000000  0.500000  0.752012  1
  Ca  Ca4  1  0.179441  0.180074  0.108874  1
  Ca  Ca5  1  0.820559  0.819927  0.108874  1
  Ca  Ca6  1  0.676388  0.319833  0.391127  1
  Ca  Ca7  1  0.323611  0.680166  0.391127  1
  Ca  Ca8  1  0.819834  0.823612  0.391127  1
  Ca  Ca9  1  0.180167  0.176388  0.391127  1
  Ca  Ca10  1  0.680073  0.320558  0.108874  1
  Ca  Ca11  1  0.319926  0.679441  0.108874  1
  Ca  Ca12  1  0.320022  0.320454  0.891144  1
  Ca  Ca13  1  0.679977  0.679545  0.891144  1
  Ca  Ca14  1  0.819929  0.176493  0.608842  1
  Ca  Ca15  1  0.180071  0.823508  0.608842  1
  Ca  Ca16  1  0.676492  0.680071  0.608842  1
  Ca  Ca17  1  0.323507  0.319928  0.608842  1
  Ca  Ca18  1  0.820455  0.179977  0.891144  1
  Ca  Ca19  1  0.179546  0.820023  0.891144  1
  Si  Si20  1  0.386691  0.388557  0.250319  1
  Si  Si21  1  0.613309  0.611443  0.250319  1
  Si  Si22  1  0.888557  0.113308  0.250319  1
  Si  Si23  1  0.111442  0.886691  0.250319  1
  Si  Si24  1  0.111507  0.113351  0.749683  1
  Si  Si25  1  0.888492  0.886648  0.749683  1
  Si  Si26  1  0.613352  0.388492  0.749683  1
  Si  Si27  1  0.386648  0.611508  0.749683  1
  Si  Si28  1  0.000000  0.500000  0.999958  1
  Si  Si29  1  0.500000  0.000000  0.500041  1
  Si  Si30  1  0.500000  0.000000  0.000089  1
  Pd  Pd31  1  0.000000  0.500000  0.499976  1
