# generated using pymatgen
data_ErTm4Ni19
_symmetry_space_group_name_H-M   'P 1'
_cell_length_a   4.87344191
_cell_length_b   4.87344255
_cell_length_c   16.29753289
_cell_angle_alpha   81.40119179
_cell_angle_beta   81.40118991
_cell_angle_gamma   59.99999855
_symmetry_Int_Tables_number   1
_chemical_formula_structural   ErTm4Ni19
_chemical_formula_sum   'Er1 Tm4 Ni19'
_cell_volume   330.18198714
_cell_formula_units_Z   1
loop_
 _symmetry_equiv_pos_site_id
 _symmetry_equiv_pos_as_xyz
  1  'x, y, z'
loop_
 _atom_site_type_symbol
 _atom_site_label
 _atom_site_symmetry_multiplicity
 _atom_site_fract_x
 _atom_site_fract_y
 _atom_site_fract_z
 _atom_site_occupancy
  Er  Er0  1  0.921752  0.921752  0.234744  1
  Tm  Tm1  1  0.000101  0.000101  0.999697  1
  Tm  Tm2  1  0.078226  0.078226  0.765320  1
  Tm  Tm3  1  0.848017  0.848017  0.455950  1
  Tm  Tm4  1  0.151883  0.151883  0.544349  1
  Ni  Ni5  1  0.499964  0.499964  0.500109  1
  Ni  Ni6  1  0.749479  0.749480  0.751563  1
  Ni  Ni7  1  0.250473  0.250473  0.248581  1
  Ni  Ni8  1  0.666750  0.666750  0.999751  1
  Ni  Ni9  1  0.333365  0.333365  0.999902  1
  Ni  Ni10  1  0.583930  0.583930  0.248211  1
  Ni  Ni11  1  0.416029  0.416029  0.751912  1
  Ni  Ni12  1  0.375382  0.375382  0.372187  1
  Ni  Ni13  1  0.877048  0.375382  0.372187  1
  Ni  Ni14  1  0.375382  0.877048  0.372187  1
  Ni  Ni15  1  0.624488  0.624488  0.628181  1
  Ni  Ni16  1  0.122843  0.624488  0.628181  1
  Ni  Ni17  1  0.624488  0.122843  0.628181  1
  Ni  Ni18  1  0.459172  0.459172  0.122658  1
  Ni  Ni19  1  0.958996  0.459172  0.122658  1
  Ni  Ni20  1  0.459172  0.958996  0.122658  1
  Ni  Ni21  1  0.540958  0.540958  0.876946  1
  Ni  Ni22  1  0.041140  0.540958  0.876946  1
  Ni  Ni23  1  0.540958  0.041140  0.876946  1
