# generated using pymatgen
data_Tb3Ho8Er9(CoSb2)4
_symmetry_space_group_name_H-M   'P 1'
_cell_length_a   7.85487544
_cell_length_b   8.75237500
_cell_length_c   12.15676816
_cell_angle_alpha   90.00000000
_cell_angle_beta   89.96427704
_cell_angle_gamma   90.00000000
_symmetry_Int_Tables_number   1
_chemical_formula_structural   Tb3Ho8Er9(CoSb2)4
_chemical_formula_sum   'Tb3 Ho8 Er9 Co4 Sb8'
_cell_volume   835.76324811
_cell_formula_units_Z   1
loop_
 _symmetry_equiv_pos_site_id
 _symmetry_equiv_pos_as_xyz
  1  'x, y, z'
loop_
 _atom_site_type_symbol
 _atom_site_label
 _atom_site_symmetry_multiplicity
 _atom_site_fract_x
 _atom_site_fract_y
 _atom_site_fract_z
 _atom_site_occupancy
  Tb  Tb0  1  0.622052  0.750000  0.307263  1
  Tb  Tb1  1  0.377559  0.250000  0.692859  1
  Tb  Tb2  1  0.877484  0.750000  0.807218  1
  Ho  Ho3  1  0.654109  0.250000  0.296857  1
  Ho  Ho4  1  0.846415  0.250000  0.797333  1
  Ho  Ho5  1  0.346306  0.750000  0.702820  1
  Ho  Ho6  1  0.452322  0.750000  0.998019  1
  Ho  Ho7  1  0.953315  0.250000  0.501690  1
  Ho  Ho8  1  0.546752  0.250000  0.002490  1
  Ho  Ho9  1  0.047281  0.750000  0.497604  1
  Ho  Ho10  1  0.121816  0.250000  0.192231  1
  Er  Er11  1  0.153589  0.750000  0.202349  1
  Er  Er12  1  0.823355  0.964474  0.065419  1
  Er  Er13  1  0.323010  0.035272  0.434857  1
  Er  Er14  1  0.176929  0.464594  0.935394  1
  Er  Er15  1  0.677081  0.535283  0.565021  1
  Er  Er16  1  0.176929  0.035406  0.935394  1
  Er  Er17  1  0.677081  0.964717  0.565021  1
  Er  Er18  1  0.823355  0.535526  0.065419  1
  Er  Er19  1  0.323010  0.464728  0.434857  1
  Co  Co20  1  0.435550  0.750000  0.491511  1
  Co  Co21  1  0.935453  0.250000  0.009065  1
  Co  Co22  1  0.564928  0.250000  0.508418  1
  Co  Co23  1  0.064798  0.750000  0.991580  1
  Sb  Sb24  1  0.930336  0.992054  0.326845  1
  Sb  Sb25  1  0.428011  0.008032  0.172803  1
  Sb  Sb26  1  0.070713  0.492051  0.672452  1
  Sb  Sb27  1  0.570702  0.507898  0.827555  1
  Sb  Sb28  1  0.070713  0.007949  0.672452  1
  Sb  Sb29  1  0.570702  0.992102  0.827555  1
  Sb  Sb30  1  0.930336  0.507946  0.326845  1
  Sb  Sb31  1  0.428011  0.491968  0.172803  1
