# generated using pymatgen
data_Tb4TmPb4
_symmetry_space_group_name_H-M   'P 1'
_cell_length_a   8.18907900
_cell_length_b   8.29115000
_cell_length_c   15.69074600
_cell_angle_alpha   90.00000000
_cell_angle_beta   90.00000000
_cell_angle_gamma   90.00000000
_symmetry_Int_Tables_number   1
_chemical_formula_structural   Tb4TmPb4
_chemical_formula_sum   'Tb16 Tm4 Pb16'
_cell_volume   1065.35273516
_cell_formula_units_Z   4
loop_
 _symmetry_equiv_pos_site_id
 _symmetry_equiv_pos_as_xyz
  1  'x, y, z'
loop_
 _atom_site_type_symbol
 _atom_site_label
 _atom_site_symmetry_multiplicity
 _atom_site_fract_x
 _atom_site_fract_y
 _atom_site_fract_z
 _atom_site_occupancy
  Tb  Tb0  1  0.376525  0.841230  0.879880  1
  Tb  Tb1  1  0.876525  0.658770  0.620120  1
  Tb  Tb2  1  0.623475  0.158770  0.379880  1
  Tb  Tb3  1  0.123475  0.341230  0.120120  1
  Tb  Tb4  1  0.623475  0.158770  0.120120  1
  Tb  Tb5  1  0.123475  0.341230  0.379880  1
  Tb  Tb6  1  0.376525  0.841230  0.620120  1
  Tb  Tb7  1  0.876525  0.658770  0.879880  1
  Tb  Tb8  1  0.533775  0.322492  0.900383  1
  Tb  Tb9  1  0.033775  0.177508  0.599617  1
  Tb  Tb10  1  0.466225  0.677508  0.400383  1
  Tb  Tb11  1  0.966225  0.822492  0.099617  1
  Tb  Tb12  1  0.466225  0.677508  0.099617  1
  Tb  Tb13  1  0.966225  0.822492  0.400383  1
  Tb  Tb14  1  0.533775  0.322492  0.599617  1
  Tb  Tb15  1  0.033775  0.177508  0.900383  1
  Tm  Tm16  1  0.208099  0.504543  0.750000  1
  Tm  Tm17  1  0.708099  0.995457  0.750000  1
  Tm  Tm18  1  0.791901  0.495457  0.250000  1
  Tm  Tm19  1  0.291901  0.004543  0.250000  1
  Pb  Pb20  1  0.282079  0.032412  0.043643  1
  Pb  Pb21  1  0.782079  0.467588  0.456357  1
  Pb  Pb22  1  0.717921  0.967588  0.543643  1
  Pb  Pb23  1  0.217921  0.532412  0.956357  1
  Pb  Pb24  1  0.717921  0.967588  0.956357  1
  Pb  Pb25  1  0.217921  0.532412  0.543643  1
  Pb  Pb26  1  0.282079  0.032412  0.456357  1
  Pb  Pb27  1  0.782079  0.467588  0.043643  1
  Pb  Pb28  1  0.571720  0.624390  0.750000  1
  Pb  Pb29  1  0.071720  0.875610  0.750000  1
  Pb  Pb30  1  0.428280  0.375610  0.250000  1
  Pb  Pb31  1  0.928280  0.124390  0.250000  1
  Pb  Pb32  1  0.343928  0.152623  0.750000  1
  Pb  Pb33  1  0.843928  0.347377  0.750000  1
  Pb  Pb34  1  0.656072  0.847377  0.250000  1
  Pb  Pb35  1  0.156072  0.652623  0.250000  1
