# generated using pymatgen
data_HoAuCl6
_symmetry_space_group_name_H-M   'P 1'
_cell_length_a   7.77214743
_cell_length_b   9.89261193
_cell_length_c   14.04728083
_cell_angle_alpha   103.42977605
_cell_angle_beta   97.09670173
_cell_angle_gamma   112.58278835
_symmetry_Int_Tables_number   1
_chemical_formula_structural   HoAuCl6
_chemical_formula_sum   'Ho4 Au4 Cl24'
_cell_volume   942.36392836
_cell_formula_units_Z   4
loop_
 _symmetry_equiv_pos_site_id
 _symmetry_equiv_pos_as_xyz
  1  'x, y, z'
loop_
 _atom_site_type_symbol
 _atom_site_label
 _atom_site_symmetry_multiplicity
 _atom_site_fract_x
 _atom_site_fract_y
 _atom_site_fract_z
 _atom_site_occupancy
  Ho  Ho0  1  0.579678  0.928588  0.622264  1
  Ho  Ho1  1  0.028734  0.685501  0.128025  1
  Ho  Ho2  1  0.420322  0.071412  0.377736  1
  Ho  Ho3  1  0.971266  0.314499  0.871975  1
  Au  Au4  1  0.293079  0.634109  0.763841  1
  Au  Au5  1  0.500000  0.500000  0.500000  1
  Au  Au6  1  0.706921  0.365891  0.236159  1
  Au  Au7  1  0.000000  0.000000  0.000000  1
  Cl  Cl8  1  0.782862  0.103413  0.970914  1
  Cl  Cl9  1  0.719480  0.148547  0.265423  1
  Cl  Cl10  1  0.280520  0.851453  0.734577  1
  Cl  Cl11  1  0.771609  0.789913  0.029767  1
  Cl  Cl12  1  0.619527  0.192917  0.744940  1
  Cl  Cl13  1  0.302852  0.412572  0.788630  1
  Cl  Cl14  1  0.697148  0.587428  0.211370  1
  Cl  Cl15  1  0.307102  0.630743  0.500102  1
  Cl  Cl16  1  0.228391  0.210087  0.970233  1
  Cl  Cl17  1  0.758466  0.734573  0.526886  1
  Cl  Cl18  1  0.217138  0.896587  0.029086  1
  Cl  Cl19  1  0.719853  0.046678  0.483411  1
  Cl  Cl20  1  0.606807  0.733496  0.746362  1
  Cl  Cl21  1  0.942252  0.060856  0.731200  1
  Cl  Cl22  1  0.241534  0.265427  0.473114  1
  Cl  Cl23  1  0.380473  0.807083  0.255060  1
  Cl  Cl24  1  0.976901  0.536863  0.777889  1
  Cl  Cl25  1  0.768638  0.437696  0.977576  1
  Cl  Cl26  1  0.231362  0.562304  0.022424  1
  Cl  Cl27  1  0.023099  0.463137  0.222111  1
  Cl  Cl28  1  0.393193  0.266504  0.253638  1
  Cl  Cl29  1  0.280147  0.953322  0.516589  1
  Cl  Cl30  1  0.692898  0.369257  0.499898  1
  Cl  Cl31  1  0.057748  0.939144  0.268800  1
