# generated using pymatgen
data_YbY7Mg2(SiB4)4
_symmetry_space_group_name_H-M   'P 1'
_cell_length_a   7.18156890
_cell_length_b   7.18156890
_cell_length_c   7.89705556
_cell_angle_alpha   90.05111524
_cell_angle_beta   90.05111524
_cell_angle_gamma   89.97417115
_symmetry_Int_Tables_number   1
_chemical_formula_structural   YbY7Mg2(SiB4)4
_chemical_formula_sum   'Yb1 Y7 Mg2 Si4 B16'
_cell_volume   407.28973723
_cell_formula_units_Z   1
loop_
 _symmetry_equiv_pos_site_id
 _symmetry_equiv_pos_as_xyz
  1  'x, y, z'
loop_
 _atom_site_type_symbol
 _atom_site_label
 _atom_site_symmetry_multiplicity
 _atom_site_fract_x
 _atom_site_fract_y
 _atom_site_fract_z
 _atom_site_occupancy
  Yb  Yb0  1  0.682981  0.182981  0.234478  1
  Y  Y1  1  0.317337  0.817337  0.765594  1
  Y  Y2  1  0.316849  0.816849  0.233282  1
  Y  Y3  1  0.817504  0.682984  0.233122  1
  Y  Y4  1  0.816199  0.683042  0.766136  1
  Y  Y5  1  0.683292  0.183292  0.768434  1
  Y  Y6  1  0.183042  0.316199  0.766136  1
  Y  Y7  1  0.182984  0.317504  0.233122  1
  Mg  Mg8  1  0.998659  0.000822  0.498906  1
  Mg  Mg9  1  0.500822  0.498659  0.498906  1
  Si  Si10  1  0.116064  0.616064  0.501536  1
  Si  Si11  1  0.885340  0.385340  0.500008  1
  Si  Si12  1  0.384175  0.114647  0.500960  1
  Si  Si13  1  0.614647  0.884175  0.500960  1
  B  B14  1  0.173819  0.039430  0.999014  1
  B  B15  1  0.826667  0.960700  0.001456  1
  B  B16  1  0.960291  0.173285  0.001101  1
  B  B17  1  0.326640  0.540128  0.999183  1
  B  B18  1  0.040128  0.826640  0.999183  1
  B  B19  1  0.673285  0.460291  0.001101  1
  B  B20  1  0.539430  0.673819  0.999014  1
  B  B21  1  0.460700  0.326667  0.001456  1
  B  B22  1  0.089161  0.589161  0.999293  1
  B  B23  1  0.910863  0.410863  0.999431  1
  B  B24  1  0.410975  0.088928  0.999414  1
  B  B25  1  0.588928  0.910975  0.999414  1
  B  B26  1  0.000359  0.999600  0.159748  1
  B  B27  1  0.999019  0.000238  0.839932  1
  B  B28  1  0.500238  0.499019  0.839932  1
  B  B29  1  0.499600  0.500359  0.159748  1
