# generated using pymatgen
data_Ho6V2Co16Si11P
_symmetry_space_group_name_H-M   'P 1'
_cell_length_a   3.76410400
_cell_length_b   10.78920709
_cell_length_c   12.36364010
_cell_angle_alpha   89.98528306
_cell_angle_beta   90.00000000
_cell_angle_gamma   90.00000000
_symmetry_Int_Tables_number   1
_chemical_formula_structural   Ho6V2Co16Si11P
_chemical_formula_sum   'Ho6 V2 Co16 Si11 P1'
_cell_volume   502.10839600
_cell_formula_units_Z   1
loop_
 _symmetry_equiv_pos_site_id
 _symmetry_equiv_pos_as_xyz
  1  'x, y, z'
loop_
 _atom_site_type_symbol
 _atom_site_label
 _atom_site_symmetry_multiplicity
 _atom_site_fract_x
 _atom_site_fract_y
 _atom_site_fract_z
 _atom_site_occupancy
  Ho  Ho0  1  0.000000  0.499384  0.526167  1
  Ho  Ho1  1  0.500000  0.000507  0.472858  1
  Ho  Ho2  1  0.500000  0.821430  0.204615  1
  Ho  Ho3  1  0.500000  0.181465  0.203035  1
  Ho  Ho4  1  0.000000  0.678195  0.796244  1
  Ho  Ho5  1  0.000000  0.321431  0.794286  1
  V  V6  1  0.500000  0.496681  0.144817  1
  V  V7  1  0.000000  0.000944  0.856263  1
  Co  Co8  1  0.000000  0.496419  0.989437  1
  Co  Co9  1  0.500000  0.001395  0.013784  1
  Co  Co10  1  0.500000  0.302116  0.429052  1
  Co  Co11  1  0.500000  0.697942  0.430717  1
  Co  Co12  1  0.000000  0.198310  0.568224  1
  Co  Co13  1  0.000000  0.801846  0.569443  1
  Co  Co14  1  0.500000  0.882220  0.707776  1
  Co  Co15  1  0.500000  0.118186  0.707221  1
  Co  Co16  1  0.000000  0.617527  0.292838  1
  Co  Co17  1  0.000000  0.381386  0.288174  1
  Co  Co18  1  0.500000  0.330972  0.999225  1
  Co  Co19  1  0.500000  0.667117  0.998235  1
  Co  Co20  1  0.000000  0.172055  0.004944  1
  Co  Co21  1  0.000000  0.831368  0.003058  1
  Co  Co22  1  0.500000  0.499678  0.698159  1
  Co  Co23  1  0.000000  0.000489  0.302010  1
  Si  Si24  1  0.500000  0.303243  0.613625  1
  Si  Si25  1  0.500000  0.696627  0.615101  1
  Si  Si26  1  0.000000  0.197275  0.384131  1
  Si  Si27  1  0.000000  0.803260  0.385177  1
  Si  Si28  1  0.500000  0.499291  0.885848  1
  Si  Si29  1  0.000000  0.000417  0.114715  1
  Si  Si30  1  0.500000  0.845580  0.893758  1
  Si  Si31  1  0.500000  0.155382  0.892739  1
  Si  Si32  1  0.000000  0.654337  0.107714  1
  Si  Si33  1  0.500000  0.500000  0.342651  1
  Si  Si34  1  0.000000  0.000313  0.656967  1
  P  P35  1  0.000000  0.345211  0.106989  1
