# generated using pymatgen
data_Ce3PS2
_symmetry_space_group_name_H-M   'P 1'
_cell_length_a   7.01394036
_cell_length_b   7.01394027
_cell_length_c   7.01394046
_cell_angle_alpha   146.29904335
_cell_angle_beta   131.76992469
_cell_angle_gamma   60.12655878
_symmetry_Int_Tables_number   1
_chemical_formula_structural   Ce3PS2
_chemical_formula_sum   'Ce3 P1 S2'
_cell_volume   141.47410575
_cell_formula_units_Z   1
loop_
 _symmetry_equiv_pos_site_id
 _symmetry_equiv_pos_as_xyz
  1  'x, y, z'
loop_
 _atom_site_type_symbol
 _atom_site_label
 _atom_site_symmetry_multiplicity
 _atom_site_fract_x
 _atom_site_fract_y
 _atom_site_fract_z
 _atom_site_occupancy
  Ce  Ce0  1  0.000000  0.000000  0.000000  1
  Ce  Ce1  1  0.666251  0.666251  0.000000  1
  Ce  Ce2  1  0.333749  0.333749  0.000000  1
  P  P3  1  0.500000  0.000000  0.500000  1
  S  S4  1  0.165879  0.665879  0.500000  1
  S  S5  1  0.834121  0.334121  0.500000  1
