# generated using pymatgen
data_Nd20Ir5Rh7
_symmetry_space_group_name_H-M   'P 1'
_cell_length_a   11.23802351
_cell_length_b   11.23802351
_cell_length_c   6.60447210
_cell_angle_alpha   89.98604218
_cell_angle_beta   89.98604218
_cell_angle_gamma   90.03138481
_symmetry_Int_Tables_number   1
_chemical_formula_structural   Nd20Ir5Rh7
_chemical_formula_sum   'Nd20 Ir5 Rh7'
_cell_volume   834.09955794
_cell_formula_units_Z   1
loop_
 _symmetry_equiv_pos_site_id
 _symmetry_equiv_pos_as_xyz
  1  'x, y, z'
loop_
 _atom_site_type_symbol
 _atom_site_label
 _atom_site_symmetry_multiplicity
 _atom_site_fract_x
 _atom_site_fract_y
 _atom_site_fract_z
 _atom_site_occupancy
  Nd  Nd0  1  0.089625  0.290539  0.116005  1
  Nd  Nd1  1  0.791419  0.407767  0.115709  1
  Nd  Nd2  1  0.208864  0.590825  0.115717  1
  Nd  Nd3  1  0.909099  0.708814  0.115725  1
  Nd  Nd4  1  0.409175  0.791136  0.384283  1
  Nd  Nd5  1  0.592233  0.208581  0.384291  1
  Nd  Nd6  1  0.291186  0.090901  0.384275  1
  Nd  Nd7  1  0.709461  0.910375  0.383995  1
  Nd  Nd8  1  0.409652  0.208462  0.882344  1
  Nd  Nd9  1  0.709125  0.090770  0.883539  1
  Nd  Nd10  1  0.291593  0.909620  0.882599  1
  Nd  Nd11  1  0.590330  0.791668  0.882158  1
  Nd  Nd12  1  0.090380  0.708407  0.617401  1
  Nd  Nd13  1  0.909230  0.290875  0.616461  1
  Nd  Nd14  1  0.208332  0.409670  0.617842  1
  Nd  Nd15  1  0.791538  0.590348  0.617656  1
  Nd  Nd16  1  0.999799  0.999995  0.000043  1
  Nd  Nd17  1  0.500024  0.500139  0.000459  1
  Nd  Nd18  1  0.499861  0.499976  0.499541  1
  Nd  Nd19  1  0.000005  0.000201  0.499957  1
  Ir  Ir20  1  0.845742  0.154258  0.250000  1
  Ir  Ir21  1  0.346135  0.653865  0.750000  1
  Ir  Ir22  1  0.154510  0.154082  0.749884  1
  Ir  Ir23  1  0.845918  0.845490  0.750116  1
  Ir  Ir24  1  0.653266  0.346734  0.750000  1
  Rh  Rh25  1  0.154220  0.845780  0.250000  1
  Rh  Rh26  1  0.345771  0.346098  0.249935  1
  Rh  Rh27  1  0.653902  0.654229  0.250065  1
  Rh  Rh28  1  0.000405  0.500738  0.378835  1
  Rh  Rh29  1  0.499262  0.999595  0.121165  1
  Rh  Rh30  1  0.499573  0.999632  0.620042  1
  Rh  Rh31  1  0.000368  0.500427  0.879958  1
