# generated using pymatgen
data_Na2MnCu3Se4
_symmetry_space_group_name_H-M   'P 1'
_cell_length_a   8.19231241
_cell_length_b   8.19231267
_cell_length_c   7.07724797
_cell_angle_alpha   64.99032313
_cell_angle_beta   64.99032320
_cell_angle_gamma   28.23617652
_symmetry_Int_Tables_number   1
_chemical_formula_structural   Na2MnCu3Se4
_chemical_formula_sum   'Na2 Mn1 Cu3 Se4'
_cell_volume   202.24043813
_cell_formula_units_Z   1
loop_
 _symmetry_equiv_pos_site_id
 _symmetry_equiv_pos_as_xyz
  1  'x, y, z'
loop_
 _atom_site_type_symbol
 _atom_site_label
 _atom_site_symmetry_multiplicity
 _atom_site_fract_x
 _atom_site_fract_y
 _atom_site_fract_z
 _atom_site_occupancy
  Na  Na0  1  0.496050  0.496050  0.499633  1
  Na  Na1  1  0.996037  0.996037  0.007097  1
  Mn  Mn2  1  0.191571  0.191571  0.467777  1
  Cu  Cu3  1  0.698269  0.698269  0.975837  1
  Cu  Cu4  1  0.810887  0.810887  0.530517  1
  Cu  Cu5  1  0.308067  0.308067  0.017670  1
  Se  Se6  1  0.131963  0.131963  0.195893  1
  Se  Se7  1  0.633134  0.633134  0.706587  1
  Se  Se8  1  0.869785  0.869785  0.797947  1
  Se  Se9  1  0.363490  0.363490  0.301040  1
