# generated using pymatgen
data_NaSrPS4
_symmetry_space_group_name_H-M   'P 1'
_cell_length_a   9.76971300
_cell_length_b   6.15300602
_cell_length_c   11.79773728
_cell_angle_alpha   71.75258968
_cell_angle_beta   90.00000000
_cell_angle_gamma   90.00000000
_symmetry_Int_Tables_number   1
_chemical_formula_structural   NaSrPS4
_chemical_formula_sum   'Na4 Sr4 P4 S16'
_cell_volume   673.53532347
_cell_formula_units_Z   4
loop_
 _symmetry_equiv_pos_site_id
 _symmetry_equiv_pos_as_xyz
  1  'x, y, z'
loop_
 _atom_site_type_symbol
 _atom_site_label
 _atom_site_symmetry_multiplicity
 _atom_site_fract_x
 _atom_site_fract_y
 _atom_site_fract_z
 _atom_site_occupancy
  Na  Na0  1  0.171366  0.182501  0.973057  1
  Na  Na1  1  0.328634  0.182501  0.473057  1
  Na  Na2  1  0.828634  0.817499  0.026943  1
  Na  Na3  1  0.671366  0.817499  0.526943  1
  Sr  Sr4  1  0.885837  0.378587  0.346403  1
  Sr  Sr5  1  0.614163  0.378587  0.846403  1
  Sr  Sr6  1  0.114163  0.621413  0.653597  1
  Sr  Sr7  1  0.385837  0.621413  0.153597  1
  P  P8  1  0.622267  0.116809  0.187810  1
  P  P9  1  0.877733  0.116809  0.687810  1
  P  P10  1  0.377733  0.883191  0.812190  1
  P  P11  1  0.122267  0.883191  0.312190  1
  S  S12  1  0.787636  0.296632  0.097649  1
  S  S13  1  0.712364  0.296632  0.597649  1
  S  S14  1  0.212364  0.703368  0.902351  1
  S  S15  1  0.287636  0.703368  0.402351  1
  S  S16  1  0.951824  0.807290  0.419671  1
  S  S17  1  0.548176  0.807290  0.919671  1
  S  S18  1  0.048176  0.192710  0.580329  1
  S  S19  1  0.451824  0.192710  0.080329  1
  S  S20  1  0.589636  0.213849  0.338111  1
  S  S21  1  0.910364  0.213849  0.838111  1
  S  S22  1  0.410364  0.786151  0.661889  1
  S  S23  1  0.089636  0.786151  0.161889  1
  S  S24  1  0.153603  0.230067  0.266336  1
  S  S25  1  0.346397  0.230067  0.766336  1
  S  S26  1  0.846397  0.769933  0.733664  1
  S  S27  1  0.653603  0.769933  0.233664  1
