# generated using pymatgen
data_La16Er4Si11Os
_symmetry_space_group_name_H-M   'P 1'
_cell_length_a   11.65624200
_cell_length_b   11.65624200
_cell_length_c   6.71004200
_cell_angle_alpha   90.00000000
_cell_angle_beta   90.00000000
_cell_angle_gamma   90.00000000
_symmetry_Int_Tables_number   1
_chemical_formula_structural   La16Er4Si11Os
_chemical_formula_sum   'La16 Er4 Si11 Os1'
_cell_volume   911.67983590
_cell_formula_units_Z   1
loop_
 _symmetry_equiv_pos_site_id
 _symmetry_equiv_pos_as_xyz
  1  'x, y, z'
loop_
 _atom_site_type_symbol
 _atom_site_label
 _atom_site_symmetry_multiplicity
 _atom_site_fract_x
 _atom_site_fract_y
 _atom_site_fract_z
 _atom_site_occupancy
  La  La0  1  0.286121  0.087342  0.348937  1
  La  La1  1  0.297318  0.917203  0.860411  1
  La  La2  1  0.702682  0.082797  0.860411  1
  La  La3  1  0.713879  0.912658  0.348937  1
  La  La4  1  0.582797  0.797318  0.860411  1
  La  La5  1  0.587342  0.213879  0.348937  1
  La  La6  1  0.412658  0.786121  0.348937  1
  La  La7  1  0.417203  0.202682  0.860411  1
  La  La8  1  0.213043  0.411763  0.648377  1
  La  La9  1  0.212400  0.591262  0.146431  1
  La  La10  1  0.787600  0.408738  0.146431  1
  La  La11  1  0.786957  0.588237  0.648377  1
  La  La12  1  0.908738  0.712400  0.146431  1
  La  La13  1  0.911763  0.286957  0.648377  1
  La  La14  1  0.088237  0.713043  0.648377  1
  La  La15  1  0.091262  0.287600  0.146431  1
  Er  Er16  1  0.000000  0.000000  0.497131  1
  Er  Er17  1  0.000000  0.000000  0.995751  1
  Er  Er18  1  0.500000  0.500000  0.995751  1
  Er  Er19  1  0.500000  0.500000  0.497131  1
  Si  Si20  1  0.855925  0.151791  0.243833  1
  Si  Si21  1  0.848537  0.851067  0.751479  1
  Si  Si22  1  0.151463  0.148933  0.751479  1
  Si  Si23  1  0.144075  0.848209  0.243833  1
  Si  Si24  1  0.648933  0.348537  0.751479  1
  Si  Si25  1  0.651791  0.644075  0.243833  1
  Si  Si26  1  0.348209  0.355925  0.243833  1
  Si  Si27  1  0.351067  0.651463  0.751479  1
  Si  Si28  1  0.500000  0.000000  0.557443  1
  Si  Si29  1  0.000000  0.500000  0.901995  1
  Si  Si30  1  0.000000  0.500000  0.400702  1
  Os  Os31  1  0.500000  0.000000  0.156220  1
