# generated using pymatgen
data_MgIr7
_symmetry_space_group_name_H-M   'P 1'
_cell_length_a   5.48697634
_cell_length_b   5.48697520
_cell_length_c   5.48697600
_cell_angle_alpha   59.99999518
_cell_angle_beta   60.00000206
_cell_angle_gamma   59.99999101
_symmetry_Int_Tables_number   1
_chemical_formula_structural   MgIr7
_chemical_formula_sum   'Mg1 Ir7'
_cell_volume   116.81109878
_cell_formula_units_Z   1
loop_
 _symmetry_equiv_pos_site_id
 _symmetry_equiv_pos_as_xyz
  1  'x, y, z'
loop_
 _atom_site_type_symbol
 _atom_site_label
 _atom_site_symmetry_multiplicity
 _atom_site_fract_x
 _atom_site_fract_y
 _atom_site_fract_z
 _atom_site_occupancy
  Mg  Mg0  1  0.000000  0.000000  0.000000  1
  Ir  Ir1  1  0.500000  0.000000  0.000000  1
  Ir  Ir2  1  0.000000  0.500000  0.500000  1
  Ir  Ir3  1  0.000000  0.500000  0.000000  1
  Ir  Ir4  1  0.500000  0.000000  0.500000  1
  Ir  Ir5  1  0.000000  0.000000  0.500000  1
  Ir  Ir6  1  0.500000  0.500000  0.000000  1
  Ir  Ir7  1  0.500000  0.500000  0.500000  1
