# generated using pymatgen
data_Cs2CoTcP2
_symmetry_space_group_name_H-M   'P 1'
_cell_length_a   4.00559400
_cell_length_b   4.00559400
_cell_length_c   12.18398400
_cell_angle_alpha   90.00000000
_cell_angle_beta   90.00000000
_cell_angle_gamma   90.00000000
_symmetry_Int_Tables_number   1
_chemical_formula_structural   Cs2CoTcP2
_chemical_formula_sum   'Cs2 Co1 Tc1 P2'
_cell_volume   195.48938292
_cell_formula_units_Z   1
loop_
 _symmetry_equiv_pos_site_id
 _symmetry_equiv_pos_as_xyz
  1  'x, y, z'
loop_
 _atom_site_type_symbol
 _atom_site_label
 _atom_site_symmetry_multiplicity
 _atom_site_fract_x
 _atom_site_fract_y
 _atom_site_fract_z
 _atom_site_occupancy
  Cs  Cs0  1  0.000000  0.500000  0.272419  1
  Cs  Cs1  1  0.500000  0.000000  0.727581  1
  Co  Co2  1  0.500000  0.500000  0.000000  1
  Tc  Tc3  1  0.000000  0.000000  0.000000  1
  P  P4  1  0.000000  0.500000  0.906070  1
  P  P5  1  0.500000  0.000000  0.093930  1
