# generated using pymatgen
data_Tb4ErRuRh
_symmetry_space_group_name_H-M   'P 1'
_cell_length_a   6.37981546
_cell_length_b   7.24244806
_cell_length_c   8.57633209
_cell_angle_alpha   96.63820081
_cell_angle_beta   111.83550399
_cell_angle_gamma   90.00000268
_symmetry_Int_Tables_number   1
_chemical_formula_structural   Tb4ErRuRh
_chemical_formula_sum   'Tb8 Er2 Ru2 Rh2'
_cell_volume   364.97958326
_cell_formula_units_Z   2
loop_
 _symmetry_equiv_pos_site_id
 _symmetry_equiv_pos_as_xyz
  1  'x, y, z'
loop_
 _atom_site_type_symbol
 _atom_site_label
 _atom_site_symmetry_multiplicity
 _atom_site_fract_x
 _atom_site_fract_y
 _atom_site_fract_z
 _atom_site_occupancy
  Tb  Tb0  1  0.793800  0.581955  0.812685  1
  Tb  Tb1  1  0.981114  0.918045  0.187315  1
  Tb  Tb2  1  0.208647  0.415073  0.184882  1
  Tb  Tb3  1  0.023764  0.084927  0.815118  1
  Tb  Tb4  1  0.208194  0.684741  0.567489  1
  Tb  Tb5  1  0.640704  0.815259  0.432511  1
  Tb  Tb6  1  0.791934  0.311925  0.435409  1
  Tb  Tb7  1  0.356527  0.188075  0.564591  1
  Er  Er8  1  0.422638  0.750000  0.000000  1
  Er  Er9  1  0.575142  0.250000  0.000000  1
  Ru  Ru10  1  0.397953  0.073999  0.218738  1
  Ru  Ru11  1  0.179217  0.426001  0.781262  1
  Rh  Rh12  1  0.600763  0.924543  0.781159  1
  Rh  Rh13  1  0.819603  0.575457  0.218841  1
