# generated using pymatgen
data_Dy8Y8MgCo3NiAg3
_symmetry_space_group_name_H-M   'P 1'
_cell_length_a   9.44649303
_cell_length_b   9.46667871
_cell_length_c   9.48165991
_cell_angle_alpha   60.22109103
_cell_angle_beta   60.14506098
_cell_angle_gamma   60.28231747
_symmetry_Int_Tables_number   1
_chemical_formula_structural   Dy8Y8MgCo3NiAg3
_chemical_formula_sum   'Dy8 Y8 Mg1 Co3 Ni1 Ag3'
_cell_volume   602.49947098
_cell_formula_units_Z   1
loop_
 _symmetry_equiv_pos_site_id
 _symmetry_equiv_pos_as_xyz
  1  'x, y, z'
loop_
 _atom_site_type_symbol
 _atom_site_label
 _atom_site_symmetry_multiplicity
 _atom_site_fract_x
 _atom_site_fract_y
 _atom_site_fract_z
 _atom_site_occupancy
  Dy  Dy0  1  0.344126  0.344203  0.343983  1
  Dy  Dy1  1  0.349118  0.348126  0.960866  1
  Dy  Dy2  1  0.349175  0.960891  0.348044  1
  Dy  Dy3  1  0.948413  0.352690  0.352639  1
  Dy  Dy4  1  0.805264  0.189588  0.189316  1
  Dy  Dy5  1  0.184557  0.813348  0.813406  1
  Dy  Dy6  1  0.186510  0.809097  0.186551  1
  Dy  Dy7  1  0.808957  0.188278  0.811567  1
  Y  Y8  1  0.186450  0.186567  0.809494  1
  Y  Y9  1  0.809043  0.811727  0.188092  1
  Y  Y10  1  0.935813  0.563142  0.563289  1
  Y  Y11  1  0.564475  0.937183  0.937366  1
  Y  Y12  1  0.562580  0.937382  0.563418  1
  Y  Y13  1  0.936109  0.564455  0.938950  1
  Y  Y14  1  0.562324  0.562963  0.937550  1
  Y  Y15  1  0.936522  0.939229  0.564117  1
  Mg  Mg16  1  0.291409  0.568857  0.569052  1
  Co  Co17  1  0.137841  0.142150  0.574623  1
  Co  Co18  1  0.140584  0.574485  0.142155  1
  Co  Co19  1  0.574096  0.143662  0.140981  1
  Ni  Ni20  1  0.138568  0.143024  0.145645  1
  Ag  Ag21  1  0.582844  0.583271  0.583327  1
  Ag  Ag22  1  0.582568  0.582631  0.252916  1
  Ag  Ag23  1  0.582653  0.253047  0.582649  1
