# generated using pymatgen
data_Ho16In4Ni2IrRh
_symmetry_space_group_name_H-M   'P 1'
_cell_length_a   9.59092522
_cell_length_b   9.58002014
_cell_length_c   9.57775829
_cell_angle_alpha   59.99218505
_cell_angle_beta   60.25451233
_cell_angle_gamma   60.03760192
_symmetry_Int_Tables_number   1
_chemical_formula_structural   Ho16In4Ni2IrRh
_chemical_formula_sum   'Ho16 In4 Ni2 Ir1 Rh1'
_cell_volume   623.59434956
_cell_formula_units_Z   1
loop_
 _symmetry_equiv_pos_site_id
 _symmetry_equiv_pos_as_xyz
  1  'x, y, z'
loop_
 _atom_site_type_symbol
 _atom_site_label
 _atom_site_symmetry_multiplicity
 _atom_site_fract_x
 _atom_site_fract_y
 _atom_site_fract_z
 _atom_site_occupancy
  Ho  Ho0  1  0.187784  0.187647  0.814544  1
  Ho  Ho1  1  0.597079  0.600502  0.201916  1
  Ho  Ho2  1  0.440179  0.060110  0.439601  1
  Ho  Ho3  1  0.441192  0.437756  0.062115  1
  Ho  Ho4  1  0.812580  0.188680  0.810059  1
  Ho  Ho5  1  0.188125  0.811959  0.187958  1
  Ho  Ho6  1  0.441192  0.058939  0.062115  1
  Ho  Ho7  1  0.187784  0.810026  0.814544  1
  Ho  Ho8  1  0.059491  0.440139  0.060231  1
  Ho  Ho9  1  0.814859  0.807369  0.188828  1
  Ho  Ho10  1  0.202139  0.600342  0.597175  1
  Ho  Ho11  1  0.061681  0.437897  0.441028  1
  Ho  Ho12  1  0.061681  0.059395  0.441028  1
  Ho  Ho13  1  0.814859  0.188946  0.188828  1
  Ho  Ho14  1  0.597466  0.205429  0.597216  1
  Ho  Ho15  1  0.597466  0.599888  0.597216  1
  In  In16  1  0.832836  0.833020  0.832509  1
  In  In17  1  0.832029  0.833013  0.501947  1
  In  In18  1  0.502123  0.832964  0.831950  1
  In  In19  1  0.832836  0.501635  0.832509  1
  Ni  Ni20  1  0.390418  0.824094  0.390722  1
  Ni  Ni21  1  0.390418  0.394765  0.390722  1
  Ir  Ir22  1  0.823566  0.392849  0.390735  1
  Rh  Rh23  1  0.390215  0.392639  0.824506  1
