# generated using pymatgen
data_Y9LuCd3Co
_symmetry_space_group_name_H-M   'P 1'
_cell_length_a   9.59493000
_cell_length_b   9.59493026
_cell_length_c   9.76113100
_cell_angle_alpha   90.00000000
_cell_angle_beta   90.00000000
_cell_angle_gamma   119.99999222
_symmetry_Int_Tables_number   1
_chemical_formula_structural   Y9LuCd3Co
_chemical_formula_sum   'Y18 Lu2 Cd6 Co2'
_cell_volume   778.24159669
_cell_formula_units_Z   2
loop_
 _symmetry_equiv_pos_site_id
 _symmetry_equiv_pos_as_xyz
  1  'x, y, z'
loop_
 _atom_site_type_symbol
 _atom_site_label
 _atom_site_symmetry_multiplicity
 _atom_site_fract_x
 _atom_site_fract_y
 _atom_site_fract_z
 _atom_site_occupancy
  Y  Y0  1  0.542312  0.457688  0.250000  1
  Y  Y1  1  0.542312  0.084625  0.250000  1
  Y  Y2  1  0.915375  0.457688  0.250000  1
  Y  Y3  1  0.457688  0.542312  0.750000  1
  Y  Y4  1  0.457688  0.915375  0.750000  1
  Y  Y5  1  0.084625  0.542312  0.750000  1
  Y  Y6  1  0.210429  0.789571  0.435716  1
  Y  Y7  1  0.210429  0.420859  0.435716  1
  Y  Y8  1  0.579141  0.789571  0.435716  1
  Y  Y9  1  0.789571  0.210429  0.564284  1
  Y  Y10  1  0.789571  0.579141  0.564284  1
  Y  Y11  1  0.420859  0.210429  0.564284  1
  Y  Y12  1  0.789571  0.210429  0.935716  1
  Y  Y13  1  0.789571  0.579141  0.935716  1
  Y  Y14  1  0.420859  0.210429  0.935716  1
  Y  Y15  1  0.210429  0.789571  0.064284  1
  Y  Y16  1  0.210429  0.420859  0.064284  1
  Y  Y17  1  0.579141  0.789571  0.064284  1
  Lu  Lu18  1  0.000000  0.000000  0.500000  1
  Lu  Lu19  1  0.000000  0.000000  0.000000  1
  Cd  Cd20  1  0.886433  0.113567  0.250000  1
  Cd  Cd21  1  0.886433  0.772864  0.250000  1
  Cd  Cd22  1  0.227136  0.113567  0.250000  1
  Cd  Cd23  1  0.113567  0.886433  0.750000  1
  Cd  Cd24  1  0.113567  0.227136  0.750000  1
  Cd  Cd25  1  0.772864  0.886433  0.750000  1
  Co  Co26  1  0.333333  0.666667  0.250000  1
  Co  Co27  1  0.666667  0.333333  0.750000  1
