# generated using pymatgen
data_CeDy3Co4(SnH)4
_symmetry_space_group_name_H-M   'P 1'
_cell_length_a   4.28139000
_cell_length_b   7.09820391
_cell_length_c   8.21414223
_cell_angle_alpha   89.71564186
_cell_angle_beta   90.00000000
_cell_angle_gamma   90.00000000
_symmetry_Int_Tables_number   1
_chemical_formula_structural   CeDy3Co4(SnH)4
_chemical_formula_sum   'Ce1 Dy3 Co4 Sn4 H4'
_cell_volume   249.62618022
_cell_formula_units_Z   1
loop_
 _symmetry_equiv_pos_site_id
 _symmetry_equiv_pos_as_xyz
  1  'x, y, z'
loop_
 _atom_site_type_symbol
 _atom_site_label
 _atom_site_symmetry_multiplicity
 _atom_site_fract_x
 _atom_site_fract_y
 _atom_site_fract_z
 _atom_site_occupancy
  Ce  Ce0  1  0.750000  0.513816  0.808586  1
  Dy  Dy1  1  0.750000  0.013858  0.687214  1
  Dy  Dy2  1  0.250000  0.986622  0.313007  1
  Dy  Dy3  1  0.250000  0.486331  0.187652  1
  Co  Co4  1  0.750000  0.772558  0.101593  1
  Co  Co5  1  0.250000  0.229673  0.895019  1
  Co  Co6  1  0.250000  0.724057  0.608706  1
  Co  Co7  1  0.750000  0.272444  0.397231  1
  Sn  Sn8  1  0.750000  0.658612  0.424583  1
  Sn  Sn9  1  0.250000  0.340693  0.568483  1
  Sn  Sn10  1  0.250000  0.845561  0.928542  1
  Sn  Sn11  1  0.750000  0.156723  0.074289  1
  H  H12  1  0.250000  0.451657  0.920244  1
  H  H13  1  0.750000  0.550209  0.085222  1
  H  H14  1  0.750000  0.050715  0.418826  1
  H  H15  1  0.250000  0.946473  0.580804  1
