# generated using pymatgen
data_PrHo11(SiPd)12
_symmetry_space_group_name_H-M   'P 1'
_cell_length_a   4.35260700
_cell_length_b   7.42674914
_cell_length_c   21.04425409
_cell_angle_alpha   90.01634627
_cell_angle_beta   90.00000000
_cell_angle_gamma   90.00000000
_symmetry_Int_Tables_number   1
_chemical_formula_structural   PrHo11(SiPd)12
_chemical_formula_sum   'Pr1 Ho11 Si12 Pd12'
_cell_volume   680.27064358
_cell_formula_units_Z   1
loop_
 _symmetry_equiv_pos_site_id
 _symmetry_equiv_pos_as_xyz
  1  'x, y, z'
loop_
 _atom_site_type_symbol
 _atom_site_label
 _atom_site_symmetry_multiplicity
 _atom_site_fract_x
 _atom_site_fract_y
 _atom_site_fract_z
 _atom_site_occupancy
  Pr  Pr0  1  0.250000  0.794426  0.501215  1
  Ho  Ho1  1  0.250000  0.704078  0.331752  1
  Ho  Ho2  1  0.750000  0.294006  0.667923  1
  Ho  Ho3  1  0.750000  0.206039  0.166788  1
  Ho  Ho4  1  0.250000  0.794155  0.833323  1
  Ho  Ho5  1  0.250000  0.792576  0.166093  1
  Ho  Ho6  1  0.750000  0.207236  0.833770  1
  Ho  Ho7  1  0.750000  0.292500  0.332167  1
  Ho  Ho8  1  0.250000  0.706251  0.667849  1
  Ho  Ho9  1  0.250000  0.710512  0.000980  1
  Ho  Ho10  1  0.750000  0.289234  0.998874  1
  Ho  Ho11  1  0.750000  0.214442  0.498639  1
  Si  Si12  1  0.250000  0.089207  0.071414  1
  Si  Si13  1  0.750000  0.910838  0.928683  1
  Si  Si14  1  0.750000  0.586144  0.425163  1
  Si  Si15  1  0.250000  0.408790  0.571536  1
  Si  Si16  1  0.250000  0.085563  0.270485  1
  Si  Si17  1  0.750000  0.914449  0.729899  1
  Si  Si18  1  0.750000  0.585763  0.228200  1
  Si  Si19  1  0.250000  0.414691  0.772293  1
  Si  Si20  1  0.250000  0.088301  0.392777  1
  Si  Si21  1  0.750000  0.914199  0.607719  1
  Si  Si22  1  0.750000  0.587397  0.104290  1
  Si  Si23  1  0.250000  0.412901  0.895680  1
  Pd  Pd24  1  0.250000  0.416984  0.236415  1
  Pd  Pd25  1  0.750000  0.582622  0.763291  1
  Pd  Pd26  1  0.750000  0.917027  0.262129  1
  Pd  Pd27  1  0.250000  0.083137  0.738009  1
  Pd  Pd28  1  0.250000  0.412903  0.436687  1
  Pd  Pd29  1  0.750000  0.577505  0.566037  1
  Pd  Pd30  1  0.750000  0.917222  0.062273  1
  Pd  Pd31  1  0.250000  0.082970  0.937548  1
  Pd  Pd32  1  0.250000  0.419797  0.093335  1
  Pd  Pd33  1  0.750000  0.580234  0.906471  1
  Pd  Pd34  1  0.750000  0.921607  0.403855  1
  Pd  Pd35  1  0.250000  0.084295  0.596443  1
