# generated using pymatgen
data_Ho8Tl2PdPt
_symmetry_space_group_name_H-M   'P 1'
_cell_length_a   9.68561400
_cell_length_b   9.68561707
_cell_length_c   9.68681500
_cell_angle_alpha   59.99590517
_cell_angle_beta   59.99600397
_cell_angle_gamma   59.89519319
_symmetry_Int_Tables_number   1
_chemical_formula_structural   Ho8Tl2PdPt
_chemical_formula_sum   'Ho16 Tl4 Pd2 Pt2'
_cell_volume   642.02031109
_cell_formula_units_Z   2
loop_
 _symmetry_equiv_pos_site_id
 _symmetry_equiv_pos_as_xyz
  1  'x, y, z'
loop_
 _atom_site_type_symbol
 _atom_site_label
 _atom_site_symmetry_multiplicity
 _atom_site_fract_x
 _atom_site_fract_y
 _atom_site_fract_z
 _atom_site_occupancy
  Ho  Ho0  1  0.601480  0.601503  0.599281  1
  Ho  Ho1  1  0.601477  0.601519  0.197715  1
  Ho  Ho2  1  0.603219  0.193645  0.601590  1
  Ho  Ho3  1  0.193685  0.603238  0.601526  1
  Ho  Ho4  1  0.059930  0.439983  0.438322  1
  Ho  Ho5  1  0.439965  0.059936  0.061772  1
  Ho  Ho6  1  0.439975  0.059939  0.438292  1
  Ho  Ho7  1  0.059930  0.439976  0.061756  1
  Ho  Ho8  1  0.439002  0.438965  0.061015  1
  Ho  Ho9  1  0.060784  0.060772  0.439215  1
  Ho  Ho10  1  0.187371  0.813660  0.811444  1
  Ho  Ho11  1  0.813665  0.187388  0.187498  1
  Ho  Ho12  1  0.813647  0.187391  0.811433  1
  Ho  Ho13  1  0.187370  0.813672  0.187518  1
  Ho  Ho14  1  0.813238  0.813283  0.186744  1
  Ho  Ho15  1  0.187441  0.187434  0.812585  1
  Tl  Tl16  1  0.835603  0.835622  0.836604  1
  Tl  Tl17  1  0.835619  0.835590  0.492172  1
  Tl  Tl18  1  0.834847  0.493713  0.835748  1
  Tl  Tl19  1  0.493733  0.834852  0.835736  1
  Pd  Pd20  1  0.393129  0.393065  0.394979  1
  Pd  Pd21  1  0.393112  0.393070  0.818853  1
  Pt  Pt22  1  0.391613  0.820181  0.394089  1
  Pt  Pt23  1  0.820164  0.391603  0.394109  1
