# generated using pymatgen
data_PrNdDy2(Mo2O7)2
_symmetry_space_group_name_H-M   'P 1'
_cell_length_a   7.50777800
_cell_length_b   7.49140613
_cell_length_c   7.49140645
_cell_angle_alpha   59.12585432
_cell_angle_beta   59.30953019
_cell_angle_gamma   59.30952237
_symmetry_Int_Tables_number   1
_chemical_formula_structural   PrNdDy2(Mo2O7)2
_chemical_formula_sum   'Pr1 Nd1 Dy2 Mo4 O14'
_cell_volume   292.83293660
_cell_formula_units_Z   1
loop_
 _symmetry_equiv_pos_site_id
 _symmetry_equiv_pos_as_xyz
  1  'x, y, z'
loop_
 _atom_site_type_symbol
 _atom_site_label
 _atom_site_symmetry_multiplicity
 _atom_site_fract_x
 _atom_site_fract_y
 _atom_site_fract_z
 _atom_site_occupancy
  Pr  Pr0  1  0.125000  0.125000  0.125000  1
  Nd  Nd1  1  0.625000  0.125000  0.125000  1
  Dy  Dy2  1  0.125000  0.625000  0.125000  1
  Dy  Dy3  1  0.125000  0.125000  0.625000  1
  Mo  Mo4  1  0.125000  0.625000  0.625000  1
  Mo  Mo5  1  0.625000  0.125000  0.625000  1
  Mo  Mo6  1  0.625000  0.625000  0.125000  1
  Mo  Mo7  1  0.625000  0.625000  0.625000  1
  O  O8  1  0.717788  0.704548  0.290080  1
  O  O9  1  0.292032  0.289406  0.704318  1
  O  O10  1  0.717788  0.290080  0.704548  1
  O  O11  1  0.292032  0.704318  0.289406  1
  O  O12  1  0.280426  0.716214  0.716214  1
  O  O13  1  0.703550  0.288821  0.288821  1
  O  O14  1  0.532212  0.545452  0.959920  1
  O  O15  1  0.957968  0.960594  0.545682  1
  O  O16  1  0.532212  0.959920  0.545452  1
  O  O17  1  0.957968  0.545682  0.960594  1
  O  O18  1  0.969574  0.533786  0.533786  1
  O  O19  1  0.546450  0.961179  0.961179  1
  O  O20  1  0.242714  0.256008  0.256008  1
  O  O21  1  0.007286  0.993992  0.993992  1
