# generated using pymatgen
data_Ce2Mn4Fe8P7
_symmetry_space_group_name_H-M   'P 1'
_cell_length_a   9.08404963
_cell_length_b   9.12344929
_cell_length_c   3.65979500
_cell_angle_alpha   90.00000000
_cell_angle_beta   90.00000000
_cell_angle_gamma   119.56759872
_symmetry_Int_Tables_number   1
_chemical_formula_structural   Ce2Mn4Fe8P7
_chemical_formula_sum   'Ce2 Mn4 Fe8 P7'
_cell_volume   263.81640686
_cell_formula_units_Z   1
loop_
 _symmetry_equiv_pos_site_id
 _symmetry_equiv_pos_as_xyz
  1  'x, y, z'
loop_
 _atom_site_type_symbol
 _atom_site_label
 _atom_site_symmetry_multiplicity
 _atom_site_fract_x
 _atom_site_fract_y
 _atom_site_fract_z
 _atom_site_occupancy
  Ce  Ce0  1  0.997794  0.997844  0.000000  1
  Ce  Ce1  1  0.334476  0.669774  0.500000  1
  Mn  Mn2  1  0.390189  0.211020  0.000000  1
  Mn  Mn3  1  0.884432  0.437849  0.500000  1
  Mn  Mn4  1  0.553300  0.115262  0.500000  1
  Mn  Mn5  1  0.564455  0.448180  0.500000  1
  Fe  Fe6  1  0.095304  0.394907  0.000000  1
  Fe  Fe7  1  0.300069  0.908311  0.000000  1
  Fe  Fe8  1  0.607017  0.701200  0.000000  1
  Fe  Fe9  1  0.818629  0.606716  0.000000  1
  Fe  Fe10  1  0.789324  0.181300  0.000000  1
  Fe  Fe11  1  0.046537  0.765004  0.500000  1
  Fe  Fe12  1  0.720144  0.950935  0.500000  1
  Fe  Fe13  1  0.233321  0.279982  0.500000  1
  P  P14  1  0.075961  0.637890  0.000000  1
  P  P15  1  0.562948  0.925161  0.000000  1
  P  P16  1  0.364494  0.445818  0.000000  1
  P  P17  1  0.777623  0.736110  0.500000  1
  P  P18  1  0.956662  0.220598  0.500000  1
  P  P19  1  0.258130  0.031628  0.500000  1
  P  P20  1  0.669195  0.334511  0.000000  1
