# generated using pymatgen
data_CaYTm6(B6Ru)4
_symmetry_space_group_name_H-M   'P 1'
_cell_length_a   3.62756300
_cell_length_b   9.09024964
_cell_length_c   11.47869300
_cell_angle_alpha   89.91210097
_cell_angle_beta   90.00000000
_cell_angle_gamma   90.00000000
_symmetry_Int_Tables_number   1
_chemical_formula_structural   CaYTm6(B6Ru)4
_chemical_formula_sum   'Ca1 Y1 Tm6 B24 Ru4'
_cell_volume   378.51465888
_cell_formula_units_Z   1
loop_
 _symmetry_equiv_pos_site_id
 _symmetry_equiv_pos_as_xyz
  1  'x, y, z'
loop_
 _atom_site_type_symbol
 _atom_site_label
 _atom_site_symmetry_multiplicity
 _atom_site_fract_x
 _atom_site_fract_y
 _atom_site_fract_z
 _atom_site_occupancy
  Ca  Ca0  1  0.000000  0.322116  0.413907  1
  Y  Y1  1  0.000000  0.676628  0.585155  1
  Tm  Tm2  1  0.000000  0.822068  0.086081  1
  Tm  Tm3  1  0.000000  0.178497  0.914799  1
  Tm  Tm4  1  0.000000  0.944021  0.370859  1
  Tm  Tm5  1  0.000000  0.057884  0.628342  1
  Tm  Tm6  1  0.000000  0.442971  0.129033  1
  Tm  Tm7  1  0.000000  0.556223  0.872678  1
  B  B8  1  0.500000  0.554613  0.432201  1
  B  B9  1  0.500000  0.445696  0.568072  1
  B  B10  1  0.500000  0.053008  0.065804  1
  B  B11  1  0.500000  0.946087  0.933121  1
  B  B12  1  0.500000  0.749398  0.418498  1
  B  B13  1  0.500000  0.251186  0.581853  1
  B  B14  1  0.500000  0.248032  0.079812  1
  B  B15  1  0.500000  0.751320  0.920123  1
  B  B16  1  0.500000  0.792248  0.264986  1
  B  B17  1  0.500000  0.208818  0.735331  1
  B  B18  1  0.500000  0.289979  0.232974  1
  B  B19  1  0.500000  0.709181  0.766707  1
  B  B20  1  0.500000  0.631830  0.184776  1
  B  B21  1  0.500000  0.368695  0.816315  1
  B  B22  1  0.500000  0.130105  0.313715  1
  B  B23  1  0.500000  0.869519  0.685247  1
  B  B24  1  0.500000  0.982199  0.211368  1
  B  B25  1  0.500000  0.017643  0.787630  1
  B  B26  1  0.500000  0.483655  0.286837  1
  B  B27  1  0.500000  0.516687  0.713678  1
  B  B28  1  0.500000  0.606932  0.029646  1
  B  B29  1  0.500000  0.393335  0.971029  1
  B  B30  1  0.500000  0.102130  0.471734  1
  B  B31  1  0.500000  0.896782  0.528468  1
  Ru  Ru32  1  0.000000  0.640526  0.319191  1
  Ru  Ru33  1  0.000000  0.361293  0.681765  1
  Ru  Ru34  1  0.000000  0.136134  0.176882  1
  Ru  Ru35  1  0.000000  0.862561  0.821380  1
