# generated using pymatgen
data_TbY4(SiBi)2
_symmetry_space_group_name_H-M   'P 1'
_cell_length_a   8.68123277
_cell_length_b   8.66726436
_cell_length_c   7.95030002
_cell_angle_alpha   89.91473301
_cell_angle_beta   90.00708440
_cell_angle_gamma   125.56319998
_symmetry_Int_Tables_number   1
_chemical_formula_structural   TbY4(SiBi)2
_chemical_formula_sum   'Tb2 Y8 Si4 Bi4'
_cell_volume   486.62031344
_cell_formula_units_Z   2
loop_
 _symmetry_equiv_pos_site_id
 _symmetry_equiv_pos_as_xyz
  1  'x, y, z'
loop_
 _atom_site_type_symbol
 _atom_site_label
 _atom_site_symmetry_multiplicity
 _atom_site_fract_x
 _atom_site_fract_y
 _atom_site_fract_z
 _atom_site_occupancy
  Tb  Tb0  1  0.042623  0.288388  0.334999  1
  Tb  Tb1  1  0.957377  0.711612  0.665001  1
  Y  Y2  1  0.457575  0.212759  0.835390  1
  Y  Y3  1  0.787142  0.542440  0.164502  1
  Y  Y4  1  0.542425  0.787241  0.164610  1
  Y  Y5  1  0.212858  0.457560  0.835498  1
  Y  Y6  1  0.712592  0.957635  0.664460  1
  Y  Y7  1  0.287408  0.042365  0.335540  1
  Y  Y8  1  0.000000  0.000000  0.000000  1
  Y  Y9  1  0.500000  0.500000  0.500000  1
  Si  Si10  1  0.365665  0.365242  0.133247  1
  Si  Si11  1  0.634335  0.634758  0.866753  1
  Si  Si12  1  0.134846  0.134922  0.633685  1
  Si  Si13  1  0.865154  0.865078  0.366315  1
  Bi  Bi14  1  0.792177  0.207508  0.999464  1
  Bi  Bi15  1  0.207823  0.792492  0.000536  1
  Bi  Bi16  1  0.706758  0.291954  0.499793  1
  Bi  Bi17  1  0.293242  0.708046  0.500207  1
