# generated using pymatgen
data_K5(Ag2Hg)2
_symmetry_space_group_name_H-M   'P 1'
_cell_length_a   16.85638748
_cell_length_b   16.85638715
_cell_length_c   5.15495000
_cell_angle_alpha   90.00000000
_cell_angle_beta   90.00000000
_cell_angle_gamma   163.72579823
_symmetry_Int_Tables_number   1
_chemical_formula_structural   K5(Ag2Hg)2
_chemical_formula_sum   'K5 Ag4 Hg2'
_cell_volume   410.46401047
_cell_formula_units_Z   1
loop_
 _symmetry_equiv_pos_site_id
 _symmetry_equiv_pos_as_xyz
  1  'x, y, z'
loop_
 _atom_site_type_symbol
 _atom_site_label
 _atom_site_symmetry_multiplicity
 _atom_site_fract_x
 _atom_site_fract_y
 _atom_site_fract_z
 _atom_site_occupancy
  K  K0  1  0.005410  0.994590  0.000000  1
  K  K1  1  0.610862  0.389136  0.000000  1
  K  K2  1  0.385438  0.614560  0.000000  1
  K  K3  1  0.804878  0.195120  0.500001  1
  K  K4  1  0.192913  0.807085  0.500001  1
  Ag  Ag5  1  0.273022  0.726976  0.000000  1
  Ag  Ag6  1  0.543627  0.456371  0.500001  1
  Ag  Ag7  1  0.460391  0.539607  0.500001  1
  Ag  Ag8  1  0.081702  0.918297  0.500001  1
  Hg  Hg9  1  0.726470  0.273528  0.000000  1
  Hg  Hg10  1  0.915278  0.084721  0.500001  1
