# generated using pymatgen
data_Na2Cr3Co9P7
_symmetry_space_group_name_H-M   'P 1'
_cell_length_a   8.97510078
_cell_length_b   8.97059279
_cell_length_c   3.58767600
_cell_angle_alpha   90.00000000
_cell_angle_beta   90.00000000
_cell_angle_gamma   119.97071079
_symmetry_Int_Tables_number   1
_chemical_formula_structural   Na2Cr3Co9P7
_chemical_formula_sum   'Na2 Cr3 Co9 P7'
_cell_volume   250.22599490
_cell_formula_units_Z   1
loop_
 _symmetry_equiv_pos_site_id
 _symmetry_equiv_pos_as_xyz
  1  'x, y, z'
loop_
 _atom_site_type_symbol
 _atom_site_label
 _atom_site_symmetry_multiplicity
 _atom_site_fract_x
 _atom_site_fract_y
 _atom_site_fract_z
 _atom_site_occupancy
  Na  Na0  1  0.666653  0.333201  0.000000  1
  Na  Na1  1  0.000016  0.000051  0.500000  1
  Cr  Cr2  1  0.546151  0.760073  0.500000  1
  Cr  Cr3  1  0.239855  0.785966  0.500000  1
  Cr  Cr4  1  0.214046  0.453839  0.500000  1
  Co  Co5  1  0.763610  0.722780  0.000000  1
  Co  Co6  1  0.277300  0.041009  0.000000  1
  Co  Co7  1  0.959115  0.236376  0.000000  1
  Co  Co8  1  0.490911  0.941791  0.000000  1
  Co  Co9  1  0.058101  0.549057  0.000000  1
  Co  Co10  1  0.450964  0.509160  0.000000  1
  Co  Co11  1  0.719704  0.099706  0.500000  1
  Co  Co12  1  0.900218  0.619949  0.500000  1
  Co  Co13  1  0.380013  0.280311  0.500000  1
  P  P14  1  0.450690  0.074381  0.500000  1
  P  P15  1  0.925709  0.376350  0.500000  1
  P  P16  1  0.623599  0.549319  0.500000  1
  P  P17  1  0.745874  0.961699  0.000000  1
  P  P18  1  0.038224  0.784114  0.000000  1
  P  P19  1  0.215867  0.254191  0.000000  1
  P  P20  1  0.333376  0.666679  0.000000  1
