# generated using pymatgen
data_Lu12Fe2Ni2SnOs
_symmetry_space_group_name_H-M   'P 1'
_cell_length_a   8.13351940
_cell_length_b   8.13351916
_cell_length_c   8.13351923
_cell_angle_alpha   112.11854564
_cell_angle_beta   111.29281710
_cell_angle_gamma   105.09032194
_symmetry_Int_Tables_number   1
_chemical_formula_structural   Lu12Fe2Ni2SnOs
_chemical_formula_sum   'Lu12 Fe2 Ni2 Sn1 Os1'
_cell_volume   412.38214355
_cell_formula_units_Z   1
loop_
 _symmetry_equiv_pos_site_id
 _symmetry_equiv_pos_as_xyz
  1  'x, y, z'
loop_
 _atom_site_type_symbol
 _atom_site_label
 _atom_site_symmetry_multiplicity
 _atom_site_fract_x
 _atom_site_fract_y
 _atom_site_fract_z
 _atom_site_occupancy
  Lu  Lu0  1  0.681563  0.876012  0.194449  1
  Lu  Lu1  1  0.318437  0.512887  0.194449  1
  Lu  Lu2  1  0.815906  0.771154  0.587059  1
  Lu  Lu3  1  0.184094  0.771154  0.955248  1
  Lu  Lu4  1  0.815906  0.228846  0.044752  1
  Lu  Lu5  1  0.184094  0.228846  0.412941  1
  Lu  Lu6  1  0.681563  0.487113  0.805551  1
  Lu  Lu7  1  0.318437  0.123988  0.805551  1
  Lu  Lu8  1  0.581698  0.277864  0.303833  1
  Lu  Lu9  1  0.418302  0.722136  0.696167  1
  Lu  Lu10  1  0.025969  0.722136  0.303833  1
  Lu  Lu11  1  0.974031  0.277864  0.696167  1
  Fe  Fe12  1  0.377594  0.500000  0.877594  1
  Fe  Fe13  1  0.622406  0.500000  0.122406  1
  Ni  Ni14  1  0.886014  0.886014  0.000000  1
  Ni  Ni15  1  0.113986  0.113986  0.000000  1
  Sn  Sn16  1  0.500000  0.000000  0.500000  1
  Os  Os17  1  0.000000  0.500000  0.500000  1
