# generated using pymatgen
data_Cs2SrNpO6
_symmetry_space_group_name_H-M   'P 1'
_cell_length_a   6.46939363
_cell_length_b   6.46939346
_cell_length_c   6.46943100
_cell_angle_alpha   120.00023666
_cell_angle_beta   120.00023436
_cell_angle_gamma   89.99925898
_symmetry_Int_Tables_number   1
_chemical_formula_structural   Cs2SrNpO6
_chemical_formula_sum   'Cs2 Sr1 Np1 O6'
_cell_volume   191.45995197
_cell_formula_units_Z   1
loop_
 _symmetry_equiv_pos_site_id
 _symmetry_equiv_pos_as_xyz
  1  'x, y, z'
loop_
 _atom_site_type_symbol
 _atom_site_label
 _atom_site_symmetry_multiplicity
 _atom_site_fract_x
 _atom_site_fract_y
 _atom_site_fract_z
 _atom_site_occupancy
  Cs  Cs0  1  0.749998  0.250001  0.500000  1
  Cs  Cs1  1  0.250001  0.749998  0.500000  1
  Sr  Sr2  1  0.500000  0.500000  0.000000  1
  Np  Np3  1  0.000000  0.000000  0.000000  1
  O  O4  1  0.779801  0.220199  0.000000  1
  O  O5  1  0.220196  0.220196  0.000000  1
  O  O6  1  0.779805  0.779805  0.000000  1
  O  O7  1  0.220199  0.779801  0.000000  1
  O  O8  1  0.220196  0.220196  0.440393  1
  O  O9  1  0.779803  0.779803  0.559606  1
