# generated using pymatgen
data_Dy8Lu2IrOs3
_symmetry_space_group_name_H-M   'P 1'
_cell_length_a   6.40074666
_cell_length_b   7.31833546
_cell_length_c   8.39512200
_cell_angle_alpha   96.74399182
_cell_angle_beta   112.29414921
_cell_angle_gamma   90.04936914
_symmetry_Int_Tables_number   1
_chemical_formula_structural   Dy8Lu2IrOs3
_chemical_formula_sum   'Dy8 Lu2 Ir1 Os3'
_cell_volume   360.89583447
_cell_formula_units_Z   1
loop_
 _symmetry_equiv_pos_site_id
 _symmetry_equiv_pos_as_xyz
  1  'x, y, z'
loop_
 _atom_site_type_symbol
 _atom_site_label
 _atom_site_symmetry_multiplicity
 _atom_site_fract_x
 _atom_site_fract_y
 _atom_site_fract_z
 _atom_site_occupancy
  Dy  Dy0  1  0.970346  0.915834  0.179511  1
  Dy  Dy1  1  0.789701  0.581711  0.818168  1
  Dy  Dy2  1  0.025448  0.083236  0.815400  1
  Dy  Dy3  1  0.208317  0.419277  0.180268  1
  Dy  Dy4  1  0.647367  0.815571  0.437342  1
  Dy  Dy5  1  0.210188  0.683221  0.564425  1
  Dy  Dy6  1  0.353373  0.183125  0.565937  1
  Dy  Dy7  1  0.793121  0.318293  0.437082  1
  Lu  Lu8  1  0.425306  0.748993  0.999165  1
  Lu  Lu9  1  0.574808  0.250370  0.999706  1
  Ir  Ir10  1  0.396178  0.074801  0.217079  1
  Os  Os11  1  0.820392  0.574697  0.216064  1
  Os  Os12  1  0.606697  0.926090  0.784438  1
  Os  Os13  1  0.178758  0.424782  0.785417  1
