# generated using pymatgen
data_HoTm3Sc3AlPt4
_symmetry_space_group_name_H-M   'P 1'
_cell_length_a   4.48704700
_cell_length_b   6.97519491
_cell_length_c   8.26449009
_cell_angle_alpha   87.00800888
_cell_angle_beta   90.00000000
_cell_angle_gamma   90.00000000
_symmetry_Int_Tables_number   1
_chemical_formula_structural   HoTm3Sc3AlPt4
_chemical_formula_sum   'Ho1 Tm3 Sc3 Al1 Pt4'
_cell_volume   258.30963946
_cell_formula_units_Z   1
loop_
 _symmetry_equiv_pos_site_id
 _symmetry_equiv_pos_as_xyz
  1  'x, y, z'
loop_
 _atom_site_type_symbol
 _atom_site_label
 _atom_site_symmetry_multiplicity
 _atom_site_fract_x
 _atom_site_fract_y
 _atom_site_fract_z
 _atom_site_occupancy
  Ho  Ho0  1  0.250000  0.038988  0.671131  1
  Tm  Tm1  1  0.250000  0.520827  0.815630  1
  Tm  Tm2  1  0.750000  0.989486  0.340994  1
  Tm  Tm3  1  0.750000  0.468203  0.183107  1
  Sc  Sc4  1  0.250000  0.133997  0.070564  1
  Sc  Sc5  1  0.250000  0.640188  0.435523  1
  Sc  Sc6  1  0.750000  0.861314  0.928943  1
  Al  Al7  1  0.750000  0.360712  0.567762  1
  Pt  Pt8  1  0.250000  0.262554  0.382946  1
  Pt  Pt9  1  0.250000  0.743998  0.101341  1
  Pt  Pt10  1  0.750000  0.732262  0.615312  1
  Pt  Pt11  1  0.750000  0.247471  0.886750  1
