# generated using pymatgen
data_Pr4Al16Si2OsRh5
_symmetry_space_group_name_H-M   'P 1'
_cell_length_a   7.62264131
_cell_length_b   7.62264306
_cell_length_c   9.53058608
_cell_angle_alpha   89.94987909
_cell_angle_beta   89.94987131
_cell_angle_gamma   119.30787183
_symmetry_Int_Tables_number   1
_chemical_formula_structural   Pr4Al16Si2OsRh5
_chemical_formula_sum   'Pr4 Al16 Si2 Os1 Rh5'
_cell_volume   482.88923119
_cell_formula_units_Z   1
loop_
 _symmetry_equiv_pos_site_id
 _symmetry_equiv_pos_as_xyz
  1  'x, y, z'
loop_
 _atom_site_type_symbol
 _atom_site_label
 _atom_site_symmetry_multiplicity
 _atom_site_fract_x
 _atom_site_fract_y
 _atom_site_fract_z
 _atom_site_occupancy
  Pr  Pr0  1  0.994162  0.678238  0.749182  1
  Pr  Pr1  1  0.005838  0.321762  0.250818  1
  Pr  Pr2  1  0.678238  0.994162  0.749182  1
  Pr  Pr3  1  0.321762  0.005838  0.250818  1
  Al  Al4  1  0.004035  0.337568  0.576041  1
  Al  Al5  1  0.995965  0.662432  0.423959  1
  Al  Al6  1  0.996808  0.662284  0.076795  1
  Al  Al7  1  0.337716  0.003192  0.923205  1
  Al  Al8  1  0.003192  0.337716  0.923205  1
  Al  Al9  1  0.662284  0.996808  0.076795  1
  Al  Al10  1  0.662432  0.995965  0.423959  1
  Al  Al11  1  0.337568  0.004035  0.576041  1
  Al  Al12  1  0.336040  0.336040  0.045048  1
  Al  Al13  1  0.663960  0.663960  0.954952  1
  Al  Al14  1  0.665268  0.665268  0.544325  1
  Al  Al15  1  0.334732  0.334732  0.455675  1
  Al  Al16  1  0.337397  0.548919  0.750149  1
  Al  Al17  1  0.662603  0.451081  0.249851  1
  Al  Al18  1  0.548919  0.337397  0.750149  1
  Al  Al19  1  0.451081  0.662603  0.249851  1
  Si  Si20  1  0.132741  0.132741  0.747970  1
  Si  Si21  1  0.867259  0.867259  0.252030  1
  Os  Os22  1  0.000000  0.000000  0.500000  1
  Rh  Rh23  1  0.670536  0.329464  0.500000  1
  Rh  Rh24  1  0.329464  0.670536  0.500000  1
  Rh  Rh25  1  0.329250  0.670750  0.000000  1
  Rh  Rh26  1  0.670750  0.329250  0.000000  1
  Rh  Rh27  1  0.000000  0.000000  0.000000  1
