# generated using pymatgen
data_LiTm16Tl3Pt4
_symmetry_space_group_name_H-M   'P 1'
_cell_length_a   9.53004237
_cell_length_b   9.53004251
_cell_length_c   9.53004200
_cell_angle_alpha   59.90287445
_cell_angle_beta   59.90288092
_cell_angle_gamma   59.90287466
_symmetry_Int_Tables_number   1
_chemical_formula_structural   LiTm16Tl3Pt4
_chemical_formula_sum   'Li1 Tm16 Tl3 Pt4'
_cell_volume   610.67693695
_cell_formula_units_Z   1
loop_
 _symmetry_equiv_pos_site_id
 _symmetry_equiv_pos_as_xyz
  1  'x, y, z'
loop_
 _atom_site_type_symbol
 _atom_site_label
 _atom_site_symmetry_multiplicity
 _atom_site_fract_x
 _atom_site_fract_y
 _atom_site_fract_z
 _atom_site_occupancy
  Li  Li0  1  0.570161  0.570161  0.570161  1
  Tm  Tm1  1  0.352664  0.352664  0.352664  1
  Tm  Tm2  1  0.353500  0.353500  0.940276  1
  Tm  Tm3  1  0.353500  0.940276  0.353500  1
  Tm  Tm4  1  0.940276  0.353500  0.353500  1
  Tm  Tm5  1  0.812324  0.190031  0.190031  1
  Tm  Tm6  1  0.189201  0.814040  0.814040  1
  Tm  Tm7  1  0.190031  0.812324  0.190031  1
  Tm  Tm8  1  0.814040  0.189201  0.814040  1
  Tm  Tm9  1  0.190031  0.190031  0.812324  1
  Tm  Tm10  1  0.814040  0.814040  0.189201  1
  Tm  Tm11  1  0.932905  0.564566  0.564566  1
  Tm  Tm12  1  0.560151  0.938460  0.938460  1
  Tm  Tm13  1  0.564566  0.932905  0.564566  1
  Tm  Tm14  1  0.938460  0.560151  0.938460  1
  Tm  Tm15  1  0.564566  0.564566  0.932905  1
  Tm  Tm16  1  0.938460  0.938460  0.560151  1
  Tl  Tl17  1  0.587526  0.587526  0.243980  1
  Tl  Tl18  1  0.587526  0.243980  0.587526  1
  Tl  Tl19  1  0.243980  0.587526  0.587526  1
  Pt  Pt20  1  0.145107  0.145107  0.145107  1
  Pt  Pt21  1  0.143704  0.143704  0.569576  1
  Pt  Pt22  1  0.143704  0.569576  0.143704  1
  Pt  Pt23  1  0.569576  0.143704  0.143704  1
