# generated using pymatgen
data_Yb3Hf2Pa3Sb10
_symmetry_space_group_name_H-M   'P 1'
_cell_length_a   9.22825003
_cell_length_b   9.35016749
_cell_length_c   6.29618000
_cell_angle_alpha   90.00000000
_cell_angle_beta   90.00000000
_cell_angle_gamma   119.83148234
_symmetry_Int_Tables_number   1
_chemical_formula_structural   Yb3Hf2Pa3Sb10
_chemical_formula_sum   'Yb3 Hf2 Pa3 Sb10'
_cell_volume   471.28268310
_cell_formula_units_Z   1
loop_
 _symmetry_equiv_pos_site_id
 _symmetry_equiv_pos_as_xyz
  1  'x, y, z'
loop_
 _atom_site_type_symbol
 _atom_site_label
 _atom_site_symmetry_multiplicity
 _atom_site_fract_x
 _atom_site_fract_y
 _atom_site_fract_z
 _atom_site_occupancy
  Yb  Yb0  1  0.613349  0.000972  0.250000  1
  Yb  Yb1  1  0.382369  0.997920  0.750000  1
  Yb  Yb2  1  0.006767  0.626262  0.250000  1
  Hf  Hf3  1  0.999274  0.998319  0.002343  1
  Hf  Hf4  1  0.999274  0.998319  0.497657  1
  Pa  Pa5  1  0.989018  0.380633  0.750000  1
  Pa  Pa6  1  0.396493  0.380775  0.250000  1
  Pa  Pa7  1  0.614358  0.620040  0.750000  1
  Sb  Sb8  1  0.268446  0.003857  0.250000  1
  Sb  Sb9  1  0.733230  0.999856  0.750000  1
  Sb  Sb10  1  0.005945  0.272984  0.250000  1
  Sb  Sb11  1  0.997896  0.733567  0.750000  1
  Sb  Sb12  1  0.729417  0.733330  0.250000  1
  Sb  Sb13  1  0.264422  0.268299  0.750000  1
  Sb  Sb14  1  0.328157  0.647486  0.001010  1
  Sb  Sb15  1  0.671714  0.344947  0.997082  1
  Sb  Sb16  1  0.671714  0.344947  0.502918  1
  Sb  Sb17  1  0.328157  0.647486  0.498990  1
