# generated using pymatgen
data_DyY9(Bi2Sb)2
_symmetry_space_group_name_H-M   'P 1'
_cell_length_a   8.21181100
_cell_length_b   9.48719000
_cell_length_c   12.05717100
_cell_angle_alpha   90.00000000
_cell_angle_beta   90.00000000
_cell_angle_gamma   90.00000000
_symmetry_Int_Tables_number   1
_chemical_formula_structural   DyY9(Bi2Sb)2
_chemical_formula_sum   'Dy2 Y18 Bi8 Sb4'
_cell_volume   939.33815615
_cell_formula_units_Z   2
loop_
 _symmetry_equiv_pos_site_id
 _symmetry_equiv_pos_as_xyz
  1  'x, y, z'
loop_
 _atom_site_type_symbol
 _atom_site_label
 _atom_site_symmetry_multiplicity
 _atom_site_fract_x
 _atom_site_fract_y
 _atom_site_fract_z
 _atom_site_occupancy
  Dy  Dy0  1  0.029342  0.750000  0.988400  1
  Dy  Dy1  1  0.529342  0.750000  0.511600  1
  Y  Y2  1  0.970298  0.250000  0.011571  1
  Y  Y3  1  0.470298  0.250000  0.488429  1
  Y  Y4  1  0.183455  0.750000  0.718379  1
  Y  Y5  1  0.683455  0.750000  0.781621  1
  Y  Y6  1  0.816567  0.250000  0.281708  1
  Y  Y7  1  0.316567  0.250000  0.218292  1
  Y  Y8  1  0.309826  0.439133  0.941188  1
  Y  Y9  1  0.809826  0.060867  0.558812  1
  Y  Y10  1  0.690331  0.939006  0.058763  1
  Y  Y11  1  0.190331  0.560994  0.441237  1
  Y  Y12  1  0.690331  0.560994  0.058763  1
  Y  Y13  1  0.190331  0.939006  0.441237  1
  Y  Y14  1  0.309826  0.060867  0.941188  1
  Y  Y15  1  0.809826  0.439133  0.558812  1
  Y  Y16  1  0.354089  0.750000  0.212683  1
  Y  Y17  1  0.854089  0.750000  0.287317  1
  Y  Y18  1  0.645922  0.250000  0.787335  1
  Y  Y19  1  0.145922  0.250000  0.712665  1
  Bi  Bi20  1  0.433573  0.003794  0.673793  1
  Bi  Bi21  1  0.933573  0.496206  0.826207  1
  Bi  Bi22  1  0.566460  0.503865  0.326217  1
  Bi  Bi23  1  0.066460  0.996135  0.173783  1
  Bi  Bi24  1  0.566460  0.996135  0.326217  1
  Bi  Bi25  1  0.066460  0.503865  0.173783  1
  Bi  Bi26  1  0.433573  0.496206  0.673793  1
  Bi  Bi27  1  0.933573  0.003794  0.826207  1
  Sb  Sb28  1  0.410330  0.750000  0.959246  1
  Sb  Sb29  1  0.910330  0.750000  0.540754  1
  Sb  Sb30  1  0.589615  0.250000  0.040768  1
  Sb  Sb31  1  0.089615  0.250000  0.459232  1
