# generated using pymatgen
data_Sc3Ti2Ru6W
_symmetry_space_group_name_H-M   'P 1'
_cell_length_a   4.42839800
_cell_length_b   6.27350200
_cell_length_c   13.25918900
_cell_angle_alpha   90.00000000
_cell_angle_beta   89.99739941
_cell_angle_gamma   90.00000000
_symmetry_Int_Tables_number   1
_chemical_formula_structural   Sc3Ti2Ru6W
_chemical_formula_sum   'Sc6 Ti4 Ru12 W2'
_cell_volume   368.36100394
_cell_formula_units_Z   2
loop_
 _symmetry_equiv_pos_site_id
 _symmetry_equiv_pos_as_xyz
  1  'x, y, z'
loop_
 _atom_site_type_symbol
 _atom_site_label
 _atom_site_symmetry_multiplicity
 _atom_site_fract_x
 _atom_site_fract_y
 _atom_site_fract_z
 _atom_site_occupancy
  Sc  Sc0  1  0.000002  0.000000  0.998377  1
  Sc  Sc1  1  0.499883  0.499999  0.168330  1
  Sc  Sc2  1  0.999855  0.000000  0.336479  1
  Sc  Sc3  1  0.499991  0.499999  0.501222  1
  Sc  Sc4  1  0.000121  0.000000  0.665473  1
  Sc  Sc5  1  0.500123  0.499999  0.830111  1
  Ti  Ti6  1  0.999884  0.499999  0.336298  1
  Ti  Ti7  1  0.499995  0.000000  0.501489  1
  Ti  Ti8  1  0.000106  0.499999  0.665138  1
  Ti  Ti9  1  0.500113  0.000000  0.830410  1
  Ru  Ru10  1  0.500004  0.251891  0.001862  1
  Ru  Ru11  1  0.500004  0.748108  0.001862  1
  Ru  Ru12  1  0.999897  0.248106  0.164825  1
  Ru  Ru13  1  0.999897  0.751894  0.164825  1
  Ru  Ru14  1  0.499878  0.248739  0.331300  1
  Ru  Ru15  1  0.499878  0.751262  0.331300  1
  Ru  Ru16  1  0.999986  0.250976  0.499468  1
  Ru  Ru17  1  0.999986  0.749024  0.499468  1
  Ru  Ru18  1  0.500131  0.249047  0.667169  1
  Ru  Ru19  1  0.500131  0.750954  0.667169  1
  Ru  Ru20  1  0.000118  0.251312  0.835401  1
  Ru  Ru21  1  0.000118  0.748688  0.835401  1
  W  W22  1  0.000006  0.499999  0.997537  1
  W  W23  1  0.499895  0.000000  0.169088  1
