# generated using pymatgen
data_Ho9Th(Sn3P)2
_symmetry_space_group_name_H-M   'P 1'
_cell_length_a   9.09607874
_cell_length_b   9.09607953
_cell_length_c   6.68748100
_cell_angle_alpha   90.00000000
_cell_angle_beta   90.00000000
_cell_angle_gamma   120.07079326
_symmetry_Int_Tables_number   1
_chemical_formula_structural   Ho9Th(Sn3P)2
_chemical_formula_sum   'Ho9 Th1 Sn6 P2'
_cell_volume   478.84108068
_cell_formula_units_Z   1
loop_
 _symmetry_equiv_pos_site_id
 _symmetry_equiv_pos_as_xyz
  1  'x, y, z'
loop_
 _atom_site_type_symbol
 _atom_site_label
 _atom_site_symmetry_multiplicity
 _atom_site_fract_x
 _atom_site_fract_y
 _atom_site_fract_z
 _atom_site_occupancy
  Ho  Ho0  1  0.666742  0.332586  0.000793  1
  Ho  Ho1  1  0.332586  0.666742  0.000793  1
  Ho  Ho2  1  0.332586  0.666742  0.499207  1
  Ho  Ho3  1  0.666742  0.332586  0.499207  1
  Ho  Ho4  1  0.241168  0.000055  0.750000  1
  Ho  Ho5  1  0.000055  0.241168  0.750000  1
  Ho  Ho6  1  0.241433  0.241433  0.250000  1
  Ho  Ho7  1  0.759069  0.000752  0.250000  1
  Ho  Ho8  1  0.000752  0.759069  0.250000  1
  Th  Th9  1  0.757647  0.757647  0.750000  1
  Sn  Sn10  1  0.395473  0.395473  0.750000  1
  Sn  Sn11  1  0.598659  0.002929  0.750000  1
  Sn  Sn12  1  0.002929  0.598659  0.750000  1
  Sn  Sn13  1  0.600508  0.600508  0.250000  1
  Sn  Sn14  1  0.398820  0.000036  0.250000  1
  Sn  Sn15  1  0.000036  0.398820  0.250000  1
  P  P16  1  0.002398  0.002398  0.002301  1
  P  P17  1  0.002398  0.002398  0.497699  1
