# generated using pymatgen
data_Rb3HS3
_symmetry_space_group_name_H-M   'P 1'
_cell_length_a   5.10225532
_cell_length_b   5.26831855
_cell_length_c   10.06969100
_cell_angle_alpha   109.35122709
_cell_angle_beta   89.95874281
_cell_angle_gamma   60.72731209
_symmetry_Int_Tables_number   1
_chemical_formula_structural   Rb3HS3
_chemical_formula_sum   'Rb3 H1 S3'
_cell_volume   218.37386705
_cell_formula_units_Z   1
loop_
 _symmetry_equiv_pos_site_id
 _symmetry_equiv_pos_as_xyz
  1  'x, y, z'
loop_
 _atom_site_type_symbol
 _atom_site_label
 _atom_site_symmetry_multiplicity
 _atom_site_fract_x
 _atom_site_fract_y
 _atom_site_fract_z
 _atom_site_occupancy
  Rb  Rb0  1  0.581391  0.874112  0.210878  1
  Rb  Rb1  1  0.157754  0.716716  0.541415  1
  Rb  Rb2  1  0.363162  0.307747  0.902594  1
  H  H3  1  0.832062  0.370826  0.574636  1
  S  S4  1  0.764605  0.504356  0.720469  1
  S  S5  1  0.957097  0.119705  0.095779  1
  S  S6  1  0.860015  0.312192  0.326305  1
