# generated using pymatgen
data_SmDyMn5(NiP)7
_symmetry_space_group_name_H-M   'P 1'
_cell_length_a   9.16196931
_cell_length_b   9.16724597
_cell_length_c   3.69010300
_cell_angle_alpha   90.00000000
_cell_angle_beta   90.00000000
_cell_angle_gamma   119.95651158
_symmetry_Int_Tables_number   1
_chemical_formula_structural   SmDyMn5(NiP)7
_chemical_formula_sum   'Sm1 Dy1 Mn5 Ni7 P7'
_cell_volume   268.52639778
_cell_formula_units_Z   1
loop_
 _symmetry_equiv_pos_site_id
 _symmetry_equiv_pos_as_xyz
  1  'x, y, z'
loop_
 _atom_site_type_symbol
 _atom_site_label
 _atom_site_symmetry_multiplicity
 _atom_site_fract_x
 _atom_site_fract_y
 _atom_site_fract_z
 _atom_site_occupancy
  Sm  Sm0  1  0.665010  0.332357  0.000000  1
  Dy  Dy1  1  0.334118  0.667769  0.500000  1
  Mn  Mn2  1  0.726925  0.879564  0.500000  1
  Mn  Mn3  1  0.121390  0.843851  0.500000  1
  Mn  Mn4  1  0.218373  0.098961  0.000000  1
  Mn  Mn5  1  0.902623  0.121720  0.000000  1
  Mn  Mn6  1  0.877092  0.776297  0.000000  1
  Ni  Ni7  1  0.434826  0.060313  0.500000  1
  Ni  Ni8  1  0.942741  0.376285  0.500000  1
  Ni  Ni9  1  0.626503  0.565958  0.500000  1
  Ni  Ni10  1  0.153248  0.277241  0.500000  1
  Ni  Ni11  1  0.382499  0.437086  0.000000  1
  Ni  Ni12  1  0.563358  0.947144  0.000000  1
  Ni  Ni13  1  0.051377  0.614649  0.000000  1
  P  P14  1  0.114055  0.404757  0.000000  1
  P  P15  1  0.597105  0.711448  0.000000  1
  P  P16  1  0.288333  0.887316  0.000000  1
  P  P17  1  0.001403  0.997838  0.500000  1
  P  P18  1  0.404164  0.294007  0.500000  1
  P  P19  1  0.705817  0.109913  0.500000  1
  P  P20  1  0.889036  0.595525  0.500000  1
