# generated using pymatgen
data_Pa2BRh6
_symmetry_space_group_name_H-M   'P 1'
_cell_length_a   5.85224179
_cell_length_b   5.85224160
_cell_length_c   5.85224100
_cell_angle_alpha   59.99999772
_cell_angle_beta   59.99999882
_cell_angle_gamma   59.99999485
_symmetry_Int_Tables_number   1
_chemical_formula_structural   Pa2BRh6
_chemical_formula_sum   'Pa2 B1 Rh6'
_cell_volume   141.72670297
_cell_formula_units_Z   1
loop_
 _symmetry_equiv_pos_site_id
 _symmetry_equiv_pos_as_xyz
  1  'x, y, z'
loop_
 _atom_site_type_symbol
 _atom_site_label
 _atom_site_symmetry_multiplicity
 _atom_site_fract_x
 _atom_site_fract_y
 _atom_site_fract_z
 _atom_site_occupancy
  Pa  Pa0  1  0.750000  0.750000  0.750000  1
  Pa  Pa1  1  0.250000  0.250000  0.250000  1
  B  B2  1  0.500000  0.500000  0.500000  1
  Rh  Rh3  1  0.755006  0.755006  0.244994  1
  Rh  Rh4  1  0.755006  0.244994  0.244994  1
  Rh  Rh5  1  0.244994  0.755006  0.244994  1
  Rh  Rh6  1  0.244994  0.244994  0.755006  1
  Rh  Rh7  1  0.755006  0.244994  0.755006  1
  Rh  Rh8  1  0.244994  0.755006  0.755006  1
