# generated using pymatgen
data_Dy5Ti3P12Ir3Rh13
_symmetry_space_group_name_H-M   'P 1'
_cell_length_a   12.77040654
_cell_length_b   12.77682746
_cell_length_c   3.90810400
_cell_angle_alpha   90.00000000
_cell_angle_beta   90.00000000
_cell_angle_gamma   120.01663326
_symmetry_Int_Tables_number   1
_chemical_formula_structural   Dy5Ti3P12Ir3Rh13
_chemical_formula_sum   'Dy5 Ti3 P12 Ir3 Rh13'
_cell_volume   552.14314096
_cell_formula_units_Z   1
loop_
 _symmetry_equiv_pos_site_id
 _symmetry_equiv_pos_as_xyz
  1  'x, y, z'
loop_
 _atom_site_type_symbol
 _atom_site_label
 _atom_site_symmetry_multiplicity
 _atom_site_fract_x
 _atom_site_fract_y
 _atom_site_fract_z
 _atom_site_occupancy
  Dy  Dy0  1  0.333321  0.666618  0.500000  1
  Dy  Dy1  1  0.666679  0.333296  0.500000  1
  Dy  Dy2  1  0.000000  0.811917  0.000000  1
  Dy  Dy3  1  0.187991  0.188064  0.000000  1
  Dy  Dy4  1  0.812009  0.000073  0.000000  1
  Ti  Ti5  1  0.000000  0.445743  0.500000  1
  Ti  Ti6  1  0.553989  0.554025  0.500000  1
  Ti  Ti7  1  0.446011  0.000036  0.500000  1
  P  P8  1  0.000000  0.639884  0.500000  1
  P  P9  1  0.359819  0.359957  0.500000  1
  P  P10  1  0.640181  0.000138  0.500000  1
  P  P11  1  0.516878  0.683727  0.000000  1
  P  P12  1  0.316182  0.833091  0.000000  1
  P  P13  1  0.166603  0.482870  0.000000  1
  P  P14  1  0.483122  0.166848  0.000000  1
  P  P15  1  0.683818  0.516907  0.000000  1
  P  P16  1  0.833397  0.316266  0.000000  1
  P  P17  1  0.000000  0.177112  0.500000  1
  P  P18  1  0.823209  0.823284  0.500000  1
  P  P19  1  0.176791  0.000075  0.500000  1
  Ir  Ir20  1  0.717701  0.717665  0.000000  1
  Ir  Ir21  1  0.282299  0.999964  0.000000  1
  Ir  Ir22  1  0.000000  0.000110  0.500000  1
  Rh  Rh23  1  0.512224  0.869093  0.000000  1
  Rh  Rh24  1  0.130663  0.643109  0.000000  1
  Rh  Rh25  1  0.356727  0.487490  0.000000  1
  Rh  Rh26  1  0.487776  0.356869  0.000000  1
  Rh  Rh27  1  0.869337  0.512445  0.000000  1
  Rh  Rh28  1  0.643273  0.130762  0.000000  1
  Rh  Rh29  1  0.000000  0.282168  0.000000  1
  Rh  Rh30  1  0.624806  0.803408  0.500000  1
  Rh  Rh31  1  0.196617  0.821411  0.500000  1
  Rh  Rh32  1  0.177667  0.374922  0.500000  1
  Rh  Rh33  1  0.375194  0.178602  0.500000  1
  Rh  Rh34  1  0.803383  0.624794  0.500000  1
  Rh  Rh35  1  0.822333  0.197255  0.500000  1
