# generated using pymatgen
data_CaMnTlP2O9
_symmetry_space_group_name_H-M   'P 1'
_cell_length_a   6.87822600
_cell_length_b   7.43112200
_cell_length_c   14.80028800
_cell_angle_alpha   90.00000000
_cell_angle_beta   90.00000000
_cell_angle_gamma   90.00000000
_symmetry_Int_Tables_number   1
_chemical_formula_structural   CaMnTlP2O9
_chemical_formula_sum   'Ca4 Mn4 Tl4 P8 O36'
_cell_volume   756.48618146
_cell_formula_units_Z   4
loop_
 _symmetry_equiv_pos_site_id
 _symmetry_equiv_pos_as_xyz
  1  'x, y, z'
loop_
 _atom_site_type_symbol
 _atom_site_label
 _atom_site_symmetry_multiplicity
 _atom_site_fract_x
 _atom_site_fract_y
 _atom_site_fract_z
 _atom_site_occupancy
  Ca  Ca0  1  0.250000  0.893149  0.774829  1
  Ca  Ca1  1  0.250000  0.606851  0.274829  1
  Ca  Ca2  1  0.750000  0.106851  0.225171  1
  Ca  Ca3  1  0.750000  0.393149  0.725171  1
  Mn  Mn4  1  0.250000  0.357065  0.884040  1
  Mn  Mn5  1  0.750000  0.642935  0.115960  1
  Mn  Mn6  1  0.750000  0.857065  0.615960  1
  Mn  Mn7  1  0.250000  0.142935  0.384040  1
  Tl  Tl8  1  0.000000  0.000000  0.000000  1
  Tl  Tl9  1  0.000000  0.500000  0.500000  1
  Tl  Tl10  1  0.500000  0.500000  0.500000  1
  Tl  Tl11  1  0.500000  0.000000  0.000000  1
  P  P12  1  0.750000  0.385666  0.932644  1
  P  P13  1  0.250000  0.614334  0.067356  1
  P  P14  1  0.250000  0.885666  0.567356  1
  P  P15  1  0.750000  0.114334  0.432644  1
  P  P16  1  0.250000  0.405581  0.706542  1
  P  P17  1  0.750000  0.594419  0.293458  1
  P  P18  1  0.750000  0.905581  0.793458  1
  P  P19  1  0.250000  0.094419  0.206542  1
  O  O20  1  0.562293  0.590937  0.350217  1
  O  O21  1  0.062293  0.409063  0.649783  1
  O  O22  1  0.437707  0.090937  0.149783  1
  O  O23  1  0.937707  0.909063  0.850217  1
  O  O24  1  0.437707  0.409063  0.649783  1
  O  O25  1  0.937707  0.590937  0.350217  1
  O  O26  1  0.562293  0.909063  0.850217  1
  O  O27  1  0.062293  0.090937  0.149783  1
  O  O28  1  0.750000  0.284692  0.496518  1
  O  O29  1  0.250000  0.715308  0.503482  1
  O  O30  1  0.250000  0.784692  0.003482  1
  O  O31  1  0.750000  0.215308  0.996518  1
  O  O32  1  0.250000  0.113304  0.932786  1
  O  O33  1  0.750000  0.886696  0.067214  1
  O  O34  1  0.750000  0.613304  0.567214  1
  O  O35  1  0.250000  0.386696  0.432786  1
  O  O36  1  0.250000  0.230705  0.766952  1
  O  O37  1  0.750000  0.769295  0.233048  1
  O  O38  1  0.750000  0.730705  0.733048  1
  O  O39  1  0.250000  0.269295  0.266952  1
  O  O40  1  0.928804  0.119619  0.369278  1
  O  O41  1  0.428804  0.880381  0.630722  1
  O  O42  1  0.071196  0.619619  0.130722  1
  O  O43  1  0.571196  0.380381  0.869278  1
  O  O44  1  0.071196  0.880381  0.630722  1
  O  O45  1  0.571196  0.119619  0.369278  1
  O  O46  1  0.928804  0.380381  0.869278  1
  O  O47  1  0.428804  0.619619  0.130722  1
  O  O48  1  0.250000  0.944161  0.281260  1
  O  O49  1  0.750000  0.055839  0.718740  1
  O  O50  1  0.750000  0.444161  0.218740  1
  O  O51  1  0.250000  0.555839  0.781260  1
  O  O52  1  0.250000  0.052492  0.505537  1
  O  O53  1  0.750000  0.947508  0.494463  1
  O  O54  1  0.750000  0.552492  0.994463  1
  O  O55  1  0.250000  0.447508  0.005537  1
