# generated using pymatgen
data_Yb(MnS2)8
_symmetry_space_group_name_H-M   'P 1'
_cell_length_a   6.68004300
_cell_length_b   6.68004367
_cell_length_c   13.05399600
_cell_angle_alpha   90.00000000
_cell_angle_beta   90.00000000
_cell_angle_gamma   119.99999172
_symmetry_Int_Tables_number   1
_chemical_formula_structural   Yb(MnS2)8
_chemical_formula_sum   'Yb1 Mn8 S16'
_cell_volume   504.46693158
_cell_formula_units_Z   1
loop_
 _symmetry_equiv_pos_site_id
 _symmetry_equiv_pos_as_xyz
  1  'x, y, z'
loop_
 _atom_site_type_symbol
 _atom_site_label
 _atom_site_symmetry_multiplicity
 _atom_site_fract_x
 _atom_site_fract_y
 _atom_site_fract_z
 _atom_site_occupancy
  Yb  Yb0  1  0.000000  0.000000  0.000000  1
  Mn  Mn1  1  0.501649  0.498351  0.740723  1
  Mn  Mn2  1  0.498351  0.501649  0.259277  1
  Mn  Mn3  1  0.501649  0.003297  0.740723  1
  Mn  Mn4  1  0.498351  0.996703  0.259277  1
  Mn  Mn5  1  0.996703  0.498351  0.740723  1
  Mn  Mn6  1  0.003297  0.501649  0.259277  1
  Mn  Mn7  1  0.000000  0.000000  0.738874  1
  Mn  Mn8  1  0.000000  0.000000  0.261126  1
  S  S9  1  0.833238  0.666477  0.156820  1
  S  S10  1  0.832717  0.665435  0.640349  1
  S  S11  1  0.833238  0.166762  0.156820  1
  S  S12  1  0.832717  0.167283  0.640349  1
  S  S13  1  0.333333  0.666667  0.157407  1
  S  S14  1  0.333333  0.666667  0.641385  1
  S  S15  1  0.333523  0.166762  0.156820  1
  S  S16  1  0.334565  0.167283  0.640349  1
  S  S17  1  0.666477  0.833238  0.843180  1
  S  S18  1  0.665435  0.832717  0.359651  1
  S  S19  1  0.666667  0.333333  0.842593  1
  S  S20  1  0.666667  0.333333  0.358615  1
  S  S21  1  0.166762  0.833238  0.843180  1
  S  S22  1  0.167283  0.832717  0.359651  1
  S  S23  1  0.166762  0.333523  0.843180  1
  S  S24  1  0.167283  0.334565  0.359651  1
