# generated using pymatgen
data_SmLu2Th(AsPt)4
_symmetry_space_group_name_H-M   'P 1'
_cell_length_a   4.28330300
_cell_length_b   4.28330443
_cell_length_c   15.54827700
_cell_angle_alpha   90.00000000
_cell_angle_beta   90.00000000
_cell_angle_gamma   120.00001209
_symmetry_Int_Tables_number   1
_chemical_formula_structural   SmLu2Th(AsPt)4
_chemical_formula_sum   'Sm1 Lu2 Th1 As4 Pt4'
_cell_volume   247.04188255
_cell_formula_units_Z   1
loop_
 _symmetry_equiv_pos_site_id
 _symmetry_equiv_pos_as_xyz
  1  'x, y, z'
loop_
 _atom_site_type_symbol
 _atom_site_label
 _atom_site_symmetry_multiplicity
 _atom_site_fract_x
 _atom_site_fract_y
 _atom_site_fract_z
 _atom_site_occupancy
  Sm  Sm0  1  0.000000  0.000000  0.500000  1
  Lu  Lu1  1  0.000000  0.000000  0.252452  1
  Lu  Lu2  1  0.000000  0.000000  0.747548  1
  Th  Th3  1  0.000000  0.000000  0.000000  1
  As  As4  1  0.333333  0.666667  0.883165  1
  As  As5  1  0.666667  0.333333  0.116835  1
  As  As6  1  0.666667  0.333333  0.384298  1
  As  As7  1  0.333333  0.666667  0.615702  1
  Pt  Pt8  1  0.333333  0.666667  0.352838  1
  Pt  Pt9  1  0.666667  0.333333  0.647162  1
  Pt  Pt10  1  0.666667  0.333333  0.854292  1
  Pt  Pt11  1  0.333333  0.666667  0.145708  1
