# generated using pymatgen
data_TbNd19Si15Ir
_symmetry_space_group_name_H-M   'P 1'
_cell_length_a   7.78579181
_cell_length_b   7.92959554
_cell_length_c   15.12445000
_cell_angle_alpha   89.78000279
_cell_angle_beta   89.67949839
_cell_angle_gamma   90.05691258
_symmetry_Int_Tables_number   1
_chemical_formula_structural   TbNd19Si15Ir
_chemical_formula_sum   'Tb1 Nd19 Si15 Ir1'
_cell_volume   933.73404358
_cell_formula_units_Z   1
loop_
 _symmetry_equiv_pos_site_id
 _symmetry_equiv_pos_as_xyz
  1  'x, y, z'
loop_
 _atom_site_type_symbol
 _atom_site_label
 _atom_site_symmetry_multiplicity
 _atom_site_fract_x
 _atom_site_fract_y
 _atom_site_fract_z
 _atom_site_occupancy
  Tb  Tb0  1  0.136700  0.511805  0.748082  1
  Nd  Nd1  1  0.812715  0.331610  0.615605  1
  Nd  Nd2  1  0.457684  0.685979  0.898367  1
  Nd  Nd3  1  0.958473  0.814167  0.898314  1
  Nd  Nd4  1  0.185234  0.683198  0.120793  1
  Nd  Nd5  1  0.690621  0.818576  0.121038  1
  Nd  Nd6  1  0.308136  0.179419  0.877815  1
  Nd  Nd7  1  0.185566  0.678204  0.380030  1
  Nd  Nd8  1  0.042523  0.188097  0.102822  1
  Nd  Nd9  1  0.312034  0.179902  0.622157  1
  Nd  Nd10  1  0.857653  0.490622  0.259818  1
  Nd  Nd11  1  0.364299  0.008410  0.253489  1
  Nd  Nd12  1  0.539034  0.318010  0.398838  1
  Nd  Nd13  1  0.811168  0.317354  0.878174  1
  Nd  Nd14  1  0.963343  0.812920  0.598762  1
  Nd  Nd15  1  0.460783  0.685505  0.602074  1
  Nd  Nd16  1  0.040893  0.187677  0.400029  1
  Nd  Nd17  1  0.693395  0.812194  0.384252  1
  Nd  Nd18  1  0.639073  0.993181  0.748300  1
  Nd  Nd19  1  0.543093  0.312627  0.102474  1
  Si  Si20  1  0.478244  0.603074  0.245685  1
  Si  Si21  1  0.251977  0.378788  0.247199  1
  Si  Si22  1  0.513980  0.402377  0.750961  1
  Si  Si23  1  0.631855  0.025679  0.958749  1
  Si  Si24  1  0.016669  0.102431  0.748932  1
  Si  Si25  1  0.750368  0.621112  0.750762  1
  Si  Si26  1  0.750398  0.120018  0.248139  1
  Si  Si27  1  0.365231  0.970128  0.461175  1
  Si  Si28  1  0.981926  0.902364  0.248405  1
  Si  Si29  1  0.364928  0.974905  0.041166  1
  Si  Si30  1  0.634114  0.024315  0.542532  1
  Si  Si31  1  0.134491  0.475042  0.957221  1
  Si  Si32  1  0.145020  0.475858  0.543220  1
  Si  Si33  1  0.866176  0.525764  0.039114  1
  Si  Si34  1  0.245921  0.873275  0.750753  1
  Ir  Ir35  1  0.866285  0.515413  0.454756  1
