# generated using pymatgen
data_Rb2Os3Cl7O5
_symmetry_space_group_name_H-M   'P 1'
_cell_length_a   9.68135578
_cell_length_b   9.68135574
_cell_length_c   10.57432788
_cell_angle_alpha   73.60407421
_cell_angle_beta   73.60407534
_cell_angle_gamma   52.94458414
_symmetry_Int_Tables_number   1
_chemical_formula_structural   Rb2Os3Cl7O5
_chemical_formula_sum   'Rb4 Os6 Cl14 O10'
_cell_volume   750.60934732
_cell_formula_units_Z   2
loop_
 _symmetry_equiv_pos_site_id
 _symmetry_equiv_pos_as_xyz
  1  'x, y, z'
loop_
 _atom_site_type_symbol
 _atom_site_label
 _atom_site_symmetry_multiplicity
 _atom_site_fract_x
 _atom_site_fract_y
 _atom_site_fract_z
 _atom_site_occupancy
  Rb  Rb0  1  0.831940  0.738878  0.860508  1
  Rb  Rb1  1  0.168060  0.261122  0.139492  1
  Rb  Rb2  1  0.261122  0.168060  0.639492  1
  Rb  Rb3  1  0.738878  0.831940  0.360508  1
  Os  Os4  1  0.441311  0.558689  0.750000  1
  Os  Os5  1  0.211108  0.791144  0.043875  1
  Os  Os6  1  0.208856  0.788892  0.456125  1
  Os  Os7  1  0.791144  0.211108  0.543875  1
  Os  Os8  1  0.558689  0.441311  0.250000  1
  Os  Os9  1  0.788892  0.208856  0.956125  1
  Cl  Cl10  1  0.941552  0.347550  0.878583  1
  Cl  Cl11  1  0.058448  0.652450  0.121417  1
  Cl  Cl12  1  0.584258  0.708490  0.675533  1
  Cl  Cl13  1  0.084073  0.915927  0.250000  1
  Cl  Cl14  1  0.355796  0.936479  0.969130  1
  Cl  Cl15  1  0.063521  0.644204  0.530870  1
  Cl  Cl16  1  0.936479  0.355796  0.469130  1
  Cl  Cl17  1  0.708490  0.584258  0.175533  1
  Cl  Cl18  1  0.415742  0.291510  0.324467  1
  Cl  Cl19  1  0.347550  0.941552  0.378583  1
  Cl  Cl20  1  0.915927  0.084073  0.750000  1
  Cl  Cl21  1  0.652450  0.058448  0.621417  1
  Cl  Cl22  1  0.291510  0.415742  0.824467  1
  Cl  Cl23  1  0.644204  0.063521  0.030870  1
  O  O24  1  0.706464  0.293604  0.380027  1
  O  O25  1  0.596586  0.402675  0.875755  1
  O  O26  1  0.403414  0.597325  0.124245  1
  O  O27  1  0.706396  0.293536  0.119973  1
  O  O28  1  0.293604  0.706464  0.880028  1
  O  O29  1  0.000000  0.000000  0.000000  1
  O  O30  1  0.293536  0.706396  0.619973  1
  O  O31  1  0.402675  0.596586  0.375755  1
  O  O32  1  0.597325  0.403414  0.624245  1
  O  O33  1  0.000000  0.000000  0.500000  1
