# generated using pymatgen
data_CePr3CdOs
_symmetry_space_group_name_H-M   'P 1'
_cell_length_a   9.93957796
_cell_length_b   9.93957681
_cell_length_c   9.93957700
_cell_angle_alpha   59.99999604
_cell_angle_beta   59.99999985
_cell_angle_gamma   59.99999608
_symmetry_Int_Tables_number   1
_chemical_formula_structural   CePr3CdOs
_chemical_formula_sum   'Ce4 Pr12 Cd4 Os4'
_cell_volume   694.36643070
_cell_formula_units_Z   4
loop_
 _symmetry_equiv_pos_site_id
 _symmetry_equiv_pos_as_xyz
  1  'x, y, z'
loop_
 _atom_site_type_symbol
 _atom_site_label
 _atom_site_symmetry_multiplicity
 _atom_site_fract_x
 _atom_site_fract_y
 _atom_site_fract_z
 _atom_site_occupancy
  Ce  Ce0  1  0.343176  0.343176  0.970473  1
  Ce  Ce1  1  0.343176  0.970473  0.343176  1
  Ce  Ce2  1  0.970473  0.343176  0.343176  1
  Ce  Ce3  1  0.343176  0.343176  0.343176  1
  Pr  Pr4  1  0.557923  0.557923  0.942077  1
  Pr  Pr5  1  0.942077  0.557923  0.942077  1
  Pr  Pr6  1  0.557923  0.942077  0.942077  1
  Pr  Pr7  1  0.942077  0.942077  0.557923  1
  Pr  Pr8  1  0.557923  0.942077  0.557923  1
  Pr  Pr9  1  0.942077  0.557923  0.557923  1
  Pr  Pr10  1  0.192278  0.192278  0.807722  1
  Pr  Pr11  1  0.807722  0.192278  0.807722  1
  Pr  Pr12  1  0.192277  0.807723  0.807722  1
  Pr  Pr13  1  0.807722  0.807723  0.192278  1
  Pr  Pr14  1  0.192277  0.807722  0.192277  1
  Pr  Pr15  1  0.807722  0.192278  0.192278  1
  Cd  Cd16  1  0.579098  0.579098  0.262704  1
  Cd  Cd17  1  0.579098  0.262704  0.579098  1
  Cd  Cd18  1  0.262704  0.579098  0.579098  1
  Cd  Cd19  1  0.579098  0.579098  0.579098  1
  Os  Os20  1  0.144991  0.144991  0.565026  1
  Os  Os21  1  0.144991  0.565026  0.144991  1
  Os  Os22  1  0.565026  0.144991  0.144991  1
  Os  Os23  1  0.144991  0.144991  0.144991  1
