# generated using pymatgen
data_K2VMoH10
_symmetry_space_group_name_H-M   'P 1'
_cell_length_a   4.78311300
_cell_length_b   5.67735976
_cell_length_c   12.74539602
_cell_angle_alpha   89.90875272
_cell_angle_beta   90.00000000
_cell_angle_gamma   90.00000000
_symmetry_Int_Tables_number   1
_chemical_formula_structural   K2VMoH10
_chemical_formula_sum   'K4 V2 Mo2 H20'
_cell_volume   346.10656707
_cell_formula_units_Z   2
loop_
 _symmetry_equiv_pos_site_id
 _symmetry_equiv_pos_as_xyz
  1  'x, y, z'
loop_
 _atom_site_type_symbol
 _atom_site_label
 _atom_site_symmetry_multiplicity
 _atom_site_fract_x
 _atom_site_fract_y
 _atom_site_fract_z
 _atom_site_occupancy
  K  K0  1  0.286233  0.248972  0.653563  1
  K  K1  1  0.786233  0.251028  0.346437  1
  K  K2  1  0.227222  0.749273  0.159855  1
  K  K3  1  0.727222  0.750727  0.840145  1
  V  V4  1  0.257445  0.749561  0.459056  1
  V  V5  1  0.757445  0.750439  0.540944  1
  Mo  Mo6  1  0.232855  0.249002  0.957230  1
  Mo  Mo7  1  0.732855  0.250998  0.042770  1
  H  H8  1  0.532947  0.543381  0.477066  1
  H  H9  1  0.032947  0.956619  0.522934  1
  H  H10  1  0.987134  0.485257  0.985100  1
  H  H11  1  0.487134  0.014743  0.014900  1
  H  H12  1  0.218080  0.062598  0.848358  1
  H  H13  1  0.718080  0.437402  0.151642  1
  H  H14  1  0.250910  0.938310  0.355599  1
  H  H15  1  0.750910  0.561690  0.644401  1
  H  H16  1  0.218728  0.430223  0.846587  1
  H  H17  1  0.718728  0.069777  0.153413  1
  H  H18  1  0.251948  0.559133  0.356374  1
  H  H19  1  0.751948  0.940867  0.643626  1
  H  H20  1  0.608497  0.247472  0.903081  1
  H  H21  1  0.108497  0.252528  0.096919  1
  H  H22  1  0.908040  0.749063  0.410676  1
  H  H23  1  0.408040  0.750937  0.589324  1
  H  H24  1  0.986863  0.013862  0.987847  1
  H  H25  1  0.486863  0.486138  0.012153  1
  H  H26  1  0.533098  0.955974  0.475763  1
  H  H27  1  0.033098  0.544026  0.524237  1
