# generated using pymatgen
data_Dy2Er3Si12Ir19
_symmetry_space_group_name_H-M   'P 1'
_cell_length_a   12.83135600
_cell_length_b   12.83135627
_cell_length_c   3.98132500
_cell_angle_alpha   90.00000000
_cell_angle_beta   90.00000000
_cell_angle_gamma   120.00000445
_symmetry_Int_Tables_number   1
_chemical_formula_structural   Dy2Er3Si12Ir19
_chemical_formula_sum   'Dy2 Er3 Si12 Ir19'
_cell_volume   567.67969614
_cell_formula_units_Z   1
loop_
 _symmetry_equiv_pos_site_id
 _symmetry_equiv_pos_as_xyz
  1  'x, y, z'
loop_
 _atom_site_type_symbol
 _atom_site_label
 _atom_site_symmetry_multiplicity
 _atom_site_fract_x
 _atom_site_fract_y
 _atom_site_fract_z
 _atom_site_occupancy
  Dy  Dy0  1  0.666667  0.333333  0.000000  1
  Dy  Dy1  1  0.333333  0.666667  0.000000  1
  Er  Er2  1  0.814888  0.814888  0.500000  1
  Er  Er3  1  0.185112  0.000000  0.500000  1
  Er  Er4  1  0.000000  0.185112  0.500000  1
  Si  Si5  1  0.688022  0.168893  0.500000  1
  Si  Si6  1  0.831107  0.519128  0.500000  1
  Si  Si7  1  0.480872  0.311978  0.500000  1
  Si  Si8  1  0.168893  0.688022  0.500000  1
  Si  Si9  1  0.519128  0.831107  0.500000  1
  Si  Si10  1  0.311978  0.480872  0.500000  1
  Si  Si11  1  0.632260  0.632260  0.000000  1
  Si  Si12  1  0.367740  0.000000  0.000000  1
  Si  Si13  1  0.000000  0.367740  0.000000  1
  Si  Si14  1  0.180930  0.180930  0.000000  1
  Si  Si15  1  0.819070  0.000000  0.000000  1
  Si  Si16  1  0.000000  0.819070  0.000000  1
  Ir  Ir17  1  0.806329  0.182530  0.000000  1
  Ir  Ir18  1  0.817470  0.623799  0.000000  1
  Ir  Ir19  1  0.376201  0.193671  0.000000  1
  Ir  Ir20  1  0.182530  0.806329  0.000000  1
  Ir  Ir21  1  0.623799  0.817470  0.000000  1
  Ir  Ir22  1  0.193671  0.376201  0.000000  1
  Ir  Ir23  1  0.447079  0.447079  0.000000  1
  Ir  Ir24  1  0.552921  0.000000  0.000000  1
  Ir  Ir25  1  0.000000  0.552921  0.000000  1
  Ir  Ir26  1  0.282441  0.282441  0.500000  1
  Ir  Ir27  1  0.717559  0.000000  0.500000  1
  Ir  Ir28  1  0.000000  0.717559  0.500000  1
  Ir  Ir29  1  0.873729  0.361575  0.500000  1
  Ir  Ir30  1  0.638425  0.512156  0.500000  1
  Ir  Ir31  1  0.487844  0.126271  0.500000  1
  Ir  Ir32  1  0.361575  0.873729  0.500000  1
  Ir  Ir33  1  0.512156  0.638425  0.500000  1
  Ir  Ir34  1  0.126271  0.487844  0.500000  1
  Ir  Ir35  1  0.000000  0.000000  0.000000  1
