# generated using pymatgen
data_Y10SiPb6Au
_symmetry_space_group_name_H-M   'P 1'
_cell_length_a   9.24773200
_cell_length_b   9.24773164
_cell_length_c   6.86623400
_cell_angle_alpha   90.00000000
_cell_angle_beta   90.00000000
_cell_angle_gamma   119.99999414
_symmetry_Int_Tables_number   1
_chemical_formula_structural   Y10SiPb6Au
_chemical_formula_sum   'Y10 Si1 Pb6 Au1'
_cell_volume   508.53366804
_cell_formula_units_Z   1
loop_
 _symmetry_equiv_pos_site_id
 _symmetry_equiv_pos_as_xyz
  1  'x, y, z'
loop_
 _atom_site_type_symbol
 _atom_site_label
 _atom_site_symmetry_multiplicity
 _atom_site_fract_x
 _atom_site_fract_y
 _atom_site_fract_z
 _atom_site_occupancy
  Y  Y0  1  0.000000  0.749232  0.768259  1
  Y  Y1  1  0.333333  0.666667  0.500000  1
  Y  Y2  1  0.333333  0.666667  0.000000  1
  Y  Y3  1  0.749232  0.749232  0.231741  1
  Y  Y4  1  0.250768  0.250768  0.768259  1
  Y  Y5  1  0.000000  0.250768  0.231741  1
  Y  Y6  1  0.666667  0.333333  0.500000  1
  Y  Y7  1  0.250768  0.000000  0.231741  1
  Y  Y8  1  0.749232  0.000000  0.768259  1
  Y  Y9  1  0.666667  0.333333  0.000000  1
  Si  Si10  1  0.000000  0.000000  0.000000  1
  Pb  Pb11  1  0.394500  0.000000  0.750836  1
  Pb  Pb12  1  0.394500  0.394500  0.249164  1
  Pb  Pb13  1  0.605500  0.605500  0.750836  1
  Pb  Pb14  1  0.000000  0.605500  0.249164  1
  Pb  Pb15  1  0.000000  0.394500  0.750836  1
  Pb  Pb16  1  0.605500  0.000000  0.249164  1
  Au  Au17  1  0.000000  0.000000  0.500000  1
