# generated using pymatgen
data_Er5Pd2Ru
_symmetry_space_group_name_H-M   'P 1'
_cell_length_a   6.33713500
_cell_length_b   10.98232400
_cell_length_c   10.98232400
_cell_angle_alpha   90.00000000
_cell_angle_beta   90.00000000
_cell_angle_gamma   90.00000000
_symmetry_Int_Tables_number   1
_chemical_formula_structural   Er5Pd2Ru
_chemical_formula_sum   'Er20 Pd8 Ru4'
_cell_volume   764.33098062
_cell_formula_units_Z   4
loop_
 _symmetry_equiv_pos_site_id
 _symmetry_equiv_pos_as_xyz
  1  'x, y, z'
loop_
 _atom_site_type_symbol
 _atom_site_label
 _atom_site_symmetry_multiplicity
 _atom_site_fract_x
 _atom_site_fract_y
 _atom_site_fract_z
 _atom_site_occupancy
  Er  Er0  1  0.363084  0.833755  0.547271  1
  Er  Er1  1  0.863084  0.666245  0.547271  1
  Er  Er2  1  0.863084  0.833755  0.952729  1
  Er  Er3  1  0.363084  0.666245  0.952729  1
  Er  Er4  1  0.863084  0.547271  0.833755  1
  Er  Er5  1  0.363084  0.952729  0.833755  1
  Er  Er6  1  0.363084  0.547271  0.666245  1
  Er  Er7  1  0.863084  0.952729  0.666245  1
  Er  Er8  1  0.636916  0.166245  0.452730  1
  Er  Er9  1  0.136916  0.333755  0.452730  1
  Er  Er10  1  0.136916  0.166245  0.047271  1
  Er  Er11  1  0.636916  0.333755  0.047271  1
  Er  Er12  1  0.136916  0.452730  0.166245  1
  Er  Er13  1  0.636916  0.047271  0.166245  1
  Er  Er14  1  0.636916  0.452730  0.333755  1
  Er  Er15  1  0.136916  0.047271  0.333755  1
  Er  Er16  1  0.500000  0.750000  0.250000  1
  Er  Er17  1  0.000000  0.750000  0.250000  1
  Er  Er18  1  0.000000  0.250000  0.750000  1
  Er  Er19  1  0.500000  0.250000  0.750000  1
  Pd  Pd20  1  0.250000  0.903663  0.096337  1
  Pd  Pd21  1  0.750000  0.596337  0.096337  1
  Pd  Pd22  1  0.750000  0.903663  0.403663  1
  Pd  Pd23  1  0.250000  0.596337  0.403663  1
  Pd  Pd24  1  0.750000  0.096337  0.903663  1
  Pd  Pd25  1  0.250000  0.403663  0.903663  1
  Pd  Pd26  1  0.250000  0.096337  0.596337  1
  Pd  Pd27  1  0.750000  0.403663  0.596337  1
  Ru  Ru28  1  0.114894  0.750000  0.750000  1
  Ru  Ru29  1  0.614894  0.750000  0.750000  1
  Ru  Ru30  1  0.885106  0.250000  0.250000  1
  Ru  Ru31  1  0.385106  0.250000  0.250000  1
