# generated using pymatgen
data_LuZn5Ga3Cu4
_symmetry_space_group_name_H-M   'P 1'
_cell_length_a   6.62870605
_cell_length_b   6.62894222
_cell_length_c   6.62870528
_cell_angle_alpha   99.28351650
_cell_angle_beta   98.30585295
_cell_angle_gamma   133.96290611
_symmetry_Int_Tables_number   1
_chemical_formula_structural   LuZn5Ga3Cu4
_chemical_formula_sum   'Lu1 Zn5 Ga3 Cu4'
_cell_volume   192.95666019
_cell_formula_units_Z   1
loop_
 _symmetry_equiv_pos_site_id
 _symmetry_equiv_pos_as_xyz
  1  'x, y, z'
loop_
 _atom_site_type_symbol
 _atom_site_label
 _atom_site_symmetry_multiplicity
 _atom_site_fract_x
 _atom_site_fract_y
 _atom_site_fract_z
 _atom_site_occupancy
  Lu  Lu0  1  0.999804  0.000000  0.999804  1
  Zn  Zn1  1  0.347573  0.000000  0.347573  1
  Zn  Zn2  1  0.499570  0.281665  0.781177  1
  Zn  Zn3  1  0.499511  0.718335  0.217905  1
  Zn  Zn4  1  0.713566  0.500000  0.213566  1
  Zn  Zn5  1  0.288160  0.500000  0.788160  1
  Ga  Ga6  1  0.999520  0.347199  0.346703  1
  Ga  Ga7  1  0.999504  0.652801  0.652321  1
  Ga  Ga8  1  0.653889  0.000000  0.653889  1
  Cu  Cu9  1  0.999819  0.000107  0.499750  1
  Cu  Cu10  1  0.499646  0.499961  0.499756  1
  Cu  Cu11  1  0.499643  0.999893  0.999712  1
  Cu  Cu12  1  0.999794  0.500039  0.999684  1
