# generated using pymatgen
data_Ba12Sn3BiI8
_symmetry_space_group_name_H-M   'P 1'
_cell_length_a   17.10688835
_cell_length_b   16.32447475
_cell_length_c   8.92467251
_cell_angle_alpha   79.42147174
_cell_angle_beta   69.72575008
_cell_angle_gamma   30.34526089
_symmetry_Int_Tables_number   1
_chemical_formula_structural   Ba12Sn3BiI8
_chemical_formula_sum   'Ba12 Sn3 Bi1 I8'
_cell_volume   1145.54080534
_cell_formula_units_Z   1
loop_
 _symmetry_equiv_pos_site_id
 _symmetry_equiv_pos_as_xyz
  1  'x, y, z'
loop_
 _atom_site_type_symbol
 _atom_site_label
 _atom_site_symmetry_multiplicity
 _atom_site_fract_x
 _atom_site_fract_y
 _atom_site_fract_z
 _atom_site_occupancy
  Ba  Ba0  1  0.025091  0.470671  0.473934  1
  Ba  Ba1  1  0.780723  0.220242  0.217624  1
  Ba  Ba2  1  0.086130  0.591812  0.932337  1
  Ba  Ba3  1  0.863694  0.314810  0.663436  1
  Ba  Ba4  1  0.591812  0.086130  0.389722  1
  Ba  Ba5  1  0.156311  0.669961  0.314693  1
  Ba  Ba6  1  0.314810  0.863694  0.158059  1
  Ba  Ba7  1  0.386188  0.934523  0.586934  1
  Ba  Ba8  1  0.220242  0.780723  0.781411  1
  Ba  Ba9  1  0.470671  0.025091  0.030303  1
  Ba  Ba10  1  0.934523  0.386188  0.092356  1
  Ba  Ba11  1  0.669961  0.156311  0.859034  1
  Sn  Sn12  1  0.166907  0.166907  0.333093  1
  Sn  Sn13  1  0.083710  0.083710  0.916290  1
  Sn  Sn14  1  0.915941  0.915941  0.084059  1
  Bi  Bi15  1  0.333383  0.333383  0.166617  1
  I  I16  1  0.578992  0.578992  0.421008  1
  I  I17  1  0.671170  0.671170  0.828830  1
  I  I18  1  0.253893  0.253893  0.746107  1
  I  I19  1  0.419768  0.419768  0.580232  1
  I  I20  1  0.996923  0.996923  0.503077  1
  I  I21  1  0.747752  0.747752  0.252248  1
  I  I22  1  0.829374  0.829374  0.670626  1
  I  I23  1  0.502029  0.502029  0.997971  1
