# generated using pymatgen
data_CaYb3(MnN2)4
_symmetry_space_group_name_H-M   'P 1'
_cell_length_a   7.16445396
_cell_length_b   5.70661974
_cell_length_c   5.60381252
_cell_angle_alpha   65.91460810
_cell_angle_beta   89.75072897
_cell_angle_gamma   90.27674430
_symmetry_Int_Tables_number   1
_chemical_formula_structural   CaYb3(MnN2)4
_chemical_formula_sum   'Ca1 Yb3 Mn4 N8'
_cell_volume   209.15659092
_cell_formula_units_Z   1
loop_
 _symmetry_equiv_pos_site_id
 _symmetry_equiv_pos_as_xyz
  1  'x, y, z'
loop_
 _atom_site_type_symbol
 _atom_site_label
 _atom_site_symmetry_multiplicity
 _atom_site_fract_x
 _atom_site_fract_y
 _atom_site_fract_z
 _atom_site_occupancy
  Ca  Ca0  1  0.413193  0.807166  0.328281  1
  Yb  Yb1  1  0.082154  0.304211  0.322238  1
  Yb  Yb2  1  0.587830  0.197231  0.673916  1
  Yb  Yb3  1  0.916014  0.693933  0.675243  1
  Mn  Mn4  1  0.635901  0.396107  0.104046  1
  Mn  Mn5  1  0.136801  0.104503  0.893603  1
  Mn  Mn6  1  0.363743  0.603129  0.899818  1
  Mn  Mn7  1  0.863484  0.895514  0.102618  1
  N  N8  1  0.082285  0.927732  0.251997  1
  N  N9  1  0.584536  0.572416  0.748634  1
  N  N10  1  0.916931  0.071770  0.744209  1
  N  N11  1  0.414957  0.424245  0.255856  1
  N  N12  1  0.685998  0.074255  0.166706  1
  N  N13  1  0.182664  0.428543  0.833372  1
  N  N14  1  0.317025  0.929258  0.828286  1
  N  N15  1  0.816484  0.569988  0.171177  1
