# generated using pymatgen
data_TaTi5Si6(MoRu2)2
_symmetry_space_group_name_H-M   'P 1'
_cell_length_a   7.45909287
_cell_length_b   7.45024869
_cell_length_c   7.45909337
_cell_angle_alpha   126.31631181
_cell_angle_beta   125.17521544
_cell_angle_gamma   80.33901642
_symmetry_Int_Tables_number   1
_chemical_formula_structural   TaTi5Si6(MoRu2)2
_chemical_formula_sum   'Ta1 Ti5 Si6 Mo2 Ru4'
_cell_volume   263.38363847
_cell_formula_units_Z   1
loop_
 _symmetry_equiv_pos_site_id
 _symmetry_equiv_pos_as_xyz
  1  'x, y, z'
loop_
 _atom_site_type_symbol
 _atom_site_label
 _atom_site_symmetry_multiplicity
 _atom_site_fract_x
 _atom_site_fract_y
 _atom_site_fract_z
 _atom_site_occupancy
  Ta  Ta0  1  0.244520  0.908308  0.163788  1
  Ti  Ti1  1  0.961835  0.487255  0.025419  1
  Ti  Ti2  1  0.037943  0.057785  0.519842  1
  Ti  Ti3  1  0.439831  0.479545  0.539714  1
  Ti  Ti4  1  0.755007  0.917196  0.662189  1
  Ti  Ti5  1  0.559870  0.103969  0.044097  1
  Si  Si6  1  0.777025  0.543697  0.266673  1
  Si  Si7  1  0.175974  0.161604  0.995219  1
  Si  Si8  1  0.666385  0.161604  0.485629  1
  Si  Si9  1  0.340360  0.819333  0.501587  1
  Si  Si10  1  0.222685  0.486652  0.763968  1
  Si  Si11  1  0.817747  0.819333  0.978974  1
  Mo  Mo12  1  0.499991  0.245040  0.745113  1
  Mo  Mo13  1  0.999927  0.245040  0.245049  1
  Ru  Ru14  1  0.838762  0.498621  0.593950  1
  Ru  Ru15  1  0.595758  0.754304  0.092596  1
  Ru  Ru16  1  0.404670  0.498621  0.159859  1
  Ru  Ru17  1  0.161709  0.754304  0.658546  1
