# generated using pymatgen
data_AcTbPr2(AsPt)4
_symmetry_space_group_name_H-M   'P 1'
_cell_length_a   4.36758900
_cell_length_b   4.36758923
_cell_length_c   16.23605200
_cell_angle_alpha   90.00000000
_cell_angle_beta   90.00000000
_cell_angle_gamma   120.00000586
_symmetry_Int_Tables_number   1
_chemical_formula_structural   AcTbPr2(AsPt)4
_chemical_formula_sum   'Ac1 Tb1 Pr2 As4 Pt4'
_cell_volume   268.22211901
_cell_formula_units_Z   1
loop_
 _symmetry_equiv_pos_site_id
 _symmetry_equiv_pos_as_xyz
  1  'x, y, z'
loop_
 _atom_site_type_symbol
 _atom_site_label
 _atom_site_symmetry_multiplicity
 _atom_site_fract_x
 _atom_site_fract_y
 _atom_site_fract_z
 _atom_site_occupancy
  Ac  Ac0  1  0.000000  0.000000  0.750000  1
  Tb  Tb1  1  0.000000  0.000000  0.250000  1
  Pr  Pr2  1  0.000000  0.000000  0.490197  1
  Pr  Pr3  1  0.000000  0.000000  0.009803  1
  As  As4  1  0.333333  0.666667  0.885276  1
  As  As5  1  0.666667  0.333333  0.124983  1
  As  As6  1  0.666667  0.333333  0.375017  1
  As  As7  1  0.333333  0.666667  0.614724  1
  Pt  Pt8  1  0.333333  0.666667  0.353936  1
  Pt  Pt9  1  0.666667  0.333333  0.614921  1
  Pt  Pt10  1  0.666667  0.333333  0.885079  1
  Pt  Pt11  1  0.333333  0.666667  0.146064  1
