# generated using pymatgen
data_Dy12Ga9Si11
_symmetry_space_group_name_H-M   'P 1'
_cell_length_a   5.96567283
_cell_length_b   5.96567253
_cell_length_c   18.65442200
_cell_angle_alpha   90.00000000
_cell_angle_beta   90.00000000
_cell_angle_gamma   102.70019665
_symmetry_Int_Tables_number   1
_chemical_formula_structural   Dy12Ga9Si11
_chemical_formula_sum   'Dy12 Ga9 Si11'
_cell_volume   647.65385699
_cell_formula_units_Z   1
loop_
 _symmetry_equiv_pos_site_id
 _symmetry_equiv_pos_as_xyz
  1  'x, y, z'
loop_
 _atom_site_type_symbol
 _atom_site_label
 _atom_site_symmetry_multiplicity
 _atom_site_fract_x
 _atom_site_fract_y
 _atom_site_fract_z
 _atom_site_occupancy
  Dy  Dy0  1  0.654980  0.654980  0.000000  1
  Dy  Dy1  1  0.661616  0.661616  0.500000  1
  Dy  Dy2  1  0.339181  0.339181  0.249673  1
  Dy  Dy3  1  0.339181  0.339181  0.750327  1
  Dy  Dy4  1  0.202104  0.800209  0.126130  1
  Dy  Dy5  1  0.199084  0.801073  0.625218  1
  Dy  Dy6  1  0.202104  0.800209  0.873870  1
  Dy  Dy7  1  0.199084  0.801073  0.374782  1
  Dy  Dy8  1  0.800209  0.202104  0.126130  1
  Dy  Dy9  1  0.801073  0.199084  0.625218  1
  Dy  Dy10  1  0.801073  0.199084  0.374782  1
  Dy  Dy11  1  0.800209  0.202104  0.873870  1
  Ga  Ga12  1  0.317871  0.317871  0.904239  1
  Ga  Ga13  1  0.322984  0.322984  0.402013  1
  Ga  Ga14  1  0.677946  0.677946  0.347502  1
  Ga  Ga15  1  0.679188  0.679188  0.847702  1
  Ga  Ga16  1  0.317871  0.317871  0.095761  1
  Ga  Ga17  1  0.322984  0.322984  0.597987  1
  Ga  Ga18  1  0.679188  0.679188  0.152298  1
  Ga  Ga19  1  0.677946  0.677946  0.652498  1
  Ga  Ga20  1  0.041032  0.041032  0.000000  1
  Si  Si21  1  0.490599  0.088559  0.000000  1
  Si  Si22  1  0.482636  0.088855  0.500000  1
  Si  Si23  1  0.912888  0.518294  0.250037  1
  Si  Si24  1  0.912888  0.518294  0.749963  1
  Si  Si25  1  0.518294  0.912888  0.250037  1
  Si  Si26  1  0.518294  0.912888  0.749963  1
  Si  Si27  1  0.088559  0.490599  0.000000  1
  Si  Si28  1  0.088855  0.482636  0.500000  1
  Si  Si29  1  0.053164  0.053164  0.500000  1
  Si  Si30  1  0.948458  0.948458  0.250025  1
  Si  Si31  1  0.948458  0.948458  0.749975  1
