# generated using pymatgen
data_Dy2LuRuI3
_symmetry_space_group_name_H-M   'P 1'
_cell_length_a   4.20661700
_cell_length_b   8.83270183
_cell_length_c   12.22544289
_cell_angle_alpha   85.86440608
_cell_angle_beta   90.00000000
_cell_angle_gamma   90.00000000
_symmetry_Int_Tables_number   1
_chemical_formula_structural   Dy2LuRuI3
_chemical_formula_sum   'Dy4 Lu2 Ru2 I6'
_cell_volume   453.06325597
_cell_formula_units_Z   2
loop_
 _symmetry_equiv_pos_site_id
 _symmetry_equiv_pos_as_xyz
  1  'x, y, z'
loop_
 _atom_site_type_symbol
 _atom_site_label
 _atom_site_symmetry_multiplicity
 _atom_site_fract_x
 _atom_site_fract_y
 _atom_site_fract_z
 _atom_site_occupancy
  Dy  Dy0  1  0.750000  0.097297  0.684760  1
  Dy  Dy1  1  0.250000  0.902703  0.315240  1
  Dy  Dy2  1  0.250000  0.261626  0.898666  1
  Dy  Dy3  1  0.750000  0.738374  0.101334  1
  Lu  Lu4  1  0.750000  0.126591  0.124097  1
  Lu  Lu5  1  0.250000  0.873409  0.875903  1
  Ru  Ru6  1  0.750000  0.051568  0.908769  1
  Ru  Ru7  1  0.250000  0.948432  0.091231  1
  I  I8  1  0.250000  0.353509  0.636693  1
  I  I9  1  0.750000  0.646491  0.363307  1
  I  I10  1  0.750000  0.144598  0.391080  1
  I  I11  1  0.250000  0.855402  0.608920  1
  I  I12  1  0.250000  0.423921  0.133564  1
  I  I13  1  0.750000  0.576079  0.866436  1
