# generated using pymatgen
data_Nb3Co2WN
_symmetry_space_group_name_H-M   'P 1'
_cell_length_a   8.17346720
_cell_length_b   8.17346746
_cell_length_c   8.17346700
_cell_angle_alpha   59.99999779
_cell_angle_beta   59.99999676
_cell_angle_gamma   59.99999654
_symmetry_Int_Tables_number   1
_chemical_formula_structural   Nb3Co2WN
_chemical_formula_sum   'Nb12 Co8 W4 N4'
_cell_volume   386.10368647
_cell_formula_units_Z   4
loop_
 _symmetry_equiv_pos_site_id
 _symmetry_equiv_pos_as_xyz
  1  'x, y, z'
loop_
 _atom_site_type_symbol
 _atom_site_label
 _atom_site_symmetry_multiplicity
 _atom_site_fract_x
 _atom_site_fract_y
 _atom_site_fract_z
 _atom_site_occupancy
  Nb  Nb0  1  0.810166  0.810166  0.189834  1
  Nb  Nb1  1  0.189834  0.189834  0.810166  1
  Nb  Nb2  1  0.810166  0.189834  0.810166  1
  Nb  Nb3  1  0.189834  0.810166  0.189834  1
  Nb  Nb4  1  0.189834  0.810166  0.810166  1
  Nb  Nb5  1  0.810166  0.189834  0.189834  1
  Nb  Nb6  1  0.439834  0.439834  0.060166  1
  Nb  Nb7  1  0.060166  0.060166  0.439834  1
  Nb  Nb8  1  0.439834  0.060166  0.439834  1
  Nb  Nb9  1  0.060166  0.439834  0.060166  1
  Nb  Nb10  1  0.060166  0.439834  0.439834  1
  Nb  Nb11  1  0.439834  0.060166  0.060166  1
  Co  Co12  1  0.730589  0.423137  0.423137  1
  Co  Co13  1  0.423137  0.730589  0.423137  1
  Co  Co14  1  0.423137  0.423137  0.730589  1
  Co  Co15  1  0.423137  0.423137  0.423137  1
  Co  Co16  1  0.519411  0.826863  0.826863  1
  Co  Co17  1  0.826863  0.519411  0.826863  1
  Co  Co18  1  0.826863  0.826863  0.519411  1
  Co  Co19  1  0.826863  0.826863  0.826863  1
  W  W20  1  0.125000  0.625000  0.625000  1
  W  W21  1  0.625000  0.125000  0.625000  1
  W  W22  1  0.625000  0.625000  0.125000  1
  W  W23  1  0.625000  0.625000  0.625000  1
  N  N24  1  0.625000  0.125000  0.125000  1
  N  N25  1  0.125000  0.625000  0.125000  1
  N  N26  1  0.125000  0.125000  0.625000  1
  N  N27  1  0.125000  0.125000  0.125000  1
