# generated using pymatgen
data_Dy5Ti3Co16(Si2P)4
_symmetry_space_group_name_H-M   'P 1'
_cell_length_a   12.27629287
_cell_length_b   12.29090924
_cell_length_c   3.74339500
_cell_angle_alpha   90.00000000
_cell_angle_beta   90.00000000
_cell_angle_gamma   120.06113320
_symmetry_Int_Tables_number   1
_chemical_formula_structural   Dy5Ti3Co16(Si2P)4
_chemical_formula_sum   'Dy5 Ti3 Co16 Si8 P4'
_cell_volume   488.85456715
_cell_formula_units_Z   1
loop_
 _symmetry_equiv_pos_site_id
 _symmetry_equiv_pos_as_xyz
  1  'x, y, z'
loop_
 _atom_site_type_symbol
 _atom_site_label
 _atom_site_symmetry_multiplicity
 _atom_site_fract_x
 _atom_site_fract_y
 _atom_site_fract_z
 _atom_site_occupancy
  Dy  Dy0  1  0.667185  0.333800  0.000000  1
  Dy  Dy1  1  0.330202  0.663116  0.000000  1
  Dy  Dy2  1  0.182010  0.181363  0.500000  1
  Dy  Dy3  1  0.819067  0.001172  0.500000  1
  Dy  Dy4  1  0.999882  0.816352  0.500000  1
  Ti  Ti5  1  0.565216  0.565149  0.000000  1
  Ti  Ti6  1  0.434744  0.000198  0.000000  1
  Ti  Ti7  1  0.003686  0.436067  0.000000  1
  Co  Co8  1  0.825864  0.197374  0.000000  1
  Co  Co9  1  0.803607  0.627690  0.000000  1
  Co  Co10  1  0.371584  0.175922  0.000000  1
  Co  Co11  1  0.196355  0.822904  0.000000  1
  Co  Co12  1  0.627545  0.803992  0.000000  1
  Co  Co13  1  0.176143  0.374552  0.000000  1
  Co  Co14  1  0.641889  0.121766  0.500000  1
  Co  Co15  1  0.878765  0.520592  0.500000  1
  Co  Co16  1  0.478305  0.359591  0.500000  1
  Co  Co17  1  0.122490  0.638209  0.500000  1
  Co  Co18  1  0.520583  0.878932  0.500000  1
  Co  Co19  1  0.353392  0.479474  0.500000  1
  Co  Co20  1  0.722298  0.723003  0.500000  1
  Co  Co21  1  0.276910  0.999270  0.500000  1
  Co  Co22  1  0.003857  0.280836  0.500000  1
  Co  Co23  1  0.999880  0.999932  0.000000  1
  Si  Si24  1  0.360069  0.360826  0.000000  1
  Si  Si25  1  0.639526  0.000653  0.000000  1
  Si  Si26  1  0.999847  0.637673  0.000000  1
  Si  Si27  1  0.831875  0.309530  0.500000  1
  Si  Si28  1  0.691252  0.522430  0.500000  1
  Si  Si29  1  0.477595  0.170032  0.500000  1
  Si  Si30  1  0.308766  0.830128  0.500000  1
  Si  Si31  1  0.521282  0.691032  0.500000  1
  P  P32  1  0.168233  0.477628  0.500000  1
  P  P33  1  0.818145  0.818202  0.000000  1
  P  P34  1  0.181325  0.999003  0.000000  1
  P  P35  1  0.000627  0.181605  0.000000  1
