# generated using pymatgen
data_LaTbBiSbO7
_symmetry_space_group_name_H-M   'P 1'
_cell_length_a   6.64383460
_cell_length_b   6.64383557
_cell_length_c   7.69718200
_cell_angle_alpha   90.00000000
_cell_angle_beta   90.00000000
_cell_angle_gamma   110.03441541
_symmetry_Int_Tables_number   1
_chemical_formula_structural   LaTbBiSbO7
_chemical_formula_sum   'La2 Tb2 Bi2 Sb2 O14'
_cell_volume   319.19804586
_cell_formula_units_Z   2
loop_
 _symmetry_equiv_pos_site_id
 _symmetry_equiv_pos_as_xyz
  1  'x, y, z'
loop_
 _atom_site_type_symbol
 _atom_site_label
 _atom_site_symmetry_multiplicity
 _atom_site_fract_x
 _atom_site_fract_y
 _atom_site_fract_z
 _atom_site_occupancy
  La  La0  1  0.007058  0.992942  0.500000  1
  La  La1  1  0.007058  0.992942  0.000000  1
  Tb  Tb2  1  0.497342  0.955184  0.750000  1
  Tb  Tb3  1  0.044816  0.502658  0.250000  1
  Bi  Bi4  1  0.518037  0.037811  0.250000  1
  Bi  Bi5  1  0.962189  0.481963  0.750000  1
  Sb  Sb6  1  0.497228  0.502772  0.500000  1
  Sb  Sb7  1  0.497228  0.502772  0.000000  1
  O  O8  1  0.436008  0.190738  0.541095  1
  O  O9  1  0.809262  0.563992  0.458905  1
  O  O10  1  0.436008  0.190738  0.958905  1
  O  O11  1  0.809262  0.563992  0.041095  1
  O  O12  1  0.558742  0.822780  0.471832  1
  O  O13  1  0.177220  0.441258  0.528168  1
  O  O14  1  0.558742  0.822780  0.028168  1
  O  O15  1  0.177220  0.441258  0.971832  1
  O  O16  1  0.162980  0.865044  0.250000  1
  O  O17  1  0.134956  0.837020  0.750000  1
  O  O18  1  0.855585  0.100339  0.750000  1
  O  O19  1  0.899661  0.144415  0.250000  1
  O  O20  1  0.398245  0.444849  0.250000  1
  O  O21  1  0.555151  0.601755  0.750000  1
