# generated using pymatgen
data_Dy2TmCI5
_symmetry_space_group_name_H-M   'P 1'
_cell_length_a   7.63381901
_cell_length_b   9.47911598
_cell_length_c   9.58182097
_cell_angle_alpha   107.03744451
_cell_angle_beta   96.56553840
_cell_angle_gamma   104.01603323
_symmetry_Int_Tables_number   1
_chemical_formula_structural   Dy2TmCI5
_chemical_formula_sum   'Dy4 Tm2 C2 I10'
_cell_volume   630.22966144
_cell_formula_units_Z   2
loop_
 _symmetry_equiv_pos_site_id
 _symmetry_equiv_pos_as_xyz
  1  'x, y, z'
loop_
 _atom_site_type_symbol
 _atom_site_label
 _atom_site_symmetry_multiplicity
 _atom_site_fract_x
 _atom_site_fract_y
 _atom_site_fract_z
 _atom_site_occupancy
  Dy  Dy0  1  0.897913  0.962388  0.216718  1
  Dy  Dy1  1  0.029212  0.743198  0.926084  1
  Dy  Dy2  1  0.970451  0.256908  0.074714  1
  Dy  Dy3  1  0.627148  0.868961  0.823167  1
  Tm  Tm4  1  0.100879  0.037291  0.786167  1
  Tm  Tm5  1  0.371778  0.130866  0.176271  1
  C  C6  1  0.909497  0.970389  0.957750  1
  C  C7  1  0.093972  0.030744  0.040712  1
  I  I8  1  0.191378  0.741276  0.649268  1
  I  I9  1  0.088126  0.358991  0.819852  1
  I  I10  1  0.455993  0.812866  0.095135  1
  I  I11  1  0.257240  0.085029  0.454403  1
  I  I12  1  0.538562  0.189543  0.908148  1
  I  I13  1  0.801726  0.262581  0.349342  1
  I  I14  1  0.346607  0.449540  0.272404  1
  I  I15  1  0.912863  0.634642  0.177752  1
  I  I16  1  0.655309  0.546837  0.727472  1
  I  I17  1  0.751346  0.917949  0.544641  1
