# generated using pymatgen
data_Tb3TaGa2Ir3
_symmetry_space_group_name_H-M   'P 1'
_cell_length_a   7.11004498
_cell_length_b   6.89665680
_cell_length_c   4.23145400
_cell_angle_alpha   90.00000000
_cell_angle_beta   90.00000000
_cell_angle_gamma   119.01207426
_symmetry_Int_Tables_number   1
_chemical_formula_structural   Tb3TaGa2Ir3
_chemical_formula_sum   'Tb3 Ta1 Ga2 Ir3'
_cell_volume   181.45506780
_cell_formula_units_Z   1
loop_
 _symmetry_equiv_pos_site_id
 _symmetry_equiv_pos_as_xyz
  1  'x, y, z'
loop_
 _atom_site_type_symbol
 _atom_site_label
 _atom_site_symmetry_multiplicity
 _atom_site_fract_x
 _atom_site_fract_y
 _atom_site_fract_z
 _atom_site_occupancy
  Tb  Tb0  1  0.423479  0.416743  0.000000  1
  Tb  Tb1  1  0.576521  0.993263  0.000000  1
  Tb  Tb2  1  0.000000  0.604368  0.000000  1
  Ta  Ta3  1  0.000000  0.238519  0.500000  1
  Ga  Ga4  1  0.753475  0.750725  0.500000  1
  Ga  Ga5  1  0.246525  0.997249  0.500000  1
  Ir  Ir6  1  0.000000  0.025667  0.000000  1
  Ir  Ir7  1  0.319182  0.646325  0.500000  1
  Ir  Ir8  1  0.680818  0.327142  0.500000  1
