# generated using pymatgen
data_Sr10Hg2PtRh3
_symmetry_space_group_name_H-M   'P 1'
_cell_length_a   9.81656162
_cell_length_b   9.81656145
_cell_length_c   9.78735800
_cell_angle_alpha   129.90404970
_cell_angle_beta   129.90404885
_cell_angle_gamma   73.78808022
_symmetry_Int_Tables_number   1
_chemical_formula_structural   Sr10Hg2PtRh3
_chemical_formula_sum   'Sr10 Hg2 Pt1 Rh3'
_cell_volume   540.80638821
_cell_formula_units_Z   1
loop_
 _symmetry_equiv_pos_site_id
 _symmetry_equiv_pos_as_xyz
  1  'x, y, z'
loop_
 _atom_site_type_symbol
 _atom_site_label
 _atom_site_symmetry_multiplicity
 _atom_site_fract_x
 _atom_site_fract_y
 _atom_site_fract_z
 _atom_site_occupancy
  Sr  Sr0  1  0.999672  0.999758  0.999430  1
  Sr  Sr1  1  0.500242  0.500328  0.000570  1
  Sr  Sr2  1  0.800283  0.296819  0.838450  1
  Sr  Sr3  1  0.203181  0.699717  0.161550  1
  Sr  Sr4  1  0.461833  0.958369  0.161550  1
  Sr  Sr5  1  0.294849  0.463316  0.500000  1
  Sr  Sr6  1  0.036684  0.205151  0.500000  1
  Sr  Sr7  1  0.541631  0.038167  0.838450  1
  Sr  Sr8  1  0.701648  0.539423  0.500000  1
  Sr  Sr9  1  0.960577  0.798352  0.500000  1
  Hg  Hg10  1  0.250867  0.249133  0.000000  1
  Hg  Hg11  1  0.750867  0.749133  0.000000  1
  Pt  Pt12  1  0.377615  0.122385  0.500000  1
  Rh  Rh13  1  0.118733  0.620113  0.738846  1
  Rh  Rh14  1  0.879887  0.381267  0.261154  1
  Rh  Rh15  1  0.621434  0.878566  0.500000  1
