# generated using pymatgen
data_LiLaBiSb
_symmetry_space_group_name_H-M   'P 1'
_cell_length_a   4.48206400
_cell_length_b   4.48206400
_cell_length_c   11.12448200
_cell_angle_alpha   90.00000000
_cell_angle_beta   90.00000000
_cell_angle_gamma   90.00000000
_symmetry_Int_Tables_number   1
_chemical_formula_structural   LiLaBiSb
_chemical_formula_sum   'Li2 La2 Bi2 Sb2'
_cell_volume   223.47858086
_cell_formula_units_Z   2
loop_
 _symmetry_equiv_pos_site_id
 _symmetry_equiv_pos_as_xyz
  1  'x, y, z'
loop_
 _atom_site_type_symbol
 _atom_site_label
 _atom_site_symmetry_multiplicity
 _atom_site_fract_x
 _atom_site_fract_y
 _atom_site_fract_z
 _atom_site_occupancy
  Li  Li0  1  0.000000  0.000000  0.000000  1
  Li  Li1  1  0.500000  0.500000  0.000000  1
  La  La2  1  0.000000  0.500000  0.252883  1
  La  La3  1  0.500000  0.000000  0.747117  1
  Bi  Bi4  1  0.000000  0.000000  0.500000  1
  Bi  Bi5  1  0.500000  0.500000  0.500000  1
  Sb  Sb6  1  0.000000  0.500000  0.842696  1
  Sb  Sb7  1  0.500000  0.000000  0.157304  1
