# generated using pymatgen
data_Ho6CrB14W
_symmetry_space_group_name_H-M   'P 1'
_cell_length_a   8.10096103
_cell_length_b   8.10095990
_cell_length_c   9.39531100
_cell_angle_alpha   90.00000000
_cell_angle_beta   90.00000000
_cell_angle_gamma   155.52454243
_symmetry_Int_Tables_number   1
_chemical_formula_structural   Ho6CrB14W
_chemical_formula_sum   'Ho6 Cr1 B14 W1'
_cell_volume   255.44812016
_cell_formula_units_Z   1
loop_
 _symmetry_equiv_pos_site_id
 _symmetry_equiv_pos_as_xyz
  1  'x, y, z'
loop_
 _atom_site_type_symbol
 _atom_site_label
 _atom_site_symmetry_multiplicity
 _atom_site_fract_x
 _atom_site_fract_y
 _atom_site_fract_z
 _atom_site_occupancy
  Ho  Ho0  1  0.894344  0.105656  0.435945  1
  Ho  Ho1  1  0.106791  0.893209  0.556035  1
  Ho  Ho2  1  0.894344  0.105656  0.064055  1
  Ho  Ho3  1  0.106791  0.893209  0.943965  1
  Ho  Ho4  1  0.241210  0.758790  0.250000  1
  Ho  Ho5  1  0.754507  0.245493  0.750000  1
  Cr  Cr6  1  0.053045  0.946955  0.250000  1
  B  B7  1  0.727200  0.272800  0.465867  1
  B  B8  1  0.272086  0.727914  0.531247  1
  B  B9  1  0.727200  0.272800  0.034133  1
  B  B10  1  0.272086  0.727914  0.968753  1
  B  B11  1  0.631168  0.368832  0.151840  1
  B  B12  1  0.365000  0.635000  0.854214  1
  B  B13  1  0.631168  0.368832  0.348160  1
  B  B14  1  0.365000  0.635000  0.645786  1
  B  B15  1  0.521645  0.478355  0.096989  1
  B  B16  1  0.480914  0.519086  0.909848  1
  B  B17  1  0.521645  0.478355  0.403011  1
  B  B18  1  0.480914  0.519086  0.590152  1
  B  B19  1  0.459729  0.540271  0.250000  1
  B  B20  1  0.546007  0.453993  0.750000  1
  W  W21  1  0.947204  0.052796  0.750000  1
