# generated using pymatgen
data_Ca6Ta3Al13Ir7
_symmetry_space_group_name_H-M   'P 1'
_cell_length_a   9.06539216
_cell_length_b   9.06539068
_cell_length_c   9.06541181
_cell_angle_alpha   59.67184451
_cell_angle_beta   59.67188587
_cell_angle_gamma   59.67164800
_symmetry_Int_Tables_number   1
_chemical_formula_structural   Ca6Ta3Al13Ir7
_chemical_formula_sum   'Ca6 Ta3 Al13 Ir7'
_cell_volume   522.87179610
_cell_formula_units_Z   1
loop_
 _symmetry_equiv_pos_site_id
 _symmetry_equiv_pos_as_xyz
  1  'x, y, z'
loop_
 _atom_site_type_symbol
 _atom_site_label
 _atom_site_symmetry_multiplicity
 _atom_site_fract_x
 _atom_site_fract_y
 _atom_site_fract_z
 _atom_site_occupancy
  Ca  Ca0  1  0.705842  0.705842  0.288983  1
  Ca  Ca1  1  0.296362  0.703346  0.296361  1
  Ca  Ca2  1  0.703347  0.296362  0.296359  1
  Ca  Ca3  1  0.296361  0.296360  0.703348  1
  Ca  Ca4  1  0.705842  0.288984  0.705843  1
  Ca  Ca5  1  0.288984  0.705841  0.705843  1
  Ta  Ta6  1  0.878197  0.878197  0.362001  1
  Ta  Ta7  1  0.878197  0.362002  0.878198  1
  Ta  Ta8  1  0.362002  0.878197  0.878197  1
  Al  Al9  1  0.882575  0.882575  0.882576  1
  Al  Al10  1  0.119730  0.119730  0.641286  1
  Al  Al11  1  0.119731  0.641285  0.119730  1
  Al  Al12  1  0.641285  0.119731  0.119730  1
  Al  Al13  1  0.121027  0.121027  0.121026  1
  Al  Al14  1  0.673064  0.673063  0.987937  1
  Al  Al15  1  0.673062  0.987936  0.673065  1
  Al  Al16  1  0.987936  0.673062  0.673065  1
  Al  Al17  1  0.668809  0.668809  0.668811  1
  Al  Al18  1  0.327241  0.327242  0.020105  1
  Al  Al19  1  0.327243  0.020106  0.327240  1
  Al  Al20  1  0.020106  0.327243  0.327240  1
  Al  Al21  1  0.326822  0.326822  0.326821  1
  Ir  Ir22  1  0.003459  0.003459  0.003458  1
  Ir  Ir23  1  0.998017  0.998018  0.494844  1
  Ir  Ir24  1  0.503218  0.995462  0.503218  1
  Ir  Ir25  1  0.995462  0.503218  0.503219  1
  Ir  Ir26  1  0.503218  0.503218  0.995463  1
  Ir  Ir27  1  0.998019  0.494844  0.998018  1
  Ir  Ir28  1  0.494844  0.998018  0.998018  1
