# generated using pymatgen
data_DyY3Fe4(Ni4P3)4
_symmetry_space_group_name_H-M   'P 1'
_cell_length_a   3.69809200
_cell_length_b   10.32068100
_cell_length_c   11.88128800
_cell_angle_alpha   90.00235358
_cell_angle_beta   90.00000000
_cell_angle_gamma   90.00000000
_symmetry_Int_Tables_number   1
_chemical_formula_structural   DyY3Fe4(Ni4P3)4
_chemical_formula_sum   'Dy1 Y3 Fe4 Ni16 P12'
_cell_volume   453.47107343
_cell_formula_units_Z   1
loop_
 _symmetry_equiv_pos_site_id
 _symmetry_equiv_pos_as_xyz
  1  'x, y, z'
loop_
 _atom_site_type_symbol
 _atom_site_label
 _atom_site_symmetry_multiplicity
 _atom_site_fract_x
 _atom_site_fract_y
 _atom_site_fract_z
 _atom_site_occupancy
  Dy  Dy0  1  0.750000  0.079444  0.795107  1
  Y  Y1  1  0.250000  0.579457  0.704882  1
  Y  Y2  1  0.250000  0.920541  0.204894  1
  Y  Y3  1  0.750000  0.420555  0.295116  1
  Fe  Fe4  1  0.250000  0.463805  0.931844  1
  Fe  Fe5  1  0.250000  0.036192  0.431848  1
  Fe  Fe6  1  0.750000  0.536193  0.068157  1
  Fe  Fe7  1  0.750000  0.963808  0.568163  1
  Ni  Ni8  1  0.250000  0.713591  0.994412  1
  Ni  Ni9  1  0.250000  0.786414  0.494410  1
  Ni  Ni10  1  0.750000  0.286410  0.005586  1
  Ni  Ni11  1  0.750000  0.213584  0.505594  1
  Ni  Ni12  1  0.250000  0.407449  0.487619  1
  Ni  Ni13  1  0.250000  0.092546  0.987598  1
  Ni  Ni14  1  0.750000  0.592552  0.512378  1
  Ni  Ni15  1  0.750000  0.907453  0.012375  1
  Ni  Ni16  1  0.250000  0.224733  0.176752  1
  Ni  Ni17  1  0.250000  0.275258  0.676756  1
  Ni  Ni18  1  0.750000  0.775276  0.823249  1
  Ni  Ni19  1  0.750000  0.724731  0.323252  1
  Ni  Ni20  1  0.250000  0.877479  0.701615  1
  Ni  Ni21  1  0.250000  0.622535  0.201608  1
  Ni  Ni22  1  0.750000  0.122538  0.298391  1
  Ni  Ni23  1  0.750000  0.377455  0.798393  1
  P  P24  1  0.250000  0.425600  0.111674  1
  P  P25  1  0.250000  0.074405  0.611697  1
  P  P26  1  0.750000  0.574403  0.888325  1
  P  P27  1  0.750000  0.925593  0.388322  1
  P  P28  1  0.250000  0.268982  0.869054  1
  P  P29  1  0.250000  0.231010  0.369057  1
  P  P30  1  0.750000  0.731000  0.130937  1
  P  P31  1  0.750000  0.768995  0.630940  1
  P  P32  1  0.250000  0.603913  0.392883  1
  P  P33  1  0.250000  0.896100  0.892873  1
  P  P34  1  0.750000  0.396083  0.607119  1
  P  P35  1  0.750000  0.103917  0.107119  1
