# generated using pymatgen
data_Dy7Tm5(LuSn2)8
_symmetry_space_group_name_H-M   'P 1'
_cell_length_a   7.95349049
_cell_length_b   8.08649209
_cell_length_c   15.29544300
_cell_angle_alpha   90.00376942
_cell_angle_beta   90.02008434
_cell_angle_gamma   89.99228980
_symmetry_Int_Tables_number   1
_chemical_formula_structural   Dy7Tm5(LuSn2)8
_chemical_formula_sum   'Dy7 Tm5 Lu8 Sn16'
_cell_volume   983.73916158
_cell_formula_units_Z   1
loop_
 _symmetry_equiv_pos_site_id
 _symmetry_equiv_pos_as_xyz
  1  'x, y, z'
loop_
 _atom_site_type_symbol
 _atom_site_label
 _atom_site_symmetry_multiplicity
 _atom_site_fract_x
 _atom_site_fract_y
 _atom_site_fract_z
 _atom_site_occupancy
  Dy  Dy0  1  0.020701  0.179074  0.596396  1
  Dy  Dy1  1  0.479250  0.679016  0.403739  1
  Dy  Dy2  1  0.979190  0.820998  0.096205  1
  Dy  Dy3  1  0.480462  0.678809  0.095933  1
  Dy  Dy4  1  0.980716  0.821156  0.404010  1
  Dy  Dy5  1  0.519215  0.321204  0.595840  1
  Dy  Dy6  1  0.019276  0.178997  0.903962  1
  Tm  Tm7  1  0.633652  0.162828  0.122882  1
  Tm  Tm8  1  0.133748  0.337341  0.377013  1
  Tm  Tm9  1  0.366213  0.837417  0.623131  1
  Tm  Tm10  1  0.866317  0.662583  0.877021  1
  Tm  Tm11  1  0.520776  0.320788  0.903539  1
  Lu  Lu12  1  0.364272  0.838350  0.876368  1
  Lu  Lu13  1  0.864343  0.661697  0.623590  1
  Lu  Lu14  1  0.635653  0.161699  0.376421  1
  Lu  Lu15  1  0.135422  0.338274  0.123613  1
  Lu  Lu16  1  0.196268  0.504639  0.750697  1
  Lu  Lu17  1  0.696088  0.995354  0.749390  1
  Lu  Lu18  1  0.803793  0.495247  0.250716  1
  Lu  Lu19  1  0.303757  0.004726  0.249361  1
  Sn  Sn20  1  0.295217  0.039231  0.041138  1
  Sn  Sn21  1  0.795068  0.460742  0.458887  1
  Sn  Sn22  1  0.704936  0.960852  0.541219  1
  Sn  Sn23  1  0.206811  0.537724  0.958449  1
  Sn  Sn24  1  0.702089  0.961754  0.957920  1
  Sn  Sn25  1  0.202293  0.539194  0.542099  1
  Sn  Sn26  1  0.297707  0.038949  0.457954  1
  Sn  Sn27  1  0.796808  0.460823  0.041824  1
  Sn  Sn28  1  0.561857  0.619174  0.750262  1
  Sn  Sn29  1  0.061752  0.880530  0.749791  1
  Sn  Sn30  1  0.438088  0.380535  0.250128  1
  Sn  Sn31  1  0.938059  0.119485  0.249823  1
  Sn  Sn32  1  0.330866  0.150483  0.750588  1
  Sn  Sn33  1  0.829848  0.350258  0.750093  1
  Sn  Sn34  1  0.669816  0.850366  0.250047  1
  Sn  Sn35  1  0.169675  0.649705  0.249956  1
