# generated using pymatgen
data_Ho3ErMoOs7
_symmetry_space_group_name_H-M   'P 1'
_cell_length_a   5.28695926
_cell_length_b   5.28695874
_cell_length_c   8.87765900
_cell_angle_alpha   89.99761096
_cell_angle_beta   90.00238742
_cell_angle_gamma   117.96204849
_symmetry_Int_Tables_number   1
_chemical_formula_structural   Ho3ErMoOs7
_chemical_formula_sum   'Ho3 Er1 Mo1 Os7'
_cell_volume   219.17857774
_cell_formula_units_Z   1
loop_
 _symmetry_equiv_pos_site_id
 _symmetry_equiv_pos_as_xyz
  1  'x, y, z'
loop_
 _atom_site_type_symbol
 _atom_site_label
 _atom_site_symmetry_multiplicity
 _atom_site_fract_x
 _atom_site_fract_y
 _atom_site_fract_z
 _atom_site_occupancy
  Ho  Ho0  1  0.329904  0.670096  0.437688  1
  Ho  Ho1  1  0.666671  0.333329  0.565967  1
  Ho  Ho2  1  0.666694  0.333306  0.934142  1
  Er  Er3  1  0.329864  0.670136  0.062259  1
  Mo  Mo4  1  0.832202  0.167798  0.249778  1
  Os  Os5  1  0.994054  0.005946  0.501809  1
  Os  Os6  1  0.994153  0.005847  0.998288  1
  Os  Os7  1  0.826984  0.653215  0.249678  1
  Os  Os8  1  0.346785  0.173016  0.249678  1
  Os  Os9  1  0.177970  0.822030  0.750297  1
  Os  Os10  1  0.173025  0.338302  0.750208  1
  Os  Os11  1  0.661698  0.826975  0.750208  1
