# generated using pymatgen
data_Ce3Y5(TcB6)4
_symmetry_space_group_name_H-M   'P 1'
_cell_length_a   3.72724700
_cell_length_b   9.19791162
_cell_length_c   11.58969618
_cell_angle_alpha   89.90710306
_cell_angle_beta   90.00000000
_cell_angle_gamma   90.00000000
_symmetry_Int_Tables_number   1
_chemical_formula_structural   Ce3Y5(TcB6)4
_chemical_formula_sum   'Ce3 Y5 Tc4 B24'
_cell_volume   397.32773963
_cell_formula_units_Z   1
loop_
 _symmetry_equiv_pos_site_id
 _symmetry_equiv_pos_as_xyz
  1  'x, y, z'
loop_
 _atom_site_type_symbol
 _atom_site_label
 _atom_site_symmetry_multiplicity
 _atom_site_fract_x
 _atom_site_fract_y
 _atom_site_fract_z
 _atom_site_occupancy
  Ce  Ce0  1  0.000000  0.822552  0.085837  1
  Ce  Ce1  1  0.000000  0.177135  0.913420  1
  Ce  Ce2  1  0.000000  0.324478  0.414350  1
  Y  Y3  1  0.000000  0.676834  0.586348  1
  Y  Y4  1  0.000000  0.444547  0.127709  1
  Y  Y5  1  0.000000  0.556147  0.871331  1
  Y  Y6  1  0.000000  0.942762  0.371767  1
  Y  Y7  1  0.000000  0.055999  0.628879  1
  Tc  Tc8  1  0.000000  0.138413  0.179104  1
  Tc  Tc9  1  0.000000  0.862715  0.822034  1
  Tc  Tc10  1  0.000000  0.638395  0.320328  1
  Tc  Tc11  1  0.000000  0.360811  0.678869  1
  B  B12  1  0.500000  0.054202  0.068518  1
  B  B13  1  0.500000  0.945825  0.931582  1
  B  B14  1  0.500000  0.553842  0.432199  1
  B  B15  1  0.500000  0.446090  0.567725  1
  B  B16  1  0.500000  0.247972  0.081548  1
  B  B17  1  0.500000  0.751775  0.918115  1
  B  B18  1  0.500000  0.747940  0.419178  1
  B  B19  1  0.500000  0.252383  0.581499  1
  B  B20  1  0.500000  0.290957  0.233931  1
  B  B21  1  0.500000  0.708343  0.765651  1
  B  B22  1  0.500000  0.790898  0.266761  1
  B  B23  1  0.500000  0.209193  0.733710  1
  B  B24  1  0.500000  0.131511  0.314066  1
  B  B25  1  0.500000  0.868139  0.685782  1
  B  B26  1  0.500000  0.632043  0.186238  1
  B  B27  1  0.500000  0.368563  0.813358  1
  B  B28  1  0.500000  0.484136  0.287742  1
  B  B29  1  0.500000  0.517186  0.712373  1
  B  B30  1  0.500000  0.983790  0.212892  1
  B  B31  1  0.500000  0.015976  0.787052  1
  B  B32  1  0.500000  0.104067  0.470999  1
  B  B33  1  0.500000  0.894214  0.529633  1
  B  B34  1  0.500000  0.607869  0.029701  1
  B  B35  1  0.500000  0.392297  0.969773  1
