# generated using pymatgen
data_YbCoIr3Pb3O14
_symmetry_space_group_name_H-M   'P 1'
_cell_length_a   7.24923043
_cell_length_b   7.20838383
_cell_length_c   7.20838400
_cell_angle_alpha   59.99999920
_cell_angle_beta   60.18621632
_cell_angle_gamma   60.18621641
_symmetry_Int_Tables_number   1
_chemical_formula_structural   YbCoIr3Pb3O14
_chemical_formula_sum   'Yb1 Co1 Ir3 Pb3 O14'
_cell_volume   267.09723728
_cell_formula_units_Z   1
loop_
 _symmetry_equiv_pos_site_id
 _symmetry_equiv_pos_as_xyz
  1  'x, y, z'
loop_
 _atom_site_type_symbol
 _atom_site_label
 _atom_site_symmetry_multiplicity
 _atom_site_fract_x
 _atom_site_fract_y
 _atom_site_fract_z
 _atom_site_occupancy
  Yb  Yb0  1  0.625000  0.125000  0.125000  1
  Co  Co1  1  0.125000  0.625000  0.625000  1
  Ir  Ir2  1  0.625000  0.125000  0.625000  1
  Ir  Ir3  1  0.625000  0.625000  0.125000  1
  Ir  Ir4  1  0.625000  0.625000  0.625000  1
  Pb  Pb5  1  0.125000  0.625000  0.125000  1
  Pb  Pb6  1  0.125000  0.125000  0.625000  1
  Pb  Pb7  1  0.125000  0.125000  0.125000  1
  O  O8  1  0.712948  0.698256  0.294398  1
  O  O9  1  0.294963  0.300738  0.702149  1
  O  O10  1  0.712948  0.294398  0.698256  1
  O  O11  1  0.294963  0.702149  0.300738  1
  O  O12  1  0.294963  0.702149  0.702149  1
  O  O13  1  0.712948  0.294398  0.294398  1
  O  O14  1  0.537052  0.551744  0.955602  1
  O  O15  1  0.955037  0.949262  0.547851  1
  O  O16  1  0.537052  0.955602  0.551744  1
  O  O17  1  0.955037  0.547851  0.949262  1
  O  O18  1  0.955037  0.547851  0.547851  1
  O  O19  1  0.537052  0.955602  0.955602  1
  O  O20  1  0.254790  0.248403  0.248403  1
  O  O21  1  0.995210  0.001597  0.001597  1
