# generated using pymatgen
data_Dy8InHg3Au8
_symmetry_space_group_name_H-M   'P 1'
_cell_length_a   8.00561200
_cell_length_b   8.00561200
_cell_length_c   7.40610700
_cell_angle_alpha   90.00000000
_cell_angle_beta   90.00000000
_cell_angle_gamma   90.00000000
_symmetry_Int_Tables_number   1
_chemical_formula_structural   Dy8InHg3Au8
_chemical_formula_sum   'Dy8 In1 Hg3 Au8'
_cell_volume   474.65609041
_cell_formula_units_Z   1
loop_
 _symmetry_equiv_pos_site_id
 _symmetry_equiv_pos_as_xyz
  1  'x, y, z'
loop_
 _atom_site_type_symbol
 _atom_site_label
 _atom_site_symmetry_multiplicity
 _atom_site_fract_x
 _atom_site_fract_y
 _atom_site_fract_z
 _atom_site_occupancy
  Dy  Dy0  1  0.838416  0.160240  0.500465  1
  Dy  Dy1  1  0.161584  0.839760  0.500465  1
  Dy  Dy2  1  0.339760  0.338416  0.999535  1
  Dy  Dy3  1  0.660240  0.661584  0.999535  1
  Dy  Dy4  1  0.682836  0.685946  0.501041  1
  Dy  Dy5  1  0.317164  0.314054  0.501041  1
  Dy  Dy6  1  0.185946  0.817164  0.998959  1
  Dy  Dy7  1  0.814054  0.182836  0.998959  1
  In  In8  1  0.000000  0.500000  0.250000  1
  Hg  Hg9  1  0.500000  0.000000  0.250000  1
  Hg  Hg10  1  0.000000  0.500000  0.750000  1
  Hg  Hg11  1  0.500000  0.000000  0.750000  1
  Au  Au12  1  0.629001  0.373965  0.274382  1
  Au  Au13  1  0.370999  0.626035  0.274382  1
  Au  Au14  1  0.127213  0.126694  0.774311  1
  Au  Au15  1  0.872787  0.873306  0.774311  1
  Au  Au16  1  0.373306  0.627213  0.725689  1
  Au  Au17  1  0.626694  0.372787  0.725689  1
  Au  Au18  1  0.873965  0.870999  0.225618  1
  Au  Au19  1  0.126035  0.129001  0.225618  1
