# generated using pymatgen
data_Tb16ZnIn3RuRh3
_symmetry_space_group_name_H-M   'P 1'
_cell_length_a   9.65643238
_cell_length_b   9.66915526
_cell_length_c   9.65643270
_cell_angle_alpha   60.06190816
_cell_angle_beta   59.99669093
_cell_angle_gamma   60.06190580
_symmetry_Int_Tables_number   1
_chemical_formula_structural   Tb16ZnIn3RuRh3
_chemical_formula_sum   'Tb16 Zn1 In3 Ru1 Rh3'
_cell_volume   638.11921430
_cell_formula_units_Z   1
loop_
 _symmetry_equiv_pos_site_id
 _symmetry_equiv_pos_as_xyz
  1  'x, y, z'
loop_
 _atom_site_type_symbol
 _atom_site_label
 _atom_site_symmetry_multiplicity
 _atom_site_fract_x
 _atom_site_fract_y
 _atom_site_fract_z
 _atom_site_occupancy
  Tb  Tb0  1  0.808408  0.808336  0.192491  1
  Tb  Tb1  1  0.808529  0.194438  0.808529  1
  Tb  Tb2  1  0.188930  0.192766  0.811772  1
  Tb  Tb3  1  0.647778  0.051447  0.647778  1
  Tb  Tb4  1  0.061617  0.061242  0.439216  1
  Tb  Tb5  1  0.439862  0.435513  0.066538  1
  Tb  Tb6  1  0.651919  0.650175  0.651919  1
  Tb  Tb7  1  0.811772  0.192766  0.188930  1
  Tb  Tb8  1  0.192491  0.808336  0.808408  1
  Tb  Tb9  1  0.050563  0.647798  0.648549  1
  Tb  Tb10  1  0.439216  0.061242  0.061617  1
  Tb  Tb11  1  0.436494  0.066910  0.436494  1
  Tb  Tb12  1  0.059948  0.438326  0.059948  1
  Tb  Tb13  1  0.648549  0.647798  0.050563  1
  Tb  Tb14  1  0.191415  0.811034  0.191415  1
  Tb  Tb15  1  0.066538  0.435513  0.439862  1
  Zn  Zn16  1  0.417597  0.416765  0.417597  1
  In  In17  1  0.418118  0.418029  0.743703  1
  In  In18  1  0.419076  0.742529  0.419076  1
  In  In19  1  0.743703  0.418029  0.418118  1
  Ru  Ru20  1  0.857991  0.424264  0.857991  1
  Rh  Rh21  1  0.856864  0.858787  0.856864  1
  Rh  Rh22  1  0.858470  0.858979  0.424152  1
  Rh  Rh23  1  0.424152  0.858979  0.858470  1
