# generated using pymatgen
data_Ti4ReMoIr2
_symmetry_space_group_name_H-M   'P 1'
_cell_length_a   6.21411600
_cell_length_b   4.41702500
_cell_length_c   8.83522300
_cell_angle_alpha   90.00000000
_cell_angle_beta   90.00011369
_cell_angle_gamma   90.00000000
_symmetry_Int_Tables_number   1
_chemical_formula_structural   Ti4ReMoIr2
_chemical_formula_sum   'Ti8 Re2 Mo2 Ir4'
_cell_volume   242.50836796
_cell_formula_units_Z   2
loop_
 _symmetry_equiv_pos_site_id
 _symmetry_equiv_pos_as_xyz
  1  'x, y, z'
loop_
 _atom_site_type_symbol
 _atom_site_label
 _atom_site_symmetry_multiplicity
 _atom_site_fract_x
 _atom_site_fract_y
 _atom_site_fract_z
 _atom_site_occupancy
  Ti  Ti0  1  0.000579  0.750001  0.124993  1
  Ti  Ti1  1  0.499444  0.750001  0.124999  1
  Ti  Ti2  1  0.999468  0.249999  0.375006  1
  Ti  Ti3  1  0.500594  0.249999  0.375005  1
  Ti  Ti4  1  0.499906  0.750001  0.624989  1
  Ti  Ti5  1  0.000033  0.750001  0.624990  1
  Ti  Ti6  1  0.500050  0.249999  0.875009  1
  Ti  Ti7  1  0.999926  0.249999  0.875007  1
  Re  Re8  1  0.749975  0.249999  0.625547  1
  Re  Re9  1  0.249996  0.750001  0.874450  1
  Mo  Mo10  1  0.749992  0.249999  0.124344  1
  Mo  Mo11  1  0.250040  0.750001  0.375658  1
  Ir  Ir12  1  0.250015  0.249999  0.124563  1
  Ir  Ir13  1  0.750028  0.750001  0.375444  1
  Ir  Ir14  1  0.249971  0.249999  0.625656  1
  Ir  Ir15  1  0.749984  0.750001  0.874338  1
