# generated using pymatgen
data_Y12Fe4SnPd
_symmetry_space_group_name_H-M   'P 1'
_cell_length_a   8.38717753
_cell_length_b   8.38719376
_cell_length_c   8.38719451
_cell_angle_alpha   110.69058728
_cell_angle_beta   110.74681651
_cell_angle_gamma   107.00411906
_symmetry_Int_Tables_number   1
_chemical_formula_structural   Y12Fe4SnPd
_chemical_formula_sum   'Y12 Fe4 Sn1 Pd1'
_cell_volume   453.55078877
_cell_formula_units_Z   1
loop_
 _symmetry_equiv_pos_site_id
 _symmetry_equiv_pos_as_xyz
  1  'x, y, z'
loop_
 _atom_site_type_symbol
 _atom_site_label
 _atom_site_symmetry_multiplicity
 _atom_site_fract_x
 _atom_site_fract_y
 _atom_site_fract_z
 _atom_site_occupancy
  Y  Y0  1  0.414902  0.214642  0.200260  1
  Y  Y1  1  0.585098  0.785358  0.799740  1
  Y  Y2  1  0.014380  0.214641  0.799739  1
  Y  Y3  1  0.985620  0.785359  0.200261  1
  Y  Y4  1  0.187780  0.291771  0.479551  1
  Y  Y5  1  0.812220  0.708229  0.520449  1
  Y  Y6  1  0.187779  0.708230  0.896009  1
  Y  Y7  1  0.812221  0.291770  0.103991  1
  Y  Y8  1  0.312140  0.613364  0.301224  1
  Y  Y9  1  0.687860  0.386636  0.698776  1
  Y  Y10  1  0.312140  0.010915  0.698776  1
  Y  Y11  1  0.687860  0.989085  0.301224  1
  Fe  Fe12  1  0.386802  0.000000  0.386803  1
  Fe  Fe13  1  0.613198  0.000000  0.613197  1
  Fe  Fe14  1  0.106755  0.606754  0.500001  1
  Fe  Fe15  1  0.893245  0.393246  0.499999  1
  Sn  Sn16  1  0.500000  0.500000  0.000000  1
  Pd  Pd17  1  0.000000  0.000000  0.000000  1
