# generated using pymatgen
data_K2PdS15
_symmetry_space_group_name_H-M   'P 1'
_cell_length_a   9.21244382
_cell_length_b   9.21242641
_cell_length_c   13.07360763
_cell_angle_alpha   88.47600873
_cell_angle_beta   88.47595307
_cell_angle_gamma   66.46428068
_symmetry_Int_Tables_number   1
_chemical_formula_structural   K2PdS15
_chemical_formula_sum   'K4 Pd2 S30'
_cell_volume   1016.72768146
_cell_formula_units_Z   2
loop_
 _symmetry_equiv_pos_site_id
 _symmetry_equiv_pos_as_xyz
  1  'x, y, z'
loop_
 _atom_site_type_symbol
 _atom_site_label
 _atom_site_symmetry_multiplicity
 _atom_site_fract_x
 _atom_site_fract_y
 _atom_site_fract_z
 _atom_site_occupancy
  K  K0  1  0.726724  0.057753  0.087125  1
  K  K1  1  0.366508  0.180780  0.354309  1
  K  K2  1  0.057752  0.726724  0.587126  1
  K  K3  1  0.180780  0.366507  0.854309  1
  Pd  Pd4  1  0.218821  0.802710  0.251082  1
  Pd  Pd5  1  0.802712  0.218820  0.751082  1
  S  S6  1  0.061553  0.645552  0.049924  1
  S  S7  1  0.373403  0.989122  0.055692  1
  S  S8  1  0.100677  0.840230  0.081307  1
  S  S9  1  0.239623  0.222577  0.103178  1
  S  S10  1  0.860273  0.655746  0.133104  1
  S  S11  1  0.028246  0.209475  0.158023  1
  S  S12  1  0.445486  0.854289  0.184168  1
  S  S13  1  0.344764  0.516734  0.222417  1
  S  S14  1  0.582324  0.438828  0.232517  1
  S  S15  1  0.952781  0.595035  0.279293  1
  S  S16  1  0.080636  0.084521  0.290945  1
  S  S17  1  0.979730  0.788556  0.329113  1
  S  S18  1  0.632872  0.428082  0.389284  1
  S  S19  1  0.564287  0.667343  0.415730  1
  S  S20  1  0.324872  0.771283  0.423790  1
  S  S21  1  0.645551  0.061554  0.549924  1
  S  S22  1  0.989123  0.373403  0.555692  1
  S  S23  1  0.840231  0.100678  0.581306  1
  S  S24  1  0.222577  0.239624  0.603178  1
  S  S25  1  0.655744  0.860273  0.633104  1
  S  S26  1  0.209477  0.028245  0.658023  1
  S  S27  1  0.854289  0.445485  0.684168  1
  S  S28  1  0.516733  0.344765  0.722417  1
  S  S29  1  0.438830  0.582324  0.732517  1
  S  S30  1  0.595035  0.952780  0.779292  1
  S  S31  1  0.084520  0.080637  0.790944  1
  S  S32  1  0.788556  0.979730  0.829112  1
  S  S33  1  0.428084  0.632873  0.889285  1
  S  S34  1  0.667344  0.564287  0.915731  1
  S  S35  1  0.771284  0.324872  0.923791  1
