# generated using pymatgen
data_Pm2Al3Ag
_symmetry_space_group_name_H-M   'P 1'
_cell_length_a   5.71025671
_cell_length_b   5.62092341
_cell_length_c   5.71025800
_cell_angle_alpha   59.47284888
_cell_angle_beta   59.99999252
_cell_angle_gamma   59.47285143
_symmetry_Int_Tables_number   1
_chemical_formula_structural   Pm2Al3Ag
_chemical_formula_sum   'Pm2 Al3 Ag1'
_cell_volume   128.55745294
_cell_formula_units_Z   1
loop_
 _symmetry_equiv_pos_site_id
 _symmetry_equiv_pos_as_xyz
  1  'x, y, z'
loop_
 _atom_site_type_symbol
 _atom_site_label
 _atom_site_symmetry_multiplicity
 _atom_site_fract_x
 _atom_site_fract_y
 _atom_site_fract_z
 _atom_site_occupancy
  Pm  Pm0  1  0.748356  0.754933  0.748356  1
  Pm  Pm1  1  0.501644  0.495067  0.501644  1
  Al  Al2  1  0.125000  0.125000  0.125000  1
  Al  Al3  1  0.625000  0.125000  0.125000  1
  Al  Al4  1  0.125000  0.125000  0.625000  1
  Ag  Ag5  1  0.125000  0.625000  0.125000  1
