# generated using pymatgen
data_Pr5TiIrO12
_symmetry_space_group_name_H-M   'P 1'
_cell_length_a   7.09815753
_cell_length_b   7.09815816
_cell_length_c   7.74751663
_cell_angle_alpha   74.23731303
_cell_angle_beta   74.23731278
_cell_angle_gamma   50.41455770
_symmetry_Int_Tables_number   1
_chemical_formula_structural   Pr5TiIrO12
_chemical_formula_sum   'Pr5 Ti1 Ir1 O12'
_cell_volume   286.95301504
_cell_formula_units_Z   1
loop_
 _symmetry_equiv_pos_site_id
 _symmetry_equiv_pos_as_xyz
  1  'x, y, z'
loop_
 _atom_site_type_symbol
 _atom_site_label
 _atom_site_symmetry_multiplicity
 _atom_site_fract_x
 _atom_site_fract_y
 _atom_site_fract_z
 _atom_site_occupancy
  Pr  Pr0  1  0.311636  0.303207  0.357258  1
  Pr  Pr1  1  0.696793  0.688364  0.642742  1
  Pr  Pr2  1  0.686865  0.694667  0.167536  1
  Pr  Pr3  1  0.305333  0.313135  0.832464  1
  Pr  Pr4  1  0.002613  0.997387  0.500000  1
  Ti  Ti5  1  0.782154  0.217846  0.000000  1
  Ir  Ir6  1  0.242906  0.757094  0.000000  1
  O  O7  1  0.096200  0.595033  0.576509  1
  O  O8  1  0.996803  0.001642  0.183503  1
  O  O9  1  0.404967  0.903800  0.423491  1
  O  O10  1  0.497024  0.503880  0.170335  1
  O  O11  1  0.094756  0.590499  0.078747  1
  O  O12  1  0.905450  0.406057  0.419983  1
  O  O13  1  0.998358  0.003197  0.816497  1
  O  O14  1  0.593943  0.094549  0.580017  1
  O  O15  1  0.496120  0.502976  0.829665  1
  O  O16  1  0.581363  0.102782  0.077286  1
  O  O17  1  0.409501  0.905244  0.921253  1
  O  O18  1  0.897218  0.418637  0.922714  1
