# generated using pymatgen
data_Yb2Ho6SiPd24
_symmetry_space_group_name_H-M   'P 1'
_cell_length_a   8.30398355
_cell_length_b   8.30398355
_cell_length_c   8.30398355
_cell_angle_alpha   90.06344673
_cell_angle_beta   90.06344673
_cell_angle_gamma   90.06344673
_symmetry_Int_Tables_number   1
_chemical_formula_structural   Yb2Ho6SiPd24
_chemical_formula_sum   'Yb2 Ho6 Si1 Pd24'
_cell_volume   572.60962086
_cell_formula_units_Z   1
loop_
 _symmetry_equiv_pos_site_id
 _symmetry_equiv_pos_as_xyz
  1  'x, y, z'
loop_
 _atom_site_type_symbol
 _atom_site_label
 _atom_site_symmetry_multiplicity
 _atom_site_fract_x
 _atom_site_fract_y
 _atom_site_fract_z
 _atom_site_occupancy
  Yb  Yb0  1  0.252031  0.252031  0.252031  1
  Yb  Yb1  1  0.747969  0.747969  0.747969  1
  Ho  Ho2  1  0.747022  0.747022  0.252989  1
  Ho  Ho3  1  0.747022  0.252989  0.747022  1
  Ho  Ho4  1  0.252978  0.252978  0.747011  1
  Ho  Ho5  1  0.252978  0.747011  0.252978  1
  Ho  Ho6  1  0.252989  0.747022  0.747022  1
  Ho  Ho7  1  0.747011  0.252978  0.252978  1
  Si  Si8  1  0.000000  0.000000  0.000000  1
  Pd  Pd9  1  0.256638  0.500068  0.999806  1
  Pd  Pd10  1  0.743362  0.499932  0.000194  1
  Pd  Pd11  1  0.999806  0.256638  0.500068  1
  Pd  Pd12  1  0.500068  0.256638  0.999806  1
  Pd  Pd13  1  0.000194  0.743362  0.499932  1
  Pd  Pd14  1  0.499932  0.743362  0.000194  1
  Pd  Pd15  1  0.500068  0.999806  0.256638  1
  Pd  Pd16  1  0.256638  0.999806  0.500068  1
  Pd  Pd17  1  0.499932  0.000194  0.743362  1
  Pd  Pd18  1  0.743362  0.000194  0.499932  1
  Pd  Pd19  1  0.999806  0.500068  0.256638  1
  Pd  Pd20  1  0.000194  0.499932  0.743362  1
  Pd  Pd21  1  0.251352  0.499853  0.499853  1
  Pd  Pd22  1  0.748648  0.500147  0.500147  1
  Pd  Pd23  1  0.499853  0.251352  0.499853  1
  Pd  Pd24  1  0.500147  0.748648  0.500147  1
  Pd  Pd25  1  0.499853  0.499853  0.251352  1
  Pd  Pd26  1  0.500147  0.500147  0.748648  1
  Pd  Pd27  1  0.279891  0.000147  0.000147  1
  Pd  Pd28  1  0.720109  0.999853  0.999853  1
  Pd  Pd29  1  0.000147  0.279891  0.000147  1
  Pd  Pd30  1  0.999853  0.720109  0.999853  1
  Pd  Pd31  1  0.000147  0.000147  0.279891  1
  Pd  Pd32  1  0.999853  0.999853  0.720109  1
