# generated using pymatgen
data_TbDy4YRh18
_symmetry_space_group_name_H-M   'P 1'
_cell_length_a   5.26912600
_cell_length_b   5.26912776
_cell_length_c   17.59977900
_cell_angle_alpha   90.00000000
_cell_angle_beta   90.00000000
_cell_angle_gamma   119.99998897
_symmetry_Int_Tables_number   1
_chemical_formula_structural   TbDy4YRh18
_chemical_formula_sum   'Tb1 Dy4 Y1 Rh18'
_cell_volume   423.17032696
_cell_formula_units_Z   1
loop_
 _symmetry_equiv_pos_site_id
 _symmetry_equiv_pos_as_xyz
  1  'x, y, z'
loop_
 _atom_site_type_symbol
 _atom_site_label
 _atom_site_symmetry_multiplicity
 _atom_site_fract_x
 _atom_site_fract_y
 _atom_site_fract_z
 _atom_site_occupancy
  Tb  Tb0  1  0.333333  0.666667  0.750000  1
  Dy  Dy1  1  0.333333  0.666667  0.957986  1
  Dy  Dy2  1  0.666667  0.333333  0.042019  1
  Dy  Dy3  1  0.666667  0.333333  0.457981  1
  Dy  Dy4  1  0.333333  0.666667  0.542014  1
  Y  Y5  1  0.666667  0.333333  0.250000  1
  Rh  Rh6  1  0.167272  0.832728  0.374305  1
  Rh  Rh7  1  0.167272  0.334545  0.374305  1
  Rh  Rh8  1  0.665455  0.832728  0.374305  1
  Rh  Rh9  1  0.832750  0.167250  0.625688  1
  Rh  Rh10  1  0.832750  0.665500  0.625688  1
  Rh  Rh11  1  0.334500  0.167250  0.625688  1
  Rh  Rh12  1  0.832750  0.167250  0.874312  1
  Rh  Rh13  1  0.832750  0.665500  0.874312  1
  Rh  Rh14  1  0.334500  0.167250  0.874312  1
  Rh  Rh15  1  0.167272  0.832728  0.125695  1
  Rh  Rh16  1  0.167272  0.334545  0.125695  1
  Rh  Rh17  1  0.665455  0.832728  0.125695  1
  Rh  Rh18  1  0.333333  0.666667  0.250000  1
  Rh  Rh19  1  0.666667  0.333333  0.750000  1
  Rh  Rh20  1  0.000000  0.000000  0.250000  1
  Rh  Rh21  1  0.000000  0.000000  0.750000  1
  Rh  Rh22  1  0.000000  0.000000  0.500008  1
  Rh  Rh23  1  0.000000  0.000000  0.999992  1
