# generated using pymatgen
data_Sc22Fe2(IrRh)3
_symmetry_space_group_name_H-M   'P 1'
_cell_length_a   9.45616659
_cell_length_b   9.48594252
_cell_length_c   9.42849190
_cell_angle_alpha   59.99173782
_cell_angle_beta   59.73216567
_cell_angle_gamma   59.70265887
_symmetry_Int_Tables_number   1
_chemical_formula_structural   Sc22Fe2(IrRh)3
_chemical_formula_sum   'Sc22 Fe2 Ir3 Rh3'
_cell_volume   595.42575455
_cell_formula_units_Z   1
loop_
 _symmetry_equiv_pos_site_id
 _symmetry_equiv_pos_as_xyz
  1  'x, y, z'
loop_
 _atom_site_type_symbol
 _atom_site_label
 _atom_site_symmetry_multiplicity
 _atom_site_fract_x
 _atom_site_fract_y
 _atom_site_fract_z
 _atom_site_occupancy
  Sc  Sc0  1  0.808163  0.810018  0.191837  1
  Sc  Sc1  1  0.191210  0.808790  0.191210  1
  Sc  Sc2  1  0.807617  0.190445  0.192383  1
  Sc  Sc3  1  0.191837  0.189982  0.808163  1
  Sc  Sc4  1  0.808790  0.191210  0.808790  1
  Sc  Sc5  1  0.192383  0.809555  0.807617  1
  Sc  Sc6  1  0.612840  0.612651  0.157862  1
  Sc  Sc7  1  0.615418  0.157781  0.611570  1
  Sc  Sc8  1  0.157862  0.616644  0.612840  1
  Sc  Sc9  1  0.611570  0.615229  0.615418  1
  Sc  Sc10  1  0.387160  0.387349  0.842138  1
  Sc  Sc11  1  0.384582  0.842219  0.388430  1
  Sc  Sc12  1  0.842138  0.383356  0.387160  1
  Sc  Sc13  1  0.388430  0.384771  0.384582  1
  Sc  Sc14  1  0.840180  0.843046  0.475010  1
  Sc  Sc15  1  0.840165  0.475057  0.841388  1
  Sc  Sc16  1  0.475010  0.841762  0.840180  1
  Sc  Sc17  1  0.841388  0.843388  0.840165  1
  Sc  Sc18  1  0.159820  0.156954  0.524990  1
  Sc  Sc19  1  0.159835  0.524943  0.158612  1
  Sc  Sc20  1  0.524990  0.158238  0.159820  1
  Sc  Sc21  1  0.158612  0.156612  0.159835  1
  Fe  Fe22  1  0.000000  0.000000  0.000000  1
  Fe  Fe23  1  0.500000  0.500000  0.500000  1
  Ir  Ir24  1  0.000000  0.000000  0.500000  1
  Ir  Ir25  1  0.500000  0.000000  0.500000  1
  Ir  Ir26  1  0.500000  0.500000  0.000000  1
  Rh  Rh27  1  0.000000  0.500000  0.500000  1
  Rh  Rh28  1  0.000000  0.500000  0.000000  1
  Rh  Rh29  1  0.500000  0.000000  0.000000  1
