# generated using pymatgen
data_KRbMn2(NiP2)2
_symmetry_space_group_name_H-M   'P 1'
_cell_length_a   7.32198670
_cell_length_b   7.30526774
_cell_length_c   5.34899500
_cell_angle_alpha   90.00000000
_cell_angle_beta   90.00000000
_cell_angle_gamma   137.47225940
_symmetry_Int_Tables_number   1
_chemical_formula_structural   KRbMn2(NiP2)2
_chemical_formula_sum   'K1 Rb1 Mn2 Ni2 P4'
_cell_volume   193.39710524
_cell_formula_units_Z   1
loop_
 _symmetry_equiv_pos_site_id
 _symmetry_equiv_pos_as_xyz
  1  'x, y, z'
loop_
 _atom_site_type_symbol
 _atom_site_label
 _atom_site_symmetry_multiplicity
 _atom_site_fract_x
 _atom_site_fract_y
 _atom_site_fract_z
 _atom_site_occupancy
  K  K0  1  0.000000  0.000000  0.000000  1
  Rb  Rb1  1  0.500000  0.500000  0.500000  1
  Mn  Mn2  1  0.000000  0.500000  0.249765  1
  Mn  Mn3  1  0.000000  0.500000  0.750235  1
  Ni  Ni4  1  0.500000  0.000000  0.750104  1
  Ni  Ni5  1  0.500000  0.000000  0.249896  1
  P  P6  1  0.672685  0.349631  0.000000  1
  P  P7  1  0.152082  0.828484  0.500000  1
  P  P8  1  0.847918  0.171516  0.500000  1
  P  P9  1  0.327315  0.650369  0.000000  1
