# generated using pymatgen
data_Ho4TaRu6W
_symmetry_space_group_name_H-M   'P 1'
_cell_length_a   5.60022942
_cell_length_b   5.18300959
_cell_length_c   9.15743800
_cell_angle_alpha   90.00000000
_cell_angle_beta   90.00000000
_cell_angle_gamma   122.82652926
_symmetry_Int_Tables_number   1
_chemical_formula_structural   Ho4TaRu6W
_chemical_formula_sum   'Ho4 Ta1 Ru6 W1'
_cell_volume   223.35942902
_cell_formula_units_Z   1
loop_
 _symmetry_equiv_pos_site_id
 _symmetry_equiv_pos_as_xyz
  1  'x, y, z'
loop_
 _atom_site_type_symbol
 _atom_site_label
 _atom_site_symmetry_multiplicity
 _atom_site_fract_x
 _atom_site_fract_y
 _atom_site_fract_z
 _atom_site_occupancy
  Ho  Ho0  1  0.670372  0.340833  0.568524  1
  Ho  Ho1  1  0.329609  0.659420  0.435605  1
  Ho  Ho2  1  0.329609  0.659420  0.064395  1
  Ho  Ho3  1  0.670372  0.340833  0.931476  1
  Ta  Ta4  1  0.845013  0.689375  0.250000  1
  Ru  Ru5  1  0.002698  0.006151  0.502617  1
  Ru  Ru6  1  0.002698  0.006151  0.997383  1
  Ru  Ru7  1  0.169235  0.812877  0.750000  1
  Ru  Ru8  1  0.643999  0.812924  0.750000  1
  Ru  Ru9  1  0.829490  0.182688  0.250000  1
  Ru  Ru10  1  0.353088  0.182250  0.250000  1
  W  W11  1  0.153817  0.307076  0.750000  1
