# generated using pymatgen
data_Li3Ni9P7Rh2
_symmetry_space_group_name_H-M   'P 1'
_cell_length_a   9.08802486
_cell_length_b   9.04033937
_cell_length_c   3.58480400
_cell_angle_alpha   90.00000000
_cell_angle_beta   90.00000000
_cell_angle_gamma   119.58573575
_symmetry_Int_Tables_number   1
_chemical_formula_structural   Li3Ni9P7Rh2
_chemical_formula_sum   'Li3 Ni9 P7 Rh2'
_cell_volume   256.12272463
_cell_formula_units_Z   1
loop_
 _symmetry_equiv_pos_site_id
 _symmetry_equiv_pos_as_xyz
  1  'x, y, z'
loop_
 _atom_site_type_symbol
 _atom_site_label
 _atom_site_symmetry_multiplicity
 _atom_site_fract_x
 _atom_site_fract_y
 _atom_site_fract_z
 _atom_site_occupancy
  Li  Li0  1  0.224305  0.101977  0.500000  1
  Li  Li1  1  0.330323  0.665010  0.000000  1
  Li  Li2  1  0.663844  0.334772  0.500000  1
  Ni  Ni3  1  0.708969  0.877711  0.000000  1
  Ni  Ni4  1  0.167186  0.280423  0.000000  1
  Ni  Ni5  1  0.123447  0.840137  0.000000  1
  Ni  Ni6  1  0.629390  0.566598  0.000000  1
  Ni  Ni7  1  0.937377  0.372302  0.000000  1
  Ni  Ni8  1  0.432135  0.057432  0.000000  1
  Ni  Ni9  1  0.559185  0.946912  0.500000  1
  Ni  Ni10  1  0.388018  0.436263  0.500000  1
  Ni  Ni11  1  0.053973  0.611788  0.500000  1
  P  P12  1  0.582584  0.707282  0.500000  1
  P  P13  1  0.126474  0.414412  0.500000  1
  P  P14  1  0.290917  0.871964  0.500000  1
  P  P15  1  0.993000  0.997700  0.000000  1
  P  P16  1  0.878699  0.581216  0.000000  1
  P  P17  1  0.700901  0.123382  0.000000  1
  P  P18  1  0.426084  0.300853  0.000000  1
  Rh  Rh19  1  0.875905  0.784282  0.500000  1
  Rh  Rh20  1  0.907285  0.127586  0.500000  1
