# generated using pymatgen
data_Sm3Bi(SO6)2
_symmetry_space_group_name_H-M   'P 1'
_cell_length_a   4.24145043
_cell_length_b   7.33539351
_cell_length_c   8.22689071
_cell_angle_alpha   106.31346517
_cell_angle_beta   90.60328323
_cell_angle_gamma   106.64270824
_symmetry_Int_Tables_number   1
_chemical_formula_structural   Sm3Bi(SO6)2
_chemical_formula_sum   'Sm3 Bi1 S2 O12'
_cell_volume   234.21020697
_cell_formula_units_Z   1
loop_
 _symmetry_equiv_pos_site_id
 _symmetry_equiv_pos_as_xyz
  1  'x, y, z'
loop_
 _atom_site_type_symbol
 _atom_site_label
 _atom_site_symmetry_multiplicity
 _atom_site_fract_x
 _atom_site_fract_y
 _atom_site_fract_z
 _atom_site_occupancy
  Sm  Sm0  1  0.326670  0.668212  0.413228  1
  Sm  Sm1  1  0.339649  0.668728  0.921450  1
  Sm  Sm2  1  0.660928  0.335652  0.083242  1
  Bi  Bi3  1  0.680711  0.355662  0.589447  1
  S  S4  1  0.941472  0.994736  0.753313  1
  S  S5  1  0.053381  0.996292  0.244252  1
  O  O6  1  0.767581  0.511280  0.877845  1
  O  O7  1  0.229564  0.493591  0.123659  1
  O  O8  1  0.275480  0.504810  0.625552  1
  O  O9  1  0.744874  0.513998  0.378763  1
  O  O10  1  0.732667  0.979423  0.600693  1
  O  O11  1  0.250076  0.987643  0.391453  1
  O  O12  1  0.730964  0.997632  0.899591  1
  O  O13  1  0.266422  0.994150  0.099172  1
  O  O14  1  0.218404  0.182808  0.800355  1
  O  O15  1  0.758929  0.815854  0.194465  1
  O  O16  1  0.061764  0.817244  0.716773  1
  O  O17  1  0.960464  0.182286  0.286746  1
