# generated using pymatgen
data_Ti8Al14Co7Si
_symmetry_space_group_name_H-M   'P 1'
_cell_length_a   8.38686186
_cell_length_b   8.38686249
_cell_length_c   8.38686144
_cell_angle_alpha   120.10129387
_cell_angle_beta   119.86435569
_cell_angle_gamma   90.02986712
_symmetry_Int_Tables_number   1
_chemical_formula_structural   Ti8Al14Co7Si
_chemical_formula_sum   'Ti8 Al14 Co7 Si1'
_cell_volume   417.24760511
_cell_formula_units_Z   1
loop_
 _symmetry_equiv_pos_site_id
 _symmetry_equiv_pos_as_xyz
  1  'x, y, z'
loop_
 _atom_site_type_symbol
 _atom_site_label
 _atom_site_symmetry_multiplicity
 _atom_site_fract_x
 _atom_site_fract_y
 _atom_site_fract_z
 _atom_site_occupancy
  Ti  Ti0  1  0.795634  0.292617  0.082185  1
  Ti  Ti1  1  0.210432  0.292617  0.496983  1
  Ti  Ti2  1  0.205797  0.705797  0.500000  1
  Ti  Ti3  1  0.210432  0.713449  0.917815  1
  Ti  Ti4  1  0.795634  0.713449  0.503017  1
  Ti  Ti5  1  0.788630  0.288630  0.500000  1
  Ti  Ti6  1  0.380107  0.120978  0.740871  1
  Ti  Ti7  1  0.380107  0.639236  0.259129  1
  Al  Al8  1  0.159123  0.339077  0.179954  1
  Al  Al9  1  0.159123  0.979168  0.820046  1
  Al  Al10  1  0.155621  0.341544  0.814077  1
  Al  Al11  1  0.527467  0.341544  0.185923  1
  Al  Al12  1  0.840649  0.658369  0.817721  1
  Al  Al13  1  0.840649  0.022926  0.182279  1
  Al  Al14  1  0.839640  0.659349  0.180291  1
  Al  Al15  1  0.479058  0.659349  0.819709  1
  Al  Al16  1  0.380572  0.119264  0.261308  1
  Al  Al17  1  0.857957  0.119264  0.738692  1
  Al  Al18  1  0.619593  0.879591  0.259998  1
  Al  Al19  1  0.619593  0.359593  0.740002  1
  Al  Al20  1  0.620184  0.879793  0.740392  1
  Al  Al21  1  0.139399  0.879793  0.259608  1
  Co  Co22  1  0.003173  0.000631  0.502579  1
  Co  Co23  1  0.498052  0.000631  0.997458  1
  Co  Co24  1  0.497247  0.497247  0.000000  1
  Co  Co25  1  0.498052  0.500594  0.497421  1
  Co  Co26  1  0.003173  0.500594  0.002542  1
  Co  Co27  1  0.000155  0.000155  0.000000  1
  Co  Co28  1  0.497365  0.997365  0.500000  1
  Si  Si29  1  0.997382  0.497382  0.500000  1
