# generated using pymatgen
data_Ho7Sn22Os6Br
_symmetry_space_group_name_H-M   'P 1'
_cell_length_a   9.81664500
_cell_length_b   9.81664343
_cell_length_c   10.09594600
_cell_angle_alpha   90.00000000
_cell_angle_beta   90.00000000
_cell_angle_gamma   119.99999519
_symmetry_Int_Tables_number   1
_chemical_formula_structural   Ho7Sn22Os6Br
_chemical_formula_sum   'Ho7 Sn22 Os6 Br1'
_cell_volume   842.56569695
_cell_formula_units_Z   1
loop_
 _symmetry_equiv_pos_site_id
 _symmetry_equiv_pos_as_xyz
  1  'x, y, z'
loop_
 _atom_site_type_symbol
 _atom_site_label
 _atom_site_symmetry_multiplicity
 _atom_site_fract_x
 _atom_site_fract_y
 _atom_site_fract_z
 _atom_site_occupancy
  Ho  Ho0  1  0.000000  0.000000  0.000000  1
  Ho  Ho1  1  0.516156  0.483844  0.696701  1
  Ho  Ho2  1  0.516156  0.032311  0.696701  1
  Ho  Ho3  1  0.967689  0.483844  0.696701  1
  Ho  Ho4  1  0.032311  0.516156  0.303299  1
  Ho  Ho5  1  0.483844  0.967689  0.303299  1
  Ho  Ho6  1  0.483844  0.516156  0.303299  1
  Sn  Sn7  1  0.666667  0.333333  0.176026  1
  Sn  Sn8  1  0.666667  0.333333  0.873297  1
  Sn  Sn9  1  0.333333  0.666667  0.126703  1
  Sn  Sn10  1  0.350842  0.350842  0.000000  1
  Sn  Sn11  1  0.000000  0.649158  0.000000  1
  Sn  Sn12  1  0.649158  0.000000  0.000000  1
  Sn  Sn13  1  0.649158  0.649158  0.000000  1
  Sn  Sn14  1  0.333333  0.666667  0.823974  1
  Sn  Sn15  1  0.444982  0.222491  0.461797  1
  Sn  Sn16  1  0.222491  0.777509  0.538203  1
  Sn  Sn17  1  0.222491  0.444982  0.538203  1
  Sn  Sn18  1  0.555018  0.777509  0.538203  1
  Sn  Sn19  1  0.120348  0.879652  0.271996  1
  Sn  Sn20  1  0.777509  0.555018  0.461797  1
  Sn  Sn21  1  0.777509  0.222491  0.461797  1
  Sn  Sn22  1  0.350842  0.000000  0.000000  1
  Sn  Sn23  1  0.120348  0.240694  0.271996  1
  Sn  Sn24  1  0.759306  0.879652  0.271996  1
  Sn  Sn25  1  0.240694  0.120348  0.728004  1
  Sn  Sn26  1  0.879652  0.759306  0.728004  1
  Sn  Sn27  1  0.879652  0.120348  0.728004  1
  Sn  Sn28  1  0.000000  0.350842  0.000000  1
  Os  Os29  1  0.168318  0.831682  0.795768  1
  Os  Os30  1  0.168318  0.336635  0.795768  1
  Os  Os31  1  0.663365  0.831682  0.795768  1
  Os  Os32  1  0.336635  0.168318  0.204232  1
  Os  Os33  1  0.831682  0.663365  0.204232  1
  Os  Os34  1  0.831682  0.168318  0.204232  1
  Br  Br35  1  0.000000  0.000000  0.500000  1
