# generated using pymatgen
data_HoCu3AgRh
_symmetry_space_group_name_H-M   'P 1'
_cell_length_a   5.20845957
_cell_length_b   5.20845912
_cell_length_c   5.20845920
_cell_angle_alpha   57.37721472
_cell_angle_beta   57.37721879
_cell_angle_gamma   57.37721845
_symmetry_Int_Tables_number   1
_chemical_formula_structural   HoCu3AgRh
_chemical_formula_sum   'Ho1 Cu3 Ag1 Rh1'
_cell_volume   93.88019885
_cell_formula_units_Z   1
loop_
 _symmetry_equiv_pos_site_id
 _symmetry_equiv_pos_as_xyz
  1  'x, y, z'
loop_
 _atom_site_type_symbol
 _atom_site_label
 _atom_site_symmetry_multiplicity
 _atom_site_fract_x
 _atom_site_fract_y
 _atom_site_fract_z
 _atom_site_occupancy
  Ho  Ho0  1  0.252037  0.252037  0.252037  1
  Cu  Cu1  1  0.623015  0.623015  0.121153  1
  Cu  Cu2  1  0.623015  0.121153  0.623015  1
  Cu  Cu3  1  0.121153  0.623015  0.623015  1
  Ag  Ag4  1  0.007953  0.007953  0.007953  1
  Rh  Rh5  1  0.622827  0.622827  0.622827  1
