# generated using pymatgen
data_Ce2SmZnCd2Pt3
_symmetry_space_group_name_H-M   'P 1'
_cell_length_a   7.65382539
_cell_length_b   7.65382444
_cell_length_c   3.93213800
_cell_angle_alpha   90.00000000
_cell_angle_beta   90.00000000
_cell_angle_gamma   120.31443413
_symmetry_Int_Tables_number   1
_chemical_formula_structural   Ce2SmZnCd2Pt3
_chemical_formula_sum   'Ce2 Sm1 Zn1 Cd2 Pt3'
_cell_volume   198.85277335
_cell_formula_units_Z   1
loop_
 _symmetry_equiv_pos_site_id
 _symmetry_equiv_pos_as_xyz
  1  'x, y, z'
loop_
 _atom_site_type_symbol
 _atom_site_label
 _atom_site_symmetry_multiplicity
 _atom_site_fract_x
 _atom_site_fract_y
 _atom_site_fract_z
 _atom_site_occupancy
  Ce  Ce0  1  0.595112  0.996712  0.000000  1
  Ce  Ce1  1  0.996712  0.595112  0.000000  1
  Sm  Sm2  1  0.419974  0.419974  0.000000  1
  Zn  Zn3  1  0.739103  0.739103  0.500000  1
  Cd  Cd4  1  0.253055  0.011258  0.500000  1
  Cd  Cd5  1  0.011258  0.253055  0.500000  1
  Pt  Pt6  1  0.679068  0.340216  0.500000  1
  Pt  Pt7  1  0.340216  0.679068  0.500000  1
  Pt  Pt8  1  0.965504  0.965504  0.000000  1
