# generated using pymatgen
data_Er3Pa(HgPt2)2
_symmetry_space_group_name_H-M   'P 1'
_cell_length_a   7.78661849
_cell_length_b   7.78661849
_cell_length_c   3.62360300
_cell_angle_alpha   90.00000000
_cell_angle_beta   90.00000000
_cell_angle_gamma   88.46072839
_symmetry_Int_Tables_number   1
_chemical_formula_structural   Er3Pa(HgPt2)2
_chemical_formula_sum   'Er3 Pa1 Hg2 Pt4'
_cell_volume   219.62494167
_cell_formula_units_Z   1
loop_
 _symmetry_equiv_pos_site_id
 _symmetry_equiv_pos_as_xyz
  1  'x, y, z'
loop_
 _atom_site_type_symbol
 _atom_site_label
 _atom_site_symmetry_multiplicity
 _atom_site_fract_x
 _atom_site_fract_y
 _atom_site_fract_z
 _atom_site_occupancy
  Er  Er0  1  0.326501  0.173499  0.500000  1
  Er  Er1  1  0.833113  0.328818  0.500000  1
  Er  Er2  1  0.171182  0.666887  0.500000  1
  Pa  Pa3  1  0.667428  0.832572  0.500000  1
  Hg  Hg4  1  0.007432  0.001672  0.000000  1
  Hg  Hg5  1  0.498328  0.492568  0.000000  1
  Pt  Pt6  1  0.632875  0.120670  0.000000  1
  Pt  Pt7  1  0.122386  0.377614  0.000000  1
  Pt  Pt8  1  0.861426  0.638574  0.000000  1
  Pt  Pt9  1  0.379330  0.867125  0.000000  1
