# generated using pymatgen
data_Tb16NiHg4Ru3
_symmetry_space_group_name_H-M   'P 1'
_cell_length_a   9.58795742
_cell_length_b   9.58795811
_cell_length_c   9.58795888
_cell_angle_alpha   60.04419503
_cell_angle_beta   60.04420090
_cell_angle_gamma   60.04419694
_symmetry_Int_Tables_number   1
_chemical_formula_structural   Tb16NiHg4Ru3
_chemical_formula_sum   'Tb16 Ni1 Hg4 Ru3'
_cell_volume   623.87594963
_cell_formula_units_Z   1
loop_
 _symmetry_equiv_pos_site_id
 _symmetry_equiv_pos_as_xyz
  1  'x, y, z'
loop_
 _atom_site_type_symbol
 _atom_site_label
 _atom_site_symmetry_multiplicity
 _atom_site_fract_x
 _atom_site_fract_y
 _atom_site_fract_z
 _atom_site_occupancy
  Tb  Tb0  1  0.599553  0.599553  0.599553  1
  Tb  Tb1  1  0.598429  0.598429  0.201418  1
  Tb  Tb2  1  0.598429  0.201418  0.598429  1
  Tb  Tb3  1  0.201418  0.598429  0.598429  1
  Tb  Tb4  1  0.059524  0.440404  0.440404  1
  Tb  Tb5  1  0.439253  0.059672  0.059672  1
  Tb  Tb6  1  0.440404  0.059524  0.440404  1
  Tb  Tb7  1  0.059672  0.439253  0.059672  1
  Tb  Tb8  1  0.440404  0.440404  0.059524  1
  Tb  Tb9  1  0.059672  0.059672  0.439253  1
  Tb  Tb10  1  0.189397  0.810937  0.810937  1
  Tb  Tb11  1  0.815295  0.187629  0.187629  1
  Tb  Tb12  1  0.810937  0.189397  0.810937  1
  Tb  Tb13  1  0.187629  0.815295  0.187629  1
  Tb  Tb14  1  0.810937  0.810937  0.189397  1
  Tb  Tb15  1  0.187629  0.187629  0.815295  1
  Ni  Ni16  1  0.390957  0.390957  0.390957  1
  Hg  Hg17  1  0.833611  0.833611  0.833611  1
  Hg  Hg18  1  0.834672  0.834672  0.497972  1
  Hg  Hg19  1  0.834672  0.497972  0.834672  1
  Hg  Hg20  1  0.497972  0.834672  0.834672  1
  Ru  Ru21  1  0.390837  0.390837  0.827863  1
  Ru  Ru22  1  0.390837  0.827863  0.390837  1
  Ru  Ru23  1  0.827863  0.390837  0.390837  1
