# generated using pymatgen
data_Ca2DyTm(NiB4)4
_symmetry_space_group_name_H-M   'P 1'
_cell_length_a   6.82841810
_cell_length_b   6.82841878
_cell_length_c   6.82841893
_cell_angle_alpha   112.90555130
_cell_angle_beta   112.90554760
_cell_angle_gamma   102.80148212
_symmetry_Int_Tables_number   1
_chemical_formula_structural   Ca2DyTm(NiB4)4
_chemical_formula_sum   'Ca2 Dy1 Tm1 Ni4 B16'
_cell_volume   242.64637961
_cell_formula_units_Z   1
loop_
 _symmetry_equiv_pos_site_id
 _symmetry_equiv_pos_as_xyz
  1  'x, y, z'
loop_
 _atom_site_type_symbol
 _atom_site_label
 _atom_site_symmetry_multiplicity
 _atom_site_fract_x
 _atom_site_fract_y
 _atom_site_fract_z
 _atom_site_occupancy
  Ca  Ca0  1  0.796796  0.796796  0.000000  1
  Ca  Ca1  1  0.203204  0.203204  0.000000  1
  Dy  Dy2  1  0.250000  0.750000  0.500000  1
  Tm  Tm3  1  0.750000  0.250000  0.500000  1
  Ni  Ni4  1  0.270981  0.499381  0.771600  1
  Ni  Ni5  1  0.727782  0.499381  0.228400  1
  Ni  Ni6  1  0.500619  0.729019  0.228400  1
  Ni  Ni7  1  0.500619  0.272218  0.771600  1
  B  B8  1  0.276609  0.111971  0.388963  1
  B  B9  1  0.723007  0.887647  0.611037  1
  B  B10  1  0.276609  0.887647  0.164640  1
  B  B11  1  0.723007  0.111971  0.835360  1
  B  B12  1  0.112353  0.723391  0.835360  1
  B  B13  1  0.888029  0.276993  0.164640  1
  B  B14  1  0.112353  0.276993  0.388963  1
  B  B15  1  0.888029  0.723391  0.611037  1
  B  B16  1  0.112716  0.113712  0.530412  1
  B  B17  1  0.583299  0.582303  0.469588  1
  B  B18  1  0.112716  0.582303  0.999005  1
  B  B19  1  0.583299  0.113712  0.000995  1
  B  B20  1  0.886288  0.887284  0.469588  1
  B  B21  1  0.417697  0.416701  0.530412  1
  B  B22  1  0.886288  0.416701  0.999005  1
  B  B23  1  0.417697  0.887284  0.000995  1
