# generated using pymatgen
data_Tb2Y10Tc3Rh
_symmetry_space_group_name_H-M   'P 1'
_cell_length_a   6.33836304
_cell_length_b   7.42138709
_cell_length_c   9.23386200
_cell_angle_alpha   90.00000000
_cell_angle_beta   90.00000000
_cell_angle_gamma   89.93272755
_symmetry_Int_Tables_number   1
_chemical_formula_structural   Tb2Y10Tc3Rh
_chemical_formula_sum   'Tb2 Y10 Tc3 Rh1'
_cell_volume   434.35545020
_cell_formula_units_Z   1
loop_
 _symmetry_equiv_pos_site_id
 _symmetry_equiv_pos_as_xyz
  1  'x, y, z'
loop_
 _atom_site_type_symbol
 _atom_site_label
 _atom_site_symmetry_multiplicity
 _atom_site_fract_x
 _atom_site_fract_y
 _atom_site_fract_z
 _atom_site_occupancy
  Tb  Tb0  1  0.871800  0.542969  0.250000  1
  Tb  Tb1  1  0.625336  0.039927  0.250000  1
  Y  Y2  1  0.333660  0.676741  0.066727  1
  Y  Y3  1  0.162185  0.177155  0.435777  1
  Y  Y4  1  0.663440  0.321276  0.561379  1
  Y  Y5  1  0.837983  0.825690  0.938412  1
  Y  Y6  1  0.663440  0.321276  0.938621  1
  Y  Y7  1  0.837983  0.825690  0.561588  1
  Y  Y8  1  0.333660  0.676741  0.433273  1
  Y  Y9  1  0.162185  0.177155  0.064223  1
  Y  Y10  1  0.132031  0.457351  0.750000  1
  Y  Y11  1  0.370377  0.958704  0.750000  1
  Tc  Tc12  1  0.033543  0.883099  0.250000  1
  Tc  Tc13  1  0.468367  0.385267  0.250000  1
  Tc  Tc14  1  0.960385  0.115871  0.750000  1
  Rh  Rh15  1  0.543628  0.615088  0.750000  1
