# generated using pymatgen
data_LiTc2(NiP)3
_symmetry_space_group_name_H-M   'P 1'
_cell_length_a   5.93479540
_cell_length_b   5.71350780
_cell_length_c   3.63765600
_cell_angle_alpha   90.00000000
_cell_angle_beta   90.00000000
_cell_angle_gamma   118.77405189
_symmetry_Int_Tables_number   1
_chemical_formula_structural   LiTc2(NiP)3
_chemical_formula_sum   'Li1 Tc2 Ni3 P3'
_cell_volume   108.11710161
_cell_formula_units_Z   1
loop_
 _symmetry_equiv_pos_site_id
 _symmetry_equiv_pos_as_xyz
  1  'x, y, z'
loop_
 _atom_site_type_symbol
 _atom_site_label
 _atom_site_symmetry_multiplicity
 _atom_site_fract_x
 _atom_site_fract_y
 _atom_site_fract_z
 _atom_site_occupancy
  Li  Li0  1  0.000000  0.416983  0.500000  1
  Tc  Tc1  1  0.587640  0.594294  0.500000  1
  Tc  Tc2  1  0.412360  0.006654  0.500000  1
  Ni  Ni3  1  0.000000  0.729876  0.000000  1
  Ni  Ni4  1  0.241033  0.249251  0.000000  1
  Ni  Ni5  1  0.758967  0.008218  0.000000  1
  P  P6  1  0.348854  0.677932  0.000000  1
  P  P7  1  0.651146  0.329077  0.000000  1
  P  P8  1  0.000000  0.987714  0.500000  1
