# generated using pymatgen
data_LiCeGe2Pd
_symmetry_space_group_name_H-M   'P 1'
_cell_length_a   6.16444756
_cell_length_b   6.16444769
_cell_length_c   6.16444857
_cell_angle_alpha   140.58435014
_cell_angle_beta   140.58435095
_cell_angle_gamma   56.96710695
_symmetry_Int_Tables_number   1
_chemical_formula_structural   LiCeGe2Pd
_chemical_formula_sum   'Li1 Ce1 Ge2 Pd1'
_cell_volume   93.65807759
_cell_formula_units_Z   1
loop_
 _symmetry_equiv_pos_site_id
 _symmetry_equiv_pos_as_xyz
  1  'x, y, z'
loop_
 _atom_site_type_symbol
 _atom_site_label
 _atom_site_symmetry_multiplicity
 _atom_site_fract_x
 _atom_site_fract_y
 _atom_site_fract_z
 _atom_site_occupancy
  Li  Li0  1  0.250000  0.750000  0.500000  1
  Ce  Ce1  1  0.000000  0.000000  0.000000  1
  Ge  Ge2  1  0.614237  0.614237  0.000000  1
  Ge  Ge3  1  0.385763  0.385763  0.000000  1
  Pd  Pd4  1  0.750000  0.250000  0.500000  1
