# generated using pymatgen
data_Dy4Hf5Sc(Si5Ir2)4
_symmetry_space_group_name_H-M   'P 1'
_cell_length_a   12.46290300
_cell_length_b   12.46290300
_cell_length_c   4.14962600
_cell_angle_alpha   90.00000000
_cell_angle_beta   90.00000000
_cell_angle_gamma   90.00000000
_symmetry_Int_Tables_number   1
_chemical_formula_structural   Dy4Hf5Sc(Si5Ir2)4
_chemical_formula_sum   'Dy4 Hf5 Sc1 Si20 Ir8'
_cell_volume   644.53630627
_cell_formula_units_Z   1
loop_
 _symmetry_equiv_pos_site_id
 _symmetry_equiv_pos_as_xyz
  1  'x, y, z'
loop_
 _atom_site_type_symbol
 _atom_site_label
 _atom_site_symmetry_multiplicity
 _atom_site_fract_x
 _atom_site_fract_y
 _atom_site_fract_z
 _atom_site_occupancy
  Dy  Dy0  1  0.884523  0.384355  0.500000  1
  Dy  Dy1  1  0.115477  0.615645  0.500000  1
  Dy  Dy2  1  0.384355  0.115477  0.500000  1
  Dy  Dy3  1  0.615645  0.884523  0.500000  1
  Hf  Hf4  1  0.500000  0.500000  0.000000  1
  Hf  Hf5  1  0.674875  0.174960  0.500000  1
  Hf  Hf6  1  0.325125  0.825040  0.500000  1
  Hf  Hf7  1  0.174960  0.325125  0.500000  1
  Hf  Hf8  1  0.825040  0.674875  0.500000  1
  Sc  Sc9  1  0.000000  0.000000  0.000000  1
  Si  Si10  1  0.566844  0.067201  0.000000  1
  Si  Si11  1  0.433156  0.932799  0.000000  1
  Si  Si12  1  0.067201  0.433156  0.000000  1
  Si  Si13  1  0.932799  0.566844  0.000000  1
  Si  Si14  1  0.665076  0.701894  0.000000  1
  Si  Si15  1  0.334924  0.298106  0.000000  1
  Si  Si16  1  0.163072  0.800629  0.000000  1
  Si  Si17  1  0.836928  0.199371  0.000000  1
  Si  Si18  1  0.298106  0.665076  0.000000  1
  Si  Si19  1  0.701894  0.334924  0.000000  1
  Si  Si20  1  0.199371  0.163072  0.000000  1
  Si  Si21  1  0.800629  0.836928  0.000000  1
  Si  Si22  1  0.651002  0.507989  0.500000  1
  Si  Si23  1  0.348998  0.492011  0.500000  1
  Si  Si24  1  0.151271  0.992192  0.500000  1
  Si  Si25  1  0.848729  0.007808  0.500000  1
  Si  Si26  1  0.492011  0.651002  0.500000  1
  Si  Si27  1  0.507989  0.348998  0.500000  1
  Si  Si28  1  0.007808  0.151271  0.500000  1
  Si  Si29  1  0.992192  0.848729  0.500000  1
  Ir  Ir30  1  0.742262  0.522368  0.000000  1
  Ir  Ir31  1  0.257738  0.477632  0.000000  1
  Ir  Ir32  1  0.243906  0.977492  0.000000  1
  Ir  Ir33  1  0.756094  0.022508  0.000000  1
  Ir  Ir34  1  0.477632  0.742262  0.000000  1
  Ir  Ir35  1  0.522368  0.257738  0.000000  1
  Ir  Ir36  1  0.022508  0.243906  0.000000  1
  Ir  Ir37  1  0.977492  0.756094  0.000000  1
