# generated using pymatgen
data_TbNd3(Sn5Ir3)2
_symmetry_space_group_name_H-M   'P 1'
_cell_length_a   13.58298522
_cell_length_b   13.58298582
_cell_length_c   7.28906306
_cell_angle_alpha   89.91488018
_cell_angle_beta   90.08512091
_cell_angle_gamma   160.88031881
_symmetry_Int_Tables_number   1
_chemical_formula_structural   TbNd3(Sn5Ir3)2
_chemical_formula_sum   'Tb1 Nd3 Sn10 Ir6'
_cell_volume   440.48316142
_cell_formula_units_Z   1
loop_
 _symmetry_equiv_pos_site_id
 _symmetry_equiv_pos_as_xyz
  1  'x, y, z'
loop_
 _atom_site_type_symbol
 _atom_site_label
 _atom_site_symmetry_multiplicity
 _atom_site_fract_x
 _atom_site_fract_y
 _atom_site_fract_z
 _atom_site_occupancy
  Tb  Tb0  1  0.523770  0.476230  0.239632  1
  Nd  Nd1  1  0.172159  0.827841  0.753807  1
  Nd  Nd2  1  0.827786  0.172214  0.254199  1
  Nd  Nd3  1  0.477020  0.522980  0.739033  1
  Sn  Sn4  1  0.879141  0.120859  0.731721  1
  Sn  Sn5  1  0.120362  0.879638  0.232454  1
  Sn  Sn6  1  0.704152  0.295848  0.047518  1
  Sn  Sn7  1  0.295346  0.704654  0.547646  1
  Sn  Sn8  1  0.597004  0.402996  0.610205  1
  Sn  Sn9  1  0.403453  0.596547  0.111057  1
  Sn  Sn10  1  0.952822  0.047178  0.399840  1
  Sn  Sn11  1  0.047973  0.952027  0.902525  1
  Sn  Sn12  1  0.290237  0.709763  0.976193  1
  Sn  Sn13  1  0.709593  0.290407  0.475735  1
  Ir  Ir14  1  0.050777  0.949223  0.517193  1
  Ir  Ir15  1  0.949610  0.050390  0.022038  1
  Ir  Ir16  1  0.776727  0.223273  0.763995  1
  Ir  Ir17  1  0.222917  0.777083  0.263781  1
  Ir  Ir18  1  0.394599  0.605401  0.482314  1
  Ir  Ir19  1  0.604552  0.395448  0.985113  1
