# generated using pymatgen
data_Cs6YBiI12
_symmetry_space_group_name_H-M   'P 1'
_cell_length_a   10.71463792
_cell_length_b   10.73400371
_cell_length_c   8.86689700
_cell_angle_alpha   90.00000000
_cell_angle_beta   90.00000000
_cell_angle_gamma   89.80076505
_symmetry_Int_Tables_number   1
_chemical_formula_structural   Cs6YBiI12
_chemical_formula_sum   'Cs6 Y1 Bi1 I12'
_cell_volume   1019.78419859
_cell_formula_units_Z   1
loop_
 _symmetry_equiv_pos_site_id
 _symmetry_equiv_pos_as_xyz
  1  'x, y, z'
loop_
 _atom_site_type_symbol
 _atom_site_label
 _atom_site_symmetry_multiplicity
 _atom_site_fract_x
 _atom_site_fract_y
 _atom_site_fract_z
 _atom_site_occupancy
  Cs  Cs0  1  0.000000  0.000000  0.500000  1
  Cs  Cs1  1  0.000000  0.000000  0.000000  1
  Cs  Cs2  1  0.234669  0.586565  0.500000  1
  Cs  Cs3  1  0.765331  0.413435  0.500000  1
  Cs  Cs4  1  0.412715  0.231344  0.000000  1
  Cs  Cs5  1  0.587285  0.768656  0.000000  1
  Y  Y6  1  0.500000  0.000000  0.500000  1
  Bi  Bi7  1  0.000000  0.500000  0.000000  1
  I  I8  1  0.694538  0.058275  0.743579  1
  I  I9  1  0.305462  0.941725  0.743579  1
  I  I10  1  0.939148  0.697178  0.247143  1
  I  I11  1  0.060852  0.302822  0.247143  1
  I  I12  1  0.305462  0.941725  0.256421  1
  I  I13  1  0.694538  0.058275  0.256421  1
  I  I14  1  0.060852  0.302822  0.752857  1
  I  I15  1  0.939148  0.697178  0.752857  1
  I  I16  1  0.570280  0.724913  0.500000  1
  I  I17  1  0.429720  0.275087  0.500000  1
  I  I18  1  0.280702  0.569585  0.000000  1
  I  I19  1  0.719298  0.430415  0.000000  1
