# generated using pymatgen
data_Ti2VSi4Mo9
_symmetry_space_group_name_H-M   'P 1'
_cell_length_a   4.94035800
_cell_length_b   4.90228648
_cell_length_c   9.72321426
_cell_angle_alpha   89.98810198
_cell_angle_beta   90.00000000
_cell_angle_gamma   90.00000000
_symmetry_Int_Tables_number   1
_chemical_formula_structural   Ti2VSi4Mo9
_chemical_formula_sum   'Ti2 V1 Si4 Mo9'
_cell_volume   235.48700944
_cell_formula_units_Z   1
loop_
 _symmetry_equiv_pos_site_id
 _symmetry_equiv_pos_as_xyz
  1  'x, y, z'
loop_
 _atom_site_type_symbol
 _atom_site_label
 _atom_site_symmetry_multiplicity
 _atom_site_fract_x
 _atom_site_fract_y
 _atom_site_fract_z
 _atom_site_occupancy
  Ti  Ti0  1  0.000000  0.499947  0.375512  1
  Ti  Ti1  1  0.000000  0.501341  0.875351  1
  V  V2  1  0.500000  0.250399  0.000930  1
  Si  Si3  1  0.500000  0.497001  0.248812  1
  Si  Si4  1  0.500000  0.496415  0.755356  1
  Si  Si5  1  0.000000  0.004485  0.997930  1
  Si  Si6  1  0.000000  0.000265  0.497554  1
  Mo  Mo7  1  0.500000  0.248891  0.500758  1
  Mo  Mo8  1  0.748797  0.999961  0.248324  1
  Mo  Mo9  1  0.748887  0.999639  0.749585  1
  Mo  Mo10  1  0.000000  0.499341  0.125076  1
  Mo  Mo11  1  0.000000  0.499301  0.625350  1
  Mo  Mo12  1  0.500000  0.753544  0.000704  1
  Mo  Mo13  1  0.500000  0.749868  0.500848  1
  Mo  Mo14  1  0.251203  0.999961  0.248324  1
  Mo  Mo15  1  0.251113  0.999639  0.749585  1
