# generated using pymatgen
data_Pr3Dy2Y(RuI3)2
_symmetry_space_group_name_H-M   'P 1'
_cell_length_a   4.32543800
_cell_length_b   9.02435105
_cell_length_c   12.52171217
_cell_angle_alpha   85.75355325
_cell_angle_beta   90.00000000
_cell_angle_gamma   90.00000000
_symmetry_Int_Tables_number   1
_chemical_formula_structural   Pr3Dy2Y(RuI3)2
_chemical_formula_sum   'Pr3 Dy2 Y1 Ru2 I6'
_cell_volume   487.43410784
_cell_formula_units_Z   1
loop_
 _symmetry_equiv_pos_site_id
 _symmetry_equiv_pos_as_xyz
  1  'x, y, z'
loop_
 _atom_site_type_symbol
 _atom_site_label
 _atom_site_symmetry_multiplicity
 _atom_site_fract_x
 _atom_site_fract_y
 _atom_site_fract_z
 _atom_site_occupancy
  Pr  Pr0  1  0.750000  0.093705  0.679822  1
  Pr  Pr1  1  0.250000  0.900879  0.318308  1
  Pr  Pr2  1  0.250000  0.273875  0.900440  1
  Dy  Dy3  1  0.750000  0.122085  0.121322  1
  Dy  Dy4  1  0.250000  0.874370  0.881100  1
  Y  Y5  1  0.750000  0.734266  0.101143  1
  Ru  Ru6  1  0.750000  0.055297  0.907758  1
  Ru  Ru7  1  0.250000  0.942718  0.093064  1
  I  I8  1  0.250000  0.356884  0.638005  1
  I  I9  1  0.750000  0.639105  0.355132  1
  I  I10  1  0.750000  0.152720  0.385568  1
  I  I11  1  0.250000  0.842904  0.612986  1
  I  I12  1  0.250000  0.426349  0.135386  1
  I  I13  1  0.750000  0.584845  0.869967  1
