# generated using pymatgen
data_Ti8BeBi4Ru
_symmetry_space_group_name_H-M   'P 1'
_cell_length_a   7.92681657
_cell_length_b   7.92713968
_cell_length_c   7.92681633
_cell_angle_alpha   95.38647298
_cell_angle_beta   95.35462830
_cell_angle_gamma   144.36746350
_symmetry_Int_Tables_number   1
_chemical_formula_structural   Ti8BeBi4Ru
_chemical_formula_sum   'Ti8 Be1 Bi4 Ru1'
_cell_volume   276.27289007
_cell_formula_units_Z   1
loop_
 _symmetry_equiv_pos_site_id
 _symmetry_equiv_pos_as_xyz
  1  'x, y, z'
loop_
 _atom_site_type_symbol
 _atom_site_label
 _atom_site_symmetry_multiplicity
 _atom_site_fract_x
 _atom_site_fract_y
 _atom_site_fract_z
 _atom_site_occupancy
  Ti  Ti0  1  0.587787  0.702201  0.279220  1
  Ti  Ti1  1  0.912225  0.191470  0.114465  1
  Ti  Ti2  1  0.308461  0.587642  0.885265  1
  Ti  Ti3  1  0.797624  0.912358  0.720819  1
  Ti  Ti4  1  0.702404  0.423270  0.114750  1
  Ti  Ti5  1  0.077019  0.797799  0.885586  1
  Ti  Ti6  1  0.422994  0.308530  0.720755  1
  Ti  Ti7  1  0.191479  0.076730  0.279134  1
  Be  Be8  1  0.750007  0.750000  0.000007  1
  Bi  Bi9  1  0.360312  0.860352  0.220682  1
  Bi  Bi10  1  0.139657  0.360340  0.500009  1
  Bi  Bi11  1  0.639669  0.139660  0.779315  1
  Bi  Bi12  1  0.860329  0.639648  0.499960  1
  Ru  Ru13  1  0.250033  0.250000  0.000033  1
