# generated using pymatgen
data_Tb11Ce(CoNi)2
_symmetry_space_group_name_H-M   'P 1'
_cell_length_a   6.33085865
_cell_length_b   6.88267276
_cell_length_c   9.60857300
_cell_angle_alpha   90.00000000
_cell_angle_beta   90.00000000
_cell_angle_gamma   91.86509548
_symmetry_Int_Tables_number   1
_chemical_formula_structural   Tb11Ce(CoNi)2
_chemical_formula_sum   'Tb11 Ce1 Co2 Ni2'
_cell_volume   418.45474332
_cell_formula_units_Z   1
loop_
 _symmetry_equiv_pos_site_id
 _symmetry_equiv_pos_as_xyz
  1  'x, y, z'
loop_
 _atom_site_type_symbol
 _atom_site_label
 _atom_site_symmetry_multiplicity
 _atom_site_fract_x
 _atom_site_fract_y
 _atom_site_fract_z
 _atom_site_occupancy
  Tb  Tb0  1  0.323344  0.672751  0.067184  1
  Tb  Tb1  1  0.175233  0.173755  0.429581  1
  Tb  Tb2  1  0.677744  0.324876  0.564855  1
  Tb  Tb3  1  0.826274  0.826248  0.933493  1
  Tb  Tb4  1  0.677744  0.324876  0.935145  1
  Tb  Tb5  1  0.826274  0.826248  0.566507  1
  Tb  Tb6  1  0.323344  0.672751  0.432816  1
  Tb  Tb7  1  0.175233  0.173755  0.070419  1
  Tb  Tb8  1  0.637963  0.048090  0.250000  1
  Tb  Tb9  1  0.143628  0.461564  0.750000  1
  Tb  Tb10  1  0.358013  0.962527  0.750000  1
  Ce  Ce11  1  0.851366  0.560513  0.250000  1
  Co  Co12  1  0.025125  0.854979  0.250000  1
  Co  Co13  1  0.479980  0.399572  0.250000  1
  Ni  Ni14  1  0.942538  0.109947  0.750000  1
  Ni  Ni15  1  0.556200  0.607545  0.750000  1
