# generated using pymatgen
data_Dy5Y8Er7Pt16
_symmetry_space_group_name_H-M   'P 1'
_cell_length_a   7.47302409
_cell_length_b   7.55772019
_cell_length_c   14.73449221
_cell_angle_alpha   90.01915204
_cell_angle_beta   89.99981710
_cell_angle_gamma   90.01742050
_symmetry_Int_Tables_number   1
_chemical_formula_structural   Dy5Y8Er7Pt16
_chemical_formula_sum   'Dy5 Y8 Er7 Pt16'
_cell_volume   832.18966927
_cell_formula_units_Z   1
loop_
 _symmetry_equiv_pos_site_id
 _symmetry_equiv_pos_as_xyz
  1  'x, y, z'
loop_
 _atom_site_type_symbol
 _atom_site_label
 _atom_site_symmetry_multiplicity
 _atom_site_fract_x
 _atom_site_fract_y
 _atom_site_fract_z
 _atom_site_occupancy
  Dy  Dy0  1  0.656407  0.832305  0.622268  1
  Dy  Dy1  1  0.156288  0.667603  0.877779  1
  Dy  Dy2  1  0.843699  0.332501  0.377776  1
  Dy  Dy3  1  0.343733  0.167640  0.122089  1
  Dy  Dy4  1  0.343632  0.167624  0.377783  1
  Y  Y5  1  0.998102  0.819965  0.406935  1
  Y  Y6  1  0.498333  0.679739  0.093053  1
  Y  Y7  1  0.501829  0.320438  0.593326  1
  Y  Y8  1  0.001631  0.179764  0.906865  1
  Y  Y9  1  0.002119  0.180033  0.593243  1
  Y  Y10  1  0.502237  0.320042  0.906806  1
  Y  Y11  1  0.498006  0.679923  0.406819  1
  Y  Y12  1  0.997804  0.819999  0.093173  1
  Er  Er13  1  0.681744  0.988092  0.249847  1
  Er  Er14  1  0.181214  0.511982  0.249843  1
  Er  Er15  1  0.818601  0.488349  0.750009  1
  Er  Er16  1  0.318574  0.011661  0.750008  1
  Er  Er17  1  0.843681  0.332499  0.122297  1
  Er  Er18  1  0.156297  0.667561  0.622415  1
  Er  Er19  1  0.656328  0.832437  0.877627  1
  Pt  Pt20  1  0.816508  0.642271  0.249703  1
  Pt  Pt21  1  0.316302  0.857282  0.249927  1
  Pt  Pt22  1  0.683595  0.142123  0.750282  1
  Pt  Pt23  1  0.183591  0.357821  0.749746  1
  Pt  Pt24  1  0.546905  0.386451  0.249619  1
  Pt  Pt25  1  0.045741  0.113924  0.249619  1
  Pt  Pt26  1  0.953568  0.885889  0.749990  1
  Pt  Pt27  1  0.453552  0.614118  0.750037  1
  Pt  Pt28  1  0.818084  0.532858  0.542443  1
  Pt  Pt29  1  0.318183  0.967060  0.957595  1
  Pt  Pt30  1  0.682673  0.032546  0.457780  1
  Pt  Pt31  1  0.181795  0.467090  0.042430  1
  Pt  Pt32  1  0.182717  0.468145  0.458272  1
  Pt  Pt33  1  0.683343  0.032974  0.042023  1
  Pt  Pt34  1  0.316561  0.966274  0.542558  1
  Pt  Pt35  1  0.816624  0.533014  0.958017  1
