# generated using pymatgen
data_Sm3DyY4(OsC2)4
_symmetry_space_group_name_H-M   'P 1'
_cell_length_a   5.21159100
_cell_length_b   6.47402169
_cell_length_c   9.87081631
_cell_angle_alpha   90.18796238
_cell_angle_beta   90.00000000
_cell_angle_gamma   90.00000000
_symmetry_Int_Tables_number   1
_chemical_formula_structural   Sm3DyY4(OsC2)4
_chemical_formula_sum   'Sm3 Dy1 Y4 Os4 C8'
_cell_volume   333.03908792
_cell_formula_units_Z   1
loop_
 _symmetry_equiv_pos_site_id
 _symmetry_equiv_pos_as_xyz
  1  'x, y, z'
loop_
 _atom_site_type_symbol
 _atom_site_label
 _atom_site_symmetry_multiplicity
 _atom_site_fract_x
 _atom_site_fract_y
 _atom_site_fract_z
 _atom_site_occupancy
  Sm  Sm0  1  0.250000  0.523322  0.217917  1
  Sm  Sm1  1  0.750000  0.477257  0.782331  1
  Sm  Sm2  1  0.750000  0.977198  0.718016  1
  Dy  Dy3  1  0.250000  0.023130  0.280250  1
  Y  Y4  1  0.250000  0.684671  0.551255  1
  Y  Y5  1  0.750000  0.314462  0.447739  1
  Y  Y6  1  0.750000  0.815571  0.052196  1
  Y  Y7  1  0.250000  0.185340  0.948723  1
  Os  Os8  1  0.250000  0.728950  0.864160  1
  Os  Os9  1  0.750000  0.271339  0.137115  1
  Os  Os10  1  0.750000  0.772616  0.363224  1
  Os  Os11  1  0.250000  0.227785  0.636322  1
  C  C12  1  0.250000  0.464328  0.757663  1
  C  C13  1  0.750000  0.536338  0.242122  1
  C  C14  1  0.750000  0.036342  0.258552  1
  C  C15  1  0.250000  0.964088  0.742247  1
  C  C16  1  0.250000  0.826908  0.050108  1
  C  C17  1  0.750000  0.175010  0.951759  1
  C  C18  1  0.750000  0.675484  0.548166  1
  C  C19  1  0.250000  0.319863  0.450135  1
