# generated using pymatgen
data_Ta12ReMo6Ru5
_symmetry_space_group_name_H-M   'P 1'
_cell_length_a   4.52006700
_cell_length_b   6.39997100
_cell_length_c   13.62963300
_cell_angle_alpha   90.00000000
_cell_angle_beta   90.00010535
_cell_angle_gamma   90.00000000
_symmetry_Int_Tables_number   1
_chemical_formula_structural   Ta12ReMo6Ru5
_chemical_formula_sum   'Ta12 Re1 Mo6 Ru5'
_cell_volume   394.28208121
_cell_formula_units_Z   1
loop_
 _symmetry_equiv_pos_site_id
 _symmetry_equiv_pos_as_xyz
  1  'x, y, z'
loop_
 _atom_site_type_symbol
 _atom_site_label
 _atom_site_symmetry_multiplicity
 _atom_site_fract_x
 _atom_site_fract_y
 _atom_site_fract_z
 _atom_site_occupancy
  Ta  Ta0  1  0.500000  0.248498  0.000000  1
  Ta  Ta1  1  0.500000  0.751502  0.000000  1
  Ta  Ta2  1  0.999990  0.249338  0.165735  1
  Ta  Ta3  1  0.999990  0.750662  0.165735  1
  Ta  Ta4  1  0.499985  0.249890  0.333252  1
  Ta  Ta5  1  0.499985  0.750111  0.333252  1
  Ta  Ta6  1  0.000000  0.250241  0.500000  1
  Ta  Ta7  1  0.000000  0.749759  0.500000  1
  Ta  Ta8  1  0.500015  0.249890  0.666748  1
  Ta  Ta9  1  0.500015  0.750111  0.666748  1
  Ta  Ta10  1  0.000010  0.249338  0.834265  1
  Ta  Ta11  1  0.000010  0.750662  0.834265  1
  Re  Re12  1  0.000000  0.000000  0.000000  1
  Mo  Mo13  1  0.000000  0.500000  0.000000  1
  Mo  Mo14  1  0.499992  0.000000  0.168023  1
  Mo  Mo15  1  0.999988  0.500000  0.334064  1
  Mo  Mo16  1  0.500000  0.000000  0.500000  1
  Mo  Mo17  1  0.000012  0.500000  0.665936  1
  Mo  Mo18  1  0.500008  0.000000  0.831977  1
  Ru  Ru19  1  0.499985  0.500000  0.167180  1
  Ru  Ru20  1  0.999987  0.000000  0.333730  1
  Ru  Ru21  1  0.500000  0.500000  0.500000  1
  Ru  Ru22  1  0.000013  0.000000  0.666270  1
  Ru  Ru23  1  0.500015  0.500000  0.832820  1
