# generated using pymatgen
data_La3Nd13Cd4Ir3Pd
_symmetry_space_group_name_H-M   'P 1'
_cell_length_a   9.98899071
_cell_length_b   9.99267053
_cell_length_c   9.99267046
_cell_angle_alpha   60.25811021
_cell_angle_beta   60.20598783
_cell_angle_gamma   60.20599808
_symmetry_Int_Tables_number   1
_chemical_formula_structural   La3Nd13Cd4Ir3Pd
_chemical_formula_sum   'La3 Nd13 Cd4 Ir3 Pd1'
_cell_volume   708.85960934
_cell_formula_units_Z   1
loop_
 _symmetry_equiv_pos_site_id
 _symmetry_equiv_pos_as_xyz
  1  'x, y, z'
loop_
 _atom_site_type_symbol
 _atom_site_label
 _atom_site_symmetry_multiplicity
 _atom_site_fract_x
 _atom_site_fract_y
 _atom_site_fract_z
 _atom_site_occupancy
  La  La0  1  0.346163  0.347220  0.347220  1
  La  La1  1  0.352165  0.352865  0.950639  1
  La  La2  1  0.352165  0.950639  0.352865  1
  Nd  Nd3  1  0.948147  0.353093  0.353093  1
  Nd  Nd4  1  0.805319  0.190362  0.190362  1
  Nd  Nd5  1  0.188381  0.810173  0.810173  1
  Nd  Nd6  1  0.190297  0.805155  0.190027  1
  Nd  Nd7  1  0.810577  0.188508  0.809447  1
  Nd  Nd8  1  0.190297  0.190027  0.805155  1
  Nd  Nd9  1  0.810577  0.809447  0.188508  1
  Nd  Nd10  1  0.939242  0.562750  0.562750  1
  Nd  Nd11  1  0.563749  0.937535  0.937535  1
  Nd  Nd12  1  0.563134  0.938912  0.563286  1
  Nd  Nd13  1  0.937803  0.563574  0.937944  1
  Nd  Nd14  1  0.563134  0.563286  0.938912  1
  Nd  Nd15  1  0.937803  0.937944  0.563574  1
  Cd  Cd16  1  0.581396  0.580089  0.580089  1
  Cd  Cd17  1  0.580901  0.579821  0.258677  1
  Cd  Cd18  1  0.580901  0.258677  0.579821  1
  Cd  Cd19  1  0.258451  0.580282  0.580282  1
  Ir  Ir20  1  0.142006  0.141676  0.573376  1
  Ir  Ir21  1  0.142006  0.573376  0.141676  1
  Ir  Ir22  1  0.573211  0.141795  0.141795  1
  Pd  Pd23  1  0.142174  0.142788  0.142788  1
