# generated using pymatgen
data_Er16In6FePd
_symmetry_space_group_name_H-M   'P 1'
_cell_length_a   10.33214000
_cell_length_b   10.33213888
_cell_length_c   6.92535300
_cell_angle_alpha   90.00000000
_cell_angle_beta   90.00000000
_cell_angle_gamma   119.99999718
_symmetry_Int_Tables_number   1
_chemical_formula_structural   Er16In6FePd
_chemical_formula_sum   'Er16 In6 Fe1 Pd1'
_cell_volume   640.25514430
_cell_formula_units_Z   1
loop_
 _symmetry_equiv_pos_site_id
 _symmetry_equiv_pos_as_xyz
  1  'x, y, z'
loop_
 _atom_site_type_symbol
 _atom_site_label
 _atom_site_symmetry_multiplicity
 _atom_site_fract_x
 _atom_site_fract_y
 _atom_site_fract_z
 _atom_site_occupancy
  Er  Er0  1  0.536173  0.072346  0.792573  1
  Er  Er1  1  0.927654  0.463827  0.792573  1
  Er  Er2  1  0.536173  0.463827  0.792573  1
  Er  Er3  1  0.470821  0.941643  0.296126  1
  Er  Er4  1  0.058357  0.529179  0.296126  1
  Er  Er5  1  0.470821  0.529179  0.296126  1
  Er  Er6  1  0.821881  0.643763  0.501145  1
  Er  Er7  1  0.356237  0.178119  0.501145  1
  Er  Er8  1  0.821881  0.178119  0.501145  1
  Er  Er9  1  0.175020  0.350041  0.997983  1
  Er  Er10  1  0.649959  0.824980  0.997983  1
  Er  Er11  1  0.175020  0.824980  0.997983  1
  Er  Er12  1  0.666667  0.333333  0.180105  1
  Er  Er13  1  0.333333  0.666667  0.668869  1
  Er  Er14  1  0.000000  0.000000  0.778310  1
  Er  Er15  1  0.000000  0.000000  0.278796  1
  In  In16  1  0.837066  0.674133  0.039204  1
  In  In17  1  0.325867  0.162934  0.039204  1
  In  In18  1  0.837066  0.162934  0.039204  1
  In  In19  1  0.162815  0.325629  0.537848  1
  In  In20  1  0.674371  0.837185  0.537848  1
  In  In21  1  0.162815  0.837185  0.537848  1
  Fe  Fe22  1  0.666667  0.333333  0.567013  1
  Pd  Pd23  1  0.333333  0.666667  0.068174  1
