# generated using pymatgen
data_YThB10Rh
_symmetry_space_group_name_H-M   'P 1'
_cell_length_a   4.17781900
_cell_length_b   5.71181998
_cell_length_c   11.39797394
_cell_angle_alpha   90.06698751
_cell_angle_beta   90.00000000
_cell_angle_gamma   90.00000000
_symmetry_Int_Tables_number   1
_chemical_formula_structural   YThB10Rh
_chemical_formula_sum   'Y2 Th2 B20 Rh2'
_cell_volume   271.98909675
_cell_formula_units_Z   2
loop_
 _symmetry_equiv_pos_site_id
 _symmetry_equiv_pos_as_xyz
  1  'x, y, z'
loop_
 _atom_site_type_symbol
 _atom_site_label
 _atom_site_symmetry_multiplicity
 _atom_site_fract_x
 _atom_site_fract_y
 _atom_site_fract_z
 _atom_site_occupancy
  Y  Y0  1  0.500000  0.301206  0.865135  1
  Y  Y1  1  0.500000  0.698794  0.134865  1
  Th  Th2  1  0.500000  0.201785  0.361447  1
  Th  Th3  1  0.500000  0.798215  0.638553  1
  B  B4  1  0.000000  0.381683  0.042395  1
  B  B5  1  0.000000  0.618317  0.957605  1
  B  B6  1  0.000000  0.117794  0.543252  1
  B  B7  1  0.000000  0.882206  0.456748  1
  B  B8  1  0.000000  0.363313  0.196787  1
  B  B9  1  0.000000  0.636687  0.803213  1
  B  B10  1  0.000000  0.135455  0.697958  1
  B  B11  1  0.000000  0.864545  0.302042  1
  B  B12  1  0.000000  0.055549  0.192230  1
  B  B13  1  0.000000  0.944451  0.807770  1
  B  B14  1  0.000000  0.444913  0.693462  1
  B  B15  1  0.000000  0.555087  0.306538  1
  B  B16  1  0.301680  0.220133  0.117765  1
  B  B17  1  0.698320  0.779867  0.882235  1
  B  B18  1  0.301680  0.779867  0.882235  1
  B  B19  1  0.697797  0.282209  0.620351  1
  B  B20  1  0.698320  0.220133  0.117765  1
  B  B21  1  0.302203  0.717791  0.379649  1
  B  B22  1  0.697797  0.717791  0.379649  1
  B  B23  1  0.302203  0.282209  0.620351  1
  Rh  Rh24  1  0.000000  0.000000  0.000000  1
  Rh  Rh25  1  0.000000  0.500000  0.500000  1
