# generated using pymatgen
data_Ti8Mo2Ru
_symmetry_space_group_name_H-M   'P 1'
_cell_length_a   5.26667320
_cell_length_b   5.26667320
_cell_length_c   11.75006038
_cell_angle_alpha   105.61430138
_cell_angle_beta   105.61430149
_cell_angle_gamma   35.05382429
_symmetry_Int_Tables_number   1
_chemical_formula_structural   Ti8Mo2Ru
_chemical_formula_sum   'Ti8 Mo2 Ru1'
_cell_volume   179.57971763
_cell_formula_units_Z   1
loop_
 _symmetry_equiv_pos_site_id
 _symmetry_equiv_pos_as_xyz
  1  'x, y, z'
loop_
 _atom_site_type_symbol
 _atom_site_label
 _atom_site_symmetry_multiplicity
 _atom_site_fract_x
 _atom_site_fract_y
 _atom_site_fract_z
 _atom_site_occupancy
  Ti  Ti0  1  0.709542  0.709542  0.083159  1
  Ti  Ti1  1  0.457600  0.457600  0.174914  1
  Ti  Ti2  1  0.204281  0.204281  0.280444  1
  Ti  Ti3  1  0.622897  0.622897  0.455432  1
  Ti  Ti4  1  0.377104  0.377104  0.544567  1
  Ti  Ti5  1  0.795719  0.795719  0.719556  1
  Ti  Ti6  1  0.542400  0.542400  0.825086  1
  Ti  Ti7  1  0.290459  0.290459  0.916842  1
  Mo  Mo8  1  0.919069  0.919069  0.357383  1
  Mo  Mo9  1  0.080931  0.080931  0.642618  1
  Ru  Ru10  1  0.000000  0.000000  0.000000  1
