# generated using pymatgen
data_CeSm3CdRu
_symmetry_space_group_name_H-M   'P 1'
_cell_length_a   9.76813247
_cell_length_b   9.76813256
_cell_length_c   9.76813400
_cell_angle_alpha   60.00000189
_cell_angle_beta   60.00000159
_cell_angle_gamma   60.00000136
_symmetry_Int_Tables_number   1
_chemical_formula_structural   CeSm3CdRu
_chemical_formula_sum   'Ce4 Sm12 Cd4 Ru4'
_cell_volume   659.05204479
_cell_formula_units_Z   4
loop_
 _symmetry_equiv_pos_site_id
 _symmetry_equiv_pos_as_xyz
  1  'x, y, z'
loop_
 _atom_site_type_symbol
 _atom_site_label
 _atom_site_symmetry_multiplicity
 _atom_site_fract_x
 _atom_site_fract_y
 _atom_site_fract_z
 _atom_site_occupancy
  Ce  Ce0  1  0.344688  0.344688  0.965939  1
  Ce  Ce1  1  0.344688  0.965939  0.344688  1
  Ce  Ce2  1  0.965939  0.344688  0.344688  1
  Ce  Ce3  1  0.344688  0.344688  0.344688  1
  Sm  Sm4  1  0.561272  0.561272  0.938728  1
  Sm  Sm5  1  0.938728  0.561272  0.938728  1
  Sm  Sm6  1  0.561272  0.938728  0.938728  1
  Sm  Sm7  1  0.938728  0.938728  0.561272  1
  Sm  Sm8  1  0.561272  0.938728  0.561272  1
  Sm  Sm9  1  0.938728  0.561272  0.561272  1
  Sm  Sm10  1  0.190006  0.190006  0.809994  1
  Sm  Sm11  1  0.809994  0.190006  0.809994  1
  Sm  Sm12  1  0.190005  0.809995  0.809994  1
  Sm  Sm13  1  0.809994  0.809995  0.190006  1
  Sm  Sm14  1  0.190005  0.809994  0.190005  1
  Sm  Sm15  1  0.809994  0.190006  0.190006  1
  Cd  Cd16  1  0.580289  0.580289  0.259131  1
  Cd  Cd17  1  0.580289  0.259131  0.580289  1
  Cd  Cd18  1  0.259131  0.580289  0.580289  1
  Cd  Cd19  1  0.580289  0.580289  0.580289  1
  Ru  Ru20  1  0.145561  0.145561  0.563317  1
  Ru  Ru21  1  0.145561  0.563317  0.145561  1
  Ru  Ru22  1  0.563317  0.145561  0.145561  1
  Ru  Ru23  1  0.145561  0.145561  0.145561  1
