# generated using pymatgen
data_YTm3Mn2(Co2B)6
_symmetry_space_group_name_H-M   'P 1'
_cell_length_a   5.04910600
_cell_length_b   5.04689168
_cell_length_c   12.67214000
_cell_angle_alpha   89.99995455
_cell_angle_beta   90.00011357
_cell_angle_gamma   120.01451476
_symmetry_Int_Tables_number   1
_chemical_formula_structural   YTm3Mn2(Co2B)6
_chemical_formula_sum   'Y1 Tm3 Mn2 Co12 B6'
_cell_volume   279.61182068
_cell_formula_units_Z   1
loop_
 _symmetry_equiv_pos_site_id
 _symmetry_equiv_pos_as_xyz
  1  'x, y, z'
loop_
 _atom_site_type_symbol
 _atom_site_label
 _atom_site_symmetry_multiplicity
 _atom_site_fract_x
 _atom_site_fract_y
 _atom_site_fract_z
 _atom_site_occupancy
  Y  Y0  1  0.999990  0.000000  0.000064  1
  Tm  Tm1  1  0.999992  0.000000  0.500097  1
  Tm  Tm2  1  0.999986  0.000000  0.260995  1
  Tm  Tm3  1  0.000000  0.000000  0.738784  1
  Mn  Mn4  1  0.333248  0.666516  0.000066  1
  Mn  Mn5  1  0.666731  0.333484  0.000066  1
  Co  Co6  1  0.499988  0.000000  0.158381  1
  Co  Co7  1  0.499989  0.500000  0.158347  1
  Co  Co8  1  0.999988  0.500000  0.158347  1
  Co  Co9  1  0.499998  0.000000  0.841697  1
  Co  Co10  1  0.499998  0.500000  0.841681  1
  Co  Co11  1  0.000000  0.500000  0.841681  1
  Co  Co12  1  0.499989  0.000000  0.385479  1
  Co  Co13  1  0.499980  0.499999  0.385506  1
  Co  Co14  1  0.999980  0.500001  0.385506  1
  Co  Co15  1  0.499995  0.000000  0.614472  1
  Co  Co16  1  0.499996  0.500000  0.614470  1
  Co  Co17  1  0.999994  0.500000  0.614470  1
  B  B18  1  0.333396  0.666811  0.500089  1
  B  B19  1  0.666585  0.333189  0.500089  1
  B  B20  1  0.333515  0.667048  0.269758  1
  B  B21  1  0.666467  0.332952  0.269758  1
  B  B22  1  0.666851  0.333703  0.730100  1
  B  B23  1  0.333148  0.666297  0.730100  1
