# generated using pymatgen
data_Nd5UTi2(Co4P3)4
_symmetry_space_group_name_H-M   'P 1'
_cell_length_a   3.74018700
_cell_length_b   10.70250725
_cell_length_c   12.45358106
_cell_angle_alpha   90.35779606
_cell_angle_beta   90.00000000
_cell_angle_gamma   90.00000000
_symmetry_Int_Tables_number   1
_chemical_formula_structural   Nd5UTi2(Co4P3)4
_chemical_formula_sum   'Nd5 U1 Ti2 Co16 P12'
_cell_volume   498.49938946
_cell_formula_units_Z   1
loop_
 _symmetry_equiv_pos_site_id
 _symmetry_equiv_pos_as_xyz
  1  'x, y, z'
loop_
 _atom_site_type_symbol
 _atom_site_label
 _atom_site_symmetry_multiplicity
 _atom_site_fract_x
 _atom_site_fract_y
 _atom_site_fract_z
 _atom_site_occupancy
  Nd  Nd0  1  0.000000  0.499241  0.524562  1
  Nd  Nd1  1  0.500000  0.999234  0.475644  1
  Nd  Nd2  1  0.500000  0.181292  0.204310  1
  Nd  Nd3  1  0.000000  0.680113  0.795114  1
  Nd  Nd4  1  0.000000  0.320100  0.795756  1
  U  U5  1  0.500000  0.826418  0.207879  1
  Ti  Ti6  1  0.500000  0.503085  0.151504  1
  Ti  Ti7  1  0.000000  0.000115  0.848667  1
  Co  Co8  1  0.500000  0.499481  0.703964  1
  Co  Co9  1  0.000000  0.983109  0.289214  1
  Co  Co10  1  0.000000  0.503040  0.990231  1
  Co  Co11  1  0.500000  0.999120  0.011556  1
  Co  Co12  1  0.500000  0.334121  0.995870  1
  Co  Co13  1  0.500000  0.671253  0.998337  1
  Co  Co14  1  0.000000  0.167919  0.005565  1
  Co  Co15  1  0.000000  0.834358  0.005728  1
  Co  Co16  1  0.500000  0.294501  0.431392  1
  Co  Co17  1  0.500000  0.701926  0.429300  1
  Co  Co18  1  0.000000  0.202467  0.567919  1
  Co  Co19  1  0.000000  0.796029  0.567983  1
  Co  Co20  1  0.500000  0.879914  0.707495  1
  Co  Co21  1  0.500000  0.118973  0.707476  1
  Co  Co22  1  0.000000  0.623455  0.289586  1
  Co  Co23  1  0.000000  0.381064  0.293268  1
  P  P24  1  0.500000  0.501644  0.888438  1
  P  P25  1  0.000000  0.999685  0.110907  1
  P  P26  1  0.500000  0.497694  0.348724  1
  P  P27  1  0.000000  0.999369  0.651328  1
  P  P28  1  0.500000  0.305711  0.614459  1
  P  P29  1  0.500000  0.692617  0.613862  1
  P  P30  1  0.000000  0.191152  0.385230  1
  P  P31  1  0.000000  0.803074  0.386111  1
  P  P32  1  0.500000  0.844329  0.894142  1
  P  P33  1  0.500000  0.156408  0.895579  1
  P  P34  1  0.000000  0.661806  0.107932  1
  P  P35  1  0.000000  0.346183  0.104962  1
