# generated using pymatgen
data_Ho4Al15(SiIr2)3
_symmetry_space_group_name_H-M   'P 1'
_cell_length_a   7.53182304
_cell_length_b   7.51446856
_cell_length_c   9.30757360
_cell_angle_alpha   89.99975515
_cell_angle_beta   89.91297098
_cell_angle_gamma   119.75879663
_symmetry_Int_Tables_number   1
_chemical_formula_structural   Ho4Al15(SiIr2)3
_chemical_formula_sum   'Ho4 Al15 Si3 Ir6'
_cell_volume   457.31480791
_cell_formula_units_Z   1
loop_
 _symmetry_equiv_pos_site_id
 _symmetry_equiv_pos_as_xyz
  1  'x, y, z'
loop_
 _atom_site_type_symbol
 _atom_site_label
 _atom_site_symmetry_multiplicity
 _atom_site_fract_x
 _atom_site_fract_y
 _atom_site_fract_z
 _atom_site_occupancy
  Ho  Ho0  1  0.993916  0.668673  0.248367  1
  Ho  Ho1  1  0.005056  0.325688  0.753204  1
  Ho  Ho2  1  0.679003  0.000137  0.248022  1
  Ho  Ho3  1  0.326179  0.005656  0.749591  1
  Al  Al4  1  0.998260  0.668572  0.922003  1
  Al  Al5  1  0.999222  0.664286  0.575467  1
  Al  Al6  1  0.335906  0.000037  0.424501  1
  Al  Al7  1  0.001569  0.336188  0.428510  1
  Al  Al8  1  0.663538  0.999164  0.575562  1
  Al  Al9  1  0.659466  0.994360  0.922254  1
  Al  Al10  1  0.335567  0.000117  0.075883  1
  Al  Al11  1  0.335673  0.335246  0.558683  1
  Al  Al12  1  0.665015  0.665538  0.441528  1
  Al  Al13  1  0.664483  0.665173  0.059544  1
  Al  Al14  1  0.338568  0.335307  0.941261  1
  Al  Al15  1  0.334591  0.546532  0.250325  1
  Al  Al16  1  0.665555  0.451411  0.750150  1
  Al  Al17  1  0.546091  0.335467  0.250242  1
  Al  Al18  1  0.450562  0.663305  0.749436  1
  Si  Si19  1  0.131791  0.127343  0.250877  1
  Si  Si20  1  0.871525  0.872791  0.749739  1
  Si  Si21  1  0.000998  0.337752  0.073007  1
  Ir  Ir22  1  0.679323  0.328550  0.001742  1
  Ir  Ir23  1  0.319980  0.664049  0.000322  1
  Ir  Ir24  1  0.327720  0.671339  0.499316  1
  Ir  Ir25  1  0.672121  0.328450  0.499081  1
  Ir  Ir26  1  0.998906  0.008283  0.002059  1
  Ir  Ir27  1  0.999413  0.000587  0.499325  1
