# generated using pymatgen
data_Zn2In9AgIr4
_symmetry_space_group_name_H-M   'P 1'
_cell_length_a   6.90127293
_cell_length_b   7.10276614
_cell_length_c   7.27885200
_cell_angle_alpha   90.00000000
_cell_angle_beta   90.00000000
_cell_angle_gamma   91.17435061
_symmetry_Int_Tables_number   1
_chemical_formula_structural   Zn2In9AgIr4
_chemical_formula_sum   'Zn2 In9 Ag1 Ir4'
_cell_volume   356.72075496
_cell_formula_units_Z   1
loop_
 _symmetry_equiv_pos_site_id
 _symmetry_equiv_pos_as_xyz
  1  'x, y, z'
loop_
 _atom_site_type_symbol
 _atom_site_label
 _atom_site_symmetry_multiplicity
 _atom_site_fract_x
 _atom_site_fract_y
 _atom_site_fract_z
 _atom_site_occupancy
  Zn  Zn0  1  0.500000  0.000000  0.000000  1
  Zn  Zn1  1  0.000000  0.500000  0.500000  1
  In  In2  1  0.330784  0.345979  0.262146  1
  In  In3  1  0.154303  0.826270  0.773192  1
  In  In4  1  0.154303  0.826270  0.226808  1
  In  In5  1  0.845697  0.173730  0.226808  1
  In  In6  1  0.845697  0.173730  0.773192  1
  In  In7  1  0.669216  0.654021  0.262146  1
  In  In8  1  0.669216  0.654021  0.737854  1
  In  In9  1  0.330784  0.345979  0.737854  1
  In  In10  1  0.500000  0.000000  0.500000  1
  Ag  Ag11  1  0.000000  0.500000  0.000000  1
  Ir  Ir12  1  0.167572  0.140064  0.000000  1
  Ir  Ir13  1  0.658895  0.348187  0.500000  1
  Ir  Ir14  1  0.341105  0.651813  0.500000  1
  Ir  Ir15  1  0.832428  0.859936  0.000000  1
