# generated using pymatgen
data_HoErMg(Si3Pd10)2
_symmetry_space_group_name_H-M   'P 1'
_cell_length_a   8.67502696
_cell_length_b   8.67502667
_cell_length_c   8.67502800
_cell_angle_alpha   60.00000257
_cell_angle_beta   60.00000365
_cell_angle_gamma   60.00000576
_symmetry_Int_Tables_number   1
_chemical_formula_structural   HoErMg(Si3Pd10)2
_chemical_formula_sum   'Ho1 Er1 Mg1 Si6 Pd20'
_cell_volume   461.63377770
_cell_formula_units_Z   1
loop_
 _symmetry_equiv_pos_site_id
 _symmetry_equiv_pos_as_xyz
  1  'x, y, z'
loop_
 _atom_site_type_symbol
 _atom_site_label
 _atom_site_symmetry_multiplicity
 _atom_site_fract_x
 _atom_site_fract_y
 _atom_site_fract_z
 _atom_site_occupancy
  Ho  Ho0  1  0.250000  0.250000  0.250000  1
  Er  Er1  1  0.750000  0.750000  0.750000  1
  Mg  Mg2  1  0.000000  0.000000  0.000000  1
  Si  Si3  1  0.733261  0.266739  0.266739  1
  Si  Si4  1  0.266739  0.733261  0.733261  1
  Si  Si5  1  0.266739  0.733261  0.266739  1
  Si  Si6  1  0.733261  0.266739  0.733261  1
  Si  Si7  1  0.266739  0.266739  0.733261  1
  Si  Si8  1  0.733261  0.733261  0.266739  1
  Pd  Pd9  1  0.343693  0.000000  0.000000  1
  Pd  Pd10  1  0.656307  0.000000  0.000000  1
  Pd  Pd11  1  0.000000  0.343693  0.656307  1
  Pd  Pd12  1  0.000000  0.656307  0.343693  1
  Pd  Pd13  1  0.000000  0.343693  0.000000  1
  Pd  Pd14  1  0.656307  0.000000  0.343693  1
  Pd  Pd15  1  0.000000  0.656307  0.000000  1
  Pd  Pd16  1  0.343693  0.000000  0.656307  1
  Pd  Pd17  1  0.000000  0.000000  0.343693  1
  Pd  Pd18  1  0.000000  0.000000  0.656307  1
  Pd  Pd19  1  0.656307  0.343693  0.000000  1
  Pd  Pd20  1  0.343693  0.656307  0.000000  1
  Pd  Pd21  1  0.383038  0.383038  0.383038  1
  Pd  Pd22  1  0.616962  0.616962  0.616962  1
  Pd  Pd23  1  0.383038  0.383038  0.850888  1
  Pd  Pd24  1  0.383038  0.850888  0.383038  1
  Pd  Pd25  1  0.616962  0.616962  0.149112  1
  Pd  Pd26  1  0.616962  0.149112  0.616962  1
  Pd  Pd27  1  0.850888  0.383038  0.383038  1
  Pd  Pd28  1  0.149112  0.616962  0.616962  1
