# generated using pymatgen
data_CaHo2(AlPt2)3
_symmetry_space_group_name_H-M   'P 1'
_cell_length_a   5.49992900
_cell_length_b   5.49992941
_cell_length_c   16.46246200
_cell_angle_alpha   90.00000000
_cell_angle_beta   90.00000000
_cell_angle_gamma   119.99999149
_symmetry_Int_Tables_number   1
_chemical_formula_structural   CaHo2(AlPt2)3
_chemical_formula_sum   'Ca2 Ho4 Al6 Pt12'
_cell_volume   431.26047147
_cell_formula_units_Z   2
loop_
 _symmetry_equiv_pos_site_id
 _symmetry_equiv_pos_as_xyz
  1  'x, y, z'
loop_
 _atom_site_type_symbol
 _atom_site_label
 _atom_site_symmetry_multiplicity
 _atom_site_fract_x
 _atom_site_fract_y
 _atom_site_fract_z
 _atom_site_occupancy
  Ca  Ca0  1  0.333333  0.666667  0.750000  1
  Ca  Ca1  1  0.666667  0.333333  0.250000  1
  Ho  Ho2  1  0.333333  0.666667  0.542908  1
  Ho  Ho3  1  0.666667  0.333333  0.457092  1
  Ho  Ho4  1  0.666667  0.333333  0.042908  1
  Ho  Ho5  1  0.333333  0.666667  0.957092  1
  Al  Al6  1  0.000000  0.000000  0.250000  1
  Al  Al7  1  0.000000  0.000000  0.750000  1
  Al  Al8  1  0.333333  0.666667  0.250000  1
  Al  Al9  1  0.666667  0.333333  0.750000  1
  Al  Al10  1  0.000000  0.000000  0.000000  1
  Al  Al11  1  0.000000  0.000000  0.500000  1
  Pt  Pt12  1  0.167719  0.335437  0.124777  1
  Pt  Pt13  1  0.832281  0.664563  0.875223  1
  Pt  Pt14  1  0.664563  0.832281  0.124777  1
  Pt  Pt15  1  0.832281  0.664563  0.624777  1
  Pt  Pt16  1  0.335437  0.167719  0.875223  1
  Pt  Pt17  1  0.167719  0.335437  0.375223  1
  Pt  Pt18  1  0.167719  0.832281  0.124777  1
  Pt  Pt19  1  0.335437  0.167719  0.624777  1
  Pt  Pt20  1  0.832281  0.167719  0.875223  1
  Pt  Pt21  1  0.664563  0.832281  0.375223  1
  Pt  Pt22  1  0.832281  0.167719  0.624777  1
  Pt  Pt23  1  0.167719  0.832281  0.375223  1
