# generated using pymatgen
data_ZrPaReB6
_symmetry_space_group_name_H-M   'P 1'
_cell_length_a   3.63581900
_cell_length_b   9.07678000
_cell_length_c   11.45663900
_cell_angle_alpha   90.00000000
_cell_angle_beta   90.00000000
_cell_angle_gamma   90.00000000
_symmetry_Int_Tables_number   1
_chemical_formula_structural   ZrPaReB6
_chemical_formula_sum   'Zr4 Pa4 Re4 B24'
_cell_volume   378.08660630
_cell_formula_units_Z   4
loop_
 _symmetry_equiv_pos_site_id
 _symmetry_equiv_pos_as_xyz
  1  'x, y, z'
loop_
 _atom_site_type_symbol
 _atom_site_label
 _atom_site_symmetry_multiplicity
 _atom_site_fract_x
 _atom_site_fract_y
 _atom_site_fract_z
 _atom_site_occupancy
  Zr  Zr0  1  0.000000  0.945200  0.374448  1
  Zr  Zr1  1  0.000000  0.054800  0.625552  1
  Zr  Zr2  1  0.000000  0.445200  0.125552  1
  Zr  Zr3  1  0.000000  0.554800  0.874448  1
  Pa  Pa4  1  0.000000  0.323607  0.413542  1
  Pa  Pa5  1  0.000000  0.676393  0.586458  1
  Pa  Pa6  1  0.000000  0.823607  0.086458  1
  Pa  Pa7  1  0.000000  0.176393  0.913542  1
  Re  Re8  1  0.000000  0.641103  0.320856  1
  Re  Re9  1  0.000000  0.358897  0.679144  1
  Re  Re10  1  0.000000  0.141103  0.179144  1
  Re  Re11  1  0.000000  0.858897  0.820856  1
  B  B12  1  0.500000  0.553190  0.434452  1
  B  B13  1  0.500000  0.446810  0.565548  1
  B  B14  1  0.500000  0.053190  0.065548  1
  B  B15  1  0.500000  0.946810  0.934452  1
  B  B16  1  0.500000  0.752221  0.419080  1
  B  B17  1  0.500000  0.247779  0.580920  1
  B  B18  1  0.500000  0.252221  0.080920  1
  B  B19  1  0.500000  0.747779  0.919080  1
  B  B20  1  0.500000  0.795601  0.264234  1
  B  B21  1  0.500000  0.204399  0.735766  1
  B  B22  1  0.500000  0.295601  0.235766  1
  B  B23  1  0.500000  0.704399  0.764234  1
  B  B24  1  0.500000  0.631151  0.182936  1
  B  B25  1  0.500000  0.368849  0.817064  1
  B  B26  1  0.500000  0.131151  0.317064  1
  B  B27  1  0.500000  0.868849  0.682936  1
  B  B28  1  0.500000  0.981108  0.213797  1
  B  B29  1  0.500000  0.018892  0.786203  1
  B  B30  1  0.500000  0.481108  0.286203  1
  B  B31  1  0.500000  0.518892  0.713797  1
  B  B32  1  0.500000  0.603754  0.028045  1
  B  B33  1  0.500000  0.396246  0.971955  1
  B  B34  1  0.500000  0.103754  0.471955  1
  B  B35  1  0.500000  0.896246  0.528045  1
