# generated using pymatgen
data_Tm4NpGaRu6
_symmetry_space_group_name_H-M   'P 1'
_cell_length_a   5.62667606
_cell_length_b   5.62667500
_cell_length_c   7.98323903
_cell_angle_alpha   89.99031076
_cell_angle_beta   90.00968955
_cell_angle_gamma   120.00982598
_symmetry_Int_Tables_number   1
_chemical_formula_structural   Tm4NpGaRu6
_chemical_formula_sum   'Tm4 Np1 Ga1 Ru6'
_cell_volume   218.86206397
_cell_formula_units_Z   1
loop_
 _symmetry_equiv_pos_site_id
 _symmetry_equiv_pos_as_xyz
  1  'x, y, z'
loop_
 _atom_site_type_symbol
 _atom_site_label
 _atom_site_symmetry_multiplicity
 _atom_site_fract_x
 _atom_site_fract_y
 _atom_site_fract_z
 _atom_site_occupancy
  Tm  Tm0  1  0.666724  0.333276  0.552642  1
  Tm  Tm1  1  0.333276  0.666724  0.447358  1
  Tm  Tm2  1  0.333323  0.666677  0.068149  1
  Tm  Tm3  1  0.666677  0.333323  0.931851  1
  Np  Np4  1  0.000000  0.000000  0.000000  1
  Ga  Ga5  1  0.000000  0.000000  0.500000  1
  Ru  Ru6  1  0.168991  0.337731  0.758102  1
  Ru  Ru7  1  0.168817  0.831183  0.758112  1
  Ru  Ru8  1  0.662269  0.831009  0.758102  1
  Ru  Ru9  1  0.831009  0.662269  0.241898  1
  Ru  Ru10  1  0.831183  0.168817  0.241888  1
  Ru  Ru11  1  0.337731  0.168991  0.241898  1
