# generated using pymatgen
data_Yb8CdSbPd23
_symmetry_space_group_name_H-M   'P 1'
_cell_length_a   8.24642300
_cell_length_b   8.45712800
_cell_length_c   8.40461900
_cell_angle_alpha   90.00000000
_cell_angle_beta   90.00000000
_cell_angle_gamma   90.00000000
_symmetry_Int_Tables_number   1
_chemical_formula_structural   Yb8CdSbPd23
_chemical_formula_sum   'Yb8 Cd1 Sb1 Pd23'
_cell_volume   586.14699470
_cell_formula_units_Z   1
loop_
 _symmetry_equiv_pos_site_id
 _symmetry_equiv_pos_as_xyz
  1  'x, y, z'
loop_
 _atom_site_type_symbol
 _atom_site_label
 _atom_site_symmetry_multiplicity
 _atom_site_fract_x
 _atom_site_fract_y
 _atom_site_fract_z
 _atom_site_occupancy
  Yb  Yb0  1  0.747362  0.736368  0.242428  1
  Yb  Yb1  1  0.747362  0.263632  0.757572  1
  Yb  Yb2  1  0.253151  0.749407  0.745318  1
  Yb  Yb3  1  0.747362  0.736368  0.757572  1
  Yb  Yb4  1  0.747362  0.263632  0.242428  1
  Yb  Yb5  1  0.253151  0.250593  0.745318  1
  Yb  Yb6  1  0.253151  0.749407  0.254682  1
  Yb  Yb7  1  0.253151  0.250593  0.254682  1
  Cd  Cd8  1  0.727184  0.000000  0.500000  1
  Sb  Sb9  1  0.004395  0.000000  0.000000  1
  Pd  Pd10  1  0.993541  0.000000  0.306720  1
  Pd  Pd11  1  0.736026  0.500000  0.000000  1
  Pd  Pd12  1  0.501876  0.000000  0.734660  1
  Pd  Pd13  1  0.995041  0.734789  0.500000  1
  Pd  Pd14  1  0.501876  0.000000  0.265340  1
  Pd  Pd15  1  0.995041  0.265211  0.500000  1
  Pd  Pd16  1  0.498039  0.732481  0.000000  1
  Pd  Pd17  1  0.254756  0.500000  0.500000  1
  Pd  Pd18  1  0.497099  0.500000  0.743511  1
  Pd  Pd19  1  0.497099  0.500000  0.256489  1
  Pd  Pd20  1  0.503086  0.256346  0.500000  1
  Pd  Pd21  1  0.503086  0.743654  0.500000  1
  Pd  Pd22  1  0.744771  0.500000  0.500000  1
  Pd  Pd23  1  0.315004  0.000000  0.000000  1
  Pd  Pd24  1  0.993541  0.000000  0.693280  1
  Pd  Pd25  1  0.004513  0.500000  0.265295  1
  Pd  Pd26  1  0.003506  0.307251  0.000000  1
  Pd  Pd27  1  0.003506  0.692749  0.000000  1
  Pd  Pd28  1  0.692421  0.000000  0.000000  1
  Pd  Pd29  1  0.266898  0.500000  0.000000  1
  Pd  Pd30  1  0.263088  0.000000  0.500000  1
  Pd  Pd31  1  0.004513  0.500000  0.734705  1
  Pd  Pd32  1  0.498039  0.267519  0.000000  1
