# generated using pymatgen
data_Ho5Er3Sc12Si15Rh
_symmetry_space_group_name_H-M   'P 1'
_cell_length_a   7.09520037
_cell_length_b   7.35904373
_cell_length_c   13.97525904
_cell_angle_alpha   89.89317869
_cell_angle_beta   89.81592860
_cell_angle_gamma   90.20646077
_symmetry_Int_Tables_number   1
_chemical_formula_structural   Ho5Er3Sc12Si15Rh
_chemical_formula_sum   'Ho5 Er3 Sc12 Si15 Rh1'
_cell_volume   729.69284745
_cell_formula_units_Z   1
loop_
 _symmetry_equiv_pos_site_id
 _symmetry_equiv_pos_as_xyz
  1  'x, y, z'
loop_
 _atom_site_type_symbol
 _atom_site_label
 _atom_site_symmetry_multiplicity
 _atom_site_fract_x
 _atom_site_fract_y
 _atom_site_fract_z
 _atom_site_occupancy
  Ho  Ho0  1  0.012805  0.175437  0.097155  1
  Ho  Ho1  1  0.987815  0.824321  0.902762  1
  Ho  Ho2  1  0.486564  0.677215  0.902818  1
  Ho  Ho3  1  0.988747  0.822202  0.595952  1
  Ho  Ho4  1  0.512659  0.323823  0.096446  1
  Er  Er5  1  0.011767  0.180492  0.403346  1
  Er  Er6  1  0.508576  0.323696  0.403166  1
  Er  Er7  1  0.485714  0.671275  0.597597  1
  Sc  Sc8  1  0.162853  0.503555  0.744750  1
  Sc  Sc9  1  0.838460  0.497117  0.252259  1
  Sc  Sc10  1  0.339451  0.999542  0.250596  1
  Sc  Sc11  1  0.662295  0.997061  0.749270  1
  Sc  Sc12  1  0.330618  0.187432  0.621029  1
  Sc  Sc13  1  0.668061  0.823186  0.374058  1
  Sc  Sc14  1  0.171223  0.664498  0.378288  1
  Sc  Sc15  1  0.671880  0.823920  0.126705  1
  Sc  Sc16  1  0.833732  0.326792  0.623113  1
  Sc  Sc17  1  0.328115  0.177306  0.875568  1
  Sc  Sc18  1  0.831238  0.322206  0.875356  1
  Sc  Sc19  1  0.170327  0.676753  0.125465  1
  Si  Si20  1  0.033742  0.114725  0.749556  1
  Si  Si21  1  0.970186  0.883442  0.251980  1
  Si  Si22  1  0.467450  0.613508  0.248731  1
  Si  Si23  1  0.536957  0.385049  0.752702  1
  Si  Si24  1  0.286129  0.876806  0.749966  1
  Si  Si25  1  0.714290  0.128986  0.250056  1
  Si  Si26  1  0.215926  0.369125  0.248375  1
  Si  Si27  1  0.783637  0.627807  0.752238  1
  Si  Si28  1  0.835398  0.535727  0.460375  1
  Si  Si29  1  0.342831  0.963497  0.460809  1
  Si  Si30  1  0.843683  0.536099  0.038858  1
  Si  Si31  1  0.655275  0.033852  0.538738  1
  Si  Si32  1  0.155893  0.465760  0.961092  1
  Si  Si33  1  0.657517  0.034508  0.961872  1
  Si  Si34  1  0.344418  0.964457  0.039127  1
  Rh  Rh35  1  0.153772  0.468824  0.539825  1
