# generated using pymatgen
data_Sm3Ho5(SiBr6)2
_symmetry_space_group_name_H-M   'P 1'
_cell_length_a   4.07970600
_cell_length_b   13.33302475
_cell_length_c   14.08059496
_cell_angle_alpha   90.18505318
_cell_angle_beta   90.00000000
_cell_angle_gamma   90.00000000
_symmetry_Int_Tables_number   1
_chemical_formula_structural   Sm3Ho5(SiBr6)2
_chemical_formula_sum   'Sm3 Ho5 Si2 Br12'
_cell_volume   765.90744879
_cell_formula_units_Z   1
loop_
 _symmetry_equiv_pos_site_id
 _symmetry_equiv_pos_as_xyz
  1  'x, y, z'
loop_
 _atom_site_type_symbol
 _atom_site_label
 _atom_site_symmetry_multiplicity
 _atom_site_fract_x
 _atom_site_fract_y
 _atom_site_fract_z
 _atom_site_occupancy
  Sm  Sm0  1  0.000000  0.881252  0.420791  1
  Sm  Sm1  1  0.000000  0.620088  0.919903  1
  Sm  Sm2  1  0.000000  0.379846  0.079966  1
  Ho  Ho3  1  0.500000  0.117801  0.342178  1
  Ho  Ho4  1  0.500000  0.882961  0.658293  1
  Ho  Ho5  1  0.500000  0.617629  0.158289  1
  Ho  Ho6  1  0.500000  0.382083  0.841479  1
  Ho  Ho7  1  0.000000  0.118413  0.578850  1
  Si  Si8  1  0.500000  0.002449  0.501631  1
  Si  Si9  1  0.500000  0.499870  0.999795  1
  Br  Br10  1  0.500000  0.240223  0.166563  1
  Br  Br11  1  0.500000  0.760192  0.833726  1
  Br  Br12  1  0.500000  0.741147  0.334526  1
  Br  Br13  1  0.500000  0.254188  0.663146  1
  Br  Br14  1  0.000000  0.253124  0.411521  1
  Br  Br15  1  0.000000  0.746034  0.591962  1
  Br  Br16  1  0.000000  0.754357  0.092358  1
  Br  Br17  1  0.000000  0.245532  0.907372  1
  Br  Br18  1  0.000000  0.005593  0.242851  1
  Br  Br19  1  0.000000  0.997730  0.755068  1
  Br  Br20  1  0.000000  0.505794  0.257580  1
  Br  Br21  1  0.000000  0.493690  0.742151  1
