# generated using pymatgen
data_Tb12Tc2PtRh
_symmetry_space_group_name_H-M   'P 1'
_cell_length_a   6.40564346
_cell_length_b   7.34974035
_cell_length_c   9.30804900
_cell_angle_alpha   90.00000000
_cell_angle_beta   90.00000000
_cell_angle_gamma   89.98693773
_symmetry_Int_Tables_number   1
_chemical_formula_structural   Tb12Tc2PtRh
_chemical_formula_sum   'Tb12 Tc2 Pt1 Rh1'
_cell_volume   438.22122482
_cell_formula_units_Z   1
loop_
 _symmetry_equiv_pos_site_id
 _symmetry_equiv_pos_as_xyz
  1  'x, y, z'
loop_
 _atom_site_type_symbol
 _atom_site_label
 _atom_site_symmetry_multiplicity
 _atom_site_fract_x
 _atom_site_fract_y
 _atom_site_fract_z
 _atom_site_occupancy
  Tb  Tb0  1  0.629280  0.041367  0.250000  1
  Tb  Tb1  1  0.366442  0.959808  0.750000  1
  Tb  Tb2  1  0.130937  0.461540  0.750000  1
  Tb  Tb3  1  0.868559  0.534811  0.250000  1
  Tb  Tb4  1  0.170070  0.181264  0.059350  1
  Tb  Tb5  1  0.828704  0.824374  0.933278  1
  Tb  Tb6  1  0.667842  0.319855  0.937656  1
  Tb  Tb7  1  0.828704  0.824374  0.566722  1
  Tb  Tb8  1  0.332071  0.674282  0.064539  1
  Tb  Tb9  1  0.170070  0.181264  0.440650  1
  Tb  Tb10  1  0.332071  0.674282  0.435461  1
  Tb  Tb11  1  0.667842  0.319855  0.562344  1
  Tc  Tc12  1  0.456661  0.388482  0.250000  1
  Tc  Tc13  1  0.960115  0.112293  0.750000  1
  Pt  Pt14  1  0.048433  0.886744  0.250000  1
  Rh  Rh15  1  0.542200  0.615404  0.750000  1
