# generated using pymatgen
data_Y7Er9(C2Br3)4
_symmetry_space_group_name_H-M   'P 1'
_cell_length_a   3.68709500
_cell_length_b   10.66648919
_cell_length_c   20.47229236
_cell_angle_alpha   90.02156746
_cell_angle_beta   90.00000000
_cell_angle_gamma   90.00000000
_symmetry_Int_Tables_number   1
_chemical_formula_structural   Y7Er9(C2Br3)4
_chemical_formula_sum   'Y7 Er9 C8 Br12'
_cell_volume   805.14160565
_cell_formula_units_Z   1
loop_
 _symmetry_equiv_pos_site_id
 _symmetry_equiv_pos_as_xyz
  1  'x, y, z'
loop_
 _atom_site_type_symbol
 _atom_site_label
 _atom_site_symmetry_multiplicity
 _atom_site_fract_x
 _atom_site_fract_y
 _atom_site_fract_z
 _atom_site_occupancy
  Y  Y0  1  0.250000  0.867358  0.580570  1
  Y  Y1  1  0.750000  0.132714  0.419643  1
  Y  Y2  1  0.750000  0.632458  0.080312  1
  Y  Y3  1  0.250000  0.367543  0.919039  1
  Y  Y4  1  0.250000  0.868205  0.744914  1
  Y  Y5  1  0.750000  0.131918  0.254902  1
  Y  Y6  1  0.750000  0.631872  0.244972  1
  Er  Er7  1  0.250000  0.368009  0.755915  1
  Er  Er8  1  0.250000  0.864838  0.169932  1
  Er  Er9  1  0.750000  0.135190  0.829728  1
  Er  Er10  1  0.750000  0.634714  0.670165  1
  Er  Er11  1  0.250000  0.365104  0.329922  1
  Er  Er12  1  0.250000  0.898674  0.327584  1
  Er  Er13  1  0.750000  0.101602  0.672377  1
  Er  Er14  1  0.750000  0.600952  0.827483  1
  Er  Er15  1  0.250000  0.398607  0.172240  1
  C  C16  1  0.250000  0.614984  0.750693  1
  C  C17  1  0.750000  0.382385  0.249332  1
  C  C18  1  0.750000  0.882729  0.250547  1
  C  C19  1  0.250000  0.119288  0.749418  1
  C  C20  1  0.250000  0.630691  0.156486  1
  C  C21  1  0.750000  0.369135  0.842263  1
  C  C22  1  0.750000  0.869076  0.656827  1
  C  C23  1  0.250000  0.130806  0.343471  1
  Br  Br24  1  0.250000  0.610703  0.557736  1
  Br  Br25  1  0.750000  0.388997  0.442601  1
  Br  Br26  1  0.750000  0.888750  0.057308  1
  Br  Br27  1  0.250000  0.111625  0.942364  1
  Br  Br28  1  0.250000  0.630590  0.952180  1
  Br  Br29  1  0.750000  0.369433  0.046737  1
  Br  Br30  1  0.750000  0.869587  0.452915  1
  Br  Br31  1  0.250000  0.131084  0.547836  1
  Br  Br32  1  0.250000  0.634145  0.357544  1
  Br  Br33  1  0.750000  0.366124  0.644449  1
  Br  Br34  1  0.750000  0.866062  0.857289  1
  Br  Br35  1  0.250000  0.134048  0.142306  1
