# generated using pymatgen
data_K2Hg3Sb
_symmetry_space_group_name_H-M   'P 1'
_cell_length_a   6.76246781
_cell_length_b   6.68635115
_cell_length_c   6.68635067
_cell_angle_alpha   134.75982769
_cell_angle_beta   101.82341451
_cell_angle_gamma   95.02769380
_symmetry_Int_Tables_number   1
_chemical_formula_structural   K2Hg3Sb
_chemical_formula_sum   'K2 Hg3 Sb1'
_cell_volume   198.07712831
_cell_formula_units_Z   1
loop_
 _symmetry_equiv_pos_site_id
 _symmetry_equiv_pos_as_xyz
  1  'x, y, z'
loop_
 _atom_site_type_symbol
 _atom_site_label
 _atom_site_symmetry_multiplicity
 _atom_site_fract_x
 _atom_site_fract_y
 _atom_site_fract_z
 _atom_site_occupancy
  K  K0  1  0.703680  0.951239  0.752441  1
  K  K1  1  0.295940  0.049446  0.246494  1
  Hg  Hg2  1  0.709238  0.657079  0.052159  1
  Hg  Hg3  1  0.891983  0.335429  0.556554  1
  Hg  Hg4  1  0.109310  0.663920  0.445390  1
  Sb  Sb5  1  0.289849  0.342887  0.946961  1
