# generated using pymatgen
data_Dy3Ho5VOs3C8
_symmetry_space_group_name_H-M   'P 1'
_cell_length_a   5.08636100
_cell_length_b   6.50932142
_cell_length_c   9.79035847
_cell_angle_alpha   89.74290589
_cell_angle_beta   90.00000000
_cell_angle_gamma   90.00000000
_symmetry_Int_Tables_number   1
_chemical_formula_structural   Dy3Ho5VOs3C8
_chemical_formula_sum   'Dy3 Ho5 V1 Os3 C8'
_cell_volume   324.14335191
_cell_formula_units_Z   1
loop_
 _symmetry_equiv_pos_site_id
 _symmetry_equiv_pos_as_xyz
  1  'x, y, z'
loop_
 _atom_site_type_symbol
 _atom_site_label
 _atom_site_symmetry_multiplicity
 _atom_site_fract_x
 _atom_site_fract_y
 _atom_site_fract_z
 _atom_site_occupancy
  Dy  Dy0  1  0.750000  0.469097  0.779963  1
  Dy  Dy1  1  0.750000  0.973152  0.716449  1
  Dy  Dy2  1  0.250000  0.028777  0.283438  1
  Ho  Ho3  1  0.250000  0.683657  0.557592  1
  Ho  Ho4  1  0.750000  0.321062  0.444399  1
  Ho  Ho5  1  0.750000  0.819210  0.054854  1
  Ho  Ho6  1  0.250000  0.176088  0.942684  1
  Ho  Ho7  1  0.250000  0.532450  0.213487  1
  V  V8  1  0.250000  0.723133  0.866261  1
  Os  Os9  1  0.750000  0.277453  0.134715  1
  Os  Os10  1  0.750000  0.776242  0.364076  1
  Os  Os11  1  0.250000  0.226394  0.635028  1
  C  C12  1  0.250000  0.459604  0.762194  1
  C  C13  1  0.750000  0.541402  0.242323  1
  C  C14  1  0.750000  0.042281  0.258856  1
  C  C15  1  0.250000  0.957431  0.741530  1
  C  C16  1  0.250000  0.818469  0.050918  1
  C  C17  1  0.750000  0.174563  0.951688  1
  C  C18  1  0.750000  0.676072  0.550334  1
  C  C19  1  0.250000  0.323463  0.449211  1
