# generated using pymatgen
data_Cs4Cd(PS4)2
_symmetry_space_group_name_H-M   'P 1'
_cell_length_a   9.55295366
_cell_length_b   9.65239525
_cell_length_c   11.59990993
_cell_angle_alpha   104.87443294
_cell_angle_beta   103.92758014
_cell_angle_gamma   92.46369064
_symmetry_Int_Tables_number   1
_chemical_formula_structural   Cs4Cd(PS4)2
_chemical_formula_sum   'Cs8 Cd2 P4 S16'
_cell_volume   997.10260196
_cell_formula_units_Z   2
loop_
 _symmetry_equiv_pos_site_id
 _symmetry_equiv_pos_as_xyz
  1  'x, y, z'
loop_
 _atom_site_type_symbol
 _atom_site_label
 _atom_site_symmetry_multiplicity
 _atom_site_fract_x
 _atom_site_fract_y
 _atom_site_fract_z
 _atom_site_occupancy
  Cs  Cs0  1  0.931261  0.521715  0.248200  1
  Cs  Cs1  1  0.068739  0.478285  0.751800  1
  Cs  Cs2  1  0.760647  0.982641  0.456214  1
  Cs  Cs3  1  0.239353  0.017359  0.543786  1
  Cs  Cs4  1  0.597747  0.742840  0.015541  1
  Cs  Cs5  1  0.402253  0.257160  0.984459  1
  Cs  Cs6  1  0.618084  0.681799  0.621391  1
  Cs  Cs7  1  0.381916  0.318201  0.378609  1
  Cd  Cd8  1  0.849634  0.136250  0.925549  1
  Cd  Cd9  1  0.150366  0.863750  0.074451  1
  P  P10  1  0.953415  0.111385  0.224079  1
  P  P11  1  0.046585  0.888615  0.775921  1
  P  P12  1  0.365186  0.690483  0.254759  1
  P  P13  1  0.634814  0.309517  0.745241  1
  S  S14  1  0.971358  0.899507  0.227312  1
  S  S15  1  0.028642  0.100493  0.772688  1
  S  S16  1  0.599618  0.093622  0.745350  1
  S  S17  1  0.400382  0.906378  0.254650  1
  S  S18  1  0.288120  0.672998  0.400229  1
  S  S19  1  0.711880  0.327002  0.599771  1
  S  S20  1  0.788512  0.405964  0.911285  1
  S  S21  1  0.211488  0.594036  0.088715  1
  S  S22  1  0.004013  0.244586  0.398337  1
  S  S23  1  0.995987  0.755414  0.601663  1
  S  S24  1  0.091470  0.165312  0.123754  1
  S  S25  1  0.908530  0.834688  0.876246  1
  S  S26  1  0.747149  0.131284  0.124653  1
  S  S27  1  0.252851  0.868716  0.875347  1
  S  S28  1  0.554640  0.595711  0.261676  1
  S  S29  1  0.445360  0.404289  0.738324  1
