# generated using pymatgen
data_Nd3TlSnRh3Pb
_symmetry_space_group_name_H-M   'P 1'
_cell_length_a   7.69432550
_cell_length_b   7.70942993
_cell_length_c   4.07516200
_cell_angle_alpha   90.00000000
_cell_angle_beta   90.00000000
_cell_angle_gamma   119.78584957
_symmetry_Int_Tables_number   1
_chemical_formula_structural   Nd3TlSnRh3Pb
_chemical_formula_sum   'Nd3 Tl1 Sn1 Rh3 Pb1'
_cell_volume   209.79805831
_cell_formula_units_Z   1
loop_
 _symmetry_equiv_pos_site_id
 _symmetry_equiv_pos_as_xyz
  1  'x, y, z'
loop_
 _atom_site_type_symbol
 _atom_site_label
 _atom_site_symmetry_multiplicity
 _atom_site_fract_x
 _atom_site_fract_y
 _atom_site_fract_z
 _atom_site_occupancy
  Nd  Nd0  1  0.003944  0.596465  0.000000  1
  Nd  Nd1  1  0.410492  0.406980  0.000000  1
  Nd  Nd2  1  0.588132  0.000454  0.000000  1
  Tl  Tl3  1  0.741795  0.742147  0.500000  1
  Sn  Sn4  1  0.255509  0.999392  0.500000  1
  Rh  Rh5  1  0.019692  0.004892  0.000000  1
  Rh  Rh6  1  0.655210  0.321970  0.500000  1
  Rh  Rh7  1  0.326482  0.672595  0.500000  1
  Pb  Pb8  1  0.998745  0.255105  0.500000  1
