# generated using pymatgen
data_MgNbV(Co10B3)2
_symmetry_space_group_name_H-M   'P 1'
_cell_length_a   7.42179834
_cell_length_b   7.42179757
_cell_length_c   7.42179800
_cell_angle_alpha   59.99999808
_cell_angle_beta   60.00000151
_cell_angle_gamma   59.99999500
_symmetry_Int_Tables_number   1
_chemical_formula_structural   MgNbV(Co10B3)2
_chemical_formula_sum   'Mg1 Nb1 V1 Co20 B6'
_cell_volume   289.07622105
_cell_formula_units_Z   1
loop_
 _symmetry_equiv_pos_site_id
 _symmetry_equiv_pos_as_xyz
  1  'x, y, z'
loop_
 _atom_site_type_symbol
 _atom_site_label
 _atom_site_symmetry_multiplicity
 _atom_site_fract_x
 _atom_site_fract_y
 _atom_site_fract_z
 _atom_site_occupancy
  Mg  Mg0  1  0.000000  0.000000  0.000000  1
  Nb  Nb1  1  0.750000  0.750000  0.750000  1
  V  V2  1  0.250000  0.250000  0.250000  1
  Co  Co3  1  0.614324  0.614324  0.157027  1
  Co  Co4  1  0.614324  0.157027  0.614324  1
  Co  Co5  1  0.157027  0.614324  0.614324  1
  Co  Co6  1  0.614324  0.614324  0.614324  1
  Co  Co7  1  0.378817  0.378817  0.863548  1
  Co  Co8  1  0.378817  0.863548  0.378817  1
  Co  Co9  1  0.863548  0.378817  0.378817  1
  Co  Co10  1  0.378817  0.378817  0.378817  1
  Co  Co11  1  0.000620  0.000620  0.343800  1
  Co  Co12  1  0.654959  0.000620  0.343800  1
  Co  Co13  1  0.000620  0.654959  0.343800  1
  Co  Co14  1  0.654959  0.343800  0.000620  1
  Co  Co15  1  0.000620  0.343800  0.000620  1
  Co  Co16  1  0.000620  0.343800  0.654959  1
  Co  Co17  1  0.343800  0.654959  0.000620  1
  Co  Co18  1  0.343800  0.000620  0.654959  1
  Co  Co19  1  0.343800  0.000620  0.000620  1
  Co  Co20  1  0.000620  0.000620  0.654959  1
  Co  Co21  1  0.000620  0.654959  0.000620  1
  Co  Co22  1  0.654959  0.000620  0.000620  1
  B  B23  1  0.727332  0.727332  0.272668  1
  B  B24  1  0.272668  0.727332  0.272668  1
  B  B25  1  0.727332  0.272668  0.272668  1
  B  B26  1  0.272668  0.272668  0.727332  1
  B  B27  1  0.727332  0.272668  0.727332  1
  B  B28  1  0.272668  0.727332  0.727332  1
