# generated using pymatgen
data_HfTi2(NbP)4
_symmetry_space_group_name_H-M   'P 1'
_cell_length_a   7.69793074
_cell_length_b   7.69793039
_cell_length_c   13.89602747
_cell_angle_alpha   75.93730695
_cell_angle_beta   75.93730773
_cell_angle_gamma   26.12887498
_symmetry_Int_Tables_number   1
_chemical_formula_structural   HfTi2(NbP)4
_chemical_formula_sum   'Hf2 Ti4 Nb8 P8'
_cell_volume   351.17871533
_cell_formula_units_Z   2
loop_
 _symmetry_equiv_pos_site_id
 _symmetry_equiv_pos_as_xyz
  1  'x, y, z'
loop_
 _atom_site_type_symbol
 _atom_site_label
 _atom_site_symmetry_multiplicity
 _atom_site_fract_x
 _atom_site_fract_y
 _atom_site_fract_z
 _atom_site_occupancy
  Hf  Hf0  1  0.824278  0.824278  0.542729  1
  Hf  Hf1  1  0.175722  0.175722  0.457271  1
  Ti  Ti2  1  0.660920  0.660920  0.032268  1
  Ti  Ti3  1  0.339080  0.339080  0.967732  1
  Ti  Ti4  1  0.996231  0.996231  0.667392  1
  Ti  Ti5  1  0.003769  0.003769  0.332608  1
  Nb  Nb6  1  0.209119  0.209119  0.199295  1
  Nb  Nb7  1  0.790881  0.790881  0.800705  1
  Nb  Nb8  1  0.196053  0.196053  0.692767  1
  Nb  Nb9  1  0.803947  0.803947  0.307233  1
  Nb  Nb10  1  0.429081  0.429081  0.169995  1
  Nb  Nb11  1  0.570919  0.570919  0.830005  1
  Nb  Nb12  1  0.500000  0.500000  0.500000  1
  Nb  Nb13  1  0.000000  0.000000  0.000000  1
  P  P14  1  0.061690  0.061690  0.151400  1
  P  P15  1  0.938310  0.938310  0.848600  1
  P  P16  1  0.373106  0.373106  0.666264  1
  P  P17  1  0.626894  0.626894  0.333736  1
  P  P18  1  0.378171  0.378171  0.393126  1
  P  P19  1  0.621829  0.621829  0.606874  1
  P  P20  1  0.176814  0.176814  0.895833  1
  P  P21  1  0.823186  0.823186  0.104167  1
