# generated using pymatgen
data_Tb8Ho9Er3Pb16
_symmetry_space_group_name_H-M   'P 1'
_cell_length_a   8.20763600
_cell_length_b   8.29490529
_cell_length_c   15.66276300
_cell_angle_alpha   90.00000000
_cell_angle_beta   90.00000000
_cell_angle_gamma   90.01520307
_symmetry_Int_Tables_number   1
_chemical_formula_structural   Tb8Ho9Er3Pb16
_chemical_formula_sum   'Tb8 Ho9 Er3 Pb16'
_cell_volume   1066.34535296
_cell_formula_units_Z   1
loop_
 _symmetry_equiv_pos_site_id
 _symmetry_equiv_pos_as_xyz
  1  'x, y, z'
loop_
 _atom_site_type_symbol
 _atom_site_label
 _atom_site_symmetry_multiplicity
 _atom_site_fract_x
 _atom_site_fract_y
 _atom_site_fract_z
 _atom_site_occupancy
  Tb  Tb0  1  0.534390  0.323104  0.900023  1
  Tb  Tb1  1  0.034277  0.176724  0.600000  1
  Tb  Tb2  1  0.465643  0.676839  0.400114  1
  Tb  Tb3  1  0.965651  0.823161  0.099846  1
  Tb  Tb4  1  0.465643  0.676839  0.099886  1
  Tb  Tb5  1  0.965651  0.823161  0.400154  1
  Tb  Tb6  1  0.534390  0.323104  0.599977  1
  Tb  Tb7  1  0.034277  0.176724  0.900000  1
  Ho  Ho8  1  0.376551  0.841143  0.879121  1
  Ho  Ho9  1  0.876341  0.658979  0.620882  1
  Ho  Ho10  1  0.623553  0.158913  0.379277  1
  Ho  Ho11  1  0.123543  0.341084  0.120785  1
  Ho  Ho12  1  0.623553  0.158913  0.120723  1
  Ho  Ho13  1  0.123543  0.341084  0.379215  1
  Ho  Ho14  1  0.376551  0.841143  0.620879  1
  Ho  Ho15  1  0.876341  0.658979  0.879118  1
  Ho  Ho16  1  0.208195  0.504303  0.750000  1
  Er  Er17  1  0.708323  0.995494  0.750000  1
  Er  Er18  1  0.791727  0.495587  0.250000  1
  Er  Er19  1  0.291734  0.004466  0.250000  1
  Pb  Pb20  1  0.282366  0.034199  0.042732  1
  Pb  Pb21  1  0.782430  0.465940  0.457250  1
  Pb  Pb22  1  0.717579  0.965770  0.543232  1
  Pb  Pb23  1  0.217603  0.534253  0.957005  1
  Pb  Pb24  1  0.717579  0.965770  0.956768  1
  Pb  Pb25  1  0.217603  0.534253  0.542995  1
  Pb  Pb26  1  0.282366  0.034199  0.457268  1
  Pb  Pb27  1  0.782430  0.465940  0.042750  1
  Pb  Pb28  1  0.571630  0.627038  0.750000  1
  Pb  Pb29  1  0.071277  0.873171  0.750000  1
  Pb  Pb30  1  0.428981  0.373435  0.250000  1
  Pb  Pb31  1  0.928743  0.126652  0.250000  1
  Pb  Pb32  1  0.345909  0.152575  0.750000  1
  Pb  Pb33  1  0.845715  0.346921  0.750000  1
  Pb  Pb34  1  0.653998  0.846763  0.250000  1
  Pb  Pb35  1  0.153918  0.653377  0.250000  1
