# generated using pymatgen
data_Yb5ErAl24Os5Rh3
_symmetry_space_group_name_H-M   'P 1'
_cell_length_a   8.84724001
_cell_length_b   8.84277170
_cell_length_c   9.58912562
_cell_angle_alpha   89.78456931
_cell_angle_beta   89.90742930
_cell_angle_gamma   120.08326978
_symmetry_Int_Tables_number   1
_chemical_formula_structural   Yb5ErAl24Os5Rh3
_chemical_formula_sum   'Yb5 Er1 Al24 Os5 Rh3'
_cell_volume   649.13379213
_cell_formula_units_Z   1
loop_
 _symmetry_equiv_pos_site_id
 _symmetry_equiv_pos_as_xyz
  1  'x, y, z'
loop_
 _atom_site_type_symbol
 _atom_site_label
 _atom_site_symmetry_multiplicity
 _atom_site_fract_x
 _atom_site_fract_y
 _atom_site_fract_z
 _atom_site_occupancy
  Yb  Yb0  1  0.191818  0.386288  0.251621  1
  Yb  Yb1  1  0.809405  0.613116  0.748495  1
  Yb  Yb2  1  0.610508  0.808792  0.250448  1
  Yb  Yb3  1  0.390336  0.190817  0.749703  1
  Yb  Yb4  1  0.196583  0.807162  0.251366  1
  Er  Er5  1  0.803687  0.189466  0.747767  1
  Al  Al6  1  0.334139  0.668077  0.001310  1
  Al  Al7  1  0.666208  0.334082  0.992945  1
  Al  Al8  1  0.666399  0.334091  0.507290  1
  Al  Al9  1  0.332423  0.666786  0.497715  1
  Al  Al10  1  0.160855  0.323488  0.577628  1
  Al  Al11  1  0.839423  0.676240  0.423614  1
  Al  Al12  1  0.675899  0.838321  0.577326  1
  Al  Al13  1  0.836968  0.676056  0.077603  1
  Al  Al14  1  0.324692  0.160724  0.424270  1
  Al  Al15  1  0.162021  0.323398  0.921165  1
  Al  Al16  1  0.162557  0.838338  0.574090  1
  Al  Al17  1  0.324415  0.160529  0.076373  1
  Al  Al18  1  0.836962  0.162511  0.423309  1
  Al  Al19  1  0.676563  0.839598  0.921981  1
  Al  Al20  1  0.835257  0.160258  0.076775  1
  Al  Al21  1  0.165084  0.841219  0.925742  1
  Al  Al22  1  0.560422  0.124794  0.249330  1
  Al  Al23  1  0.438421  0.875754  0.750573  1
  Al  Al24  1  0.876291  0.439857  0.250279  1
  Al  Al25  1  0.121999  0.559458  0.750523  1
  Al  Al26  1  0.562016  0.437766  0.249876  1
  Al  Al27  1  0.439110  0.560730  0.750476  1
  Al  Al28  1  0.999065  0.998392  0.249904  1
  Al  Al29  1  0.000922  0.001080  0.750155  1
  Os  Os30  1  0.501917  0.001927  0.998433  1
  Os  Os31  1  0.501624  0.000654  0.500829  1
  Os  Os32  1  0.999388  0.499429  0.500535  1
  Os  Os33  1  0.999660  0.000204  0.000367  1
  Os  Os34  1  0.999431  0.000374  0.499735  1
  Rh  Rh35  1  0.999181  0.498782  0.999711  1
  Rh  Rh36  1  0.499232  0.500902  0.001098  1
  Rh  Rh37  1  0.499119  0.500544  0.499641  1
