# generated using pymatgen
data_Ho16Cd4Ir3Rh
_symmetry_space_group_name_H-M   'P 1'
_cell_length_a   9.57217032
_cell_length_b   9.57210600
_cell_length_c   9.57163336
_cell_angle_alpha   60.10930114
_cell_angle_beta   60.10988108
_cell_angle_gamma   60.11009544
_symmetry_Int_Tables_number   1
_chemical_formula_structural   Ho16Cd4Ir3Rh
_chemical_formula_sum   'Ho16 Cd4 Ir3 Rh1'
_cell_volume   621.68105266
_cell_formula_units_Z   1
loop_
 _symmetry_equiv_pos_site_id
 _symmetry_equiv_pos_as_xyz
  1  'x, y, z'
loop_
 _atom_site_type_symbol
 _atom_site_label
 _atom_site_symmetry_multiplicity
 _atom_site_fract_x
 _atom_site_fract_y
 _atom_site_fract_z
 _atom_site_occupancy
  Ho  Ho0  1  0.937102  0.937117  0.562840  1
  Ho  Ho1  1  0.563390  0.563392  0.936223  1
  Ho  Ho2  1  0.689292  0.689276  0.310457  1
  Ho  Ho3  1  0.149872  0.550077  0.149886  1
  Ho  Ho4  1  0.689291  0.310460  0.689283  1
  Ho  Ho5  1  0.150098  0.150117  0.150093  1
  Ho  Ho6  1  0.550080  0.149895  0.149868  1
  Ho  Ho7  1  0.689495  0.310730  0.310753  1
  Ho  Ho8  1  0.149864  0.149902  0.550106  1
  Ho  Ho9  1  0.310740  0.689472  0.310747  1
  Ho  Ho10  1  0.310446  0.689278  0.689303  1
  Ho  Ho11  1  0.936245  0.563369  0.563375  1
  Ho  Ho12  1  0.937121  0.562815  0.937125  1
  Ho  Ho13  1  0.563402  0.936221  0.563396  1
  Ho  Ho14  1  0.562856  0.937111  0.937105  1
  Ho  Ho15  1  0.310746  0.310754  0.689488  1
  Cd  Cd16  1  0.918892  0.918898  0.243220  1
  Cd  Cd17  1  0.243232  0.918896  0.918885  1
  Cd  Cd18  1  0.918929  0.918934  0.918936  1
  Cd  Cd19  1  0.918896  0.243222  0.918899  1
  Ir  Ir20  1  0.357620  0.357633  0.927096  1
  Ir  Ir21  1  0.357647  0.927081  0.357618  1
  Ir  Ir22  1  0.927081  0.357653  0.357608  1
  Rh  Rh23  1  0.357662  0.357694  0.357688  1
