# generated using pymatgen
data_Nb12AlGa(Au3N2)2
_symmetry_space_group_name_H-M   'P 1'
_cell_length_a   7.15316697
_cell_length_b   7.14885269
_cell_length_c   7.13916488
_cell_angle_alpha   89.92190833
_cell_angle_beta   90.01589487
_cell_angle_gamma   89.93838981
_symmetry_Int_Tables_number   1
_chemical_formula_structural   Nb12AlGa(Au3N2)2
_chemical_formula_sum   'Nb12 Al1 Ga1 Au6 N4'
_cell_volume   365.07445970
_cell_formula_units_Z   1
loop_
 _symmetry_equiv_pos_site_id
 _symmetry_equiv_pos_as_xyz
  1  'x, y, z'
loop_
 _atom_site_type_symbol
 _atom_site_label
 _atom_site_symmetry_multiplicity
 _atom_site_fract_x
 _atom_site_fract_y
 _atom_site_fract_z
 _atom_site_occupancy
  Nb  Nb0  1  0.786257  0.956630  0.374046  1
  Nb  Nb1  1  0.708207  0.041961  0.876306  1
  Nb  Nb2  1  0.213807  0.456948  0.126000  1
  Nb  Nb3  1  0.292218  0.541710  0.623999  1
  Nb  Nb4  1  0.955086  0.379525  0.786081  1
  Nb  Nb5  1  0.044735  0.880110  0.713762  1
  Nb  Nb6  1  0.459956  0.128357  0.208277  1
  Nb  Nb7  1  0.539866  0.628140  0.292229  1
  Nb  Nb8  1  0.374044  0.788063  0.955972  1
  Nb  Nb9  1  0.873289  0.709596  0.040322  1
  Nb  Nb10  1  0.127242  0.209668  0.459883  1
  Nb  Nb11  1  0.625714  0.288396  0.543700  1
  Al  Al12  1  0.068506  0.069304  0.074503  1
  Ga  Ga13  1  0.932529  0.568149  0.425959  1
  Au  Au14  1  0.169049  0.818434  0.311169  1
  Au  Au15  1  0.303170  0.179175  0.829164  1
  Au  Au16  1  0.831939  0.314845  0.186353  1
  Au  Au17  1  0.695258  0.680042  0.672752  1
  Au  Au18  1  0.568770  0.432755  0.934053  1
  Au  Au19  1  0.430927  0.933194  0.565971  1
  N  N20  1  0.873019  0.123090  0.624609  1
  N  N21  1  0.619560  0.874472  0.123594  1
  N  N22  1  0.126783  0.622618  0.874675  1
  N  N23  1  0.380068  0.374820  0.376622  1
