# generated using pymatgen
data_Gd3Er2(SiB4)2
_symmetry_space_group_name_H-M   'P 1'
_cell_length_a   7.24244008
_cell_length_b   7.24243929
_cell_length_c   8.12308800
_cell_angle_alpha   90.00000000
_cell_angle_beta   90.00000000
_cell_angle_gamma   90.02497539
_symmetry_Int_Tables_number   1
_chemical_formula_structural   Gd3Er2(SiB4)2
_chemical_formula_sum   'Gd6 Er4 Si4 B16'
_cell_volume   426.07974722
_cell_formula_units_Z   2
loop_
 _symmetry_equiv_pos_site_id
 _symmetry_equiv_pos_as_xyz
  1  'x, y, z'
loop_
 _atom_site_type_symbol
 _atom_site_label
 _atom_site_symmetry_multiplicity
 _atom_site_fract_x
 _atom_site_fract_y
 _atom_site_fract_z
 _atom_site_occupancy
  Gd  Gd0  1  0.680399  0.180400  0.226567  1
  Gd  Gd1  1  0.319600  0.819601  0.773433  1
  Gd  Gd2  1  0.319600  0.819601  0.226567  1
  Gd  Gd3  1  0.819402  0.680598  0.226741  1
  Gd  Gd4  1  0.819402  0.680598  0.773259  1
  Gd  Gd5  1  0.680399  0.180400  0.773433  1
  Er  Er6  1  0.180386  0.319614  0.778768  1
  Er  Er7  1  0.180386  0.319614  0.221232  1
  Er  Er8  1  0.000919  0.000931  0.500000  1
  Er  Er9  1  0.499069  0.499081  0.500000  1
  Si  Si10  1  0.116789  0.613062  0.500000  1
  Si  Si11  1  0.886938  0.383211  0.500000  1
  Si  Si12  1  0.382530  0.117470  0.500000  1
  Si  Si13  1  0.613848  0.886152  0.500000  1
  B  B14  1  0.172975  0.040146  0.000000  1
  B  B15  1  0.827991  0.961055  0.000000  1
  B  B16  1  0.961537  0.173055  0.000000  1
  B  B17  1  0.326945  0.538463  0.000000  1
  B  B18  1  0.039477  0.827857  0.000000  1
  B  B19  1  0.672143  0.460523  0.000000  1
  B  B20  1  0.538945  0.672009  0.000000  1
  B  B21  1  0.459854  0.327025  0.000000  1
  B  B22  1  0.089955  0.589323  0.000000  1
  B  B23  1  0.910677  0.410045  0.000000  1
  B  B24  1  0.409757  0.090243  0.000000  1
  B  B25  1  0.590182  0.909818  0.000000  1
  B  B26  1  0.000779  0.000833  0.161349  1
  B  B27  1  0.000779  0.000833  0.838651  1
  B  B28  1  0.499167  0.499221  0.838651  1
  B  B29  1  0.499167  0.499221  0.161349  1
