# generated using pymatgen
data_IrPdCl8
_symmetry_space_group_name_H-M   'P 1'
_cell_length_a   6.56030552
_cell_length_b   7.43541800
_cell_length_c   6.18403632
_cell_angle_alpha   90.00000000
_cell_angle_beta   106.52713354
_cell_angle_gamma   90.00000000
_symmetry_Int_Tables_number   1
_chemical_formula_structural   IrPdCl8
_chemical_formula_sum   'Ir1 Pd1 Cl8'
_cell_volume   289.18614028
_cell_formula_units_Z   1
loop_
 _symmetry_equiv_pos_site_id
 _symmetry_equiv_pos_as_xyz
  1  'x, y, z'
loop_
 _atom_site_type_symbol
 _atom_site_label
 _atom_site_symmetry_multiplicity
 _atom_site_fract_x
 _atom_site_fract_y
 _atom_site_fract_z
 _atom_site_occupancy
  Ir  Ir0  1  0.000000  0.379792  0.250000  1
  Pd  Pd1  1  0.000000  0.615309  0.750000  1
  Cl  Cl2  1  0.804181  0.613200  0.021729  1
  Cl  Cl3  1  0.774814  0.174024  0.038787  1
  Cl  Cl4  1  0.225186  0.174024  0.461213  1
  Cl  Cl5  1  0.195819  0.613200  0.478271  1
  Cl  Cl6  1  0.791254  0.383346  0.507081  1
  Cl  Cl7  1  0.779922  0.831882  0.541358  1
  Cl  Cl8  1  0.220079  0.831882  0.958642  1
  Cl  Cl9  1  0.208747  0.383346  0.992919  1
