# generated using pymatgen
data_Li4B4SeS7O32
_symmetry_space_group_name_H-M   'P 1'
_cell_length_a   9.60966981
_cell_length_b   7.84209556
_cell_length_c   8.58852544
_cell_angle_alpha   87.80730055
_cell_angle_beta   89.57375780
_cell_angle_gamma   89.37018519
_symmetry_Int_Tables_number   1
_chemical_formula_structural   Li4B4SeS7O32
_chemical_formula_sum   'Li4 B4 Se1 S7 O32'
_cell_volume   646.70190672
_cell_formula_units_Z   1
loop_
 _symmetry_equiv_pos_site_id
 _symmetry_equiv_pos_as_xyz
  1  'x, y, z'
loop_
 _atom_site_type_symbol
 _atom_site_label
 _atom_site_symmetry_multiplicity
 _atom_site_fract_x
 _atom_site_fract_y
 _atom_site_fract_z
 _atom_site_occupancy
  Li  Li0  1  0.875937  0.239681  0.466273  1
  Li  Li1  1  0.124563  0.237329  0.967265  1
  Li  Li2  1  0.323048  0.724844  0.137324  1
  Li  Li3  1  0.664914  0.730155  0.619397  1
  B  B4  1  0.599933  0.212761  0.985027  1
  B  B5  1  0.396502  0.217843  0.482332  1
  B  B6  1  0.147208  0.733689  0.605084  1
  B  B7  1  0.859069  0.734722  0.107833  1
  Se  Se8  1  0.623206  0.577522  0.978882  1
  S  S9  1  0.375807  0.571140  0.486119  1
  S  S10  1  0.611264  0.120377  0.677731  1
  S  S11  1  0.386310  0.117337  0.179186  1
  S  S12  1  0.943557  0.647252  0.404347  1
  S  S13  1  0.061508  0.644601  0.904544  1
  S  S14  1  0.160731  0.084057  0.620943  1
  S  S15  1  0.839239  0.084824  0.121047  1
  O  O16  1  0.686973  0.570501  0.802709  1
  O  O17  1  0.323587  0.575434  0.328657  1
  O  O18  1  0.496560  0.710526  0.011202  1
  O  O19  1  0.487980  0.684364  0.518386  1
  O  O20  1  0.707358  0.231688  0.594833  1
  O  O21  1  0.290561  0.229602  0.095462  1
  O  O22  1  0.660340  0.950579  0.720612  1
  O  O23  1  0.336260  0.950541  0.226767  1
  O  O24  1  0.965035  0.466539  0.434626  1
  O  O25  1  0.039090  0.464696  0.935535  1
  O  O26  1  0.815164  0.720072  0.461085  1
  O  O27  1  0.188310  0.714294  0.963519  1
  O  O28  1  0.018098  0.091415  0.570129  1
  O  O29  1  0.981816  0.091511  0.068197  1
  O  O30  1  0.192959  0.158050  0.767254  1
  O  O31  1  0.805992  0.161609  0.266744  1
  O  O32  1  0.568076  0.380092  0.048475  1
  O  O33  1  0.423270  0.390212  0.538929  1
  O  O34  1  0.755367  0.598207  0.114748  1
  O  O35  1  0.254651  0.597388  0.604294  1
  O  O36  1  0.553146  0.211917  0.820934  1
  O  O37  1  0.444747  0.211318  0.319281  1
  O  O38  1  0.477301  0.096703  0.582593  1
  O  O39  1  0.520373  0.087582  0.082535  1
  O  O40  1  0.045986  0.686001  0.728483  1
  O  O41  1  0.963429  0.690341  0.228375  1
  O  O42  1  0.069724  0.749666  0.458204  1
  O  O43  1  0.933812  0.749796  0.957486  1
  O  O44  1  0.750292  0.167354  0.988021  1
  O  O45  1  0.247717  0.170855  0.488125  1
  O  O46  1  0.217076  0.897855  0.628402  1
  O  O47  1  0.786154  0.898878  0.132202  1
