# generated using pymatgen
data_Hf18GaRe2SiMo6
_symmetry_space_group_name_H-M   'P 1'
_cell_length_a   8.65108000
_cell_length_b   8.65108046
_cell_length_c   8.73108800
_cell_angle_alpha   90.00000000
_cell_angle_beta   90.00000000
_cell_angle_gamma   120.00000590
_symmetry_Int_Tables_number   1
_chemical_formula_structural   Hf18GaRe2SiMo6
_chemical_formula_sum   'Hf18 Ga1 Re2 Si1 Mo6'
_cell_volume   565.89994342
_cell_formula_units_Z   1
loop_
 _symmetry_equiv_pos_site_id
 _symmetry_equiv_pos_as_xyz
  1  'x, y, z'
loop_
 _atom_site_type_symbol
 _atom_site_label
 _atom_site_symmetry_multiplicity
 _atom_site_fract_x
 _atom_site_fract_y
 _atom_site_fract_z
 _atom_site_occupancy
  Hf  Hf0  1  0.195435  0.804565  0.455034  1
  Hf  Hf1  1  0.195435  0.390869  0.455034  1
  Hf  Hf2  1  0.609131  0.804565  0.455034  1
  Hf  Hf3  1  0.803690  0.196310  0.545642  1
  Hf  Hf4  1  0.803690  0.607381  0.545642  1
  Hf  Hf5  1  0.392619  0.196310  0.545642  1
  Hf  Hf6  1  0.803690  0.196310  0.954358  1
  Hf  Hf7  1  0.803690  0.607381  0.954358  1
  Hf  Hf8  1  0.392619  0.196310  0.954358  1
  Hf  Hf9  1  0.195435  0.804565  0.044966  1
  Hf  Hf10  1  0.195435  0.390869  0.044966  1
  Hf  Hf11  1  0.609131  0.804565  0.044966  1
  Hf  Hf12  1  0.538664  0.461336  0.250000  1
  Hf  Hf13  1  0.538664  0.077327  0.250000  1
  Hf  Hf14  1  0.922673  0.461336  0.250000  1
  Hf  Hf15  1  0.463109  0.536891  0.750000  1
  Hf  Hf16  1  0.463109  0.926220  0.750000  1
  Hf  Hf17  1  0.073780  0.536891  0.750000  1
  Ga  Ga18  1  0.333333  0.666667  0.250000  1
  Re  Re19  1  0.000000  0.000000  0.499702  1
  Re  Re20  1  0.000000  0.000000  0.000298  1
  Si  Si21  1  0.666667  0.333333  0.750000  1
  Mo  Mo22  1  0.890148  0.109852  0.250000  1
  Mo  Mo23  1  0.890148  0.780296  0.250000  1
  Mo  Mo24  1  0.219704  0.109852  0.250000  1
  Mo  Mo25  1  0.109476  0.890524  0.750000  1
  Mo  Mo26  1  0.109476  0.218952  0.750000  1
  Mo  Mo27  1  0.781048  0.890524  0.750000  1
