# generated using pymatgen
data_Cs7KLi4(TmAs2)4
_symmetry_space_group_name_H-M   'P 1'
_cell_length_a   10.91165897
_cell_length_b   10.91165916
_cell_length_c   6.86177858
_cell_angle_alpha   89.83212300
_cell_angle_beta   90.16787706
_cell_angle_gamma   102.25370055
_symmetry_Int_Tables_number   1
_chemical_formula_structural   Cs7KLi4(TmAs2)4
_chemical_formula_sum   'Cs7 K1 Li4 Tm4 As8'
_cell_volume   798.37401168
_cell_formula_units_Z   1
loop_
 _symmetry_equiv_pos_site_id
 _symmetry_equiv_pos_as_xyz
  1  'x, y, z'
loop_
 _atom_site_type_symbol
 _atom_site_label
 _atom_site_symmetry_multiplicity
 _atom_site_fract_x
 _atom_site_fract_y
 _atom_site_fract_z
 _atom_site_occupancy
  Cs  Cs0  1  0.567112  0.929679  0.750077  1
  Cs  Cs1  1  0.932627  0.568738  0.250426  1
  Cs  Cs2  1  0.431262  0.067373  0.250426  1
  Cs  Cs3  1  0.070321  0.432888  0.750077  1
  Cs  Cs4  1  0.678207  0.321793  0.790968  1
  Cs  Cs5  1  0.823100  0.176900  0.290236  1
  Cs  Cs6  1  0.320808  0.679192  0.210016  1
  K  K7  1  0.162395  0.837605  0.708395  1
  Li  Li8  1  0.618903  0.619671  0.001764  1
  Li  Li9  1  0.882083  0.879276  0.500366  1
  Li  Li10  1  0.380329  0.381097  0.001764  1
  Li  Li11  1  0.120724  0.117917  0.500366  1
  Tm  Tm12  1  0.870482  0.866869  0.000597  1
  Tm  Tm13  1  0.632143  0.631869  0.500169  1
  Tm  Tm14  1  0.133131  0.129518  0.000597  1
  Tm  Tm15  1  0.368131  0.367857  0.500169  1
  As  As16  1  0.335878  0.160144  0.747975  1
  As  As17  1  0.163846  0.334621  0.248846  1
  As  As18  1  0.665379  0.836154  0.248846  1
  As  As19  1  0.839856  0.664122  0.747975  1
  As  As20  1  0.917336  0.082664  0.767914  1
  As  As21  1  0.584088  0.415912  0.268452  1
  As  As22  1  0.087615  0.912385  0.233414  1
  As  As23  1  0.414245  0.585755  0.730166  1
