# generated using pymatgen
data_Zr6TiNb3(Sn3N)2
_symmetry_space_group_name_H-M   'P 1'
_cell_length_a   8.34542300
_cell_length_b   8.34542197
_cell_length_c   5.63766000
_cell_angle_alpha   90.00000000
_cell_angle_beta   90.00000000
_cell_angle_gamma   119.99999219
_symmetry_Int_Tables_number   1
_chemical_formula_structural   Zr6TiNb3(Sn3N)2
_chemical_formula_sum   'Zr6 Ti1 Nb3 Sn6 N2'
_cell_volume   340.03702018
_cell_formula_units_Z   1
loop_
 _symmetry_equiv_pos_site_id
 _symmetry_equiv_pos_as_xyz
  1  'x, y, z'
loop_
 _atom_site_type_symbol
 _atom_site_label
 _atom_site_symmetry_multiplicity
 _atom_site_fract_x
 _atom_site_fract_y
 _atom_site_fract_z
 _atom_site_occupancy
  Zr  Zr0  1  0.777043  0.778006  0.750977  1
  Zr  Zr1  1  0.221994  0.999037  0.750977  1
  Zr  Zr2  1  0.000963  0.222957  0.750977  1
  Zr  Zr3  1  0.221994  0.222957  0.249023  1
  Zr  Zr4  1  0.777043  0.999037  0.249023  1
  Zr  Zr5  1  0.000963  0.778006  0.249023  1
  Ti  Ti6  1  0.666667  0.333333  0.500000  1
  Nb  Nb7  1  0.666667  0.333333  0.000000  1
  Nb  Nb8  1  0.333333  0.666667  0.000000  1
  Nb  Nb9  1  0.333333  0.666667  0.500000  1
  Sn  Sn10  1  0.410957  0.408922  0.748799  1
  Sn  Sn11  1  0.591078  0.002035  0.748799  1
  Sn  Sn12  1  0.997965  0.589043  0.748799  1
  Sn  Sn13  1  0.591078  0.589043  0.251201  1
  Sn  Sn14  1  0.410957  0.002035  0.251201  1
  Sn  Sn15  1  0.997965  0.408922  0.251201  1
  N  N16  1  0.000000  0.000000  0.000000  1
  N  N17  1  0.000000  0.000000  0.500000  1
