# generated using pymatgen
data_Y4Ga18PdRh5
_symmetry_space_group_name_H-M   'P 1'
_cell_length_a   7.59661045
_cell_length_b   7.59660653
_cell_length_c   9.53324317
_cell_angle_alpha   89.98912487
_cell_angle_beta   89.98925071
_cell_angle_gamma   119.84249451
_symmetry_Int_Tables_number   1
_chemical_formula_structural   Y4Ga18PdRh5
_chemical_formula_sum   'Y4 Ga18 Pd1 Rh5'
_cell_volume   477.19716739
_cell_formula_units_Z   1
loop_
 _symmetry_equiv_pos_site_id
 _symmetry_equiv_pos_as_xyz
  1  'x, y, z'
loop_
 _atom_site_type_symbol
 _atom_site_label
 _atom_site_symmetry_multiplicity
 _atom_site_fract_x
 _atom_site_fract_y
 _atom_site_fract_z
 _atom_site_occupancy
  Y  Y0  1  0.997110  0.668287  0.250700  1
  Y  Y1  1  0.002593  0.331530  0.749341  1
  Y  Y2  1  0.668470  0.997407  0.250659  1
  Y  Y3  1  0.331714  0.002891  0.749300  1
  Ga  Ga4  1  0.332433  0.332442  0.563318  1
  Ga  Ga5  1  0.667557  0.667566  0.436681  1
  Ga  Ga6  1  0.667169  0.670108  0.065027  1
  Ga  Ga7  1  0.329892  0.332832  0.934973  1
  Ga  Ga8  1  0.339968  0.547252  0.250363  1
  Ga  Ga9  1  0.660302  0.454497  0.747404  1
  Ga  Ga10  1  0.545503  0.339696  0.252596  1
  Ga  Ga11  1  0.452749  0.660033  0.749638  1
  Ga  Ga12  1  0.003518  0.334369  0.080412  1
  Ga  Ga13  1  0.002590  0.668565  0.919780  1
  Ga  Ga14  1  0.999995  0.665585  0.578802  1
  Ga  Ga15  1  0.334415  0.000004  0.421199  1
  Ga  Ga16  1  0.000098  0.334296  0.420964  1
  Ga  Ga17  1  0.665704  0.999901  0.579034  1
  Ga  Ga18  1  0.665631  0.996482  0.919588  1
  Ga  Ga19  1  0.331436  0.997410  0.080221  1
  Ga  Ga20  1  0.124816  0.124233  0.250271  1
  Ga  Ga21  1  0.875766  0.875184  0.749729  1
  Pd  Pd22  1  0.671559  0.328441  0.000000  1
  Rh  Rh23  1  0.000125  0.999874  0.999999  1
  Rh  Rh24  1  0.999930  0.000069  0.499999  1
  Rh  Rh25  1  0.328858  0.671142  0.000001  1
  Rh  Rh26  1  0.328456  0.671545  0.500001  1
  Rh  Rh27  1  0.671640  0.328361  0.500001  1
