# generated using pymatgen
data_PrNd4Sc15(BO3)20
_symmetry_space_group_name_H-M   'P 1'
_cell_length_a   7.81781755
_cell_length_b   7.81781747
_cell_length_c   18.89306951
_cell_angle_alpha   87.74412593
_cell_angle_beta   87.74412587
_cell_angle_gamma   78.32257151
_symmetry_Int_Tables_number   1
_chemical_formula_structural   PrNd4Sc15(BO3)20
_chemical_formula_sum   'Pr1 Nd4 Sc15 B20 O60'
_cell_volume   1129.35415128
_cell_formula_units_Z   1
loop_
 _symmetry_equiv_pos_site_id
 _symmetry_equiv_pos_as_xyz
  1  'x, y, z'
loop_
 _atom_site_type_symbol
 _atom_site_label
 _atom_site_symmetry_multiplicity
 _atom_site_fract_x
 _atom_site_fract_y
 _atom_site_fract_z
 _atom_site_occupancy
  Pr  Pr0  1  0.999912  0.000088  0.500000  1
  Nd  Nd1  1  0.399990  0.399979  0.699837  1
  Nd  Nd2  1  0.800037  0.799956  0.899981  1
  Nd  Nd3  1  0.200044  0.199963  0.100019  1
  Nd  Nd4  1  0.600021  0.600010  0.300163  1
  Sc  Sc5  1  0.709435  0.162195  0.081119  1
  Sc  Sc6  1  0.109664  0.561947  0.281008  1
  Sc  Sc7  1  0.509637  0.961679  0.480844  1
  Sc  Sc8  1  0.909338  0.362145  0.681051  1
  Sc  Sc9  1  0.309500  0.762171  0.881067  1
  Sc  Sc10  1  0.237829  0.690500  0.118933  1
  Sc  Sc11  1  0.637855  0.090662  0.318949  1
  Sc  Sc12  1  0.038321  0.490363  0.519156  1
  Sc  Sc13  1  0.438053  0.890336  0.718992  1
  Sc  Sc14  1  0.837805  0.290565  0.918881  1
  Sc  Sc15  1  0.252724  0.347283  0.899905  1
  Sc  Sc16  1  0.652717  0.747276  0.100095  1
  Sc  Sc17  1  0.052479  0.147570  0.299851  1
  Sc  Sc18  1  0.452333  0.547667  0.500000  1
  Sc  Sc19  1  0.852430  0.947521  0.700149  1
  B  B20  1  0.500036  0.499964  0.000000  1
  B  B21  1  0.899944  0.899930  0.200058  1
  B  B22  1  0.300156  0.300064  0.399979  1
  B  B23  1  0.699936  0.699844  0.600021  1
  B  B24  1  0.100070  0.100056  0.799942  1
  B  B25  1  0.848718  0.750387  0.400018  1
  B  B26  1  0.249613  0.151282  0.599982  1
  B  B27  1  0.648823  0.550982  0.799909  1
  B  B28  1  0.048939  0.951061  0.000000  1
  B  B29  1  0.449018  0.351177  0.200091  1
  B  B30  1  0.390224  0.939049  0.219605  1
  B  B31  1  0.790238  0.339789  0.419524  1
  B  B32  1  0.190161  0.738695  0.619885  1
  B  B33  1  0.590076  0.139371  0.819447  1
  B  B34  1  0.990192  0.539145  0.019561  1
  B  B35  1  0.660211  0.209762  0.580476  1
  B  B36  1  0.060951  0.609775  0.780395  1
  B  B37  1  0.460855  0.009808  0.980439  1
  B  B38  1  0.860629  0.409924  0.180553  1
  B  B39  1  0.261305  0.809839  0.380115  1
  O  O40  1  0.640499  0.359501  0.000000  1
  O  O41  1  0.040422  0.759421  0.199999  1
  O  O42  1  0.440677  0.159642  0.399990  1
  O  O43  1  0.840358  0.559323  0.600010  1
  O  O44  1  0.240579  0.959578  0.800001  1
  O  O45  1  0.471968  0.612282  0.056211  1
  O  O46  1  0.871840  0.012150  0.256277  1
  O  O47  1  0.272000  0.412623  0.456109  1
  O  O48  1  0.672006  0.812196  0.656238  1
  O  O49  1  0.071846  0.212335  0.856159  1
  O  O50  1  0.387718  0.528032  0.943789  1
  O  O51  1  0.787665  0.928154  0.143841  1
  O  O52  1  0.187804  0.327994  0.343762  1
  O  O53  1  0.587377  0.728000  0.543891  1
  O  O54  1  0.987850  0.128160  0.743723  1
  O  O55  1  0.908577  0.091423  0.000000  1
  O  O56  1  0.308545  0.491490  0.200035  1
  O  O57  1  0.708838  0.891312  0.399982  1
  O  O58  1  0.108688  0.291162  0.600018  1
  O  O59  1  0.508510  0.691455  0.799965  1
  O  O60  1  0.418207  0.826985  0.163360  1
  O  O61  1  0.818246  0.226734  0.363590  1
  O  O62  1  0.218393  0.626873  0.563573  1
  O  O63  1  0.618219  0.026983  0.763345  1
  O  O64  1  0.018257  0.426899  0.963401  1
  O  O65  1  0.173015  0.581793  0.836640  1
  O  O66  1  0.573101  0.981743  0.036599  1
  O  O67  1  0.973017  0.381781  0.236655  1
  O  O68  1  0.373127  0.781607  0.436427  1
  O  O69  1  0.773266  0.181754  0.636410  1
  O  O70  1  0.079675  0.850163  0.940508  1
  O  O71  1  0.479704  0.250197  0.140639  1
  O  O72  1  0.879495  0.649924  0.340394  1
  O  O73  1  0.281063  0.050790  0.540504  1
  O  O74  1  0.679404  0.450162  0.740416  1
  O  O75  1  0.712615  0.114139  0.871714  1
  O  O76  1  0.112816  0.513930  0.071821  1
  O  O77  1  0.512841  0.913783  0.271846  1
  O  O78  1  0.912879  0.315607  0.471614  1
  O  O79  1  0.313294  0.713588  0.671934  1
  O  O80  1  0.730230  0.558888  0.180242  1
  O  O81  1  0.131423  0.958860  0.379407  1
  O  O82  1  0.530133  0.358991  0.580074  1
  O  O83  1  0.930472  0.758653  0.779995  1
  O  O84  1  0.330386  0.158707  0.980009  1
  O  O85  1  0.441112  0.269770  0.819758  1
  O  O86  1  0.841293  0.669614  0.019991  1
  O  O87  1  0.241347  0.069528  0.220005  1
  O  O88  1  0.641009  0.469867  0.419926  1
  O  O89  1  0.041140  0.868577  0.620593  1
  O  O90  1  0.149837  0.920325  0.059492  1
  O  O91  1  0.549838  0.320596  0.259584  1
  O  O92  1  0.949210  0.718937  0.459496  1
  O  O93  1  0.350076  0.120505  0.659606  1
  O  O94  1  0.749803  0.520296  0.859361  1
  O  O95  1  0.885861  0.287385  0.128286  1
  O  O96  1  0.286412  0.686706  0.328066  1
  O  O97  1  0.684393  0.087121  0.528386  1
  O  O98  1  0.086217  0.487159  0.728154  1
  O  O99  1  0.486070  0.887184  0.928179  1
