# generated using pymatgen
data_LuCo4ReSi2P
_symmetry_space_group_name_H-M   'P 1'
_cell_length_a   3.72412300
_cell_length_b   10.38362900
_cell_length_c   11.86679300
_cell_angle_alpha   90.00000000
_cell_angle_beta   90.00000000
_cell_angle_gamma   90.00000000
_symmetry_Int_Tables_number   1
_chemical_formula_structural   LuCo4ReSi2P
_chemical_formula_sum   'Lu4 Co16 Re4 Si8 P4'
_cell_volume   458.88783608
_cell_formula_units_Z   4
loop_
 _symmetry_equiv_pos_site_id
 _symmetry_equiv_pos_as_xyz
  1  'x, y, z'
loop_
 _atom_site_type_symbol
 _atom_site_label
 _atom_site_symmetry_multiplicity
 _atom_site_fract_x
 _atom_site_fract_y
 _atom_site_fract_z
 _atom_site_occupancy
  Lu  Lu0  1  0.250000  0.579044  0.704384  1
  Lu  Lu1  1  0.250000  0.920956  0.204384  1
  Lu  Lu2  1  0.750000  0.420956  0.295616  1
  Lu  Lu3  1  0.750000  0.079044  0.795616  1
  Co  Co4  1  0.250000  0.409786  0.488914  1
  Co  Co5  1  0.250000  0.090214  0.988914  1
  Co  Co6  1  0.750000  0.590214  0.511086  1
  Co  Co7  1  0.750000  0.909786  0.011086  1
  Co  Co8  1  0.250000  0.214190  0.173738  1
  Co  Co9  1  0.250000  0.285810  0.673738  1
  Co  Co10  1  0.750000  0.785810  0.826262  1
  Co  Co11  1  0.750000  0.714190  0.326262  1
  Co  Co12  1  0.250000  0.884517  0.702332  1
  Co  Co13  1  0.250000  0.615483  0.202332  1
  Co  Co14  1  0.750000  0.115483  0.297668  1
  Co  Co15  1  0.750000  0.384517  0.797668  1
  Co  Co16  1  0.250000  0.467072  0.932360  1
  Co  Co17  1  0.250000  0.032928  0.432360  1
  Co  Co18  1  0.750000  0.532928  0.067640  1
  Co  Co19  1  0.750000  0.967072  0.567640  1
  Re  Re20  1  0.250000  0.707816  0.988853  1
  Re  Re21  1  0.250000  0.792184  0.488853  1
  Re  Re22  1  0.750000  0.292184  0.011147  1
  Re  Re23  1  0.750000  0.207816  0.511147  1
  Si  Si24  1  0.250000  0.417669  0.115363  1
  Si  Si25  1  0.250000  0.082331  0.615363  1
  Si  Si26  1  0.750000  0.582331  0.884637  1
  Si  Si27  1  0.750000  0.917669  0.384637  1
  Si  Si28  1  0.250000  0.266842  0.864990  1
  Si  Si29  1  0.250000  0.233158  0.364990  1
  Si  Si30  1  0.750000  0.733158  0.135010  1
  Si  Si31  1  0.750000  0.766842  0.635010  1
  P  P32  1  0.250000  0.596623  0.390781  1
  P  P33  1  0.250000  0.903377  0.890781  1
  P  P34  1  0.750000  0.403377  0.609219  1
  P  P35  1  0.750000  0.096623  0.109219  1
