# generated using pymatgen
data_Ho8TmZn4
_symmetry_space_group_name_H-M   'P 1'
_cell_length_a   8.55762712
_cell_length_b   8.55762643
_cell_length_c   8.55793617
_cell_angle_alpha   94.97781417
_cell_angle_beta   94.97114926
_cell_angle_gamma   145.74795888
_symmetry_Int_Tables_number   1
_chemical_formula_structural   Ho8TmZn4
_chemical_formula_sum   'Ho8 Tm1 Zn4'
_cell_volume   337.10169726
_cell_formula_units_Z   1
loop_
 _symmetry_equiv_pos_site_id
 _symmetry_equiv_pos_as_xyz
  1  'x, y, z'
loop_
 _atom_site_type_symbol
 _atom_site_label
 _atom_site_symmetry_multiplicity
 _atom_site_fract_x
 _atom_site_fract_y
 _atom_site_fract_z
 _atom_site_occupancy
  Ho  Ho0  1  0.181909  0.888199  0.070109  1
  Ho  Ho1  1  0.111783  0.181913  0.293696  1
  Ho  Ho2  1  0.882789  0.401718  0.284509  1
  Ho  Ho3  1  0.598290  0.882790  0.481082  1
  Ho  Ho4  1  0.401709  0.117209  0.518917  1
  Ho  Ho5  1  0.117210  0.598281  0.715491  1
  Ho  Ho6  1  0.888216  0.818086  0.706304  1
  Ho  Ho7  1  0.818090  0.111800  0.929891  1
  Tm  Tm8  1  0.499999  0.499999  0.000000  1
  Zn  Zn9  1  0.392948  0.735157  0.128107  1
  Zn  Zn10  1  0.735126  0.607072  0.342202  1
  Zn  Zn11  1  0.264873  0.392927  0.657798  1
  Zn  Zn12  1  0.607051  0.264842  0.871893  1
