# generated using pymatgen
data_Tb2Ho2MnTc7
_symmetry_space_group_name_H-M   'P 1'
_cell_length_a   5.33253657
_cell_length_b   5.33359753
_cell_length_c   8.96162501
_cell_angle_alpha   89.99918229
_cell_angle_beta   89.99701192
_cell_angle_gamma   120.04653534
_symmetry_Int_Tables_number   1
_chemical_formula_structural   Tb2Ho2MnTc7
_chemical_formula_sum   'Tb2 Ho2 Mn1 Tc7'
_cell_volume   220.63156219
_cell_formula_units_Z   1
loop_
 _symmetry_equiv_pos_site_id
 _symmetry_equiv_pos_as_xyz
  1  'x, y, z'
loop_
 _atom_site_type_symbol
 _atom_site_label
 _atom_site_symmetry_multiplicity
 _atom_site_fract_x
 _atom_site_fract_y
 _atom_site_fract_z
 _atom_site_occupancy
  Tb  Tb0  1  0.666620  0.333359  0.564709  1
  Tb  Tb1  1  0.333380  0.666641  0.435291  1
  Ho  Ho2  1  0.333361  0.666669  0.063744  1
  Ho  Ho3  1  0.666639  0.333331  0.936256  1
  Mn  Mn4  1  0.000000  0.000000  0.000000  1
  Tc  Tc5  1  0.000000  0.000000  0.500000  1
  Tc  Tc6  1  0.170366  0.340633  0.753352  1
  Tc  Tc7  1  0.170178  0.829828  0.753354  1
  Tc  Tc8  1  0.659367  0.829637  0.753350  1
  Tc  Tc9  1  0.829634  0.659367  0.246648  1
  Tc  Tc10  1  0.829822  0.170172  0.246646  1
  Tc  Tc11  1  0.340633  0.170363  0.246650  1
