# generated using pymatgen
data_Zn2Co(AsO4)2
_symmetry_space_group_name_H-M   'P 1'
_cell_length_a   7.91521326
_cell_length_b   8.61707100
_cell_length_c   5.34652300
_cell_angle_alpha   90.00000000
_cell_angle_beta   96.87955257
_cell_angle_gamma   90.00000000
_symmetry_Int_Tables_number   1
_chemical_formula_structural   Zn2Co(AsO4)2
_chemical_formula_sum   'Zn4 Co2 As4 O16'
_cell_volume   362.03917532
_cell_formula_units_Z   2
loop_
 _symmetry_equiv_pos_site_id
 _symmetry_equiv_pos_as_xyz
  1  'x, y, z'
loop_
 _atom_site_type_symbol
 _atom_site_label
 _atom_site_symmetry_multiplicity
 _atom_site_fract_x
 _atom_site_fract_y
 _atom_site_fract_z
 _atom_site_occupancy
  Zn  Zn0  1  0.611918  0.139811  0.092921  1
  Zn  Zn1  1  0.888082  0.639812  0.407079  1
  Zn  Zn2  1  0.111919  0.360188  0.592922  1
  Zn  Zn3  1  0.388081  0.860188  0.907080  1
  Co  Co4  1  0.500001  0.500001  0.000000  1
  Co  Co5  1  0.000000  0.000000  0.500000  1
  As  As6  1  0.195446  0.192439  0.046083  1
  As  As7  1  0.304554  0.692439  0.453915  1
  As  As8  1  0.695447  0.307560  0.546084  1
  As  As9  1  0.804554  0.807561  0.953916  1
  O  O10  1  0.742528  0.629260  0.068617  1
  O  O11  1  0.365518  0.065677  0.072716  1
  O  O12  1  0.963695  0.859722  0.185069  1
  O  O13  1  0.380753  0.695067  0.164938  1
  O  O14  1  0.119247  0.195066  0.335060  1
  O  O15  1  0.536305  0.359722  0.314932  1
  O  O16  1  0.134483  0.565678  0.427284  1
  O  O17  1  0.757471  0.129260  0.431382  1
  O  O18  1  0.242529  0.870740  0.568617  1
  O  O19  1  0.865518  0.434322  0.572717  1
  O  O20  1  0.463695  0.640278  0.685069  1
  O  O21  1  0.880753  0.804933  0.664939  1
  O  O22  1  0.619247  0.304933  0.835061  1
  O  O23  1  0.036305  0.140279  0.814932  1
  O  O24  1  0.634482  0.934323  0.927283  1
  O  O25  1  0.257472  0.370740  0.931382  1
