# generated using pymatgen
data_Mg2Zn2P6N13
_symmetry_space_group_name_H-M   'P 1'
_cell_length_a   7.05074503
_cell_length_b   7.05074585
_cell_length_c   7.04020562
_cell_angle_alpha   109.51942820
_cell_angle_beta   109.51942780
_cell_angle_gamma   109.43553029
_symmetry_Int_Tables_number   1
_chemical_formula_structural   Mg2Zn2P6N13
_chemical_formula_sum   'Mg2 Zn2 P6 N13'
_cell_volume   269.22004619
_cell_formula_units_Z   1
loop_
 _symmetry_equiv_pos_site_id
 _symmetry_equiv_pos_as_xyz
  1  'x, y, z'
loop_
 _atom_site_type_symbol
 _atom_site_label
 _atom_site_symmetry_multiplicity
 _atom_site_fract_x
 _atom_site_fract_y
 _atom_site_fract_z
 _atom_site_occupancy
  Mg  Mg0  1  0.000885  0.707567  0.000000  1
  Mg  Mg1  1  0.707567  0.000885  0.000000  1
  Zn  Zn2  1  0.001216  0.001216  0.715196  1
  Zn  Zn3  1  0.286020  0.286020  0.284804  1
  P  P4  1  0.498078  0.249087  0.749495  1
  P  P5  1  0.499592  0.748582  0.250505  1
  P  P6  1  0.748582  0.499592  0.250505  1
  P  P7  1  0.250230  0.750230  0.500000  1
  P  P8  1  0.750230  0.250230  0.500000  1
  P  P9  1  0.249087  0.498078  0.749495  1
  N  N10  1  0.000026  0.734392  0.456594  1
  N  N11  1  0.277797  0.543432  0.543406  1
  N  N12  1  0.732210  0.455456  0.000000  1
  N  N13  1  0.268188  0.724669  0.268238  1
  N  N14  1  0.456431  0.999950  0.731762  1
  N  N15  1  0.724669  0.268188  0.268238  1
  N  N16  1  0.543432  0.277797  0.543406  1
  N  N17  1  0.734392  0.000026  0.456594  1
  N  N18  1  0.264817  0.264817  0.721722  1
  N  N19  1  0.455456  0.732210  0.000000  1
  N  N20  1  0.543096  0.543096  0.278278  1
  N  N21  1  0.999950  0.456431  0.731762  1
  N  N22  1  0.008050  0.008050  0.000000  1
