# generated using pymatgen
data_Ho16Hg4RuPt3
_symmetry_space_group_name_H-M   'P 1'
_cell_length_a   9.61036529
_cell_length_b   9.61036467
_cell_length_c   9.61036506
_cell_angle_alpha   59.65000559
_cell_angle_beta   59.65001120
_cell_angle_gamma   59.65000443
_symmetry_Int_Tables_number   1
_chemical_formula_structural   Ho16Hg4RuPt3
_chemical_formula_sum   'Ho16 Hg4 Ru1 Pt3'
_cell_volume   622.64014520
_cell_formula_units_Z   1
loop_
 _symmetry_equiv_pos_site_id
 _symmetry_equiv_pos_as_xyz
  1  'x, y, z'
loop_
 _atom_site_type_symbol
 _atom_site_label
 _atom_site_symmetry_multiplicity
 _atom_site_fract_x
 _atom_site_fract_y
 _atom_site_fract_z
 _atom_site_occupancy
  Ho  Ho0  1  0.603059  0.603059  0.603059  1
  Ho  Ho1  1  0.601817  0.601817  0.192602  1
  Ho  Ho2  1  0.601817  0.192602  0.601817  1
  Ho  Ho3  1  0.192602  0.601817  0.601817  1
  Ho  Ho4  1  0.064571  0.439110  0.439110  1
  Ho  Ho5  1  0.439341  0.059475  0.059475  1
  Ho  Ho6  1  0.439110  0.064571  0.439110  1
  Ho  Ho7  1  0.059475  0.439341  0.059475  1
  Ho  Ho8  1  0.439110  0.439110  0.064571  1
  Ho  Ho9  1  0.059475  0.059475  0.439341  1
  Ho  Ho10  1  0.186414  0.814896  0.814896  1
  Ho  Ho11  1  0.810277  0.186837  0.186837  1
  Ho  Ho12  1  0.814896  0.186414  0.814896  1
  Ho  Ho13  1  0.186837  0.810277  0.186837  1
  Ho  Ho14  1  0.814896  0.814896  0.186414  1
  Ho  Ho15  1  0.186837  0.186837  0.810277  1
  Hg  Hg16  1  0.834066  0.834066  0.834066  1
  Hg  Hg17  1  0.835394  0.835394  0.492032  1
  Hg  Hg18  1  0.835394  0.492032  0.835394  1
  Hg  Hg19  1  0.492032  0.835394  0.835394  1
  Ru  Ru20  1  0.393756  0.393756  0.393756  1
  Pt  Pt21  1  0.393797  0.393797  0.821227  1
  Pt  Pt22  1  0.393797  0.821227  0.393797  1
  Pt  Pt23  1  0.821227  0.393797  0.393797  1
