# generated using pymatgen
data_AcSb5(ClO4)2
_symmetry_space_group_name_H-M   'P 1'
_cell_length_a   5.70106400
_cell_length_b   5.67611877
_cell_length_c   9.05505000
_cell_angle_alpha   87.66578121
_cell_angle_beta   90.00000000
_cell_angle_gamma   90.00000000
_symmetry_Int_Tables_number   1
_chemical_formula_structural   AcSb5(ClO4)2
_chemical_formula_sum   'Ac1 Sb5 Cl2 O8'
_cell_volume   292.77752638
_cell_formula_units_Z   1
loop_
 _symmetry_equiv_pos_site_id
 _symmetry_equiv_pos_as_xyz
  1  'x, y, z'
loop_
 _atom_site_type_symbol
 _atom_site_label
 _atom_site_symmetry_multiplicity
 _atom_site_fract_x
 _atom_site_fract_y
 _atom_site_fract_z
 _atom_site_occupancy
  Ac  Ac0  1  0.749107  0.750000  0.500000  1
  Sb  Sb1  1  0.694953  0.296134  0.801304  1
  Sb  Sb2  1  0.168141  0.250000  0.500000  1
  Sb  Sb3  1  0.694953  0.203866  0.198696  1
  Sb  Sb4  1  0.303295  0.692658  0.201245  1
  Sb  Sb5  1  0.303295  0.807342  0.798755  1
  Cl  Cl6  1  0.760336  0.750000  0.000000  1
  Cl  Cl7  1  0.257046  0.250000  0.000000  1
  O  O8  1  0.092879  0.914004  0.634989  1
  O  O9  1  0.092879  0.585996  0.365011  1
  O  O10  1  0.917799  0.112724  0.366435  1
  O  O11  1  0.917799  0.387276  0.633565  1
  O  O12  1  0.473961  0.536229  0.695407  1
  O  O13  1  0.549798  0.475916  0.302409  1
  O  O14  1  0.473961  0.963771  0.304593  1
  O  O15  1  0.549798  0.024084  0.697591  1
