# generated using pymatgen
data_Dy3Er3Tm2(InAu2)4
_symmetry_space_group_name_H-M   'P 1'
_cell_length_a   8.00060940
_cell_length_b   8.00060864
_cell_length_c   7.30233200
_cell_angle_alpha   90.00000000
_cell_angle_beta   90.00000000
_cell_angle_gamma   90.22307866
_symmetry_Int_Tables_number   1
_chemical_formula_structural   Dy3Er3Tm2(InAu2)4
_chemical_formula_sum   'Dy3 Er3 Tm2 In4 Au8'
_cell_volume   467.41686406
_cell_formula_units_Z   1
loop_
 _symmetry_equiv_pos_site_id
 _symmetry_equiv_pos_as_xyz
  1  'x, y, z'
loop_
 _atom_site_type_symbol
 _atom_site_label
 _atom_site_symmetry_multiplicity
 _atom_site_fract_x
 _atom_site_fract_y
 _atom_site_fract_z
 _atom_site_occupancy
  Dy  Dy0  1  0.840586  0.159835  0.500000  1
  Dy  Dy1  1  0.159835  0.840586  0.500000  1
  Dy  Dy2  1  0.678882  0.678882  0.500000  1
  Er  Er3  1  0.321280  0.321280  0.500000  1
  Er  Er4  1  0.179092  0.821772  0.000000  1
  Er  Er5  1  0.821772  0.179092  0.000000  1
  Tm  Tm6  1  0.340931  0.340931  0.000000  1
  Tm  Tm7  1  0.658439  0.658439  0.000000  1
  In  In8  1  0.500104  0.000264  0.249244  1
  In  In9  1  0.000264  0.500104  0.750756  1
  In  In10  1  0.500104  0.000264  0.750756  1
  In  In11  1  0.000264  0.500104  0.249244  1
  Au  Au12  1  0.627926  0.370364  0.266498  1
  Au  Au13  1  0.370364  0.627926  0.266498  1
  Au  Au14  1  0.130274  0.130274  0.772017  1
  Au  Au15  1  0.870658  0.870658  0.774065  1
  Au  Au16  1  0.370364  0.627926  0.733502  1
  Au  Au17  1  0.627926  0.370364  0.733502  1
  Au  Au18  1  0.870658  0.870658  0.225935  1
  Au  Au19  1  0.130274  0.130274  0.227983  1
