# generated using pymatgen
data_La7Pr5(SnRu)8
_symmetry_space_group_name_H-M   'P 1'
_cell_length_a   5.98377960
_cell_length_b   8.64404128
_cell_length_c   13.96948092
_cell_angle_alpha   90.02900702
_cell_angle_beta   90.02921115
_cell_angle_gamma   90.07845471
_symmetry_Int_Tables_number   1
_chemical_formula_structural   La7Pr5(SnRu)8
_chemical_formula_sum   'La7 Pr5 Sn8 Ru8'
_cell_volume   722.55709670
_cell_formula_units_Z   1
loop_
 _symmetry_equiv_pos_site_id
 _symmetry_equiv_pos_as_xyz
  1  'x, y, z'
loop_
 _atom_site_type_symbol
 _atom_site_label
 _atom_site_symmetry_multiplicity
 _atom_site_fract_x
 _atom_site_fract_y
 _atom_site_fract_z
 _atom_site_occupancy
  La  La0  1  0.165455  0.909382  0.590810  1
  La  La1  1  0.834621  0.091044  0.090106  1
  La  La2  1  0.165005  0.591213  0.409118  1
  La  La3  1  0.835650  0.410435  0.909972  1
  La  La4  1  0.835282  0.091077  0.409133  1
  La  La5  1  0.163757  0.908029  0.909955  1
  La  La6  1  0.835347  0.408615  0.590569  1
  Pr  Pr7  1  0.160726  0.592652  0.094917  1
  Pr  Pr8  1  0.372913  0.280366  0.750447  1
  Pr  Pr9  1  0.627112  0.717904  0.249726  1
  Pr  Pr10  1  0.373119  0.219683  0.249804  1
  Pr  Pr11  1  0.627820  0.780116  0.750188  1
  Sn  Sn12  1  0.874895  0.121110  0.750467  1
  Sn  Sn13  1  0.124675  0.878917  0.249717  1
  Sn  Sn14  1  0.876912  0.378650  0.249682  1
  Sn  Sn15  1  0.124913  0.620848  0.749372  1
  Sn  Sn16  1  0.368297  0.249793  0.500100  1
  Sn  Sn17  1  0.628911  0.748972  0.000605  1
  Sn  Sn18  1  0.632161  0.750087  0.499715  1
  Sn  Sn19  1  0.366194  0.252478  0.000612  1
  Ru  Ru20  1  0.653011  0.031119  0.586616  1
  Ru  Ru21  1  0.345472  0.969146  0.086231  1
  Ru  Ru22  1  0.653593  0.468396  0.413068  1
  Ru  Ru23  1  0.352806  0.530281  0.909298  1
  Ru  Ru24  1  0.347470  0.968664  0.412902  1
  Ru  Ru25  1  0.651836  0.030603  0.913861  1
  Ru  Ru26  1  0.347163  0.531454  0.586063  1
  Ru  Ru27  1  0.654883  0.468961  0.086946  1
