# generated using pymatgen
data_Tl3In2Bi(TeO6)3
_symmetry_space_group_name_H-M   'P 1'
_cell_length_a   9.19231100
_cell_length_b   9.21382129
_cell_length_c   5.10570435
_cell_angle_alpha   89.81209050
_cell_angle_beta   90.00000000
_cell_angle_gamma   119.92280672
_symmetry_Int_Tables_number   1
_chemical_formula_structural   Tl3In2Bi(TeO6)3
_chemical_formula_sum   'Tl3 In2 Bi1 Te3 O18'
_cell_volume   374.78738994
_cell_formula_units_Z   1
loop_
 _symmetry_equiv_pos_site_id
 _symmetry_equiv_pos_as_xyz
  1  'x, y, z'
loop_
 _atom_site_type_symbol
 _atom_site_label
 _atom_site_symmetry_multiplicity
 _atom_site_fract_x
 _atom_site_fract_y
 _atom_site_fract_z
 _atom_site_occupancy
  Tl  Tl0  1  0.999607  0.624301  0.002572  1
  Tl  Tl1  1  0.375306  0.375699  0.997428  1
  Tl  Tl2  1  0.285510  0.000000  0.500000  1
  In  In3  1  0.000036  0.290266  0.497307  1
  In  In4  1  0.709769  0.709734  0.502693  1
  Bi  Bi5  1  0.624407  0.000000  0.000000  1
  Te  Te6  1  0.999470  0.000000  0.000000  1
  Te  Te7  1  0.329756  0.660544  0.506600  1
  Te  Te8  1  0.669213  0.339456  0.493400  1
  O  O9  1  0.081829  0.878836  0.791137  1
  O  O10  1  0.111646  0.196963  0.774056  1
  O  O11  1  0.796113  0.910163  0.785749  1
  O  O12  1  0.202992  0.121164  0.208863  1
  O  O13  1  0.914683  0.803037  0.225944  1
  O  O14  1  0.885949  0.089837  0.214251  1
  O  O15  1  0.464457  0.596724  0.730229  1
  O  O16  1  0.398001  0.859205  0.719753  1
  O  O17  1  0.128243  0.530580  0.720757  1
  O  O18  1  0.867732  0.403276  0.269771  1
  O  O19  1  0.538795  0.140795  0.280247  1
  O  O20  1  0.597662  0.469420  0.279243  1
  O  O21  1  0.227435  0.757313  0.277656  1
  O  O22  1  0.236447  0.456443  0.294557  1
  O  O23  1  0.538469  0.772121  0.299981  1
  O  O24  1  0.470122  0.242687  0.722344  1
  O  O25  1  0.780004  0.543557  0.705443  1
  O  O26  1  0.766348  0.227879  0.700019  1
