# generated using pymatgen
data_TbEuReH6
_symmetry_space_group_name_H-M   'P 1'
_cell_length_a   5.15926340
_cell_length_b   5.15926359
_cell_length_c   5.15926300
_cell_angle_alpha   59.99999740
_cell_angle_beta   59.99999618
_cell_angle_gamma   59.99999867
_symmetry_Int_Tables_number   1
_chemical_formula_structural   TbEuReH6
_chemical_formula_sum   'Tb1 Eu1 Re1 H6'
_cell_volume   97.10644655
_cell_formula_units_Z   1
loop_
 _symmetry_equiv_pos_site_id
 _symmetry_equiv_pos_as_xyz
  1  'x, y, z'
loop_
 _atom_site_type_symbol
 _atom_site_label
 _atom_site_symmetry_multiplicity
 _atom_site_fract_x
 _atom_site_fract_y
 _atom_site_fract_z
 _atom_site_occupancy
  Tb  Tb0  1  0.750000  0.750000  0.750000  1
  Eu  Eu1  1  0.250000  0.250000  0.250000  1
  Re  Re2  1  0.000000  0.000000  0.000000  1
  H  H3  1  0.754292  0.754292  0.245708  1
  H  H4  1  0.245708  0.754292  0.245708  1
  H  H5  1  0.754292  0.245708  0.245708  1
  H  H6  1  0.245708  0.245708  0.754292  1
  H  H7  1  0.754292  0.245708  0.754292  1
  H  H8  1  0.245708  0.754292  0.754292  1
