# generated using pymatgen
data_YbSc6BBr12
_symmetry_space_group_name_H-M   'P 1'
_cell_length_a   8.65646457
_cell_length_b   8.65646602
_cell_length_c   8.65646578
_cell_angle_alpha   106.43612409
_cell_angle_beta   106.43612669
_cell_angle_gamma   106.43613480
_symmetry_Int_Tables_number   1
_chemical_formula_structural   YbSc6BBr12
_chemical_formula_sum   'Yb1 Sc6 B1 Br12'
_cell_volume   548.31341254
_cell_formula_units_Z   1
loop_
 _symmetry_equiv_pos_site_id
 _symmetry_equiv_pos_as_xyz
  1  'x, y, z'
loop_
 _atom_site_type_symbol
 _atom_site_label
 _atom_site_symmetry_multiplicity
 _atom_site_fract_x
 _atom_site_fract_y
 _atom_site_fract_z
 _atom_site_occupancy
  Yb  Yb0  1  0.500000  0.500000  0.500000  1
  Sc  Sc1  1  0.292179  0.092378  0.020880  1
  Sc  Sc2  1  0.092378  0.020880  0.292179  1
  Sc  Sc3  1  0.020880  0.292179  0.092378  1
  Sc  Sc4  1  0.707821  0.907622  0.979120  1
  Sc  Sc5  1  0.907622  0.979120  0.707821  1
  Sc  Sc6  1  0.979120  0.707821  0.907622  1
  B  B7  1  0.000000  0.000000  0.000000  1
  Br  Br8  1  0.221153  0.073097  0.682174  1
  Br  Br9  1  0.073097  0.682174  0.221153  1
  Br  Br10  1  0.682174  0.221153  0.073097  1
  Br  Br11  1  0.778847  0.926903  0.317826  1
  Br  Br12  1  0.926903  0.317826  0.778847  1
  Br  Br13  1  0.317826  0.778847  0.926903  1
  Br  Br14  1  0.366770  0.443631  0.137621  1
  Br  Br15  1  0.443631  0.137621  0.366770  1
  Br  Br16  1  0.137621  0.366770  0.443631  1
  Br  Br17  1  0.633230  0.556369  0.862379  1
  Br  Br18  1  0.556369  0.862379  0.633230  1
  Br  Br19  1  0.862379  0.633230  0.556369  1
