# generated using pymatgen
data_Tb3Sn3Ir2Au
_symmetry_space_group_name_H-M   'P 1'
_cell_length_a   7.52828800
_cell_length_b   7.52828780
_cell_length_c   4.05482600
_cell_angle_alpha   90.00000000
_cell_angle_beta   90.00000000
_cell_angle_gamma   119.99999210
_symmetry_Int_Tables_number   1
_chemical_formula_structural   Tb3Sn3Ir2Au
_chemical_formula_sum   'Tb3 Sn3 Ir2 Au1'
_cell_volume   199.01936087
_cell_formula_units_Z   1
loop_
 _symmetry_equiv_pos_site_id
 _symmetry_equiv_pos_as_xyz
  1  'x, y, z'
loop_
 _atom_site_type_symbol
 _atom_site_label
 _atom_site_symmetry_multiplicity
 _atom_site_fract_x
 _atom_site_fract_y
 _atom_site_fract_z
 _atom_site_occupancy
  Tb  Tb0  1  0.602239  0.014309  0.000000  1
  Tb  Tb1  1  0.985691  0.587929  0.000000  1
  Tb  Tb2  1  0.412071  0.397761  0.000000  1
  Sn  Sn3  1  0.255665  0.004762  0.500000  1
  Sn  Sn4  1  0.995238  0.250903  0.500000  1
  Sn  Sn5  1  0.749097  0.744335  0.500000  1
  Ir  Ir6  1  0.666667  0.333333  0.500000  1
  Ir  Ir7  1  0.000000  0.000000  0.000000  1
  Au  Au8  1  0.333333  0.666667  0.500000  1
