# generated using pymatgen
data_Ta20Al9Pd
_symmetry_space_group_name_H-M   'P 1'
_cell_length_a   9.91217000
_cell_length_b   9.91217005
_cell_length_c   5.21753400
_cell_angle_alpha   90.00000000
_cell_angle_beta   90.00000000
_cell_angle_gamma   90.21074036
_symmetry_Int_Tables_number   1
_chemical_formula_structural   Ta20Al9Pd
_chemical_formula_sum   'Ta20 Al9 Pd1'
_cell_volume   512.62506336
_cell_formula_units_Z   1
loop_
 _symmetry_equiv_pos_site_id
 _symmetry_equiv_pos_as_xyz
  1  'x, y, z'
loop_
 _atom_site_type_symbol
 _atom_site_label
 _atom_site_symmetry_multiplicity
 _atom_site_fract_x
 _atom_site_fract_y
 _atom_site_fract_z
 _atom_site_occupancy
  Ta  Ta0  1  0.897872  0.102128  0.500000  1
  Ta  Ta1  1  0.102128  0.897872  0.500000  1
  Ta  Ta2  1  0.399393  0.399393  0.000000  1
  Ta  Ta3  1  0.600607  0.600607  0.000000  1
  Ta  Ta4  1  0.964156  0.370890  0.500000  1
  Ta  Ta5  1  0.035844  0.629110  0.500000  1
  Ta  Ta6  1  0.464028  0.130207  0.000000  1
  Ta  Ta7  1  0.535972  0.869793  0.000000  1
  Ta  Ta8  1  0.370890  0.964156  0.500000  1
  Ta  Ta9  1  0.629110  0.035844  0.500000  1
  Ta  Ta10  1  0.130207  0.464028  0.000000  1
  Ta  Ta11  1  0.869793  0.535972  0.000000  1
  Ta  Ta12  1  0.682391  0.317609  0.248446  1
  Ta  Ta13  1  0.317609  0.682391  0.248446  1
  Ta  Ta14  1  0.182224  0.182224  0.748511  1
  Ta  Ta15  1  0.817776  0.817776  0.748511  1
  Ta  Ta16  1  0.317609  0.682391  0.751554  1
  Ta  Ta17  1  0.682391  0.317609  0.751554  1
  Ta  Ta18  1  0.817776  0.817776  0.251489  1
  Ta  Ta19  1  0.182224  0.182224  0.251489  1
  Al  Al20  1  0.000000  0.000000  0.000000  1
  Al  Al21  1  0.242323  0.434892  0.500000  1
  Al  Al22  1  0.757677  0.565108  0.500000  1
  Al  Al23  1  0.737815  0.066429  0.000000  1
  Al  Al24  1  0.262185  0.933571  0.000000  1
  Al  Al25  1  0.434892  0.242323  0.500000  1
  Al  Al26  1  0.565108  0.757677  0.500000  1
  Al  Al27  1  0.066429  0.737815  0.000000  1
  Al  Al28  1  0.933571  0.262185  0.000000  1
  Pd  Pd29  1  0.500000  0.500000  0.500000  1
