# generated using pymatgen
data_PuZr3(PN3)4
_symmetry_space_group_name_H-M   'P 1'
_cell_length_a   6.72043406
_cell_length_b   6.72043378
_cell_length_c   5.34655782
_cell_angle_alpha   78.70459199
_cell_angle_beta   78.70459174
_cell_angle_gamma   84.82281487
_symmetry_Int_Tables_number   1
_chemical_formula_structural   PuZr3(PN3)4
_chemical_formula_sum   'Pu1 Zr3 P4 N12'
_cell_volume   231.87120547
_cell_formula_units_Z   1
loop_
 _symmetry_equiv_pos_site_id
 _symmetry_equiv_pos_as_xyz
  1  'x, y, z'
loop_
 _atom_site_type_symbol
 _atom_site_label
 _atom_site_symmetry_multiplicity
 _atom_site_fract_x
 _atom_site_fract_y
 _atom_site_fract_z
 _atom_site_occupancy
  Pu  Pu0  1  0.683932  0.316068  0.750000  1
  Zr  Zr1  1  0.901914  0.098086  0.250000  1
  Zr  Zr2  1  0.325410  0.674590  0.250000  1
  Zr  Zr3  1  0.107087  0.892913  0.750000  1
  P  P4  1  0.199782  0.381579  0.754886  1
  P  P5  1  0.377472  0.200769  0.256801  1
  P  P6  1  0.799231  0.622528  0.243199  1
  P  P7  1  0.618421  0.800218  0.745114  1
  N  N8  1  0.319636  0.384147  0.005967  1
  N  N9  1  0.024154  0.217821  0.843389  1
  N  N10  1  0.984152  0.775794  0.154924  1
  N  N11  1  0.376381  0.335116  0.493436  1
  N  N12  1  0.609625  0.131613  0.154441  1
  N  N13  1  0.389829  0.872538  0.859796  1
  N  N14  1  0.868387  0.390375  0.345559  1
  N  N15  1  0.664884  0.623619  0.006564  1
  N  N16  1  0.782179  0.975846  0.656611  1
  N  N17  1  0.127462  0.610171  0.640204  1
  N  N18  1  0.224206  0.015848  0.345076  1
  N  N19  1  0.615853  0.680364  0.494033  1
