# generated using pymatgen
data_Nd8In2RuRh
_symmetry_space_group_name_H-M   'P 1'
_cell_length_a   9.96008506
_cell_length_b   9.98121884
_cell_length_c   9.95982297
_cell_angle_alpha   59.92892163
_cell_angle_beta   59.85895139
_cell_angle_gamma   59.92977747
_symmetry_Int_Tables_number   1
_chemical_formula_structural   Nd8In2RuRh
_chemical_formula_sum   'Nd16 In4 Ru2 Rh2'
_cell_volume   698.64177080
_cell_formula_units_Z   2
loop_
 _symmetry_equiv_pos_site_id
 _symmetry_equiv_pos_as_xyz
  1  'x, y, z'
loop_
 _atom_site_type_symbol
 _atom_site_label
 _atom_site_symmetry_multiplicity
 _atom_site_fract_x
 _atom_site_fract_y
 _atom_site_fract_z
 _atom_site_occupancy
  Nd  Nd0  1  0.810468  0.807791  0.188782  1
  Nd  Nd1  1  0.809459  0.190511  0.809518  1
  Nd  Nd2  1  0.188763  0.192978  0.810428  1
  Nd  Nd3  1  0.651668  0.045231  0.651666  1
  Nd  Nd4  1  0.060782  0.059803  0.441592  1
  Nd  Nd5  1  0.441608  0.437806  0.060795  1
  Nd  Nd6  1  0.651668  0.651435  0.651666  1
  Nd  Nd7  1  0.810468  0.192958  0.188782  1
  Nd  Nd8  1  0.188763  0.807831  0.810428  1
  Nd  Nd9  1  0.044535  0.651622  0.652220  1
  Nd  Nd10  1  0.441608  0.059791  0.060795  1
  Nd  Nd11  1  0.437753  0.062262  0.437723  1
  Nd  Nd12  1  0.058704  0.441312  0.058671  1
  Nd  Nd13  1  0.652190  0.651605  0.044600  1
  Nd  Nd14  1  0.192117  0.807912  0.192059  1
  Nd  Nd15  1  0.060782  0.437824  0.441592  1
  In  In16  1  0.419355  0.418681  0.419368  1
  In  In17  1  0.418981  0.418617  0.743783  1
  In  In18  1  0.419355  0.742596  0.419368  1
  In  In19  1  0.743840  0.418594  0.418970  1
  Ru  Ru20  1  0.858643  0.420645  0.858651  1
  Ru  Ru21  1  0.858643  0.862062  0.858651  1
  Rh  Rh22  1  0.858025  0.860053  0.421869  1
  Rh  Rh23  1  0.421819  0.860079  0.858024  1
