# generated using pymatgen
data_Yb3Zn4InAu4
_symmetry_space_group_name_H-M   'P 1'
_cell_length_a   4.30477200
_cell_length_b   7.20883900
_cell_length_c   8.06990123
_cell_angle_alpha   91.68016727
_cell_angle_beta   90.00000000
_cell_angle_gamma   90.00000000
_symmetry_Int_Tables_number   1
_chemical_formula_structural   Yb3Zn4InAu4
_chemical_formula_sum   'Yb3 Zn4 In1 Au4'
_cell_volume   250.32080268
_cell_formula_units_Z   1
loop_
 _symmetry_equiv_pos_site_id
 _symmetry_equiv_pos_as_xyz
  1  'x, y, z'
loop_
 _atom_site_type_symbol
 _atom_site_label
 _atom_site_symmetry_multiplicity
 _atom_site_fract_x
 _atom_site_fract_y
 _atom_site_fract_z
 _atom_site_occupancy
  Yb  Yb0  1  0.250000  0.025917  0.310123  1
  Yb  Yb1  1  0.750000  0.979017  0.693481  1
  Yb  Yb2  1  0.250000  0.520238  0.174181  1
  Zn  Zn3  1  0.250000  0.648153  0.564418  1
  Zn  Zn4  1  0.250000  0.145525  0.934996  1
  Zn  Zn5  1  0.750000  0.350498  0.433769  1
  Zn  Zn6  1  0.750000  0.849603  0.068742  1
  In  In7  1  0.750000  0.477160  0.822580  1
  Au  Au8  1  0.250000  0.768762  0.881410  1
  Au  Au9  1  0.250000  0.275844  0.622305  1
  Au  Au10  1  0.750000  0.728025  0.378839  1
  Au  Au11  1  0.750000  0.231258  0.115158  1
