# generated using pymatgen
data_DyYAg2(WO4)4
_symmetry_space_group_name_H-M   'P 1'
_cell_length_a   7.41503177
_cell_length_b   7.41503135
_cell_length_c   7.31288700
_cell_angle_alpha   65.81956257
_cell_angle_beta   65.81956827
_cell_angle_gamma   94.42855392
_symmetry_Int_Tables_number   1
_chemical_formula_structural   DyYAg2(WO4)4
_chemical_formula_sum   'Dy1 Y1 Ag2 W4 O16'
_cell_volume   319.79155379
_cell_formula_units_Z   1
loop_
 _symmetry_equiv_pos_site_id
 _symmetry_equiv_pos_as_xyz
  1  'x, y, z'
loop_
 _atom_site_type_symbol
 _atom_site_label
 _atom_site_symmetry_multiplicity
 _atom_site_fract_x
 _atom_site_fract_y
 _atom_site_fract_z
 _atom_site_occupancy
  Dy  Dy0  1  0.698526  0.301474  0.000000  1
  Y  Y1  1  0.301227  0.698773  0.000000  1
  Ag  Ag2  1  0.683650  0.683405  0.479826  1
  Ag  Ag3  1  0.316595  0.316350  0.520174  1
  W  W4  1  0.211691  0.211877  0.029498  1
  W  W5  1  0.788123  0.788309  0.970502  1
  W  W6  1  0.836614  0.163386  0.500000  1
  W  W7  1  0.163309  0.836691  0.500000  1
  O  O8  1  0.353445  0.102398  0.240703  1
  O  O9  1  0.646856  0.897539  0.758876  1
  O  O10  1  0.897602  0.646555  0.759297  1
  O  O11  1  0.102461  0.353144  0.241124  1
  O  O12  1  0.687610  0.216359  0.350201  1
  O  O13  1  0.312858  0.783871  0.649152  1
  O  O14  1  0.783641  0.312390  0.649799  1
  O  O15  1  0.216129  0.687142  0.350848  1
  O  O16  1  0.699780  0.958882  0.088260  1
  O  O17  1  0.300186  0.042089  0.910505  1
  O  O18  1  0.041118  0.300220  0.911740  1
  O  O19  1  0.957911  0.699814  0.089495  1
  O  O20  1  0.978462  0.978353  0.341123  1
  O  O21  1  0.021647  0.021538  0.658877  1
  O  O22  1  0.555252  0.554693  0.138418  1
  O  O23  1  0.445307  0.444748  0.861582  1
