# generated using pymatgen
data_Nb12Al8Cr3CuC4
_symmetry_space_group_name_H-M   'P 1'
_cell_length_a   8.31242776
_cell_length_b   8.32763415
_cell_length_c   8.32763400
_cell_angle_alpha   60.00000854
_cell_angle_beta   59.93947547
_cell_angle_gamma   59.93947707
_symmetry_Int_Tables_number   1
_chemical_formula_structural   Nb12Al8Cr3CuC4
_chemical_formula_sum   'Nb12 Al8 Cr3 Cu1 C4'
_cell_volume   407.24735797
_cell_formula_units_Z   1
loop_
 _symmetry_equiv_pos_site_id
 _symmetry_equiv_pos_as_xyz
  1  'x, y, z'
loop_
 _atom_site_type_symbol
 _atom_site_label
 _atom_site_symmetry_multiplicity
 _atom_site_fract_x
 _atom_site_fract_y
 _atom_site_fract_z
 _atom_site_occupancy
  Nb  Nb0  1  0.805051  0.806044  0.194452  1
  Nb  Nb1  1  0.197141  0.183579  0.809639  1
  Nb  Nb2  1  0.805051  0.194452  0.806044  1
  Nb  Nb3  1  0.197141  0.809639  0.183579  1
  Nb  Nb4  1  0.197141  0.809639  0.809639  1
  Nb  Nb5  1  0.805051  0.194452  0.194452  1
  Nb  Nb6  1  0.444949  0.443956  0.055548  1
  Nb  Nb7  1  0.052859  0.066421  0.440361  1
  Nb  Nb8  1  0.444949  0.055548  0.443956  1
  Nb  Nb9  1  0.052859  0.440361  0.066421  1
  Nb  Nb10  1  0.052859  0.440361  0.440361  1
  Nb  Nb11  1  0.444949  0.055548  0.055548  1
  Al  Al12  1  0.746256  0.417915  0.417915  1
  Al  Al13  1  0.412573  0.753722  0.416852  1
  Al  Al14  1  0.412573  0.416852  0.753722  1
  Al  Al15  1  0.412573  0.416852  0.416852  1
  Al  Al16  1  0.503744  0.832085  0.832085  1
  Al  Al17  1  0.837427  0.496278  0.833148  1
  Al  Al18  1  0.837427  0.833148  0.496278  1
  Al  Al19  1  0.837427  0.833148  0.833148  1
  Cr  Cr20  1  0.625000  0.125000  0.625000  1
  Cr  Cr21  1  0.625000  0.625000  0.125000  1
  Cr  Cr22  1  0.625000  0.625000  0.625000  1
  Cu  Cu23  1  0.125000  0.625000  0.625000  1
  C  C24  1  0.625000  0.125000  0.125000  1
  C  C25  1  0.125000  0.625000  0.125000  1
  C  C26  1  0.125000  0.125000  0.625000  1
  C  C27  1  0.125000  0.125000  0.125000  1
