# generated using pymatgen
data_Lu7Zr(InRu)2
_symmetry_space_group_name_H-M   'P 1'
_cell_length_a   9.40579835
_cell_length_b   9.40579872
_cell_length_c   9.42470800
_cell_angle_alpha   59.93347467
_cell_angle_beta   59.93347336
_cell_angle_gamma   59.88621840
_symmetry_Int_Tables_number   1
_chemical_formula_structural   Lu7Zr(InRu)2
_chemical_formula_sum   'Lu14 Zr2 In4 Ru4'
_cell_volume   588.48137816
_cell_formula_units_Z   2
loop_
 _symmetry_equiv_pos_site_id
 _symmetry_equiv_pos_as_xyz
  1  'x, y, z'
loop_
 _atom_site_type_symbol
 _atom_site_label
 _atom_site_symmetry_multiplicity
 _atom_site_fract_x
 _atom_site_fract_y
 _atom_site_fract_z
 _atom_site_occupancy
  Lu  Lu0  1  0.599420  0.203470  0.598556  1
  Lu  Lu1  1  0.203470  0.599420  0.598556  1
  Lu  Lu2  1  0.057605  0.443313  0.440367  1
  Lu  Lu3  1  0.443313  0.057605  0.058715  1
  Lu  Lu4  1  0.443313  0.057605  0.440367  1
  Lu  Lu5  1  0.057605  0.443313  0.058715  1
  Lu  Lu6  1  0.442141  0.442141  0.057859  1
  Lu  Lu7  1  0.058976  0.058976  0.441024  1
  Lu  Lu8  1  0.195701  0.805660  0.806886  1
  Lu  Lu9  1  0.805660  0.195701  0.191754  1
  Lu  Lu10  1  0.805660  0.195701  0.806886  1
  Lu  Lu11  1  0.195701  0.805660  0.191754  1
  Lu  Lu12  1  0.805614  0.805614  0.194386  1
  Lu  Lu13  1  0.192590  0.192590  0.807410  1
  Zr  Zr14  1  0.597000  0.597000  0.597944  1
  Zr  Zr15  1  0.597000  0.597000  0.208057  1
  In  In16  1  0.831909  0.831909  0.836802  1
  In  In17  1  0.831909  0.831909  0.499379  1
  In  In18  1  0.828923  0.501332  0.834872  1
  In  In19  1  0.501332  0.828923  0.834872  1
  Ru  Ru20  1  0.393145  0.393145  0.388022  1
  Ru  Ru21  1  0.393145  0.393145  0.825688  1
  Ru  Ru22  1  0.397180  0.821690  0.390564  1
  Ru  Ru23  1  0.821690  0.397180  0.390564  1
