# generated using pymatgen
data_Zr8Ta2Sn6P
_symmetry_space_group_name_H-M   'P 1'
_cell_length_a   5.77482800
_cell_length_b   8.52805982
_cell_length_c   8.52767500
_cell_angle_alpha   120.00013365
_cell_angle_beta   90.00121953
_cell_angle_gamma   89.99769534
_symmetry_Int_Tables_number   1
_chemical_formula_structural   Zr8Ta2Sn6P
_chemical_formula_sum   'Zr8 Ta2 Sn6 P1'
_cell_volume   363.70559206
_cell_formula_units_Z   1
loop_
 _symmetry_equiv_pos_site_id
 _symmetry_equiv_pos_as_xyz
  1  'x, y, z'
loop_
 _atom_site_type_symbol
 _atom_site_label
 _atom_site_symmetry_multiplicity
 _atom_site_fract_x
 _atom_site_fract_y
 _atom_site_fract_z
 _atom_site_occupancy
  Zr  Zr0  1  0.999994  0.666653  0.333330  1
  Zr  Zr1  1  0.000006  0.333348  0.666671  1
  Zr  Zr2  1  0.755944  0.251187  0.999997  1
  Zr  Zr3  1  0.755903  0.748785  0.748782  1
  Zr  Zr4  1  0.755923  0.999991  0.251206  1
  Zr  Zr5  1  0.244056  0.748814  0.000006  1
  Zr  Zr6  1  0.244099  0.251216  0.251216  1
  Zr  Zr7  1  0.244075  0.000007  0.748792  1
  Ta  Ta8  1  0.499998  0.333286  0.666617  1
  Ta  Ta9  1  0.500003  0.666714  0.333384  1
  Sn  Sn10  1  0.743782  0.604383  0.999992  1
  Sn  Sn11  1  0.743806  0.395594  0.395603  1
  Sn  Sn12  1  0.743801  0.000006  0.604390  1
  Sn  Sn13  1  0.256217  0.395608  0.999990  1
  Sn  Sn14  1  0.256195  0.604397  0.604405  1
  Sn  Sn15  1  0.256199  0.000015  0.395619  1
  P  P16  1  0.500000  0.999999  0.999999  1
