# generated using pymatgen
data_TmLuNb4(B2Ru5)2
_symmetry_space_group_name_H-M   'P 1'
_cell_length_a   9.52568979
_cell_length_b   9.52568888
_cell_length_c   3.09038400
_cell_angle_alpha   90.00000000
_cell_angle_beta   90.00000000
_cell_angle_gamma   90.44981897
_symmetry_Int_Tables_number   1
_chemical_formula_structural   TmLuNb4(B2Ru5)2
_chemical_formula_sum   'Tm1 Lu1 Nb4 B4 Ru10'
_cell_volume   280.40896201
_cell_formula_units_Z   1
loop_
 _symmetry_equiv_pos_site_id
 _symmetry_equiv_pos_as_xyz
  1  'x, y, z'
loop_
 _atom_site_type_symbol
 _atom_site_label
 _atom_site_symmetry_multiplicity
 _atom_site_fract_x
 _atom_site_fract_y
 _atom_site_fract_z
 _atom_site_occupancy
  Tm  Tm0  1  0.824607  0.675393  0.000000  1
  Lu  Lu1  1  0.175595  0.324405  0.000000  1
  Nb  Nb2  1  0.323950  0.824042  0.000000  1
  Nb  Nb3  1  0.675958  0.176050  0.000000  1
  Nb  Nb4  1  0.499663  0.499869  0.000000  1
  Nb  Nb5  1  0.000131  0.000337  0.000000  1
  B  B6  1  0.621463  0.878537  0.000000  1
  B  B7  1  0.378162  0.121838  0.000000  1
  B  B8  1  0.120690  0.620409  0.000000  1
  B  B9  1  0.879591  0.379310  0.000000  1
  Ru  Ru10  1  0.561240  0.722274  0.500000  1
  Ru  Ru11  1  0.438083  0.277948  0.500000  1
  Ru  Ru12  1  0.079886  0.784623  0.500000  1
  Ru  Ru13  1  0.920682  0.215422  0.500000  1
  Ru  Ru14  1  0.284578  0.579318  0.500000  1
  Ru  Ru15  1  0.715377  0.420114  0.500000  1
  Ru  Ru16  1  0.222052  0.061917  0.500000  1
  Ru  Ru17  1  0.777726  0.938760  0.500000  1
  Ru  Ru18  1  0.499866  0.000134  0.500000  1
  Ru  Ru19  1  0.000699  0.499301  0.500000  1
