# generated using pymatgen
data_Tb4Yb2Si24Os5Ru3
_symmetry_space_group_name_H-M   'P 1'
_cell_length_a   10.13806246
_cell_length_b   10.13806424
_cell_length_c   8.15566387
_cell_angle_alpha   89.97851791
_cell_angle_beta   89.97855468
_cell_angle_gamma   132.53990526
_symmetry_Int_Tables_number   1
_chemical_formula_structural   Tb4Yb2Si24Os5Ru3
_chemical_formula_sum   'Tb4 Yb2 Si24 Os5 Ru3'
_cell_volume   617.62185195
_cell_formula_units_Z   1
loop_
 _symmetry_equiv_pos_site_id
 _symmetry_equiv_pos_as_xyz
  1  'x, y, z'
loop_
 _atom_site_type_symbol
 _atom_site_label
 _atom_site_symmetry_multiplicity
 _atom_site_fract_x
 _atom_site_fract_y
 _atom_site_fract_z
 _atom_site_occupancy
  Tb  Tb0  1  0.501131  0.001116  0.750130  1
  Tb  Tb1  1  0.998734  0.499080  0.249911  1
  Tb  Tb2  1  0.499080  0.998734  0.249911  1
  Tb  Tb3  1  0.001116  0.501130  0.750129  1
  Yb  Yb4  1  0.499565  0.499565  0.499962  1
  Yb  Yb5  1  0.999898  0.999898  0.999595  1
  Si  Si6  1  0.796927  0.203121  0.500136  1
  Si  Si7  1  0.296901  0.703050  0.000100  1
  Si  Si8  1  0.203121  0.796927  0.500137  1
  Si  Si9  1  0.703050  0.296901  0.000100  1
  Si  Si10  1  0.332942  0.332942  0.832913  1
  Si  Si11  1  0.667340  0.667340  0.167399  1
  Si  Si12  1  0.166493  0.166493  0.330770  1
  Si  Si13  1  0.830955  0.830955  0.666708  1
  Si  Si14  1  0.122333  0.890436  0.730291  1
  Si  Si15  1  0.109990  0.878748  0.270036  1
  Si  Si16  1  0.609204  0.377968  0.229829  1
  Si  Si17  1  0.622660  0.390918  0.770295  1
  Si  Si18  1  0.878748  0.109990  0.270036  1
  Si  Si19  1  0.890436  0.122334  0.730291  1
  Si  Si20  1  0.390918  0.622661  0.770295  1
  Si  Si21  1  0.377968  0.609204  0.229829  1
  Si  Si22  1  0.346578  0.114923  0.506418  1
  Si  Si23  1  0.885038  0.653943  0.494260  1
  Si  Si24  1  0.385549  0.154074  0.006709  1
  Si  Si25  1  0.846014  0.614887  0.993607  1
  Si  Si26  1  0.653943  0.885038  0.494260  1
  Si  Si27  1  0.114923  0.346578  0.506418  1
  Si  Si28  1  0.614887  0.846014  0.993607  1
  Si  Si29  1  0.154074  0.385549  0.006709  1
  Os  Os30  1  0.671423  0.328682  0.499852  1
  Os  Os31  1  0.171453  0.828602  0.000078  1
  Os  Os32  1  0.328682  0.671423  0.499852  1
  Os  Os33  1  0.828602  0.171454  0.000077  1
  Os  Os34  1  0.125799  0.125798  0.625938  1
  Ru  Ru35  1  0.873756  0.873756  0.373676  1
  Ru  Ru36  1  0.374063  0.374063  0.125889  1
  Ru  Ru37  1  0.625707  0.625706  0.873846  1
