# generated using pymatgen
data_Tm20(RuPt3)3
_symmetry_space_group_name_H-M   'P 1'
_cell_length_a   10.87260500
_cell_length_b   10.87260500
_cell_length_c   6.31301200
_cell_angle_alpha   90.00000000
_cell_angle_beta   90.00000000
_cell_angle_gamma   90.00000000
_symmetry_Int_Tables_number   1
_chemical_formula_structural   Tm20(RuPt3)3
_chemical_formula_sum   'Tm20 Ru3 Pt9'
_cell_volume   746.28349334
_cell_formula_units_Z   1
loop_
 _symmetry_equiv_pos_site_id
 _symmetry_equiv_pos_as_xyz
  1  'x, y, z'
loop_
 _atom_site_type_symbol
 _atom_site_label
 _atom_site_symmetry_multiplicity
 _atom_site_fract_x
 _atom_site_fract_y
 _atom_site_fract_z
 _atom_site_occupancy
  Tm  Tm0  1  0.297034  0.086112  0.372511  1
  Tm  Tm1  1  0.297304  0.914588  0.872905  1
  Tm  Tm2  1  0.702696  0.085412  0.872905  1
  Tm  Tm3  1  0.702966  0.913888  0.372511  1
  Tm  Tm4  1  0.585412  0.797304  0.872905  1
  Tm  Tm5  1  0.586112  0.202966  0.372511  1
  Tm  Tm6  1  0.413888  0.797034  0.372511  1
  Tm  Tm7  1  0.414588  0.202696  0.872905  1
  Tm  Tm8  1  0.207642  0.411948  0.632679  1
  Tm  Tm9  1  0.206166  0.588383  0.123290  1
  Tm  Tm10  1  0.793834  0.411617  0.123290  1
  Tm  Tm11  1  0.792358  0.588052  0.632679  1
  Tm  Tm12  1  0.911617  0.706166  0.123290  1
  Tm  Tm13  1  0.911948  0.292358  0.632679  1
  Tm  Tm14  1  0.088052  0.707642  0.632679  1
  Tm  Tm15  1  0.088383  0.293834  0.123290  1
  Tm  Tm16  1  0.000000  0.000000  0.498570  1
  Tm  Tm17  1  0.000000  0.000000  0.998420  1
  Tm  Tm18  1  0.500000  0.500000  0.998420  1
  Tm  Tm19  1  0.500000  0.500000  0.498570  1
  Ru  Ru20  1  0.500000  0.000000  0.127421  1
  Ru  Ru21  1  0.500000  0.000000  0.626745  1
  Ru  Ru22  1  0.000000  0.500000  0.874699  1
  Pt  Pt23  1  0.847022  0.154912  0.249363  1
  Pt  Pt24  1  0.846644  0.845835  0.748670  1
  Pt  Pt25  1  0.153356  0.154165  0.748670  1
  Pt  Pt26  1  0.152978  0.845088  0.249363  1
  Pt  Pt27  1  0.654165  0.346644  0.748670  1
  Pt  Pt28  1  0.654912  0.652978  0.249363  1
  Pt  Pt29  1  0.345088  0.347022  0.249363  1
  Pt  Pt30  1  0.345835  0.653356  0.748670  1
  Pt  Pt31  1  0.000000  0.500000  0.379481  1
