# generated using pymatgen
data_Er6Zn23N
_symmetry_space_group_name_H-M   'P 1'
_cell_length_a   8.90271891
_cell_length_b   8.90271835
_cell_length_c   8.90271900
_cell_angle_alpha   60.00000132
_cell_angle_beta   60.00000338
_cell_angle_gamma   59.99999804
_symmetry_Int_Tables_number   1
_chemical_formula_structural   Er6Zn23N
_chemical_formula_sum   'Er6 Zn23 N1'
_cell_volume   498.94534200
_cell_formula_units_Z   1
loop_
 _symmetry_equiv_pos_site_id
 _symmetry_equiv_pos_as_xyz
  1  'x, y, z'
loop_
 _atom_site_type_symbol
 _atom_site_label
 _atom_site_symmetry_multiplicity
 _atom_site_fract_x
 _atom_site_fract_y
 _atom_site_fract_z
 _atom_site_occupancy
  Er  Er0  1  0.694358  0.305642  0.305642  1
  Er  Er1  1  0.694358  0.305642  0.694358  1
  Er  Er2  1  0.694358  0.694358  0.305642  1
  Er  Er3  1  0.305642  0.694358  0.694358  1
  Er  Er4  1  0.305642  0.694358  0.305642  1
  Er  Er5  1  0.305642  0.305642  0.694358  1
  Zn  Zn6  1  0.633525  0.122159  0.122159  1
  Zn  Zn7  1  0.122159  0.633525  0.122159  1
  Zn  Zn8  1  0.122159  0.122159  0.633525  1
  Zn  Zn9  1  0.122159  0.122159  0.122159  1
  Zn  Zn10  1  0.366475  0.877841  0.877841  1
  Zn  Zn11  1  0.877841  0.366475  0.877841  1
  Zn  Zn12  1  0.877841  0.877841  0.366475  1
  Zn  Zn13  1  0.877841  0.877841  0.877841  1
  Zn  Zn14  1  0.500000  0.000000  0.000000  1
  Zn  Zn15  1  0.500000  0.000000  0.500000  1
  Zn  Zn16  1  0.500000  0.500000  0.000000  1
  Zn  Zn17  1  0.000000  0.500000  0.500000  1
  Zn  Zn18  1  0.000000  0.500000  0.000000  1
  Zn  Zn19  1  0.000000  0.000000  0.500000  1
  Zn  Zn20  1  0.000000  0.000000  0.000000  1
  Zn  Zn21  1  0.016190  0.327937  0.327937  1
  Zn  Zn22  1  0.327937  0.016190  0.327937  1
  Zn  Zn23  1  0.327937  0.327937  0.016190  1
  Zn  Zn24  1  0.327937  0.327937  0.327937  1
  Zn  Zn25  1  0.983810  0.672063  0.672063  1
  Zn  Zn26  1  0.672063  0.983810  0.672063  1
  Zn  Zn27  1  0.672063  0.672063  0.983810  1
  Zn  Zn28  1  0.672063  0.672063  0.672063  1
  N  N29  1  0.500000  0.500000  0.500000  1
