# generated using pymatgen
data_Li4U2TiPt21
_symmetry_space_group_name_H-M   'P 1'
_cell_length_a   5.63765700
_cell_length_b   5.63762386
_cell_length_c   16.12126600
_cell_angle_alpha   90.00054949
_cell_angle_beta   89.99955251
_cell_angle_gamma   120.00039586
_symmetry_Int_Tables_number   1
_chemical_formula_structural   Li4U2TiPt21
_chemical_formula_sum   'Li4 U2 Ti1 Pt21'
_cell_volume   443.73408389
_cell_formula_units_Z   1
loop_
 _symmetry_equiv_pos_site_id
 _symmetry_equiv_pos_as_xyz
  1  'x, y, z'
loop_
 _atom_site_type_symbol
 _atom_site_label
 _atom_site_symmetry_multiplicity
 _atom_site_fract_x
 _atom_site_fract_y
 _atom_site_fract_z
 _atom_site_occupancy
  Li  Li0  1  0.000001  0.999999  0.722236  1
  Li  Li1  1  0.666676  0.333345  0.864743  1
  Li  Li2  1  0.333325  0.666656  0.135258  1
  Li  Li3  1  0.000000  0.000001  0.277801  1
  U  U4  1  0.666667  0.333335  0.416664  1
  U  U5  1  0.333333  0.666666  0.583254  1
  Ti  Ti6  1  0.000000  0.000000  0.999936  1
  Pt  Pt7  1  0.832385  0.664768  0.572769  1
  Pt  Pt8  1  0.335233  0.167615  0.572769  1
  Pt  Pt9  1  0.167052  0.334102  0.862230  1
  Pt  Pt10  1  0.167652  0.335307  0.427276  1
  Pt  Pt11  1  0.167654  0.832348  0.427276  1
  Pt  Pt12  1  0.502864  0.005728  0.721561  1
  Pt  Pt13  1  0.664692  0.832348  0.427276  1
  Pt  Pt14  1  0.167053  0.832949  0.862230  1
  Pt  Pt15  1  0.665899  0.832950  0.862229  1
  Pt  Pt16  1  0.833000  0.166997  0.137797  1
  Pt  Pt17  1  0.832383  0.167616  0.572769  1
  Pt  Pt18  1  0.502865  0.497136  0.721561  1
  Pt  Pt19  1  0.333994  0.166996  0.137797  1
  Pt  Pt20  1  0.833002  0.666005  0.137797  1
  Pt  Pt21  1  0.497061  0.502938  0.278380  1
  Pt  Pt22  1  0.497061  0.994123  0.278379  1
  Pt  Pt23  1  0.499998  0.999996  0.000023  1
  Pt  Pt24  1  0.005876  0.502937  0.278380  1
  Pt  Pt25  1  0.994272  0.497136  0.721561  1
  Pt  Pt26  1  0.499998  0.500002  0.000023  1
  Pt  Pt27  1  0.000004  0.500002  0.000024  1
