# generated using pymatgen
data_Lu8Hf12Si15Au
_symmetry_space_group_name_H-M   'P 1'
_cell_length_a   7.23163221
_cell_length_b   7.26650897
_cell_length_c   13.28178950
_cell_angle_alpha   89.94027356
_cell_angle_beta   89.99740065
_cell_angle_gamma   89.93042911
_symmetry_Int_Tables_number   1
_chemical_formula_structural   Lu8Hf12Si15Au
_chemical_formula_sum   'Lu8 Hf12 Si15 Au1'
_cell_volume   697.94014765
_cell_formula_units_Z   1
loop_
 _symmetry_equiv_pos_site_id
 _symmetry_equiv_pos_as_xyz
  1  'x, y, z'
loop_
 _atom_site_type_symbol
 _atom_site_label
 _atom_site_symmetry_multiplicity
 _atom_site_fract_x
 _atom_site_fract_y
 _atom_site_fract_z
 _atom_site_occupancy
  Lu  Lu0  1  0.991100  0.348399  0.213676  1
  Lu  Lu1  1  0.005229  0.654969  0.715941  1
  Lu  Lu2  1  0.154397  0.497446  0.467062  1
  Lu  Lu3  1  0.505905  0.843416  0.032619  1
  Lu  Lu4  1  0.844481  0.503353  0.965237  1
  Lu  Lu5  1  0.496548  0.152962  0.537923  1
  Lu  Lu6  1  0.344258  0.996982  0.784348  1
  Lu  Lu7  1  0.662714  0.997056  0.283074  1
  Hf  Hf8  1  0.175716  0.177096  0.998873  1
  Hf  Hf9  1  0.825964  0.824614  0.500732  1
  Hf  Hf10  1  0.324740  0.681450  0.248935  1
  Hf  Hf11  1  0.676049  0.324268  0.750286  1
  Hf  Hf12  1  0.142594  0.998102  0.374435  1
  Hf  Hf13  1  0.853588  0.002376  0.875296  1
  Hf  Hf14  1  0.503068  0.648425  0.625444  1
  Hf  Hf15  1  0.353830  0.496845  0.874506  1
  Hf  Hf16  1  0.495802  0.352989  0.122063  1
  Hf  Hf17  1  0.650610  0.509230  0.379963  1
  Hf  Hf18  1  0.996461  0.146061  0.626906  1
  Hf  Hf19  1  0.999960  0.851839  0.122925  1
  Si  Si20  1  0.641121  0.706474  0.819369  1
  Si  Si21  1  0.204191  0.859255  0.568603  1
  Si  Si22  1  0.141756  0.795698  0.930509  1
  Si  Si23  1  0.795129  0.141667  0.067433  1
  Si  Si24  1  0.854744  0.200127  0.434970  1
  Si  Si25  1  0.295681  0.359786  0.681921  1
  Si  Si26  1  0.704708  0.641273  0.180386  1
  Si  Si27  1  0.296103  0.044381  0.181398  1
  Si  Si28  1  0.702523  0.950483  0.686217  1
  Si  Si29  1  0.447964  0.797560  0.435905  1
  Si  Si30  1  0.201745  0.549858  0.063357  1
  Si  Si31  1  0.548671  0.201428  0.934571  1
  Si  Si32  1  0.797661  0.450452  0.566781  1
  Si  Si33  1  0.048121  0.298969  0.815163  1
  Si  Si34  1  0.951360  0.702023  0.313199  1
  Au  Au35  1  0.365509  0.292688  0.319974  1
