# generated using pymatgen
data_Cs2AlZn2GaAs4
_symmetry_space_group_name_H-M   'P 1'
_cell_length_a   8.34994538
_cell_length_b   8.34994542
_cell_length_c   5.92940100
_cell_angle_alpha   90.00000000
_cell_angle_beta   90.00000000
_cell_angle_gamma   138.71966728
_symmetry_Int_Tables_number   1
_chemical_formula_structural   Cs2AlZn2GaAs4
_chemical_formula_sum   'Cs2 Al1 Zn2 Ga1 As4'
_cell_volume   272.74285298
_cell_formula_units_Z   1
loop_
 _symmetry_equiv_pos_site_id
 _symmetry_equiv_pos_as_xyz
  1  'x, y, z'
loop_
 _atom_site_type_symbol
 _atom_site_label
 _atom_site_symmetry_multiplicity
 _atom_site_fract_x
 _atom_site_fract_y
 _atom_site_fract_z
 _atom_site_occupancy
  Cs  Cs0  1  0.500000  0.000000  0.253158  1
  Cs  Cs1  1  0.000000  0.500000  0.746842  1
  Al  Al2  1  0.000000  0.000000  0.000000  1
  Zn  Zn3  1  0.500000  0.500000  0.500000  1
  Zn  Zn4  1  0.500000  0.500000  0.000000  1
  Ga  Ga5  1  0.000000  0.000000  0.500000  1
  As  As6  1  0.662447  0.856586  0.752931  1
  As  As7  1  0.143414  0.337553  0.247069  1
  As  As8  1  0.856586  0.662447  0.247069  1
  As  As9  1  0.337553  0.143414  0.752931  1
