# generated using pymatgen
data_Tb2Er2Cd2Si3Ge
_symmetry_space_group_name_H-M   'P 1'
_cell_length_a   7.19012247
_cell_length_b   7.19012302
_cell_length_c   4.20346200
_cell_angle_alpha   90.00000000
_cell_angle_beta   90.00000000
_cell_angle_gamma   89.74151951
_symmetry_Int_Tables_number   1
_chemical_formula_structural   Tb2Er2Cd2Si3Ge
_chemical_formula_sum   'Tb2 Er2 Cd2 Si3 Ge1'
_cell_volume   217.30779996
_cell_formula_units_Z   1
loop_
 _symmetry_equiv_pos_site_id
 _symmetry_equiv_pos_as_xyz
  1  'x, y, z'
loop_
 _atom_site_type_symbol
 _atom_site_label
 _atom_site_symmetry_multiplicity
 _atom_site_fract_x
 _atom_site_fract_y
 _atom_site_fract_z
 _atom_site_occupancy
  Tb  Tb0  1  0.680211  0.177857  0.500000  1
  Tb  Tb1  1  0.322143  0.819789  0.500000  1
  Er  Er2  1  0.175403  0.324597  0.500000  1
  Er  Er3  1  0.823129  0.676871  0.500000  1
  Cd  Cd4  1  0.501216  0.502899  0.000000  1
  Cd  Cd5  1  0.997101  0.998784  0.000000  1
  Si  Si6  1  0.116686  0.616832  0.000000  1
  Si  Si7  1  0.883168  0.383314  0.000000  1
  Si  Si8  1  0.621006  0.878994  0.000000  1
  Ge  Ge9  1  0.379937  0.120063  0.000000  1
