# generated using pymatgen
data_Dy6Al24IrRu2Pt2Rh3
_symmetry_space_group_name_H-M   'P 1'
_cell_length_a   8.84511477
_cell_length_b   8.84167567
_cell_length_c   9.50041532
_cell_angle_alpha   89.98402440
_cell_angle_beta   90.05587164
_cell_angle_gamma   119.92487822
_symmetry_Int_Tables_number   1
_chemical_formula_structural   Dy6Al24IrRu2Pt2Rh3
_chemical_formula_sum   'Dy6 Al24 Ir1 Ru2 Pt2 Rh3'
_cell_volume   643.93096532
_cell_formula_units_Z   1
loop_
 _symmetry_equiv_pos_site_id
 _symmetry_equiv_pos_as_xyz
  1  'x, y, z'
loop_
 _atom_site_type_symbol
 _atom_site_label
 _atom_site_symmetry_multiplicity
 _atom_site_fract_x
 _atom_site_fract_y
 _atom_site_fract_z
 _atom_site_occupancy
  Dy  Dy0  1  0.189706  0.808103  0.250944  1
  Dy  Dy1  1  0.189901  0.381964  0.249682  1
  Dy  Dy2  1  0.618132  0.808999  0.248183  1
  Dy  Dy3  1  0.810294  0.191897  0.749056  1
  Dy  Dy4  1  0.810099  0.618036  0.750318  1
  Dy  Dy5  1  0.381868  0.191001  0.751817  1
  Al  Al6  1  0.562371  0.436400  0.252799  1
  Al  Al7  1  0.560920  0.122995  0.249926  1
  Al  Al8  1  0.872163  0.436154  0.248067  1
  Al  Al9  1  0.437629  0.563600  0.747201  1
  Al  Al10  1  0.439080  0.877005  0.750074  1
  Al  Al11  1  0.127837  0.563846  0.751933  1
  Al  Al12  1  0.325836  0.162762  0.424092  1
  Al  Al13  1  0.833486  0.159413  0.422829  1
  Al  Al14  1  0.833763  0.674539  0.424000  1
  Al  Al15  1  0.674164  0.837238  0.575908  1
  Al  Al16  1  0.166514  0.840587  0.577171  1
  Al  Al17  1  0.166237  0.325461  0.576000  1
  Al  Al18  1  0.674745  0.840637  0.923440  1
  Al  Al19  1  0.163242  0.836921  0.924058  1
  Al  Al20  1  0.159497  0.325330  0.924765  1
  Al  Al21  1  0.325255  0.159363  0.076560  1
  Al  Al22  1  0.836758  0.163079  0.075942  1
  Al  Al23  1  0.840503  0.674670  0.075235  1
  Al  Al24  1  0.662484  0.331094  0.531520  1
  Al  Al25  1  0.337516  0.668906  0.468480  1
  Al  Al26  1  0.332115  0.669245  0.030936  1
  Al  Al27  1  0.667885  0.330755  0.969064  1
  Al  Al28  1  0.999860  0.000608  0.249973  1
  Al  Al29  1  0.000140  0.999392  0.750027  1
  Ir  Ir30  1  0.000000  0.500000  0.000000  1
  Ru  Ru31  1  0.000000  0.000000  0.500000  1
  Ru  Ru32  1  0.000000  0.000000  0.000000  1
  Pt  Pt33  1  0.000000  0.500000  0.500000  1
  Pt  Pt34  1  0.500000  0.500000  0.000000  1
  Rh  Rh35  1  0.500000  0.500000  0.500000  1
  Rh  Rh36  1  0.500000  0.000000  0.500000  1
  Rh  Rh37  1  0.500000  0.000000  0.000000  1
