# generated using pymatgen
data_Pr16Cd4IrOs3
_symmetry_space_group_name_H-M   'P 1'
_cell_length_a   9.99669690
_cell_length_b   10.01223571
_cell_length_c   10.01223600
_cell_angle_alpha   59.99999905
_cell_angle_beta   59.94856674
_cell_angle_gamma   59.94856798
_symmetry_Int_Tables_number   1
_chemical_formula_structural   Pr16Cd4IrOs3
_chemical_formula_sum   'Pr16 Cd4 Ir1 Os3'
_cell_volume   708.05273801
_cell_formula_units_Z   1
loop_
 _symmetry_equiv_pos_site_id
 _symmetry_equiv_pos_as_xyz
  1  'x, y, z'
loop_
 _atom_site_type_symbol
 _atom_site_label
 _atom_site_symmetry_multiplicity
 _atom_site_fract_x
 _atom_site_fract_y
 _atom_site_fract_z
 _atom_site_occupancy
  Pr  Pr0  1  0.345434  0.347787  0.347787  1
  Pr  Pr1  1  0.345434  0.347787  0.958989  1
  Pr  Pr2  1  0.345434  0.958989  0.347787  1
  Pr  Pr3  1  0.959407  0.346864  0.346864  1
  Pr  Pr4  1  0.810996  0.190719  0.190719  1
  Pr  Pr5  1  0.190707  0.809804  0.809804  1
  Pr  Pr6  1  0.190707  0.809804  0.189685  1
  Pr  Pr7  1  0.810996  0.190719  0.807566  1
  Pr  Pr8  1  0.190707  0.189685  0.809804  1
  Pr  Pr9  1  0.810996  0.807566  0.190719  1
  Pr  Pr10  1  0.939559  0.560782  0.560782  1
  Pr  Pr11  1  0.559720  0.939162  0.939162  1
  Pr  Pr12  1  0.559720  0.939162  0.561957  1
  Pr  Pr13  1  0.939559  0.560782  0.938879  1
  Pr  Pr14  1  0.559720  0.561957  0.939162  1
  Pr  Pr15  1  0.939559  0.938879  0.560782  1
  Cd  Cd16  1  0.579448  0.579769  0.579769  1
  Cd  Cd17  1  0.579448  0.579769  0.261012  1
  Cd  Cd18  1  0.579448  0.261012  0.579769  1
  Cd  Cd19  1  0.261160  0.579613  0.579613  1
  Ir  Ir20  1  0.580599  0.139801  0.139801  1
  Os  Os21  1  0.140413  0.137658  0.137658  1
  Os  Os22  1  0.140413  0.137658  0.584272  1
  Os  Os23  1  0.140413  0.584272  0.137658  1
