# generated using pymatgen
data_EuPb3(Se2O5)4
_symmetry_space_group_name_H-M   'P 1'
_cell_length_a   7.12103624
_cell_length_b   7.16840990
_cell_length_c   11.31219300
_cell_angle_alpha   84.69077863
_cell_angle_beta   80.74420090
_cell_angle_gamma   79.69956436
_symmetry_Int_Tables_number   1
_chemical_formula_structural   EuPb3(Se2O5)4
_chemical_formula_sum   'Eu1 Pb3 Se8 O20'
_cell_volume   559.53401236
_cell_formula_units_Z   1
loop_
 _symmetry_equiv_pos_site_id
 _symmetry_equiv_pos_as_xyz
  1  'x, y, z'
loop_
 _atom_site_type_symbol
 _atom_site_label
 _atom_site_symmetry_multiplicity
 _atom_site_fract_x
 _atom_site_fract_y
 _atom_site_fract_z
 _atom_site_occupancy
  Eu  Eu0  1  0.187739  0.367657  0.895817  1
  Pb  Pb1  1  0.796405  0.642346  0.119845  1
  Pb  Pb2  1  0.680829  0.625045  0.761445  1
  Pb  Pb3  1  0.316986  0.384145  0.246052  1
  Se  Se4  1  0.581730  0.168018  0.627796  1
  Se  Se5  1  0.417713  0.832284  0.377517  1
  Se  Se6  1  0.136813  0.269479  0.570660  1
  Se  Se7  1  0.868937  0.725819  0.430803  1
  Se  Se8  1  0.126320  0.835854  0.787128  1
  Se  Se9  1  0.875889  0.167652  0.207770  1
  Se  Se10  1  0.301537  0.833018  0.038545  1
  Se  Se11  1  0.690178  0.167207  0.955937  1
  O  O12  1  0.706960  0.952329  0.662848  1
  O  O13  1  0.298266  0.046844  0.337295  1
  O  O14  1  0.523897  0.280047  0.759504  1
  O  O15  1  0.460677  0.710331  0.249004  1
  O  O16  1  0.053759  0.372156  0.702247  1
  O  O17  1  0.960844  0.617724  0.300375  1
  O  O18  1  0.248006  0.428050  0.477803  1
  O  O19  1  0.759267  0.567719  0.522951  1
  O  O20  1  0.347263  0.092211  0.619318  1
  O  O21  1  0.661503  0.896898  0.374101  1
  O  O22  1  0.319634  0.658290  0.771475  1
  O  O23  1  0.683429  0.347836  0.229180  1
  O  O24  1  0.805215  0.036814  0.096200  1
  O  O25  1  0.185037  0.971349  0.904910  1
  O  O26  1  0.460258  0.236648  0.021477  1
  O  O27  1  0.532865  0.777096  0.971268  1
  O  O28  1  0.796151  0.365366  0.939488  1
  O  O29  1  0.211148  0.626236  0.050549  1
  O  O30  1  0.048574  0.286066  0.126191  1
  O  O31  1  0.956171  0.711470  0.864500  1
