# generated using pymatgen
data_Dy3Al12Ir3Ru
_symmetry_space_group_name_H-M   'P 1'
_cell_length_a   8.82864900
_cell_length_b   8.82864898
_cell_length_c   9.48449500
_cell_angle_alpha   90.00000000
_cell_angle_beta   90.00000000
_cell_angle_gamma   120.00000383
_symmetry_Int_Tables_number   1
_chemical_formula_structural   Dy3Al12Ir3Ru
_chemical_formula_sum   'Dy6 Al24 Ir6 Ru2'
_cell_volume   640.22603016
_cell_formula_units_Z   2
loop_
 _symmetry_equiv_pos_site_id
 _symmetry_equiv_pos_as_xyz
  1  'x, y, z'
loop_
 _atom_site_type_symbol
 _atom_site_label
 _atom_site_symmetry_multiplicity
 _atom_site_fract_x
 _atom_site_fract_y
 _atom_site_fract_z
 _atom_site_occupancy
  Dy  Dy0  1  0.192826  0.807174  0.250000  1
  Dy  Dy1  1  0.192826  0.385651  0.250000  1
  Dy  Dy2  1  0.614349  0.807174  0.250000  1
  Dy  Dy3  1  0.807174  0.192826  0.750000  1
  Dy  Dy4  1  0.807174  0.614349  0.750000  1
  Dy  Dy5  1  0.385651  0.192826  0.750000  1
  Al  Al6  1  0.562213  0.437787  0.250000  1
  Al  Al7  1  0.562213  0.124426  0.250000  1
  Al  Al8  1  0.875574  0.437787  0.250000  1
  Al  Al9  1  0.437787  0.562213  0.750000  1
  Al  Al10  1  0.437787  0.875574  0.750000  1
  Al  Al11  1  0.124426  0.562213  0.750000  1
  Al  Al12  1  0.325877  0.162939  0.423942  1
  Al  Al13  1  0.837061  0.162939  0.423942  1
  Al  Al14  1  0.837061  0.674123  0.423942  1
  Al  Al15  1  0.674123  0.837061  0.576058  1
  Al  Al16  1  0.162939  0.837061  0.576058  1
  Al  Al17  1  0.162939  0.325877  0.576058  1
  Al  Al18  1  0.674123  0.837061  0.923942  1
  Al  Al19  1  0.162939  0.837061  0.923942  1
  Al  Al20  1  0.162939  0.325877  0.923942  1
  Al  Al21  1  0.325877  0.162939  0.076058  1
  Al  Al22  1  0.837061  0.162939  0.076058  1
  Al  Al23  1  0.837061  0.674123  0.076058  1
  Al  Al24  1  0.666667  0.333333  0.528400  1
  Al  Al25  1  0.333333  0.666667  0.471600  1
  Al  Al26  1  0.333333  0.666667  0.028400  1
  Al  Al27  1  0.666667  0.333333  0.971600  1
  Al  Al28  1  0.000000  0.000000  0.250000  1
  Al  Al29  1  0.000000  0.000000  0.750000  1
  Ir  Ir30  1  0.500000  0.500000  0.500000  1
  Ir  Ir31  1  0.500000  0.000000  0.500000  1
  Ir  Ir32  1  0.000000  0.500000  0.500000  1
  Ir  Ir33  1  0.500000  0.500000  0.000000  1
  Ir  Ir34  1  0.500000  0.000000  0.000000  1
  Ir  Ir35  1  0.000000  0.500000  0.000000  1
  Ru  Ru36  1  0.000000  0.000000  0.500000  1
  Ru  Ru37  1  0.000000  0.000000  0.000000  1
