# generated using pymatgen
data_Tb5Th3(MnCd)2
_symmetry_space_group_name_H-M   'P 1'
_cell_length_a   9.58136061
_cell_length_b   9.64636641
_cell_length_c   9.64636800
_cell_angle_alpha   59.55464515
_cell_angle_beta   60.22267001
_cell_angle_gamma   60.22266695
_symmetry_Int_Tables_number   1
_chemical_formula_structural   Tb5Th3(MnCd)2
_chemical_formula_sum   'Tb10 Th6 Mn4 Cd4'
_cell_volume   630.37724085
_cell_formula_units_Z   2
loop_
 _symmetry_equiv_pos_site_id
 _symmetry_equiv_pos_as_xyz
  1  'x, y, z'
loop_
 _atom_site_type_symbol
 _atom_site_label
 _atom_site_symmetry_multiplicity
 _atom_site_fract_x
 _atom_site_fract_y
 _atom_site_fract_z
 _atom_site_occupancy
  Tb  Tb0  1  0.440398  0.059602  0.440398  1
  Tb  Tb1  1  0.059602  0.440398  0.059602  1
  Tb  Tb2  1  0.440398  0.440398  0.059602  1
  Tb  Tb3  1  0.059602  0.059602  0.440398  1
  Tb  Tb4  1  0.183803  0.816197  0.816197  1
  Tb  Tb5  1  0.816197  0.183803  0.183803  1
  Tb  Tb6  1  0.808479  0.191521  0.808479  1
  Tb  Tb7  1  0.191521  0.808479  0.191521  1
  Tb  Tb8  1  0.808479  0.808479  0.191521  1
  Tb  Tb9  1  0.191521  0.191521  0.808479  1
  Th  Th10  1  0.592413  0.595509  0.595509  1
  Th  Th11  1  0.595509  0.592413  0.216570  1
  Th  Th12  1  0.595509  0.216570  0.592413  1
  Th  Th13  1  0.216570  0.595509  0.595509  1
  Th  Th14  1  0.065679  0.434321  0.434321  1
  Th  Th15  1  0.434321  0.065679  0.065679  1
  Mn  Mn16  1  0.360279  0.404492  0.404492  1
  Mn  Mn17  1  0.404492  0.360279  0.830738  1
  Mn  Mn18  1  0.404492  0.830738  0.360279  1
  Mn  Mn19  1  0.830738  0.404492  0.404492  1
  Cd  Cd20  1  0.833136  0.829706  0.829706  1
  Cd  Cd21  1  0.829706  0.833136  0.507452  1
  Cd  Cd22  1  0.829706  0.507452  0.833136  1
  Cd  Cd23  1  0.507452  0.829706  0.829706  1
