# generated using pymatgen
data_Tm7Hf(Si4W3)4
_symmetry_space_group_name_H-M   'P 1'
_cell_length_a   6.69565311
_cell_length_b   6.87702400
_cell_length_c   12.84105804
_cell_angle_alpha   89.88604399
_cell_angle_beta   89.99653564
_cell_angle_gamma   90.12048732
_symmetry_Int_Tables_number   1
_chemical_formula_structural   Tm7Hf(Si4W3)4
_chemical_formula_sum   'Tm7 Hf1 Si16 W12'
_cell_volume   591.27902628
_cell_formula_units_Z   1
loop_
 _symmetry_equiv_pos_site_id
 _symmetry_equiv_pos_as_xyz
  1  'x, y, z'
loop_
 _atom_site_type_symbol
 _atom_site_label
 _atom_site_symmetry_multiplicity
 _atom_site_fract_x
 _atom_site_fract_y
 _atom_site_fract_z
 _atom_site_occupancy
  Tm  Tm0  1  0.995890  0.167794  0.093620  1
  Tm  Tm1  1  0.004126  0.832013  0.905902  1
  Tm  Tm2  1  0.504154  0.667292  0.906923  1
  Tm  Tm3  1  0.005750  0.831488  0.592663  1
  Tm  Tm4  1  0.495861  0.331661  0.093527  1
  Tm  Tm5  1  0.996303  0.168327  0.407587  1
  Tm  Tm6  1  0.496599  0.333264  0.408020  1
  Hf  Hf7  1  0.506939  0.670232  0.596588  1
  Si  Si8  1  0.034564  0.127957  0.749530  1
  Si  Si9  1  0.963558  0.871528  0.250288  1
  Si  Si10  1  0.464471  0.627195  0.249691  1
  Si  Si11  1  0.535054  0.374063  0.748568  1
  Si  Si12  1  0.303420  0.863595  0.748958  1
  Si  Si13  1  0.697074  0.134469  0.250791  1
  Si  Si14  1  0.198109  0.364411  0.250487  1
  Si  Si15  1  0.800359  0.635910  0.749461  1
  Si  Si16  1  0.169240  0.461687  0.545230  1
  Si  Si17  1  0.835356  0.541387  0.455861  1
  Si  Si18  1  0.337823  0.957241  0.455851  1
  Si  Si19  1  0.837661  0.540656  0.046027  1
  Si  Si20  1  0.661645  0.038517  0.545712  1
  Si  Si21  1  0.161180  0.458963  0.953278  1
  Si  Si22  1  0.661472  0.040520  0.952903  1
  Si  Si23  1  0.337768  0.960043  0.046067  1
  W  W24  1  0.166732  0.503953  0.747341  1
  W  W25  1  0.834216  0.498073  0.251529  1
  W  W26  1  0.333385  0.001041  0.250430  1
  W  W27  1  0.665791  0.994680  0.748073  1
  W  W28  1  0.331887  0.164256  0.624357  1
  W  W29  1  0.665847  0.833462  0.377053  1
  W  W30  1  0.168382  0.664294  0.375273  1
  W  W31  1  0.667292  0.834812  0.124991  1
  W  W32  1  0.831326  0.338963  0.624584  1
  W  W33  1  0.332154  0.165727  0.873809  1
  W  W34  1  0.830889  0.337080  0.874639  1
  W  W35  1  0.167727  0.663446  0.124386  1
