# generated using pymatgen
data_Tb8YTm(SiB4)4
_symmetry_space_group_name_H-M   'P 1'
_cell_length_a   7.24418900
_cell_length_b   7.24418900
_cell_length_c   8.12150900
_cell_angle_alpha   90.00000000
_cell_angle_beta   90.00000000
_cell_angle_gamma   90.00000000
_symmetry_Int_Tables_number   1
_chemical_formula_structural   Tb8YTm(SiB4)4
_chemical_formula_sum   'Tb8 Y1 Tm1 Si4 B16'
_cell_volume   426.20277677
_cell_formula_units_Z   1
loop_
 _symmetry_equiv_pos_site_id
 _symmetry_equiv_pos_as_xyz
  1  'x, y, z'
loop_
 _atom_site_type_symbol
 _atom_site_label
 _atom_site_symmetry_multiplicity
 _atom_site_fract_x
 _atom_site_fract_y
 _atom_site_fract_z
 _atom_site_occupancy
  Tb  Tb0  1  0.679874  0.180467  0.224608  1
  Tb  Tb1  1  0.320126  0.819533  0.775392  1
  Tb  Tb2  1  0.320126  0.819533  0.224608  1
  Tb  Tb3  1  0.819533  0.679874  0.224608  1
  Tb  Tb4  1  0.819533  0.679874  0.775392  1
  Tb  Tb5  1  0.679874  0.180467  0.775392  1
  Tb  Tb6  1  0.180467  0.320126  0.775392  1
  Tb  Tb7  1  0.180467  0.320126  0.224608  1
  Y  Y8  1  0.000000  0.000000  0.500000  1
  Tm  Tm9  1  0.500000  0.500000  0.500000  1
  Si  Si10  1  0.116307  0.613759  0.500000  1
  Si  Si11  1  0.883693  0.386241  0.500000  1
  Si  Si12  1  0.386241  0.116307  0.500000  1
  Si  Si13  1  0.613759  0.883693  0.500000  1
  B  B14  1  0.172458  0.039089  0.000000  1
  B  B15  1  0.827542  0.960911  0.000000  1
  B  B16  1  0.960911  0.172458  0.000000  1
  B  B17  1  0.327605  0.539075  0.000000  1
  B  B18  1  0.039089  0.827542  0.000000  1
  B  B19  1  0.672395  0.460925  0.000000  1
  B  B20  1  0.539075  0.672395  0.000000  1
  B  B21  1  0.460925  0.327605  0.000000  1
  B  B22  1  0.089915  0.589983  0.000000  1
  B  B23  1  0.910085  0.410017  0.000000  1
  B  B24  1  0.410017  0.089915  0.000000  1
  B  B25  1  0.589983  0.910085  0.000000  1
  B  B26  1  0.000000  0.000000  0.161087  1
  B  B27  1  0.000000  0.000000  0.838913  1
  B  B28  1  0.500000  0.500000  0.838165  1
  B  B29  1  0.500000  0.500000  0.161835  1
