# generated using pymatgen
data_CeY3Sc3AlIr4
_symmetry_space_group_name_H-M   'P 1'
_cell_length_a   7.08090858
_cell_length_b   4.31075700
_cell_length_c   8.44353376
_cell_angle_alpha   90.00000000
_cell_angle_beta   92.94798451
_cell_angle_gamma   90.00000000
_symmetry_Int_Tables_number   1
_chemical_formula_structural   CeY3Sc3AlIr4
_chemical_formula_sum   'Ce1 Y3 Sc3 Al1 Ir4'
_cell_volume   257.38999610
_cell_formula_units_Z   1
loop_
 _symmetry_equiv_pos_site_id
 _symmetry_equiv_pos_as_xyz
  1  'x, y, z'
loop_
 _atom_site_type_symbol
 _atom_site_label
 _atom_site_symmetry_multiplicity
 _atom_site_fract_x
 _atom_site_fract_y
 _atom_site_fract_z
 _atom_site_occupancy
  Ce  Ce0  1  0.519980  0.750000  0.692573  1
  Y  Y1  1  0.982946  0.250000  0.163109  1
  Y  Y2  1  0.466611  0.250000  0.316072  1
  Y  Y3  1  0.039287  0.750000  0.829895  1
  Sc  Sc4  1  0.869398  0.250000  0.563922  1
  Sc  Sc5  1  0.137934  0.750000  0.429661  1
  Sc  Sc6  1  0.633172  0.750000  0.063076  1
  Al  Al7  1  0.355433  0.250000  0.940816  1
  Ir  Ir8  1  0.725929  0.250000  0.878256  1
  Ir  Ir9  1  0.249545  0.250000  0.614527  1
  Ir  Ir10  1  0.265086  0.750000  0.115599  1
  Ir  Ir11  1  0.754680  0.750000  0.392493  1
