# generated using pymatgen
data_KDy(BeB14)2
_symmetry_space_group_name_H-M   'P 1'
_cell_length_a   7.25313621
_cell_length_b   7.25313586
_cell_length_c   7.25313605
_cell_angle_alpha   133.24293710
_cell_angle_beta   110.35902111
_cell_angle_gamma   88.10919989
_symmetry_Int_Tables_number   1
_chemical_formula_structural   KDy(BeB14)2
_chemical_formula_sum   'K1 Dy1 Be2 B28'
_cell_volume   248.53588421
_cell_formula_units_Z   1
loop_
 _symmetry_equiv_pos_site_id
 _symmetry_equiv_pos_as_xyz
  1  'x, y, z'
loop_
 _atom_site_type_symbol
 _atom_site_label
 _atom_site_symmetry_multiplicity
 _atom_site_fract_x
 _atom_site_fract_y
 _atom_site_fract_z
 _atom_site_occupancy
  K  K0  1  0.603697  0.250000  0.353697  1
  Dy  Dy1  1  0.388494  0.750000  0.638494  1
  Be  Be2  1  0.995088  0.007589  0.502677  1
  Be  Be3  1  0.995088  0.492411  0.987498  1
  B  B4  1  0.633505  0.665138  0.968368  1
  B  B5  1  0.366603  0.334907  0.031694  1
  B  B6  1  0.196787  0.165093  0.031694  1
  B  B7  1  0.803230  0.834862  0.968368  1
  B  B8  1  0.791110  0.154033  0.637078  1
  B  B9  1  0.209592  0.844304  0.365288  1
  B  B10  1  0.020983  0.655696  0.365288  1
  B  B11  1  0.983046  0.345967  0.637078  1
  B  B12  1  0.925217  0.090908  0.834308  1
  B  B13  1  0.079088  0.910526  0.168561  1
  B  B14  1  0.758034  0.589474  0.168561  1
  B  B15  1  0.243401  0.409092  0.834308  1
  B  B16  1  0.396242  0.397076  0.679759  1
  B  B17  1  0.603230  0.279330  0.996148  1
  B  B18  1  0.216817  0.892918  0.996148  1
  B  B19  1  0.782683  0.783517  0.679759  1
  B  B20  1  0.603230  0.607082  0.323899  1
  B  B21  1  0.396242  0.716483  0.999166  1
  B  B22  1  0.782683  0.102924  0.999166  1
  B  B23  1  0.216817  0.220670  0.323899  1
  B  B24  1  0.033822  0.825730  0.700030  1
  B  B25  1  0.967228  0.664992  0.794189  1
  B  B26  1  0.629197  0.326962  0.794189  1
  B  B27  1  0.374301  0.166210  0.700030  1
  B  B28  1  0.967228  0.173038  0.302237  1
  B  B29  1  0.033822  0.333790  0.208092  1
  B  B30  1  0.374301  0.674270  0.208092  1
  B  B31  1  0.629197  0.835008  0.302237  1
