# generated using pymatgen
data_Sr3YEr(GeO4)3
_symmetry_space_group_name_H-M   'P 1'
_cell_length_a   11.45379781
_cell_length_b   11.45379764
_cell_length_c   11.45379700
_cell_angle_alpha   109.47122304
_cell_angle_beta   109.47122273
_cell_angle_gamma   109.47121384
_symmetry_Int_Tables_number   1
_chemical_formula_structural   Sr3YEr(GeO4)3
_chemical_formula_sum   'Sr12 Y4 Er4 Ge12 O48'
_cell_volume   1156.71567757
_cell_formula_units_Z   4
loop_
 _symmetry_equiv_pos_site_id
 _symmetry_equiv_pos_as_xyz
  1  'x, y, z'
loop_
 _atom_site_type_symbol
 _atom_site_label
 _atom_site_symmetry_multiplicity
 _atom_site_fract_x
 _atom_site_fract_y
 _atom_site_fract_z
 _atom_site_occupancy
  Sr  Sr0  1  0.750000  0.124869  0.374869  1
  Sr  Sr1  1  0.250000  0.375131  0.125131  1
  Sr  Sr2  1  0.125131  0.250000  0.375131  1
  Sr  Sr3  1  0.374869  0.750000  0.124869  1
  Sr  Sr4  1  0.750000  0.624869  0.874869  1
  Sr  Sr5  1  0.124869  0.374869  0.750000  1
  Sr  Sr6  1  0.624869  0.874869  0.750000  1
  Sr  Sr7  1  0.250000  0.875131  0.625131  1
  Sr  Sr8  1  0.875131  0.625131  0.250000  1
  Sr  Sr9  1  0.625131  0.250000  0.875131  1
  Sr  Sr10  1  0.874869  0.750000  0.624869  1
  Sr  Sr11  1  0.375131  0.125131  0.250000  1
  Y  Y12  1  0.000000  0.000000  0.000000  1
  Y  Y13  1  0.500000  0.500000  0.000000  1
  Y  Y14  1  0.000000  0.500000  0.500000  1
  Y  Y15  1  0.500000  0.000000  0.500000  1
  Er  Er16  1  0.500000  0.000000  0.000000  1
  Er  Er17  1  0.000000  0.500000  0.000000  1
  Er  Er18  1  0.500000  0.500000  0.500000  1
  Er  Er19  1  0.000000  0.000000  0.500000  1
  Ge  Ge20  1  0.124606  0.874606  0.250000  1
  Ge  Ge21  1  0.875394  0.125394  0.750000  1
  Ge  Ge22  1  0.250000  0.624606  0.374606  1
  Ge  Ge23  1  0.374606  0.250000  0.624606  1
  Ge  Ge24  1  0.750000  0.875394  0.125394  1
  Ge  Ge25  1  0.125394  0.750000  0.875394  1
  Ge  Ge26  1  0.375394  0.625394  0.750000  1
  Ge  Ge27  1  0.625394  0.750000  0.375394  1
  Ge  Ge28  1  0.874606  0.250000  0.124606  1
  Ge  Ge29  1  0.250000  0.124606  0.874606  1
  Ge  Ge30  1  0.750000  0.375394  0.625394  1
  Ge  Ge31  1  0.624606  0.374606  0.250000  1
  O  O32  1  0.410551  0.803732  0.791483  1
  O  O33  1  0.880932  0.393181  0.089449  1
  O  O34  1  0.106819  0.987751  0.696268  1
  O  O35  1  0.512249  0.619068  0.708517  1
  O  O36  1  0.697879  0.090777  0.710578  1
  O  O37  1  0.619068  0.708517  0.512249  1
  O  O38  1  0.619801  0.409223  0.107101  1
  O  O39  1  0.708517  0.512249  0.619068  1
  O  O40  1  0.802121  0.512699  0.392899  1
  O  O41  1  0.987301  0.789422  0.880199  1
  O  O42  1  0.789422  0.880199  0.987301  1
  O  O43  1  0.710578  0.697879  0.090777  1
  O  O44  1  0.409223  0.107101  0.619801  1
  O  O45  1  0.392899  0.802121  0.512699  1
  O  O46  1  0.090777  0.710578  0.697879  1
  O  O47  1  0.107101  0.619801  0.409223  1
  O  O48  1  0.512699  0.392899  0.802121  1
  O  O49  1  0.089449  0.880932  0.393181  1
  O  O50  1  0.987751  0.696268  0.106819  1
  O  O51  1  0.197879  0.487301  0.607101  1
  O  O52  1  0.696268  0.106819  0.987751  1
  O  O53  1  0.791483  0.410551  0.803732  1
  O  O54  1  0.393181  0.089449  0.880932  1
  O  O55  1  0.880199  0.987301  0.789422  1
  O  O56  1  0.589449  0.196268  0.208517  1
  O  O57  1  0.119068  0.606819  0.910551  1
  O  O58  1  0.893181  0.012249  0.303732  1
  O  O59  1  0.487751  0.380932  0.291483  1
  O  O60  1  0.302121  0.909223  0.289422  1
  O  O61  1  0.380932  0.291483  0.487751  1
  O  O62  1  0.380199  0.590777  0.892899  1
  O  O63  1  0.291483  0.487751  0.380932  1
  O  O64  1  0.119801  0.012699  0.210578  1
  O  O65  1  0.606819  0.910551  0.119068  1
  O  O66  1  0.208517  0.589449  0.196268  1
  O  O67  1  0.196268  0.208517  0.589449  1
  O  O68  1  0.303732  0.893181  0.012249  1
  O  O69  1  0.012249  0.303732  0.893181  1
  O  O70  1  0.910551  0.119068  0.606819  1
  O  O71  1  0.487301  0.607101  0.197879  1
  O  O72  1  0.892899  0.380199  0.590777  1
  O  O73  1  0.909223  0.289422  0.302121  1
  O  O74  1  0.607101  0.197879  0.487301  1
  O  O75  1  0.590777  0.892899  0.380199  1
  O  O76  1  0.289422  0.302121  0.909223  1
  O  O77  1  0.210578  0.119801  0.012699  1
  O  O78  1  0.012699  0.210578  0.119801  1
  O  O79  1  0.803732  0.791483  0.410551  1
