# generated using pymatgen
data_Nd17Ag3Rh4
_symmetry_space_group_name_H-M   'P 1'
_cell_length_a   9.96935703
_cell_length_b   10.00429499
_cell_length_c   10.00429500
_cell_angle_alpha   60.00000326
_cell_angle_beta   59.88400635
_cell_angle_gamma   59.88400677
_symmetry_Int_Tables_number   1
_chemical_formula_structural   Nd17Ag3Rh4
_chemical_formula_sum   'Nd17 Ag3 Rh4'
_cell_volume   704.30616379
_cell_formula_units_Z   1
loop_
 _symmetry_equiv_pos_site_id
 _symmetry_equiv_pos_as_xyz
  1  'x, y, z'
loop_
 _atom_site_type_symbol
 _atom_site_label
 _atom_site_symmetry_multiplicity
 _atom_site_fract_x
 _atom_site_fract_y
 _atom_site_fract_z
 _atom_site_occupancy
  Nd  Nd0  1  0.595485  0.596088  0.596088  1
  Nd  Nd1  1  0.595485  0.596088  0.212338  1
  Nd  Nd2  1  0.595485  0.212338  0.596088  1
  Nd  Nd3  1  0.195660  0.601447  0.601447  1
  Nd  Nd4  1  0.053315  0.443748  0.443748  1
  Nd  Nd5  1  0.430728  0.066365  0.066365  1
  Nd  Nd6  1  0.430728  0.066365  0.436543  1
  Nd  Nd7  1  0.053315  0.443748  0.059188  1
  Nd  Nd8  1  0.430728  0.436543  0.066365  1
  Nd  Nd9  1  0.053315  0.059188  0.443748  1
  Nd  Nd10  1  0.186187  0.814880  0.814880  1
  Nd  Nd11  1  0.808824  0.187867  0.187867  1
  Nd  Nd12  1  0.808824  0.187867  0.815441  1
  Nd  Nd13  1  0.186187  0.814880  0.184053  1
  Nd  Nd14  1  0.808824  0.815441  0.187867  1
  Nd  Nd15  1  0.186187  0.184053  0.814880  1
  Nd  Nd16  1  0.560359  0.813214  0.813214  1
  Ag  Ag17  1  0.846443  0.834137  0.834137  1
  Ag  Ag18  1  0.846443  0.834137  0.485286  1
  Ag  Ag19  1  0.846443  0.485286  0.834137  1
  Rh  Rh20  1  0.385776  0.394373  0.394373  1
  Rh  Rh21  1  0.385776  0.394373  0.825478  1
  Rh  Rh22  1  0.385776  0.825478  0.394373  1
  Rh  Rh23  1  0.823703  0.392099  0.392099  1
