# generated using pymatgen
data_Tb6Fe8Co7(P4Rh)3
_symmetry_space_group_name_H-M   'P 1'
_cell_length_a   3.74283500
_cell_length_b   10.70355500
_cell_length_c   12.22506600
_cell_angle_alpha   90.00000000
_cell_angle_beta   90.00000000
_cell_angle_gamma   90.00000000
_symmetry_Int_Tables_number   1
_chemical_formula_structural   Tb6Fe8Co7(P4Rh)3
_chemical_formula_sum   'Tb6 Fe8 Co7 P12 Rh3'
_cell_volume   489.75619647
_cell_formula_units_Z   1
loop_
 _symmetry_equiv_pos_site_id
 _symmetry_equiv_pos_as_xyz
  1  'x, y, z'
loop_
 _atom_site_type_symbol
 _atom_site_label
 _atom_site_symmetry_multiplicity
 _atom_site_fract_x
 _atom_site_fract_y
 _atom_site_fract_z
 _atom_site_occupancy
  Tb  Tb0  1  0.000000  0.500000  0.522412  1
  Tb  Tb1  1  0.500000  0.000000  0.473743  1
  Tb  Tb2  1  0.500000  0.820416  0.204095  1
  Tb  Tb3  1  0.500000  0.179584  0.204095  1
  Tb  Tb4  1  0.000000  0.683982  0.795973  1
  Tb  Tb5  1  0.000000  0.316018  0.795973  1
  Fe  Fe6  1  0.000000  0.500000  0.991785  1
  Fe  Fe7  1  0.500000  0.000000  0.010031  1
  Fe  Fe8  1  0.000000  0.169001  0.006484  1
  Fe  Fe9  1  0.000000  0.830999  0.006484  1
  Fe  Fe10  1  0.000000  0.199750  0.568018  1
  Fe  Fe11  1  0.000000  0.800250  0.568018  1
  Fe  Fe12  1  0.000000  0.619004  0.291320  1
  Fe  Fe13  1  0.000000  0.380996  0.291320  1
  Co  Co14  1  0.000000  0.000000  0.297704  1
  Co  Co15  1  0.500000  0.332919  0.995028  1
  Co  Co16  1  0.500000  0.667081  0.995028  1
  Co  Co17  1  0.500000  0.296408  0.428732  1
  Co  Co18  1  0.500000  0.703592  0.428732  1
  Co  Co19  1  0.500000  0.881122  0.710600  1
  Co  Co20  1  0.500000  0.118878  0.710600  1
  P  P21  1  0.500000  0.500000  0.891901  1
  P  P22  1  0.000000  0.000000  0.113314  1
  P  P23  1  0.500000  0.500000  0.347708  1
  P  P24  1  0.000000  0.000000  0.648886  1
  P  P25  1  0.500000  0.298353  0.612476  1
  P  P26  1  0.500000  0.701647  0.612476  1
  P  P27  1  0.000000  0.191717  0.382398  1
  P  P28  1  0.000000  0.808283  0.382398  1
  P  P29  1  0.500000  0.842943  0.899804  1
  P  P30  1  0.500000  0.157057  0.899804  1
  P  P31  1  0.000000  0.656597  0.106057  1
  P  P32  1  0.000000  0.343403  0.106057  1
  Rh  Rh33  1  0.500000  0.500000  0.158238  1
  Rh  Rh34  1  0.000000  0.000000  0.842255  1
  Rh  Rh35  1  0.500000  0.500000  0.700056  1
