# generated using pymatgen
data_Sc3Ga3Pd2Pt
_symmetry_space_group_name_H-M   'P 1'
_cell_length_a   7.30640600
_cell_length_b   7.30640582
_cell_length_c   6.88116100
_cell_angle_alpha   90.00000000
_cell_angle_beta   90.00000000
_cell_angle_gamma   120.00000081
_symmetry_Int_Tables_number   1
_chemical_formula_structural   Sc3Ga3Pd2Pt
_chemical_formula_sum   'Sc6 Ga6 Pd4 Pt2'
_cell_volume   318.12656733
_cell_formula_units_Z   2
loop_
 _symmetry_equiv_pos_site_id
 _symmetry_equiv_pos_as_xyz
  1  'x, y, z'
loop_
 _atom_site_type_symbol
 _atom_site_label
 _atom_site_symmetry_multiplicity
 _atom_site_fract_x
 _atom_site_fract_y
 _atom_site_fract_z
 _atom_site_occupancy
  Sc  Sc0  1  0.744522  0.057789  0.000000  1
  Sc  Sc1  1  0.313265  0.255478  0.000000  1
  Sc  Sc2  1  0.942211  0.686735  0.000000  1
  Sc  Sc3  1  0.342669  0.269716  0.500000  1
  Sc  Sc4  1  0.730284  0.072952  0.500000  1
  Sc  Sc5  1  0.927048  0.657331  0.500000  1
  Ga  Ga6  1  0.602484  0.663376  0.749684  1
  Ga  Ga7  1  0.060892  0.397516  0.749684  1
  Ga  Ga8  1  0.336624  0.939108  0.749684  1
  Ga  Ga9  1  0.602484  0.663376  0.250316  1
  Ga  Ga10  1  0.060892  0.397516  0.250316  1
  Ga  Ga11  1  0.336624  0.939108  0.250316  1
  Pd  Pd12  1  0.333333  0.666667  0.000000  1
  Pd  Pd13  1  0.333333  0.666667  0.500000  1
  Pd  Pd14  1  0.666667  0.333333  0.769455  1
  Pd  Pd15  1  0.666667  0.333333  0.230545  1
  Pt  Pt16  1  0.000000  0.000000  0.266213  1
  Pt  Pt17  1  0.000000  0.000000  0.733787  1
