# generated using pymatgen
data_Nd9Er(In3Br)2
_symmetry_space_group_name_H-M   'P 1'
_cell_length_a   9.55659200
_cell_length_b   9.55659248
_cell_length_c   6.79728500
_cell_angle_alpha   90.00000000
_cell_angle_beta   90.00000000
_cell_angle_gamma   119.99999834
_symmetry_Int_Tables_number   1
_chemical_formula_structural   Nd9Er(In3Br)2
_chemical_formula_sum   'Nd9 Er1 In6 Br2'
_cell_volume   537.61605599
_cell_formula_units_Z   1
loop_
 _symmetry_equiv_pos_site_id
 _symmetry_equiv_pos_as_xyz
  1  'x, y, z'
loop_
 _atom_site_type_symbol
 _atom_site_label
 _atom_site_symmetry_multiplicity
 _atom_site_fract_x
 _atom_site_fract_y
 _atom_site_fract_z
 _atom_site_occupancy
  Nd  Nd0  1  0.735224  0.733513  0.248803  1
  Nd  Nd1  1  0.998288  0.733513  0.751197  1
  Nd  Nd2  1  0.735224  0.001712  0.751197  1
  Nd  Nd3  1  0.333333  0.666667  0.500000  1
  Nd  Nd4  1  0.266487  0.264776  0.751197  1
  Nd  Nd5  1  0.998288  0.264776  0.248803  1
  Nd  Nd6  1  0.666667  0.333333  0.500000  1
  Nd  Nd7  1  0.266487  0.001712  0.248803  1
  Nd  Nd8  1  0.333333  0.666667  0.000000  1
  Er  Er9  1  0.666667  0.333333  0.000000  1
  In  In10  1  0.395076  0.003504  0.752263  1
  In  In11  1  0.996496  0.604924  0.247737  1
  In  In12  1  0.608428  0.003504  0.247737  1
  In  In13  1  0.996496  0.391572  0.752263  1
  In  In14  1  0.395076  0.391572  0.247737  1
  In  In15  1  0.608428  0.604924  0.752263  1
  Br  Br16  1  0.000000  0.000000  0.500000  1
  Br  Br17  1  0.000000  0.000000  0.000000  1
