# generated using pymatgen
data_NdSmSn5Rh3
_symmetry_space_group_name_H-M   'P 1'
_cell_length_a   13.58778680
_cell_length_b   13.58778570
_cell_length_c   7.25749400
_cell_angle_alpha   90.00000000
_cell_angle_beta   90.00000000
_cell_angle_gamma   160.81738090
_symmetry_Int_Tables_number   1
_chemical_formula_structural   NdSmSn5Rh3
_chemical_formula_sum   'Nd2 Sm2 Sn10 Rh6'
_cell_volume   440.27641680
_cell_formula_units_Z   2
loop_
 _symmetry_equiv_pos_site_id
 _symmetry_equiv_pos_as_xyz
  1  'x, y, z'
loop_
 _atom_site_type_symbol
 _atom_site_label
 _atom_site_symmetry_multiplicity
 _atom_site_fract_x
 _atom_site_fract_y
 _atom_site_fract_z
 _atom_site_occupancy
  Nd  Nd0  1  0.172366  0.827634  0.754616  1
  Nd  Nd1  1  0.827634  0.172366  0.254616  1
  Sm  Sm2  1  0.476072  0.523928  0.737951  1
  Sm  Sm3  1  0.523928  0.476072  0.237951  1
  Sn  Sn4  1  0.879324  0.120676  0.732203  1
  Sn  Sn5  1  0.120676  0.879324  0.232203  1
  Sn  Sn6  1  0.704678  0.295322  0.049177  1
  Sn  Sn7  1  0.295322  0.704678  0.549177  1
  Sn  Sn8  1  0.596139  0.403861  0.610823  1
  Sn  Sn9  1  0.403861  0.596139  0.110823  1
  Sn  Sn10  1  0.952115  0.047885  0.400704  1
  Sn  Sn11  1  0.047885  0.952115  0.900704  1
  Sn  Sn12  1  0.290325  0.709675  0.975810  1
  Sn  Sn13  1  0.709675  0.290325  0.475810  1
  Rh  Rh14  1  0.050811  0.949189  0.518013  1
  Rh  Rh15  1  0.949189  0.050811  0.018013  1
  Rh  Rh16  1  0.777322  0.222678  0.764475  1
  Rh  Rh17  1  0.222678  0.777322  0.264475  1
  Rh  Rh18  1  0.394832  0.605168  0.484225  1
  Rh  Rh19  1  0.605168  0.394832  0.984225  1
