# generated using pymatgen
data_Mo3P4WO16
_symmetry_space_group_name_H-M   'P 1'
_cell_length_a   9.01538141
_cell_length_b   6.94748770
_cell_length_c   4.86813800
_cell_angle_alpha   90.51799151
_cell_angle_beta   89.55870016
_cell_angle_gamma   89.90306598
_symmetry_Int_Tables_number   1
_chemical_formula_structural   Mo3P4WO16
_chemical_formula_sum   'Mo3 P4 W1 O16'
_cell_volume   304.89020201
_cell_formula_units_Z   1
loop_
 _symmetry_equiv_pos_site_id
 _symmetry_equiv_pos_as_xyz
  1  'x, y, z'
loop_
 _atom_site_type_symbol
 _atom_site_label
 _atom_site_symmetry_multiplicity
 _atom_site_fract_x
 _atom_site_fract_y
 _atom_site_fract_z
 _atom_site_occupancy
  Mo  Mo0  1  0.000000  0.000000  0.000000  1
  Mo  Mo1  1  0.000000  0.499999  0.000000  1
  Mo  Mo2  1  0.499999  0.000000  0.499999  1
  P  P3  1  0.677205  0.248970  0.008549  1
  P  P4  1  0.176577  0.249840  0.487470  1
  P  P5  1  0.823423  0.750160  0.512531  1
  P  P6  1  0.322795  0.751030  0.991451  1
  W  W7  1  0.499999  0.499999  0.499999  1
  O  O8  1  0.852717  0.249737  0.022602  1
  O  O9  1  0.626688  0.063463  0.144858  1
  O  O10  1  0.627098  0.436423  0.143767  1
  O  O11  1  0.882091  0.749806  0.204672  1
  O  O12  1  0.381464  0.751449  0.298261  1
  O  O13  1  0.127024  0.062915  0.350812  1
  O  O14  1  0.126491  0.435334  0.351719  1
  O  O15  1  0.352452  0.249443  0.475092  1
  O  O16  1  0.647548  0.750557  0.524908  1
  O  O17  1  0.873509  0.564666  0.648281  1
  O  O18  1  0.872976  0.937085  0.649188  1
  O  O19  1  0.618536  0.248551  0.701739  1
  O  O20  1  0.117909  0.250194  0.795328  1
  O  O21  1  0.372902  0.563577  0.856234  1
  O  O22  1  0.373312  0.936537  0.855143  1
  O  O23  1  0.147283  0.750263  0.977399  1
