# generated using pymatgen
data_Na3(Nd2Au5)2
_symmetry_space_group_name_H-M   'P 1'
_cell_length_a   8.87056040
_cell_length_b   8.87056039
_cell_length_c   10.36732100
_cell_angle_alpha   90.00000000
_cell_angle_beta   90.00000000
_cell_angle_gamma   108.69091112
_symmetry_Int_Tables_number   1
_chemical_formula_structural   Na3(Nd2Au5)2
_chemical_formula_sum   'Na6 Nd8 Au20'
_cell_volume   772.74886217
_cell_formula_units_Z   2
loop_
 _symmetry_equiv_pos_site_id
 _symmetry_equiv_pos_as_xyz
  1  'x, y, z'
loop_
 _atom_site_type_symbol
 _atom_site_label
 _atom_site_symmetry_multiplicity
 _atom_site_fract_x
 _atom_site_fract_y
 _atom_site_fract_z
 _atom_site_occupancy
  Na  Na0  1  0.513720  0.013720  0.250000  1
  Na  Na1  1  0.986280  0.486280  0.750000  1
  Na  Na2  1  0.000000  0.000000  0.000000  1
  Na  Na3  1  0.013720  0.513720  0.250000  1
  Na  Na4  1  0.486280  0.986280  0.750000  1
  Na  Na5  1  0.500000  0.500000  0.500000  1
  Nd  Nd6  1  0.700042  0.299958  0.000000  1
  Nd  Nd7  1  0.200042  0.799958  0.500000  1
  Nd  Nd8  1  0.802811  0.802810  0.300836  1
  Nd  Nd9  1  0.302811  0.302810  0.199164  1
  Nd  Nd10  1  0.799958  0.200042  0.500000  1
  Nd  Nd11  1  0.299958  0.700042  0.000000  1
  Nd  Nd12  1  0.697189  0.697190  0.800836  1
  Nd  Nd13  1  0.197189  0.197190  0.699164  1
  Au  Au14  1  0.150140  0.430222  0.489057  1
  Au  Au15  1  0.902725  0.902725  0.595755  1
  Au  Au16  1  0.569778  0.849859  0.510943  1
  Au  Au17  1  0.878734  0.161200  0.209772  1
  Au  Au18  1  0.378734  0.661200  0.290228  1
  Au  Au19  1  0.661200  0.378734  0.290228  1
  Au  Au20  1  0.402725  0.402725  0.904245  1
  Au  Au21  1  0.930222  0.650141  0.010943  1
  Au  Au22  1  0.338800  0.621266  0.709772  1
  Au  Au23  1  0.349860  0.069778  0.989057  1
  Au  Au24  1  0.597275  0.597275  0.095755  1
  Au  Au25  1  0.650140  0.930222  0.010943  1
  Au  Au26  1  0.097275  0.097275  0.404245  1
  Au  Au27  1  0.621266  0.338800  0.709772  1
  Au  Au28  1  0.121266  0.838800  0.790228  1
  Au  Au29  1  0.069778  0.349859  0.989057  1
  Au  Au30  1  0.849860  0.569778  0.510943  1
  Au  Au31  1  0.161200  0.878734  0.209772  1
  Au  Au32  1  0.430222  0.150141  0.489057  1
  Au  Au33  1  0.838800  0.121266  0.790228  1
