# generated using pymatgen
data_Y9Ho7Cd4Os3Pd
_symmetry_space_group_name_H-M   'P 1'
_cell_length_a   9.62975613
_cell_length_b   9.73308179
_cell_length_c   9.75037213
_cell_angle_alpha   59.59117392
_cell_angle_beta   59.29701610
_cell_angle_gamma   59.37195650
_symmetry_Int_Tables_number   1
_chemical_formula_structural   Y9Ho7Cd4Os3Pd
_chemical_formula_sum   'Y9 Ho7 Cd4 Os3 Pd1'
_cell_volume   637.67067324
_cell_formula_units_Z   1
loop_
 _symmetry_equiv_pos_site_id
 _symmetry_equiv_pos_as_xyz
  1  'x, y, z'
loop_
 _atom_site_type_symbol
 _atom_site_label
 _atom_site_symmetry_multiplicity
 _atom_site_fract_x
 _atom_site_fract_y
 _atom_site_fract_z
 _atom_site_occupancy
  Y  Y0  1  0.814411  0.190110  0.802480  1
  Y  Y1  1  0.186059  0.190811  0.811221  1
  Y  Y2  1  0.814733  0.803039  0.189781  1
  Y  Y3  1  0.937533  0.560865  0.559719  1
  Y  Y4  1  0.553812  0.939806  0.940205  1
  Y  Y5  1  0.552031  0.940371  0.567161  1
  Y  Y6  1  0.936092  0.560655  0.939638  1
  Y  Y7  1  0.551206  0.567106  0.941251  1
  Y  Y8  1  0.937535  0.940448  0.558780  1
  Ho  Ho9  1  0.346859  0.351560  0.351453  1
  Ho  Ho10  1  0.345156  0.351353  0.954913  1
  Ho  Ho11  1  0.346739  0.953422  0.351286  1
  Ho  Ho12  1  0.969928  0.344369  0.343037  1
  Ho  Ho13  1  0.814514  0.189988  0.190335  1
  Ho  Ho14  1  0.183402  0.810546  0.810403  1
  Ho  Ho15  1  0.186335  0.811145  0.190753  1
  Cd  Cd16  1  0.580932  0.579036  0.579167  1
  Cd  Cd17  1  0.581009  0.579549  0.259071  1
  Cd  Cd18  1  0.580583  0.259083  0.579809  1
  Cd  Cd19  1  0.255832  0.581007  0.581748  1
  Os  Os20  1  0.146856  0.136364  0.140199  1
  Os  Os21  1  0.151518  0.137326  0.576195  1
  Os  Os22  1  0.152427  0.577727  0.137768  1
  Pd  Pd23  1  0.574499  0.144312  0.143624  1
