# generated using pymatgen
data_Rb4Ba2SnP4
_symmetry_space_group_name_H-M   'P 1'
_cell_length_a   10.67343190
_cell_length_b   10.67343155
_cell_length_c   7.95049131
_cell_angle_alpha   88.51324508
_cell_angle_beta   88.51324261
_cell_angle_gamma   119.35578577
_symmetry_Int_Tables_number   1
_chemical_formula_structural   Rb4Ba2SnP4
_chemical_formula_sum   'Rb8 Ba4 Sn2 P8'
_cell_volume   788.39028492
_cell_formula_units_Z   2
loop_
 _symmetry_equiv_pos_site_id
 _symmetry_equiv_pos_as_xyz
  1  'x, y, z'
loop_
 _atom_site_type_symbol
 _atom_site_label
 _atom_site_symmetry_multiplicity
 _atom_site_fract_x
 _atom_site_fract_y
 _atom_site_fract_z
 _atom_site_occupancy
  Rb  Rb0  1  0.054385  0.525045  0.616429  1
  Rb  Rb1  1  0.525045  0.054385  0.116429  1
  Rb  Rb2  1  0.276433  0.136127  0.821110  1
  Rb  Rb3  1  0.867113  0.722308  0.772760  1
  Rb  Rb4  1  0.859855  0.148280  0.801180  1
  Rb  Rb5  1  0.722308  0.867113  0.272760  1
  Rb  Rb6  1  0.136127  0.276433  0.321110  1
  Rb  Rb7  1  0.148280  0.859855  0.301180  1
  Ba  Ba8  1  0.468401  0.938197  0.614201  1
  Ba  Ba9  1  0.467589  0.523475  0.620126  1
  Ba  Ba10  1  0.938197  0.468401  0.114201  1
  Ba  Ba11  1  0.523475  0.467589  0.120126  1
  Sn  Sn12  1  0.667801  0.336339  0.503879  1
  Sn  Sn13  1  0.336339  0.667801  0.003879  1
  P  P14  1  0.666778  0.350657  0.830797  1
  P  P15  1  0.350657  0.666778  0.330797  1
  P  P16  1  0.596913  0.791119  0.870353  1
  P  P17  1  0.207711  0.401805  0.917977  1
  P  P18  1  0.199258  0.794408  0.899936  1
  P  P19  1  0.401805  0.207711  0.417977  1
  P  P20  1  0.791119  0.596913  0.370353  1
  P  P21  1  0.794408  0.199258  0.399936  1
