# generated using pymatgen
data_Hf2BBr2
_symmetry_space_group_name_H-M   'P 1'
_cell_length_a   3.54965700
_cell_length_b   3.54965713
_cell_length_c   10.34853800
_cell_angle_alpha   90.00000000
_cell_angle_beta   90.00000000
_cell_angle_gamma   120.00000809
_symmetry_Int_Tables_number   1
_chemical_formula_structural   Hf2BBr2
_chemical_formula_sum   'Hf2 B1 Br2'
_cell_volume   112.92299556
_cell_formula_units_Z   1
loop_
 _symmetry_equiv_pos_site_id
 _symmetry_equiv_pos_as_xyz
  1  'x, y, z'
loop_
 _atom_site_type_symbol
 _atom_site_label
 _atom_site_symmetry_multiplicity
 _atom_site_fract_x
 _atom_site_fract_y
 _atom_site_fract_z
 _atom_site_occupancy
  Hf  Hf0  1  0.333333  0.666666  0.381372  1
  Hf  Hf1  1  0.666668  0.333335  0.618628  1
  B  B2  1  0.000000  0.000000  0.500000  1
  Br  Br3  1  0.666668  0.333335  0.197671  1
  Br  Br4  1  0.333333  0.666666  0.802329  1
