# generated using pymatgen
data_Dy10Y6MgCo4Ag3
_symmetry_space_group_name_H-M   'P 1'
_cell_length_a   9.47028999
_cell_length_b   9.47443675
_cell_length_c   9.47326010
_cell_angle_alpha   59.99012351
_cell_angle_beta   59.97590789
_cell_angle_gamma   59.97942481
_symmetry_Int_Tables_number   1
_chemical_formula_structural   Dy10Y6MgCo4Ag3
_chemical_formula_sum   'Dy10 Y6 Mg1 Co4 Ag3'
_cell_volume   600.78910474
_cell_formula_units_Z   1
loop_
 _symmetry_equiv_pos_site_id
 _symmetry_equiv_pos_as_xyz
  1  'x, y, z'
loop_
 _atom_site_type_symbol
 _atom_site_label
 _atom_site_symmetry_multiplicity
 _atom_site_fract_x
 _atom_site_fract_y
 _atom_site_fract_z
 _atom_site_occupancy
  Dy  Dy0  1  0.346317  0.346171  0.346311  1
  Dy  Dy1  1  0.346446  0.346270  0.961108  1
  Dy  Dy2  1  0.346381  0.961132  0.346357  1
  Dy  Dy3  1  0.948663  0.350426  0.350572  1
  Dy  Dy4  1  0.810410  0.188400  0.188381  1
  Dy  Dy5  1  0.185948  0.813953  0.813805  1
  Dy  Dy6  1  0.185973  0.813874  0.186232  1
  Dy  Dy7  1  0.810502  0.188359  0.812724  1
  Dy  Dy8  1  0.185975  0.186256  0.813783  1
  Dy  Dy9  1  0.810440  0.812786  0.188350  1
  Y  Y10  1  0.936365  0.562564  0.562553  1
  Y  Y11  1  0.562133  0.936967  0.936966  1
  Y  Y12  1  0.562225  0.936926  0.563941  1
  Y  Y13  1  0.936407  0.562492  0.938558  1
  Y  Y14  1  0.562205  0.563961  0.936925  1
  Y  Y15  1  0.936402  0.938571  0.562481  1
  Mg  Mg16  1  0.288462  0.570524  0.570494  1
  Co  Co17  1  0.138313  0.142459  0.142478  1
  Co  Co18  1  0.138316  0.142466  0.576746  1
  Co  Co19  1  0.138324  0.576726  0.142477  1
  Co  Co20  1  0.575202  0.141582  0.141626  1
  Ag  Ag21  1  0.582855  0.582677  0.582680  1
  Ag  Ag22  1  0.582881  0.582667  0.251776  1
  Ag  Ag23  1  0.582854  0.251792  0.582676  1
