# generated using pymatgen
data_Hf4Bi2Ir
_symmetry_space_group_name_H-M   'P 1'
_cell_length_a   8.33066460
_cell_length_b   8.33059641
_cell_length_c   8.33065449
_cell_angle_alpha   95.87062780
_cell_angle_beta   95.87263323
_cell_angle_gamma   142.69358083
_symmetry_Int_Tables_number   1
_chemical_formula_structural   Hf4Bi2Ir
_chemical_formula_sum   'Hf8 Bi4 Ir2'
_cell_volume   331.99227288
_cell_formula_units_Z   2
loop_
 _symmetry_equiv_pos_site_id
 _symmetry_equiv_pos_as_xyz
  1  'x, y, z'
loop_
 _atom_site_type_symbol
 _atom_site_label
 _atom_site_symmetry_multiplicity
 _atom_site_fract_x
 _atom_site_fract_y
 _atom_site_fract_z
 _atom_site_occupancy
  Hf  Hf0  1  0.701138  0.584257  0.285414  1
  Hf  Hf1  1  0.298862  0.415743  0.714586  1
  Hf  Hf2  1  0.584260  0.298849  0.883127  1
  Hf  Hf3  1  0.084278  0.201150  0.285412  1
  Hf  Hf4  1  0.798844  0.084259  0.883119  1
  Hf  Hf5  1  0.415740  0.701151  0.116873  1
  Hf  Hf6  1  0.915722  0.798850  0.714588  1
  Hf  Hf7  1  0.201156  0.915741  0.116881  1
  Bi  Bi8  1  0.139814  0.639818  0.779652  1
  Bi  Bi9  1  0.360164  0.139817  0.500003  1
  Bi  Bi10  1  0.860186  0.360182  0.220348  1
  Bi  Bi11  1  0.639836  0.860183  0.499997  1
  Ir  Ir12  1  0.249982  0.250001  0.999981  1
  Ir  Ir13  1  0.750018  0.749999  0.000019  1
