# generated using pymatgen
data_Yb2ZrSnO6
_symmetry_space_group_name_H-M   'P 1'
_cell_length_a   5.54076715
_cell_length_b   5.75778831
_cell_length_c   7.98098100
_cell_angle_alpha   90.00000000
_cell_angle_beta   90.00000000
_cell_angle_gamma   89.89998546
_symmetry_Int_Tables_number   1
_chemical_formula_structural   Yb2ZrSnO6
_chemical_formula_sum   'Yb4 Zr2 Sn2 O12'
_cell_volume   254.61337201
_cell_formula_units_Z   2
loop_
 _symmetry_equiv_pos_site_id
 _symmetry_equiv_pos_as_xyz
  1  'x, y, z'
loop_
 _atom_site_type_symbol
 _atom_site_label
 _atom_site_symmetry_multiplicity
 _atom_site_fract_x
 _atom_site_fract_y
 _atom_site_fract_z
 _atom_site_occupancy
  Yb  Yb0  1  0.980673  0.055316  0.250000  1
  Yb  Yb1  1  0.487854  0.441027  0.750000  1
  Yb  Yb2  1  0.512146  0.558973  0.250000  1
  Yb  Yb3  1  0.019327  0.944684  0.750000  1
  Zr  Zr4  1  0.000000  0.500000  0.000000  1
  Zr  Zr5  1  0.000000  0.500000  0.500000  1
  Sn  Sn6  1  0.500000  0.000000  0.000000  1
  Sn  Sn7  1  0.500000  0.000000  0.500000  1
  O  O8  1  0.617849  0.046081  0.750000  1
  O  O9  1  0.196724  0.196226  0.560007  1
  O  O10  1  0.196724  0.196226  0.939993  1
  O  O11  1  0.691630  0.301209  0.058421  1
  O  O12  1  0.691630  0.301209  0.441579  1
  O  O13  1  0.111672  0.455135  0.250000  1
  O  O14  1  0.888328  0.544865  0.750000  1
  O  O15  1  0.308370  0.698791  0.558421  1
  O  O16  1  0.308370  0.698791  0.941579  1
  O  O17  1  0.803276  0.803774  0.060007  1
  O  O18  1  0.803276  0.803774  0.439993  1
  O  O19  1  0.382151  0.953919  0.250000  1
