# generated using pymatgen
data_TbDy3ScMnAl6
_symmetry_space_group_name_H-M   'P 1'
_cell_length_a   9.45962724
_cell_length_b   9.45962645
_cell_length_c   9.45962651
_cell_angle_alpha   35.13632214
_cell_angle_beta   35.13633028
_cell_angle_gamma   35.13632085
_symmetry_Int_Tables_number   1
_chemical_formula_structural   TbDy3ScMnAl6
_chemical_formula_sum   'Tb1 Dy3 Sc1 Mn1 Al6'
_cell_volume   250.40522052
_cell_formula_units_Z   1
loop_
 _symmetry_equiv_pos_site_id
 _symmetry_equiv_pos_as_xyz
  1  'x, y, z'
loop_
 _atom_site_type_symbol
 _atom_site_label
 _atom_site_symmetry_multiplicity
 _atom_site_fract_x
 _atom_site_fract_y
 _atom_site_fract_z
 _atom_site_occupancy
  Tb  Tb0  1  0.811440  0.811440  0.811440  1
  Dy  Dy1  1  0.313507  0.313507  0.313507  1
  Dy  Dy2  1  0.686397  0.686397  0.686397  1
  Dy  Dy3  1  0.188524  0.188524  0.188524  1
  Sc  Sc4  1  0.500039  0.500039  0.500039  1
  Mn  Mn5  1  0.000053  0.000053  0.000053  1
  Al  Al6  1  0.241444  0.241444  0.755828  1
  Al  Al7  1  0.758668  0.758668  0.243987  1
  Al  Al8  1  0.241444  0.755828  0.241444  1
  Al  Al9  1  0.758668  0.243987  0.758668  1
  Al  Al10  1  0.755828  0.241444  0.241444  1
  Al  Al11  1  0.243987  0.758668  0.758668  1
