# generated using pymatgen
data_DyTaSb2Pb4O13
_symmetry_space_group_name_H-M   'P 1'
_cell_length_a   7.70044106
_cell_length_b   7.67466919
_cell_length_c   7.67466891
_cell_angle_alpha   59.67312259
_cell_angle_beta   59.68025978
_cell_angle_gamma   59.68025409
_symmetry_Int_Tables_number   1
_chemical_formula_structural   DyTaSb2Pb4O13
_chemical_formula_sum   'Dy1 Ta1 Sb2 Pb4 O13'
_cell_volume   318.36849437
_cell_formula_units_Z   1
loop_
 _symmetry_equiv_pos_site_id
 _symmetry_equiv_pos_as_xyz
  1  'x, y, z'
loop_
 _atom_site_type_symbol
 _atom_site_label
 _atom_site_symmetry_multiplicity
 _atom_site_fract_x
 _atom_site_fract_y
 _atom_site_fract_z
 _atom_site_occupancy
  Dy  Dy0  1  0.502865  0.499954  0.499954  1
  Ta  Ta1  1  0.002471  0.502516  0.502516  1
  Sb  Sb2  1  0.499228  0.500090  0.001639  1
  Sb  Sb3  1  0.499228  0.001639  0.500090  1
  Pb  Pb4  1  0.001145  0.998469  0.998469  1
  Pb  Pb5  1  0.498424  0.002020  0.002020  1
  Pb  Pb6  1  0.002786  0.013036  0.497425  1
  Pb  Pb7  1  0.002786  0.497425  0.013036  1
  O  O8  1  0.862733  0.408447  0.408447  1
  O  O9  1  0.415865  0.815722  0.815722  1
  O  O10  1  0.413915  0.414243  0.858812  1
  O  O11  1  0.806527  0.805356  0.424383  1
  O  O12  1  0.806527  0.424383  0.805356  1
  O  O13  1  0.413915  0.858812  0.414243  1
  O  O14  1  0.153431  0.577900  0.577900  1
  O  O15  1  0.582897  0.186038  0.186038  1
  O  O16  1  0.580944  0.582155  0.148101  1
  O  O17  1  0.188864  0.190855  0.577038  1
  O  O18  1  0.188864  0.577038  0.190855  1
  O  O19  1  0.580944  0.148101  0.582155  1
  O  O20  1  0.120638  0.120801  0.120801  1
