# generated using pymatgen
data_Tb3(FeOs2)2
_symmetry_space_group_name_H-M   'P 1'
_cell_length_a   5.28971826
_cell_length_b   5.27675754
_cell_length_c   13.07502160
_cell_angle_alpha   90.44404394
_cell_angle_beta   89.90119868
_cell_angle_gamma   119.03019497
_symmetry_Int_Tables_number   1
_chemical_formula_structural   Tb3(FeOs2)2
_chemical_formula_sum   'Tb6 Fe4 Os8'
_cell_volume   319.09513913
_cell_formula_units_Z   2
loop_
 _symmetry_equiv_pos_site_id
 _symmetry_equiv_pos_as_xyz
  1  'x, y, z'
loop_
 _atom_site_type_symbol
 _atom_site_label
 _atom_site_symmetry_multiplicity
 _atom_site_fract_x
 _atom_site_fract_y
 _atom_site_fract_z
 _atom_site_occupancy
  Tb  Tb0  1  0.330847  0.666874  0.916992  1
  Tb  Tb1  1  0.996886  0.999696  0.250294  1
  Tb  Tb2  1  0.666377  0.334449  0.583658  1
  Tb  Tb3  1  0.333623  0.665551  0.666342  1
  Tb  Tb4  1  0.003115  0.000304  0.999706  1
  Tb  Tb5  1  0.669153  0.333126  0.333008  1
  Fe  Fe6  1  0.500000  0.500000  0.125000  1
  Fe  Fe7  1  0.167261  0.836388  0.457883  1
  Fe  Fe8  1  0.832739  0.163612  0.792117  1
  Fe  Fe9  1  0.500000  0.000000  0.125000  1
  Os  Os10  1  0.171154  0.339112  0.456643  1
  Os  Os11  1  0.828846  0.660888  0.793357  1
  Os  Os12  1  0.333027  0.670297  0.286971  1
  Os  Os13  1  0.000000  0.000000  0.625000  1
  Os  Os14  1  0.666973  0.329703  0.963029  1
  Os  Os15  1  0.000000  0.500000  0.125000  1
  Os  Os16  1  0.666725  0.833073  0.457515  1
  Os  Os17  1  0.333275  0.166927  0.792485  1
