# generated using pymatgen
data_Cs2PrF5
_symmetry_space_group_name_H-M   'P 1'
_cell_length_a   7.34776800
_cell_length_b   7.88800300
_cell_length_c   12.22670300
_cell_angle_alpha   90.00000000
_cell_angle_beta   90.00000000
_cell_angle_gamma   90.00000000
_symmetry_Int_Tables_number   1
_chemical_formula_structural   Cs2PrF5
_chemical_formula_sum   'Cs8 Pr4 F20'
_cell_volume   708.65012048
_cell_formula_units_Z   4
loop_
 _symmetry_equiv_pos_site_id
 _symmetry_equiv_pos_as_xyz
  1  'x, y, z'
loop_
 _atom_site_type_symbol
 _atom_site_label
 _atom_site_symmetry_multiplicity
 _atom_site_fract_x
 _atom_site_fract_y
 _atom_site_fract_z
 _atom_site_occupancy
  Cs  Cs0  1  0.531036  0.498389  0.828488  1
  Cs  Cs1  1  0.468964  0.501611  0.171512  1
  Cs  Cs2  1  0.031036  0.501611  0.671512  1
  Cs  Cs3  1  0.468964  0.998389  0.171512  1
  Cs  Cs4  1  0.968964  0.498389  0.328488  1
  Cs  Cs5  1  0.531036  0.001611  0.828488  1
  Cs  Cs6  1  0.968964  0.001611  0.328488  1
  Cs  Cs7  1  0.031036  0.998389  0.671512  1
  Pr  Pr8  1  0.558383  0.750000  0.501056  1
  Pr  Pr9  1  0.441617  0.250000  0.498944  1
  Pr  Pr10  1  0.058383  0.250000  0.998944  1
  Pr  Pr11  1  0.941617  0.750000  0.001056  1
  F  F12  1  0.846680  0.750000  0.818682  1
  F  F13  1  0.153320  0.250000  0.181318  1
  F  F14  1  0.346680  0.250000  0.681318  1
  F  F15  1  0.653320  0.750000  0.318682  1
  F  F16  1  0.375069  0.750000  0.656620  1
  F  F17  1  0.624931  0.250000  0.343380  1
  F  F18  1  0.875069  0.250000  0.843380  1
  F  F19  1  0.124931  0.750000  0.156620  1
  F  F20  1  0.872252  0.750000  0.515214  1
  F  F21  1  0.127748  0.250000  0.484786  1
  F  F22  1  0.372252  0.250000  0.984786  1
  F  F23  1  0.627748  0.750000  0.015214  1
  F  F24  1  0.635882  0.031641  0.571462  1
  F  F25  1  0.364118  0.968359  0.428538  1
  F  F26  1  0.135882  0.968359  0.928538  1
  F  F27  1  0.364118  0.531641  0.428538  1
  F  F28  1  0.864118  0.031641  0.071462  1
  F  F29  1  0.635882  0.468359  0.571462  1
  F  F30  1  0.864118  0.468359  0.071462  1
  F  F31  1  0.135882  0.531641  0.928538  1
