# generated using pymatgen
data_Nd3Er5Cd2OsPt
_symmetry_space_group_name_H-M   'P 1'
_cell_length_a   9.71371556
_cell_length_b   9.71371512
_cell_length_c   9.76222900
_cell_angle_alpha   59.83464621
_cell_angle_beta   59.83464772
_cell_angle_gamma   59.84529094
_symmetry_Int_Tables_number   1
_chemical_formula_structural   Nd3Er5Cd2OsPt
_chemical_formula_sum   'Nd6 Er10 Cd4 Os2 Pt2'
_cell_volume   648.94360707
_cell_formula_units_Z   2
loop_
 _symmetry_equiv_pos_site_id
 _symmetry_equiv_pos_as_xyz
  1  'x, y, z'
loop_
 _atom_site_type_symbol
 _atom_site_label
 _atom_site_symmetry_multiplicity
 _atom_site_fract_x
 _atom_site_fract_y
 _atom_site_fract_z
 _atom_site_occupancy
  Nd  Nd0  1  0.941016  0.552974  0.563085  1
  Nd  Nd1  1  0.552974  0.941016  0.942925  1
  Nd  Nd2  1  0.552974  0.941016  0.563085  1
  Nd  Nd3  1  0.941016  0.552974  0.942925  1
  Nd  Nd4  1  0.560632  0.560632  0.939368  1
  Nd  Nd5  1  0.942673  0.942673  0.557327  1
  Er  Er6  1  0.348415  0.348415  0.350161  1
  Er  Er7  1  0.348415  0.348415  0.953009  1
  Er  Er8  1  0.344230  0.961037  0.347367  1
  Er  Er9  1  0.961037  0.344230  0.347367  1
  Er  Er10  1  0.817581  0.184384  0.188969  1
  Er  Er11  1  0.184384  0.817581  0.809067  1
  Er  Er12  1  0.184384  0.817581  0.188969  1
  Er  Er13  1  0.817581  0.184384  0.809067  1
  Er  Er14  1  0.186128  0.186128  0.813872  1
  Er  Er15  1  0.810272  0.810272  0.189728  1
  Cd  Cd16  1  0.579064  0.579064  0.578922  1
  Cd  Cd17  1  0.579064  0.579064  0.262950  1
  Cd  Cd18  1  0.580732  0.260190  0.579540  1
  Cd  Cd19  1  0.260190  0.580732  0.579540  1
  Os  Os20  1  0.143729  0.143729  0.137532  1
  Os  Os21  1  0.143729  0.143729  0.575009  1
  Pt  Pt22  1  0.143160  0.576624  0.140108  1
  Pt  Pt23  1  0.576624  0.143160  0.140108  1
