# generated using pymatgen
data_Ta4CrCo3P4
_symmetry_space_group_name_H-M   'P 1'
_cell_length_a   3.58631200
_cell_length_b   6.14133102
_cell_length_c   7.02867202
_cell_angle_alpha   90.00828320
_cell_angle_beta   90.00000000
_cell_angle_gamma   90.00000000
_symmetry_Int_Tables_number   1
_chemical_formula_structural   Ta4CrCo3P4
_chemical_formula_sum   'Ta4 Cr1 Co3 P4'
_cell_volume   154.80459565
_cell_formula_units_Z   1
loop_
 _symmetry_equiv_pos_site_id
 _symmetry_equiv_pos_as_xyz
  1  'x, y, z'
loop_
 _atom_site_type_symbol
 _atom_site_label
 _atom_site_symmetry_multiplicity
 _atom_site_fract_x
 _atom_site_fract_y
 _atom_site_fract_z
 _atom_site_occupancy
  Ta  Ta0  1  0.250000  0.023200  0.824022  1
  Ta  Ta1  1  0.250000  0.528295  0.672366  1
  Ta  Ta2  1  0.750000  0.979888  0.174382  1
  Ta  Ta3  1  0.750000  0.471895  0.330107  1
  Cr  Cr4  1  0.250000  0.141257  0.437521  1
  Co  Co5  1  0.250000  0.640607  0.061867  1
  Co  Co6  1  0.750000  0.855981  0.563935  1
  Co  Co7  1  0.750000  0.355831  0.936363  1
  P  P8  1  0.250000  0.276470  0.120895  1
  P  P9  1  0.250000  0.773759  0.375500  1
  P  P10  1  0.750000  0.725024  0.877950  1
  P  P11  1  0.750000  0.227793  0.625093  1
