# generated using pymatgen
data_Sr2Al20IrRu3
_symmetry_space_group_name_H-M   'P 1'
_cell_length_a   6.94018655
_cell_length_b   6.94486909
_cell_length_c   9.26991951
_cell_angle_alpha   89.93365410
_cell_angle_beta   89.89127282
_cell_angle_gamma   96.63820663
_symmetry_Int_Tables_number   1
_chemical_formula_structural   Sr2Al20IrRu3
_chemical_formula_sum   'Sr2 Al20 Ir1 Ru3'
_cell_volume   443.80134591
_cell_formula_units_Z   1
loop_
 _symmetry_equiv_pos_site_id
 _symmetry_equiv_pos_as_xyz
  1  'x, y, z'
loop_
 _atom_site_type_symbol
 _atom_site_label
 _atom_site_symmetry_multiplicity
 _atom_site_fract_x
 _atom_site_fract_y
 _atom_site_fract_z
 _atom_site_occupancy
  Sr  Sr0  1  0.878792  0.121162  0.749620  1
  Sr  Sr1  1  0.121208  0.878838  0.250380  1
  Al  Al2  1  0.620422  0.376317  0.549450  1
  Al  Al3  1  0.379578  0.623683  0.450550  1
  Al  Al4  1  0.377563  0.622727  0.048718  1
  Al  Al5  1  0.622437  0.377273  0.951282  1
  Al  Al6  1  0.228056  0.225403  0.498589  1
  Al  Al7  1  0.771944  0.774597  0.501411  1
  Al  Al8  1  0.771118  0.771618  0.000642  1
  Al  Al9  1  0.228882  0.228382  0.999358  1
  Al  Al10  1  0.837557  0.163023  0.100862  1
  Al  Al11  1  0.162443  0.836977  0.899138  1
  Al  Al12  1  0.162878  0.839404  0.601157  1
  Al  Al13  1  0.837122  0.160596  0.398843  1
  Al  Al14  1  0.859547  0.588856  0.751416  1
  Al  Al15  1  0.140453  0.411144  0.248584  1
  Al  Al16  1  0.412509  0.140304  0.750301  1
  Al  Al17  1  0.587491  0.859696  0.249699  1
  Al  Al18  1  0.222172  0.481397  0.752182  1
  Al  Al19  1  0.777828  0.518603  0.247818  1
  Al  Al20  1  0.518570  0.778855  0.749732  1
  Al  Al21  1  0.481430  0.221145  0.250268  1
  Ir  Ir22  1  0.000000  0.500000  0.500000  1
  Ru  Ru23  1  0.000000  0.500000  0.000000  1
  Ru  Ru24  1  0.500000  0.000000  0.000000  1
  Ru  Ru25  1  0.500000  0.000000  0.500000  1
