# generated using pymatgen
data_ZnCoNi2(Mo3N)2
_symmetry_space_group_name_H-M   'P 1'
_cell_length_a   6.70217551
_cell_length_b   6.69315116
_cell_length_c   6.70217619
_cell_angle_alpha   89.96012730
_cell_angle_beta   89.91429705
_cell_angle_gamma   90.03987309
_symmetry_Int_Tables_number   1
_chemical_formula_structural   ZnCoNi2(Mo3N)2
_chemical_formula_sum   'Zn2 Co2 Ni4 Mo12 N4'
_cell_volume   300.65025360
_cell_formula_units_Z   2
loop_
 _symmetry_equiv_pos_site_id
 _symmetry_equiv_pos_as_xyz
  1  'x, y, z'
loop_
 _atom_site_type_symbol
 _atom_site_label
 _atom_site_symmetry_multiplicity
 _atom_site_fract_x
 _atom_site_fract_y
 _atom_site_fract_z
 _atom_site_occupancy
  Zn  Zn0  1  0.067022  0.066376  0.070557  1
  Zn  Zn1  1  0.320557  0.183624  0.817022  1
  Co  Co2  1  0.934473  0.568901  0.433785  1
  Co  Co3  1  0.683785  0.681099  0.684473  1
  Ni  Ni4  1  0.818524  0.317801  0.183661  1
  Ni  Ni5  1  0.184913  0.818675  0.318838  1
  Ni  Ni6  1  0.433661  0.932199  0.568524  1
  Ni  Ni7  1  0.568838  0.431325  0.934913  1
  Mo  Mo8  1  0.122408  0.207937  0.449548  1
  Mo  Mo9  1  0.382633  0.786962  0.947257  1
  Mo  Mo10  1  0.873729  0.696130  0.049677  1
  Mo  Mo11  1  0.197257  0.463038  0.132633  1
  Mo  Mo12  1  0.791682  0.944414  0.381693  1
  Mo  Mo13  1  0.040992  0.867641  0.692115  1
  Mo  Mo14  1  0.458576  0.125000  0.208576  1
  Mo  Mo15  1  0.299677  0.553870  0.623729  1
  Mo  Mo16  1  0.942115  0.382359  0.790992  1
  Mo  Mo17  1  0.550444  0.625000  0.300444  1
  Mo  Mo18  1  0.699548  0.042063  0.872408  1
  Mo  Mo19  1  0.631693  0.305586  0.541682  1
  N  N20  1  0.374341  0.377189  0.375867  1
  N  N21  1  0.625867  0.872811  0.124341  1
  N  N22  1  0.122911  0.625000  0.872911  1
  N  N23  1  0.874353  0.125000  0.624353  1
