# generated using pymatgen
data_ErLu15(In3Co)2
_symmetry_space_group_name_H-M   'P 1'
_cell_length_a   10.17859600
_cell_length_b   10.17703052
_cell_length_c   6.87064700
_cell_angle_alpha   90.00369239
_cell_angle_beta   90.00000000
_cell_angle_gamma   120.00508861
_symmetry_Int_Tables_number   1
_chemical_formula_structural   ErLu15(In3Co)2
_chemical_formula_sum   'Er1 Lu15 In6 Co2'
_cell_volume   616.33233016
_cell_formula_units_Z   1
loop_
 _symmetry_equiv_pos_site_id
 _symmetry_equiv_pos_as_xyz
  1  'x, y, z'
loop_
 _atom_site_type_symbol
 _atom_site_label
 _atom_site_symmetry_multiplicity
 _atom_site_fract_x
 _atom_site_fract_y
 _atom_site_fract_z
 _atom_site_occupancy
  Er  Er0  1  0.534673  0.069345  0.522406  1
  Lu  Lu1  1  0.930149  0.464976  0.522750  1
  Lu  Lu2  1  0.534827  0.464976  0.522750  1
  Lu  Lu3  1  0.464697  0.929393  0.022600  1
  Lu  Lu4  1  0.069997  0.535027  0.023199  1
  Lu  Lu5  1  0.465031  0.535027  0.023199  1
  Lu  Lu6  1  0.179537  0.359073  0.728554  1
  Lu  Lu7  1  0.641549  0.820214  0.728372  1
  Lu  Lu8  1  0.178666  0.820214  0.728372  1
  Lu  Lu9  1  0.820608  0.641216  0.228288  1
  Lu  Lu10  1  0.358645  0.179633  0.226895  1
  Lu  Lu11  1  0.820987  0.179633  0.226895  1
  Lu  Lu12  1  0.666933  0.333864  0.912577  1
  Lu  Lu13  1  0.333009  0.666018  0.412027  1
  Lu  Lu14  1  0.999972  0.999945  0.508714  1
  Lu  Lu15  1  0.999847  0.999695  0.009023  1
  In  In16  1  0.837449  0.674898  0.769080  1
  In  In17  1  0.324579  0.162895  0.768720  1
  In  In18  1  0.838315  0.162895  0.768720  1
  In  In19  1  0.162418  0.324836  0.269356  1
  In  In20  1  0.674871  0.837532  0.269082  1
  In  In21  1  0.162661  0.837532  0.269082  1
  Co  Co22  1  0.667258  0.334515  0.297047  1
  Co  Co23  1  0.333323  0.666648  0.797972  1
