# generated using pymatgen
data_Zr5ZnSnSb2
_symmetry_space_group_name_H-M   'P 1'
_cell_length_a   8.68687666
_cell_length_b   8.68687629
_cell_length_c   5.86121600
_cell_angle_alpha   90.00000000
_cell_angle_beta   90.00000000
_cell_angle_gamma   119.91033508
_symmetry_Int_Tables_number   1
_chemical_formula_structural   Zr5ZnSnSb2
_chemical_formula_sum   'Zr10 Zn2 Sn2 Sb4'
_cell_volume   383.38695952
_cell_formula_units_Z   2
loop_
 _symmetry_equiv_pos_site_id
 _symmetry_equiv_pos_as_xyz
  1  'x, y, z'
loop_
 _atom_site_type_symbol
 _atom_site_label
 _atom_site_symmetry_multiplicity
 _atom_site_fract_x
 _atom_site_fract_y
 _atom_site_fract_z
 _atom_site_occupancy
  Zr  Zr0  1  0.666464  0.333689  0.000877  1
  Zr  Zr1  1  0.333689  0.666464  0.000877  1
  Zr  Zr2  1  0.333689  0.666464  0.499123  1
  Zr  Zr3  1  0.666464  0.333689  0.499123  1
  Zr  Zr4  1  0.730206  0.730206  0.750000  1
  Zr  Zr5  1  0.269311  0.000355  0.750000  1
  Zr  Zr6  1  0.000355  0.269311  0.750000  1
  Zr  Zr7  1  0.270383  0.270383  0.250000  1
  Zr  Zr8  1  0.730231  0.999418  0.250000  1
  Zr  Zr9  1  0.999418  0.730231  0.250000  1
  Zn  Zn10  1  0.000647  0.000647  0.001294  1
  Zn  Zn11  1  0.000647  0.000647  0.498706  1
  Sn  Sn12  1  0.383683  0.999910  0.250000  1
  Sn  Sn13  1  0.999910  0.383683  0.250000  1
  Sb  Sb14  1  0.384330  0.384330  0.750000  1
  Sb  Sb15  1  0.614834  0.000475  0.750000  1
  Sb  Sb16  1  0.000475  0.614834  0.750000  1
  Sb  Sb17  1  0.615264  0.615264  0.250000  1
