# generated using pymatgen
data_Na(EuP)4
_symmetry_space_group_name_H-M   'P 1'
_cell_length_a   7.63428339
_cell_length_b   7.68003900
_cell_length_c   8.35057266
_cell_angle_alpha   90.00000000
_cell_angle_beta   117.20086759
_cell_angle_gamma   90.00000000
_symmetry_Int_Tables_number   1
_chemical_formula_structural   Na(EuP)4
_chemical_formula_sum   'Na2 Eu8 P8'
_cell_volume   435.46143765
_cell_formula_units_Z   2
loop_
 _symmetry_equiv_pos_site_id
 _symmetry_equiv_pos_as_xyz
  1  'x, y, z'
loop_
 _atom_site_type_symbol
 _atom_site_label
 _atom_site_symmetry_multiplicity
 _atom_site_fract_x
 _atom_site_fract_y
 _atom_site_fract_z
 _atom_site_occupancy
  Na  Na0  1  0.500000  0.500000  0.000000  1
  Na  Na1  1  0.000000  0.000000  0.000000  1
  Eu  Eu2  1  0.180142  0.172714  0.718374  1
  Eu  Eu3  1  0.538232  0.827286  0.718374  1
  Eu  Eu4  1  0.038232  0.672714  0.718374  1
  Eu  Eu5  1  0.680142  0.327286  0.718374  1
  Eu  Eu6  1  0.819858  0.827286  0.281626  1
  Eu  Eu7  1  0.461768  0.172714  0.281626  1
  Eu  Eu8  1  0.961768  0.327286  0.281626  1
  Eu  Eu9  1  0.319858  0.672714  0.281626  1
  P  P10  1  0.294932  0.500000  0.589866  1
  P  P11  1  0.794932  0.000000  0.589866  1
  P  P12  1  0.705068  0.500000  0.410134  1
  P  P13  1  0.205068  0.000000  0.410134  1
  P  P14  1  0.606169  0.104950  0.000000  1
  P  P15  1  0.393831  0.895050  0.000000  1
  P  P16  1  0.893831  0.604950  0.000000  1
  P  P17  1  0.106169  0.395050  0.000000  1
