# generated using pymatgen
data_Er6Lu(ScPb2)5
_symmetry_space_group_name_H-M   'P 1'
_cell_length_a   6.35929700
_cell_length_b   9.28927300
_cell_length_c   11.42120100
_cell_angle_alpha   113.99547836
_cell_angle_beta   106.16465717
_cell_angle_gamma   89.99999980
_symmetry_Int_Tables_number   1
_chemical_formula_structural   Er6Lu(ScPb2)5
_chemical_formula_sum   'Er6 Lu1 Sc5 Pb10'
_cell_volume   587.06261919
_cell_formula_units_Z   1
loop_
 _symmetry_equiv_pos_site_id
 _symmetry_equiv_pos_as_xyz
  1  'x, y, z'
loop_
 _atom_site_type_symbol
 _atom_site_label
 _atom_site_symmetry_multiplicity
 _atom_site_fract_x
 _atom_site_fract_y
 _atom_site_fract_z
 _atom_site_occupancy
  Er  Er0  1  0.560244  0.324342  0.120488  1
  Er  Er1  1  0.939486  0.203947  0.878973  1
  Er  Er2  1  0.060595  0.794217  0.121190  1
  Er  Er3  1  0.143534  0.253796  0.287068  1
  Er  Er4  1  0.857230  0.745751  0.714459  1
  Er  Er5  1  0.642721  0.031239  0.285443  1
  Lu  Lu6  1  0.358128  0.971580  0.716255  1
  Sc  Sc7  1  0.555047  0.306864  0.610238  1
  Sc  Sc8  1  0.444745  0.694586  0.389089  1
  Sc  Sc9  1  0.944343  0.694586  0.389089  1
  Sc  Sc10  1  0.055192  0.306864  0.610238  1
  Sc  Sc11  1  0.439466  0.673582  0.878933  1
  Pb  Pb12  1  0.293405  0.596556  0.586811  1
  Pb  Pb13  1  0.710227  0.410223  0.420454  1
  Pb  Pb14  1  0.789404  0.989152  0.578808  1
  Pb  Pb15  1  0.210838  0.010848  0.421678  1
  Pb  Pb16  1  0.250842  0.994345  0.996832  1
  Pb  Pb17  1  0.745989  0.994345  0.996832  1
  Pb  Pb18  1  0.077583  0.478832  0.155169  1
  Pb  Pb19  1  0.923231  0.519766  0.846462  1
  Pb  Pb20  1  0.574272  0.672936  0.148544  1
  Pb  Pb21  1  0.423476  0.331647  0.846950  1
