# generated using pymatgen
data_Tb5TmTcTe2
_symmetry_space_group_name_H-M   'P 1'
_cell_length_a   8.21703000
_cell_length_b   8.37540939
_cell_length_c   4.05717400
_cell_angle_alpha   90.00000000
_cell_angle_beta   90.00000000
_cell_angle_gamma   120.63967329
_symmetry_Int_Tables_number   1
_chemical_formula_structural   Tb5TmTcTe2
_chemical_formula_sum   'Tb5 Tm1 Tc1 Te2'
_cell_volume   240.23682212
_cell_formula_units_Z   1
loop_
 _symmetry_equiv_pos_site_id
 _symmetry_equiv_pos_as_xyz
  1  'x, y, z'
loop_
 _atom_site_type_symbol
 _atom_site_label
 _atom_site_symmetry_multiplicity
 _atom_site_fract_x
 _atom_site_fract_y
 _atom_site_fract_z
 _atom_site_occupancy
  Tb  Tb0  1  0.000000  0.401205  0.500000  1
  Tb  Tb1  1  0.606068  0.606960  0.500000  1
  Tb  Tb2  1  0.393932  0.000892  0.500000  1
  Tb  Tb3  1  0.236259  0.239882  0.000000  1
  Tb  Tb4  1  0.763741  0.003623  0.000000  1
  Tm  Tm5  1  0.000000  0.759607  0.000000  1
  Tc  Tc6  1  0.000000  0.984840  0.500000  1
  Te  Te7  1  0.331012  0.667003  0.000000  1
  Te  Te8  1  0.668988  0.335990  0.000000  1
