# generated using pymatgen
data_Ce4MnGa2Rh
_symmetry_space_group_name_H-M   'P 1'
_cell_length_a   7.81005200
_cell_length_b   7.81005112
_cell_length_c   9.69959500
_cell_angle_alpha   90.00000000
_cell_angle_beta   90.00000000
_cell_angle_gamma   119.99999525
_symmetry_Int_Tables_number   1
_chemical_formula_structural   Ce4MnGa2Rh
_chemical_formula_sum   'Ce12 Mn3 Ga6 Rh3'
_cell_volume   512.37986571
_cell_formula_units_Z   3
loop_
 _symmetry_equiv_pos_site_id
 _symmetry_equiv_pos_as_xyz
  1  'x, y, z'
loop_
 _atom_site_type_symbol
 _atom_site_label
 _atom_site_symmetry_multiplicity
 _atom_site_fract_x
 _atom_site_fract_y
 _atom_site_fract_z
 _atom_site_occupancy
  Ce  Ce0  1  0.000000  0.559330  0.488905  1
  Ce  Ce1  1  0.559330  0.000000  0.488905  1
  Ce  Ce2  1  0.440670  0.440670  0.488905  1
  Ce  Ce3  1  0.000000  0.405700  0.010662  1
  Ce  Ce4  1  0.405700  0.000000  0.010662  1
  Ce  Ce5  1  0.594300  0.594300  0.010662  1
  Ce  Ce6  1  0.000000  0.743214  0.182831  1
  Ce  Ce7  1  0.743214  0.000000  0.182831  1
  Ce  Ce8  1  0.256786  0.256786  0.182831  1
  Ce  Ce9  1  0.000000  0.265667  0.671428  1
  Ce  Ce10  1  0.265667  0.000000  0.671428  1
  Ce  Ce11  1  0.734333  0.734333  0.671428  1
  Mn  Mn12  1  0.000000  0.352565  0.342158  1
  Mn  Mn13  1  0.352565  0.000000  0.342158  1
  Mn  Mn14  1  0.647435  0.647435  0.342158  1
  Ga  Ga15  1  0.666667  0.333333  0.261929  1
  Ga  Ga16  1  0.333333  0.666667  0.261929  1
  Ga  Ga17  1  0.333333  0.666667  0.771434  1
  Ga  Ga18  1  0.666667  0.333333  0.771434  1
  Ga  Ga19  1  0.000000  0.000000  0.426572  1
  Ga  Ga20  1  0.000000  0.000000  0.922969  1
  Rh  Rh21  1  0.000000  0.662849  0.841676  1
  Rh  Rh22  1  0.662849  0.000000  0.841676  1
  Rh  Rh23  1  0.337151  0.337151  0.841676  1
