# generated using pymatgen
data_Lu4Mn2Os5W
_symmetry_space_group_name_H-M   'P 1'
_cell_length_a   5.23170291
_cell_length_b   5.19341939
_cell_length_c   8.81647800
_cell_angle_alpha   90.00000000
_cell_angle_beta   90.00000000
_cell_angle_gamma   118.91926958
_symmetry_Int_Tables_number   1
_chemical_formula_structural   Lu4Mn2Os5W
_chemical_formula_sum   'Lu4 Mn2 Os5 W1'
_cell_volume   209.67636963
_cell_formula_units_Z   1
loop_
 _symmetry_equiv_pos_site_id
 _symmetry_equiv_pos_as_xyz
  1  'x, y, z'
loop_
 _atom_site_type_symbol
 _atom_site_label
 _atom_site_symmetry_multiplicity
 _atom_site_fract_x
 _atom_site_fract_y
 _atom_site_fract_z
 _atom_site_occupancy
  Lu  Lu0  1  0.332646  0.664913  0.435185  1
  Lu  Lu1  1  0.666209  0.329622  0.559831  1
  Lu  Lu2  1  0.666209  0.329622  0.940169  1
  Lu  Lu3  1  0.332646  0.664913  0.064815  1
  Mn  Mn4  1  0.170064  0.344505  0.750000  1
  Mn  Mn5  1  0.339107  0.170282  0.250000  1
  Os  Os6  1  0.833892  0.662771  0.250000  1
  Os  Os7  1  0.653850  0.830460  0.750000  1
  Os  Os8  1  0.003146  0.996159  0.000101  1
  Os  Os9  1  0.830397  0.177882  0.250000  1
  Os  Os10  1  0.003146  0.996159  0.499899  1
  W  W11  1  0.168686  0.832712  0.750000  1
