# generated using pymatgen
data_Er2Cu3Ni9P7
_symmetry_space_group_name_H-M   'P 1'
_cell_length_a   9.11204500
_cell_length_b   9.11204573
_cell_length_c   3.69597700
_cell_angle_alpha   90.00000000
_cell_angle_beta   90.00000000
_cell_angle_gamma   120.00000099
_symmetry_Int_Tables_number   1
_chemical_formula_structural   Er2Cu3Ni9P7
_chemical_formula_sum   'Er2 Cu3 Ni9 P7'
_cell_volume   265.76123518
_cell_formula_units_Z   1
loop_
 _symmetry_equiv_pos_site_id
 _symmetry_equiv_pos_as_xyz
  1  'x, y, z'
loop_
 _atom_site_type_symbol
 _atom_site_label
 _atom_site_symmetry_multiplicity
 _atom_site_fract_x
 _atom_site_fract_y
 _atom_site_fract_z
 _atom_site_occupancy
  Er  Er0  1  0.333333  0.666667  0.000000  1
  Er  Er1  1  0.000000  0.000000  0.500000  1
  Cu  Cu2  1  0.788080  0.231380  0.500000  1
  Cu  Cu3  1  0.768620  0.556701  0.500000  1
  Cu  Cu4  1  0.443299  0.211920  0.500000  1
  Ni  Ni5  1  0.037879  0.272544  0.000000  1
  Ni  Ni6  1  0.727456  0.765336  0.000000  1
  Ni  Ni7  1  0.234664  0.962121  0.000000  1
  Ni  Ni8  1  0.544714  0.055563  0.000000  1
  Ni  Ni9  1  0.944437  0.489152  0.000000  1
  Ni  Ni10  1  0.510848  0.455286  0.000000  1
  Ni  Ni11  1  0.618617  0.898316  0.500000  1
  Ni  Ni12  1  0.101684  0.720301  0.500000  1
  Ni  Ni13  1  0.279699  0.381383  0.500000  1
  P  P14  1  0.779143  0.033049  0.000000  1
  P  P15  1  0.966951  0.746095  0.000000  1
  P  P16  1  0.253905  0.220857  0.000000  1
  P  P17  1  0.374636  0.922807  0.500000  1
  P  P18  1  0.077193  0.451830  0.500000  1
  P  P19  1  0.548170  0.625364  0.500000  1
  P  P20  1  0.666667  0.333333  0.000000  1
