# generated using pymatgen
data_Ca7NdZn3Si12Pd
_symmetry_space_group_name_H-M   'P 1'
_cell_length_a   8.19161000
_cell_length_b   8.19161056
_cell_length_c   8.67371200
_cell_angle_alpha   90.00000000
_cell_angle_beta   90.00000000
_cell_angle_gamma   119.99999775
_symmetry_Int_Tables_number   1
_chemical_formula_structural   Ca7NdZn3Si12Pd
_chemical_formula_sum   'Ca7 Nd1 Zn3 Si12 Pd1'
_cell_volume   504.05067868
_cell_formula_units_Z   1
loop_
 _symmetry_equiv_pos_site_id
 _symmetry_equiv_pos_as_xyz
  1  'x, y, z'
loop_
 _atom_site_type_symbol
 _atom_site_label
 _atom_site_symmetry_multiplicity
 _atom_site_fract_x
 _atom_site_fract_y
 _atom_site_fract_z
 _atom_site_occupancy
  Ca  Ca0  1  0.501566  0.498434  0.744869  1
  Ca  Ca1  1  0.501732  0.498268  0.254489  1
  Ca  Ca2  1  0.996868  0.498434  0.744869  1
  Ca  Ca3  1  0.996535  0.498268  0.254489  1
  Ca  Ca4  1  0.501566  0.003132  0.744869  1
  Ca  Ca5  1  0.501732  0.003465  0.254489  1
  Ca  Ca6  1  0.000000  0.000000  0.747777  1
  Nd  Nd7  1  0.000000  0.000000  0.251303  1
  Zn  Zn8  1  0.666667  0.333333  0.003262  1
  Zn  Zn9  1  0.333333  0.666667  0.005701  1
  Zn  Zn10  1  0.333333  0.666667  0.496804  1
  Si  Si11  1  0.834493  0.165507  0.999835  1
  Si  Si12  1  0.165530  0.834470  0.999509  1
  Si  Si13  1  0.331014  0.165507  0.999835  1
  Si  Si14  1  0.162609  0.837391  0.500776  1
  Si  Si15  1  0.668941  0.834470  0.999509  1
  Si  Si16  1  0.832448  0.167552  0.499400  1
  Si  Si17  1  0.834493  0.668986  0.999835  1
  Si  Si18  1  0.674780  0.837391  0.500776  1
  Si  Si19  1  0.165530  0.331059  0.999509  1
  Si  Si20  1  0.335104  0.167552  0.499400  1
  Si  Si21  1  0.162609  0.325220  0.500776  1
  Si  Si22  1  0.832448  0.664896  0.499400  1
  Pd  Pd23  1  0.666667  0.333333  0.498518  1
