# generated using pymatgen
data_Lu12InTc3Pb
_symmetry_space_group_name_H-M   'P 1'
_cell_length_a   8.31353352
_cell_length_b   8.31353312
_cell_length_c   8.31353343
_cell_angle_alpha   108.94761982
_cell_angle_beta   109.03436622
_cell_angle_gamma   110.43601467
_symmetry_Int_Tables_number   1
_chemical_formula_structural   Lu12InTc3Pb
_chemical_formula_sum   'Lu12 In1 Tc3 Pb1'
_cell_volume   442.22395040
_cell_formula_units_Z   1
loop_
 _symmetry_equiv_pos_site_id
 _symmetry_equiv_pos_as_xyz
  1  'x, y, z'
loop_
 _atom_site_type_symbol
 _atom_site_label
 _atom_site_symmetry_multiplicity
 _atom_site_fract_x
 _atom_site_fract_y
 _atom_site_fract_z
 _atom_site_occupancy
  Lu  Lu0  1  0.304374  0.307049  0.611425  1
  Lu  Lu1  1  0.695626  0.692951  0.388575  1
  Lu  Lu2  1  0.695626  0.307049  0.002675  1
  Lu  Lu3  1  0.304374  0.692951  0.997325  1
  Lu  Lu4  1  0.188986  0.428030  0.239044  1
  Lu  Lu5  1  0.811014  0.571970  0.760956  1
  Lu  Lu6  1  0.188986  0.949941  0.760956  1
  Lu  Lu7  1  0.953086  0.191344  0.761743  1
  Lu  Lu8  1  0.811014  0.050059  0.239044  1
  Lu  Lu9  1  0.046914  0.808656  0.238257  1
  Lu  Lu10  1  0.429601  0.191344  0.238257  1
  Lu  Lu11  1  0.570399  0.808656  0.761743  1
  In  In12  1  0.000000  0.500000  0.500000  1
  Tc  Tc13  1  0.370827  0.370827  0.000000  1
  Tc  Tc14  1  0.629173  0.629173  0.000000  1
  Tc  Tc15  1  0.000000  0.000000  0.000000  1
  Pb  Pb16  1  0.500000  0.000000  0.500000  1
