# generated using pymatgen
data_ErTm7B24(IrRu)2
_symmetry_space_group_name_H-M   'P 1'
_cell_length_a   3.61573300
_cell_length_b   9.11062805
_cell_length_c   11.42662200
_cell_angle_alpha   90.05911474
_cell_angle_beta   90.00000000
_cell_angle_gamma   90.00000000
_symmetry_Int_Tables_number   1
_chemical_formula_structural   ErTm7B24(IrRu)2
_chemical_formula_sum   'Er1 Tm7 B24 Ir2 Ru2'
_cell_volume   376.41099393
_cell_formula_units_Z   1
loop_
 _symmetry_equiv_pos_site_id
 _symmetry_equiv_pos_as_xyz
  1  'x, y, z'
loop_
 _atom_site_type_symbol
 _atom_site_label
 _atom_site_symmetry_multiplicity
 _atom_site_fract_x
 _atom_site_fract_y
 _atom_site_fract_z
 _atom_site_occupancy
  Er  Er0  1  0.000000  0.318553  0.411932  1
  Tm  Tm1  1  0.000000  0.681612  0.588069  1
  Tm  Tm2  1  0.000000  0.822743  0.085038  1
  Tm  Tm3  1  0.000000  0.177254  0.914955  1
  Tm  Tm4  1  0.000000  0.945780  0.373028  1
  Tm  Tm5  1  0.000000  0.054081  0.627027  1
  Tm  Tm6  1  0.000000  0.442388  0.125519  1
  Tm  Tm7  1  0.000000  0.557652  0.874450  1
  B  B8  1  0.500000  0.553072  0.434247  1
  B  B9  1  0.500000  0.447178  0.565891  1
  B  B10  1  0.500000  0.053837  0.066416  1
  B  B11  1  0.500000  0.946149  0.933557  1
  B  B12  1  0.500000  0.750678  0.420708  1
  B  B13  1  0.500000  0.249251  0.579498  1
  B  B14  1  0.500000  0.248371  0.079580  1
  B  B15  1  0.500000  0.751619  0.920392  1
  B  B16  1  0.500000  0.793353  0.265372  1
  B  B17  1  0.500000  0.206621  0.734675  1
  B  B18  1  0.500000  0.292316  0.234315  1
  B  B19  1  0.500000  0.707609  0.765524  1
  B  B20  1  0.500000  0.631631  0.183737  1
  B  B21  1  0.500000  0.368356  0.816268  1
  B  B22  1  0.500000  0.131741  0.315019  1
  B  B23  1  0.500000  0.868088  0.684878  1
  B  B24  1  0.500000  0.982783  0.212846  1
  B  B25  1  0.500000  0.017176  0.787151  1
  B  B26  1  0.500000  0.481315  0.286447  1
  B  B27  1  0.500000  0.518924  0.713420  1
  B  B28  1  0.500000  0.609210  0.030270  1
  B  B29  1  0.500000  0.390815  0.969699  1
  B  B30  1  0.500000  0.108616  0.470529  1
  B  B31  1  0.500000  0.891116  0.529578  1
  Ir  Ir32  1  0.000000  0.637607  0.321921  1
  Ir  Ir33  1  0.000000  0.362626  0.678144  1
  Ru  Ru34  1  0.000000  0.137871  0.179013  1
  Ru  Ru35  1  0.000000  0.862008  0.820888  1
