# generated using pymatgen
data_Y4TcBr4
_symmetry_space_group_name_H-M   'P 1'
_cell_length_a   8.98937841
_cell_length_b   8.98937764
_cell_length_c   6.62454822
_cell_angle_alpha   89.46007671
_cell_angle_beta   89.46007164
_cell_angle_gamma   89.35536955
_symmetry_Int_Tables_number   1
_chemical_formula_structural   Y4TcBr4
_chemical_formula_sum   'Y8 Tc2 Br8'
_cell_volume   535.24168163
_cell_formula_units_Z   2
loop_
 _symmetry_equiv_pos_site_id
 _symmetry_equiv_pos_as_xyz
  1  'x, y, z'
loop_
 _atom_site_type_symbol
 _atom_site_label
 _atom_site_symmetry_multiplicity
 _atom_site_fract_x
 _atom_site_fract_y
 _atom_site_fract_z
 _atom_site_occupancy
  Y  Y0  1  0.750709  0.099093  0.989348  1
  Y  Y1  1  0.099093  0.750709  0.489348  1
  Y  Y2  1  0.097498  0.248328  0.991690  1
  Y  Y3  1  0.248328  0.097498  0.491690  1
  Y  Y4  1  0.902502  0.751672  0.008310  1
  Y  Y5  1  0.900907  0.249291  0.510652  1
  Y  Y6  1  0.249291  0.900907  0.010652  1
  Y  Y7  1  0.751672  0.902502  0.508310  1
  Tc  Tc8  1  0.994534  0.005466  0.250000  1
  Tc  Tc9  1  0.005466  0.994534  0.750000  1
  Br  Br10  1  0.580640  0.182914  0.591930  1
  Br  Br11  1  0.810225  0.585076  0.405646  1
  Br  Br12  1  0.414924  0.189775  0.094354  1
  Br  Br13  1  0.189775  0.414924  0.594354  1
  Br  Br14  1  0.585076  0.810225  0.905646  1
  Br  Br15  1  0.419360  0.817086  0.408070  1
  Br  Br16  1  0.182914  0.580640  0.091930  1
  Br  Br17  1  0.817086  0.419360  0.908070  1
