# generated using pymatgen
data_LiHoU2As6Ru7
_symmetry_space_group_name_H-M   'P 1'
_cell_length_a   7.16086514
_cell_length_b   7.10080623
_cell_length_c   7.21687791
_cell_angle_alpha   109.76091910
_cell_angle_beta   109.65045295
_cell_angle_gamma   108.99198860
_symmetry_Int_Tables_number   1
_chemical_formula_structural   LiHoU2As6Ru7
_chemical_formula_sum   'Li1 Ho1 U2 As6 Ru7'
_cell_volume   282.51317444
_cell_formula_units_Z   1
loop_
 _symmetry_equiv_pos_site_id
 _symmetry_equiv_pos_as_xyz
  1  'x, y, z'
loop_
 _atom_site_type_symbol
 _atom_site_label
 _atom_site_symmetry_multiplicity
 _atom_site_fract_x
 _atom_site_fract_y
 _atom_site_fract_z
 _atom_site_occupancy
  Li  Li0  1  0.000000  0.000000  0.500000  1
  Ho  Ho1  1  0.000000  0.500000  0.000000  1
  U  U2  1  0.500000  0.000000  0.000000  1
  U  U3  1  0.500000  0.500000  0.500000  1
  As  As4  1  0.302066  0.996678  0.318177  1
  As  As5  1  0.000000  0.305463  0.317188  1
  As  As6  1  0.000000  0.694537  0.682812  1
  As  As7  1  0.302066  0.305388  0.983889  1
  As  As8  1  0.697934  0.694612  0.016111  1
  As  As9  1  0.697934  0.003322  0.681823  1
  Ru  Ru10  1  0.743605  0.494811  0.251216  1
  Ru  Ru11  1  0.504828  0.752414  0.252414  1
  Ru  Ru12  1  0.495172  0.247586  0.747586  1
  Ru  Ru13  1  0.743605  0.248794  0.492390  1
  Ru  Ru14  1  0.256395  0.751206  0.507610  1
  Ru  Ru15  1  0.256395  0.505189  0.748784  1
  Ru  Ru16  1  0.000000  0.000000  0.000000  1
