# generated using pymatgen
data_Pr2GeAs(IrO)2
_symmetry_space_group_name_H-M   'P 1'
_cell_length_a   4.13340100
_cell_length_b   4.13340100
_cell_length_c   8.50097700
_cell_angle_alpha   90.00000000
_cell_angle_beta   90.00000000
_cell_angle_gamma   90.00001386
_symmetry_Int_Tables_number   1
_chemical_formula_structural   Pr2GeAs(IrO)2
_chemical_formula_sum   'Pr2 Ge1 As1 Ir2 O2'
_cell_volume   145.23922458
_cell_formula_units_Z   1
loop_
 _symmetry_equiv_pos_site_id
 _symmetry_equiv_pos_as_xyz
  1  'x, y, z'
loop_
 _atom_site_type_symbol
 _atom_site_label
 _atom_site_symmetry_multiplicity
 _atom_site_fract_x
 _atom_site_fract_y
 _atom_site_fract_z
 _atom_site_occupancy
  Pr  Pr0  1  0.250000  0.250000  0.137005  1
  Pr  Pr1  1  0.749999  0.749999  0.861049  1
  Ge  Ge2  1  0.749999  0.749999  0.339399  1
  As  As3  1  0.250000  0.250000  0.661201  1
  Ir  Ir4  1  0.750000  0.250001  0.502285  1
  Ir  Ir5  1  0.250001  0.750000  0.502285  1
  O  O6  1  0.750000  0.250001  0.998389  1
  O  O7  1  0.250001  0.750000  0.998389  1
