# generated using pymatgen
data_Y4ErPa(Al3Os)8
_symmetry_space_group_name_H-M   'P 1'
_cell_length_a   8.79461145
_cell_length_b   8.82328409
_cell_length_c   9.55846400
_cell_angle_alpha   90.00000000
_cell_angle_beta   90.00000000
_cell_angle_gamma   119.69224299
_symmetry_Int_Tables_number   1
_chemical_formula_structural   Y4ErPa(Al3Os)8
_chemical_formula_sum   'Y4 Er1 Pa1 Al24 Os8'
_cell_volume   644.32375383
_cell_formula_units_Z   1
loop_
 _symmetry_equiv_pos_site_id
 _symmetry_equiv_pos_as_xyz
  1  'x, y, z'
loop_
 _atom_site_type_symbol
 _atom_site_label
 _atom_site_symmetry_multiplicity
 _atom_site_fract_x
 _atom_site_fract_y
 _atom_site_fract_z
 _atom_site_occupancy
  Y  Y0  1  0.808608  0.615915  0.750000  1
  Y  Y1  1  0.387193  0.191146  0.750000  1
  Y  Y2  1  0.192887  0.804033  0.250000  1
  Y  Y3  1  0.805089  0.192572  0.750000  1
  Er  Er4  1  0.610407  0.803349  0.250000  1
  Pa  Pa5  1  0.195554  0.394177  0.250000  1
  Al  Al6  1  0.336531  0.672803  0.018756  1
  Al  Al7  1  0.667988  0.335069  0.981108  1
  Al  Al8  1  0.667988  0.335069  0.518892  1
  Al  Al9  1  0.336531  0.672803  0.481244  1
  Al  Al10  1  0.163363  0.326142  0.576630  1
  Al  Al11  1  0.835985  0.673160  0.424900  1
  Al  Al12  1  0.672400  0.835112  0.574423  1
  Al  Al13  1  0.835985  0.673160  0.075100  1
  Al  Al14  1  0.326211  0.162577  0.423528  1
  Al  Al15  1  0.163363  0.326142  0.923370  1
  Al  Al16  1  0.163182  0.835257  0.574319  1
  Al  Al17  1  0.326211  0.162577  0.076472  1
  Al  Al18  1  0.835411  0.161658  0.423507  1
  Al  Al19  1  0.672400  0.835112  0.925577  1
  Al  Al20  1  0.835411  0.161658  0.076493  1
  Al  Al21  1  0.163182  0.835257  0.925681  1
  Al  Al22  1  0.560315  0.119756  0.250000  1
  Al  Al23  1  0.438375  0.875766  0.750000  1
  Al  Al24  1  0.873002  0.437566  0.250000  1
  Al  Al25  1  0.120584  0.559448  0.750000  1
  Al  Al26  1  0.564757  0.438074  0.250000  1
  Al  Al27  1  0.439223  0.559900  0.750000  1
  Al  Al28  1  0.000605  0.003867  0.250000  1
  Al  Al29  1  0.000980  0.000608  0.750000  1
  Os  Os30  1  0.501511  0.002981  0.998416  1
  Os  Os31  1  0.003421  0.499333  0.004748  1
  Os  Os32  1  0.501511  0.002981  0.501584  1
  Os  Os33  1  0.496105  0.499558  0.005208  1
  Os  Os34  1  0.003421  0.499333  0.495252  1
  Os  Os35  1  0.496105  0.499558  0.494792  1
  Os  Os36  1  0.999104  0.998262  0.999307  1
  Os  Os37  1  0.999104  0.998262  0.500693  1
