# generated using pymatgen
data_KRb3Sc4O8
_symmetry_space_group_name_H-M   'P 1'
_cell_length_a   6.03606195
_cell_length_b   6.04611058
_cell_length_c   8.58134900
_cell_angle_alpha   89.69738651
_cell_angle_beta   90.05662125
_cell_angle_gamma   89.96343560
_symmetry_Int_Tables_number   1
_chemical_formula_structural   KRb3Sc4O8
_chemical_formula_sum   'K1 Rb3 Sc4 O8'
_cell_volume   313.16915445
_cell_formula_units_Z   1
loop_
 _symmetry_equiv_pos_site_id
 _symmetry_equiv_pos_as_xyz
  1  'x, y, z'
loop_
 _atom_site_type_symbol
 _atom_site_label
 _atom_site_symmetry_multiplicity
 _atom_site_fract_x
 _atom_site_fract_y
 _atom_site_fract_z
 _atom_site_occupancy
  K  K0  1  0.106653  0.454275  0.874732  1
  Rb  Rb1  1  0.112928  0.961761  0.628580  1
  Rb  Rb2  1  0.609761  0.036195  0.377863  1
  Rb  Rb3  1  0.602746  0.533105  0.118162  1
  Sc  Sc4  1  0.622171  0.543006  0.624069  1
  Sc  Sc5  1  0.122797  0.455966  0.374379  1
  Sc  Sc6  1  0.125058  0.955382  0.124739  1
  Sc  Sc7  1  0.624041  0.049141  0.876748  1
  O  O8  1  0.580721  0.852179  0.693983  1
  O  O9  1  0.079470  0.142044  0.313366  1
  O  O10  1  0.057367  0.643043  0.184817  1
  O  O11  1  0.538115  0.349946  0.804463  1
  O  O12  1  0.943428  0.047938  0.939592  1
  O  O13  1  0.443948  0.972835  0.064765  1
  O  O14  1  0.440614  0.495794  0.431885  1
  O  O15  1  0.942183  0.507388  0.567856  1
