# generated using pymatgen
data_TbLu11InCo4Ir
_symmetry_space_group_name_H-M   'P 1'
_cell_length_a   8.11551095
_cell_length_b   8.11551099
_cell_length_c   8.11123653
_cell_angle_alpha   111.21996648
_cell_angle_beta   111.10434534
_cell_angle_gamma   106.16253452
_symmetry_Int_Tables_number   1
_chemical_formula_structural   TbLu11InCo4Ir
_chemical_formula_sum   'Tb1 Lu11 In1 Co4 Ir1'
_cell_volume   410.09806371
_cell_formula_units_Z   1
loop_
 _symmetry_equiv_pos_site_id
 _symmetry_equiv_pos_as_xyz
  1  'x, y, z'
loop_
 _atom_site_type_symbol
 _atom_site_label
 _atom_site_symmetry_multiplicity
 _atom_site_fract_x
 _atom_site_fract_y
 _atom_site_fract_z
 _atom_site_occupancy
  Tb  Tb0  1  0.185039  0.285160  0.470200  1
  Lu  Lu1  1  0.815922  0.717674  0.533595  1
  Lu  Lu2  1  0.183833  0.718001  0.901833  1
  Lu  Lu3  1  0.814059  0.282892  0.096950  1
  Lu  Lu4  1  0.315316  0.621622  0.305412  1
  Lu  Lu5  1  0.686521  0.379156  0.694885  1
  Lu  Lu6  1  0.315730  0.008365  0.694885  1
  Lu  Lu7  1  0.683791  0.990098  0.305412  1
  Lu  Lu8  1  0.416882  0.220177  0.194930  1
  Lu  Lu9  1  0.587044  0.781727  0.806884  1
  Lu  Lu10  1  0.025157  0.219840  0.806884  1
  Lu  Lu11  1  0.974754  0.778048  0.194930  1
  In  In12  1  0.500214  0.500273  0.000487  1
  Co  Co13  1  0.109840  0.614169  0.497911  1
  Co  Co14  1  0.883743  0.388071  0.497911  1
  Co  Co15  1  0.375661  0.998051  0.373712  1
  Co  Co16  1  0.625827  0.000548  0.626375  1
  Ir  Ir17  1  0.000672  0.996129  0.996801  1
