# generated using pymatgen
data_YbPr7(Y3Sn4)4
_symmetry_space_group_name_H-M   'P 1'
_cell_length_a   8.07807121
_cell_length_b   8.33701655
_cell_length_c   15.71809716
_cell_angle_alpha   90.01504054
_cell_angle_beta   90.08183670
_cell_angle_gamma   89.78484020
_symmetry_Int_Tables_number   1
_chemical_formula_structural   YbPr7(Y3Sn4)4
_chemical_formula_sum   'Yb1 Pr7 Y12 Sn16'
_cell_volume   1058.55832065
_cell_formula_units_Z   1
loop_
 _symmetry_equiv_pos_site_id
 _symmetry_equiv_pos_as_xyz
  1  'x, y, z'
loop_
 _atom_site_type_symbol
 _atom_site_label
 _atom_site_symmetry_multiplicity
 _atom_site_fract_x
 _atom_site_fract_y
 _atom_site_fract_z
 _atom_site_occupancy
  Yb  Yb0  1  0.682687  0.999640  0.250059  1
  Pr  Pr1  1  0.993449  0.822132  0.902120  1
  Pr  Pr2  1  0.506744  0.319558  0.095774  1
  Pr  Pr3  1  0.003643  0.178241  0.405662  1
  Pr  Pr4  1  0.507778  0.320483  0.404810  1
  Pr  Pr5  1  0.003941  0.177719  0.094860  1
  Pr  Pr6  1  0.493727  0.677321  0.903994  1
  Pr  Pr7  1  0.994233  0.821185  0.596531  1
  Y  Y8  1  0.650679  0.169370  0.625242  1
  Y  Y9  1  0.151650  0.333852  0.875633  1
  Y  Y10  1  0.351320  0.831207  0.123482  1
  Y  Y11  1  0.849657  0.668193  0.377856  1
  Y  Y12  1  0.352401  0.829947  0.376648  1
  Y  Y13  1  0.848865  0.668912  0.122804  1
  Y  Y14  1  0.650695  0.168511  0.874193  1
  Y  Y15  1  0.151404  0.335073  0.623309  1
  Y  Y16  1  0.491526  0.678195  0.597961  1
  Y  Y17  1  0.817206  0.501735  0.748917  1
  Y  Y18  1  0.318304  0.001060  0.749369  1
  Y  Y19  1  0.182704  0.499407  0.250216  1
  Sn  Sn20  1  0.683520  0.957675  0.463177  1
  Sn  Sn21  1  0.186996  0.538223  0.041405  1
  Sn  Sn22  1  0.314325  0.039856  0.959306  1
  Sn  Sn23  1  0.807061  0.464525  0.542536  1
  Sn  Sn24  1  0.316543  0.037302  0.541286  1
  Sn  Sn25  1  0.813479  0.460693  0.958610  1
  Sn  Sn26  1  0.685605  0.959225  0.037385  1
  Sn  Sn27  1  0.191436  0.539721  0.459786  1
  Sn  Sn28  1  0.451730  0.381153  0.749710  1
  Sn  Sn29  1  0.953339  0.121959  0.749762  1
  Sn  Sn30  1  0.550264  0.616160  0.249949  1
  Sn  Sn31  1  0.051047  0.878561  0.250487  1
  Sn  Sn32  1  0.683861  0.855974  0.748105  1
  Sn  Sn33  1  0.188475  0.643180  0.748868  1
  Sn  Sn34  1  0.305614  0.140372  0.250119  1
  Sn  Sn35  1  0.814089  0.363679  0.250072  1
