# generated using pymatgen
data_Hf5(Re2Tc)8
_symmetry_space_group_name_H-M   'P 1'
_cell_length_a   8.46491625
_cell_length_b   8.46029001
_cell_length_c   8.45779888
_cell_angle_alpha   109.50740249
_cell_angle_beta   109.48826801
_cell_angle_gamma   109.54480433
_symmetry_Int_Tables_number   1
_chemical_formula_structural   Hf5(Re2Tc)8
_chemical_formula_sum   'Hf5 Re16 Tc8'
_cell_volume   465.54508115
_cell_formula_units_Z   1
loop_
 _symmetry_equiv_pos_site_id
 _symmetry_equiv_pos_as_xyz
  1  'x, y, z'
loop_
 _atom_site_type_symbol
 _atom_site_label
 _atom_site_symmetry_multiplicity
 _atom_site_fract_x
 _atom_site_fract_y
 _atom_site_fract_z
 _atom_site_occupancy
  Hf  Hf0  1  0.999346  0.999599  0.999627  1
  Hf  Hf1  1  0.625734  0.999860  0.999628  1
  Hf  Hf2  1  0.999657  0.625891  0.999940  1
  Hf  Hf3  1  0.001447  0.999886  0.627030  1
  Hf  Hf4  1  0.371972  0.372111  0.372275  1
  Re  Re5  1  0.676509  0.000705  0.396278  1
  Re  Re6  1  0.604387  0.603663  0.279552  1
  Re  Re7  1  0.280076  0.604579  0.604192  1
  Re  Re8  1  0.604507  0.279451  0.604078  1
  Re  Re9  1  0.376009  0.195035  0.000625  1
  Re  Re10  1  0.180373  0.805792  0.805923  1
  Re  Re11  1  0.374733  0.000408  0.194252  1
  Re  Re12  1  0.194708  0.376349  0.000741  1
  Re  Re13  1  0.000571  0.376107  0.194749  1
  Re  Re14  1  0.806462  0.180580  0.805761  1
  Re  Re15  1  0.806157  0.806170  0.180913  1
  Re  Re16  1  0.000499  0.194687  0.376216  1
  Re  Re17  1  0.193980  0.000525  0.376331  1
  Re  Re18  1  0.623447  0.623356  0.816867  1
  Re  Re19  1  0.816487  0.623149  0.623264  1
  Re  Re20  1  0.623924  0.817139  0.623268  1
  Tc  Tc21  1  0.396678  0.677887  0.000620  1
  Tc  Tc22  1  0.719392  0.322317  0.322211  1
  Tc  Tc23  1  0.396638  0.000739  0.677776  1
  Tc  Tc24  1  0.677423  0.396351  0.000539  1
  Tc  Tc25  1  0.001682  0.397244  0.677930  1
  Tc  Tc26  1  0.323332  0.720122  0.322995  1
  Tc  Tc27  1  0.323040  0.322930  0.719867  1
  Tc  Tc28  1  0.000830  0.677370  0.396553  1
