# generated using pymatgen
data_Ho9Er7(In3Tc)2
_symmetry_space_group_name_H-M   'P 1'
_cell_length_a   10.35367300
_cell_length_b   10.35331977
_cell_length_c   7.00087800
_cell_angle_alpha   90.00000051
_cell_angle_beta   90.00019782
_cell_angle_gamma   119.99887037
_symmetry_Int_Tables_number   1
_chemical_formula_structural   Ho9Er7(In3Tc)2
_chemical_formula_sum   'Ho9 Er7 In6 Tc2'
_cell_volume   649.92337507
_cell_formula_units_Z   1
loop_
 _symmetry_equiv_pos_site_id
 _symmetry_equiv_pos_as_xyz
  1  'x, y, z'
loop_
 _atom_site_type_symbol
 _atom_site_label
 _atom_site_symmetry_multiplicity
 _atom_site_fract_x
 _atom_site_fract_y
 _atom_site_fract_z
 _atom_site_occupancy
  Ho  Ho0  1  0.531015  0.062040  0.797147  1
  Ho  Ho1  1  0.937950  0.468975  0.797138  1
  Ho  Ho2  1  0.531015  0.468975  0.797147  1
  Ho  Ho3  1  0.468774  0.937549  0.296308  1
  Ho  Ho4  1  0.062441  0.531220  0.296302  1
  Ho  Ho5  1  0.468774  0.531225  0.296308  1
  Ho  Ho6  1  0.822612  0.645223  0.499719  1
  Ho  Ho7  1  0.354780  0.177390  0.499724  1
  Ho  Ho8  1  0.822612  0.177389  0.499719  1
  Er  Er9  1  0.177421  0.354850  0.999581  1
  Er  Er10  1  0.645143  0.822571  0.999555  1
  Er  Er11  1  0.177421  0.822570  0.999581  1
  Er  Er12  1  0.666656  0.333327  0.167509  1
  Er  Er13  1  0.333339  0.666670  0.668721  1
  Er  Er14  1  0.000017  0.000008  0.775921  1
  Er  Er15  1  0.000018  0.000009  0.275794  1
  In  In16  1  0.837154  0.674301  0.037954  1
  In  In17  1  0.325717  0.162859  0.038009  1
  In  In18  1  0.837154  0.162854  0.037954  1
  In  In19  1  0.163056  0.326104  0.538316  1
  In  In20  1  0.673882  0.836941  0.538338  1
  In  In21  1  0.163056  0.836950  0.538316  1
  Tc  Tc22  1  0.666659  0.333329  0.570347  1
  Tc  Tc23  1  0.333336  0.666669  0.070499  1
