# generated using pymatgen
data_Pr2CdRhAu
_symmetry_space_group_name_H-M   'P 1'
_cell_length_a   7.95522622
_cell_length_b   7.95522622
_cell_length_c   3.93873700
_cell_angle_alpha   90.00000000
_cell_angle_beta   90.00000000
_cell_angle_gamma   89.38057196
_symmetry_Int_Tables_number   1
_chemical_formula_structural   Pr2CdRhAu
_chemical_formula_sum   'Pr4 Cd2 Rh2 Au2'
_cell_volume   249.25086313
_cell_formula_units_Z   2
loop_
 _symmetry_equiv_pos_site_id
 _symmetry_equiv_pos_as_xyz
  1  'x, y, z'
loop_
 _atom_site_type_symbol
 _atom_site_label
 _atom_site_symmetry_multiplicity
 _atom_site_fract_x
 _atom_site_fract_y
 _atom_site_fract_z
 _atom_site_occupancy
  Pr  Pr0  1  0.660545  0.160545  0.500000  1
  Pr  Pr1  1  0.339455  0.839455  0.500000  1
  Pr  Pr2  1  0.186167  0.313833  0.500000  1
  Pr  Pr3  1  0.813833  0.686167  0.500000  1
  Cd  Cd4  1  0.000000  0.000000  0.000000  1
  Cd  Cd5  1  0.500000  0.500000  0.000000  1
  Rh  Rh6  1  0.631307  0.868693  0.000000  1
  Rh  Rh7  1  0.368693  0.131307  0.000000  1
  Au  Au8  1  0.129359  0.629359  0.000000  1
  Au  Au9  1  0.870641  0.370641  0.000000  1
