# generated using pymatgen
data_Lu8InHgPt2
_symmetry_space_group_name_H-M   'P 1'
_cell_length_a   9.46106350
_cell_length_b   9.46106368
_cell_length_c   9.47689800
_cell_angle_alpha   59.94462131
_cell_angle_beta   59.94462069
_cell_angle_gamma   60.01395926
_symmetry_Int_Tables_number   1
_chemical_formula_structural   Lu8InHgPt2
_chemical_formula_sum   'Lu16 In2 Hg2 Pt4'
_cell_volume   599.39458551
_cell_formula_units_Z   2
loop_
 _symmetry_equiv_pos_site_id
 _symmetry_equiv_pos_as_xyz
  1  'x, y, z'
loop_
 _atom_site_type_symbol
 _atom_site_label
 _atom_site_symmetry_multiplicity
 _atom_site_fract_x
 _atom_site_fract_y
 _atom_site_fract_z
 _atom_site_occupancy
  Lu  Lu0  1  0.604546  0.604546  0.605282  1
  Lu  Lu1  1  0.604546  0.604546  0.185627  1
  Lu  Lu2  1  0.604374  0.185887  0.604871  1
  Lu  Lu3  1  0.185887  0.604374  0.604871  1
  Lu  Lu4  1  0.061155  0.439617  0.438278  1
  Lu  Lu5  1  0.439617  0.061155  0.060950  1
  Lu  Lu6  1  0.439617  0.061155  0.438278  1
  Lu  Lu7  1  0.061155  0.439617  0.060950  1
  Lu  Lu8  1  0.438556  0.438556  0.061444  1
  Lu  Lu9  1  0.060589  0.060589  0.439411  1
  Lu  Lu10  1  0.189219  0.813547  0.813360  1
  Lu  Lu11  1  0.813547  0.189219  0.183875  1
  Lu  Lu12  1  0.813547  0.189219  0.813360  1
  Lu  Lu13  1  0.189219  0.813547  0.183875  1
  Lu  Lu14  1  0.814096  0.814096  0.185904  1
  Lu  Lu15  1  0.187488  0.187488  0.812512  1
  In  In16  1  0.834394  0.834394  0.834607  1
  In  In17  1  0.834394  0.834394  0.496605  1
  Hg  Hg18  1  0.837547  0.487197  0.837629  1
  Hg  Hg19  1  0.487197  0.837547  0.837629  1
  Pt  Pt20  1  0.394010  0.394010  0.394488  1
  Pt  Pt21  1  0.394010  0.394010  0.817492  1
  Pt  Pt22  1  0.393800  0.817492  0.394353  1
  Pt  Pt23  1  0.817492  0.393800  0.394353  1
