# generated using pymatgen
data_NdY2Co8TcP6
_symmetry_space_group_name_H-M   'P 1'
_cell_length_a   3.74746900
_cell_length_b   10.59983400
_cell_length_c   12.30518800
_cell_angle_alpha   90.00000000
_cell_angle_beta   90.00000000
_cell_angle_gamma   90.00000000
_symmetry_Int_Tables_number   1
_chemical_formula_structural   NdY2Co8TcP6
_chemical_formula_sum   'Nd2 Y4 Co16 Tc2 P12'
_cell_volume   488.79343722
_cell_formula_units_Z   2
loop_
 _symmetry_equiv_pos_site_id
 _symmetry_equiv_pos_as_xyz
  1  'x, y, z'
loop_
 _atom_site_type_symbol
 _atom_site_label
 _atom_site_symmetry_multiplicity
 _atom_site_fract_x
 _atom_site_fract_y
 _atom_site_fract_z
 _atom_site_occupancy
  Nd  Nd0  1  0.000000  0.500000  0.524246  1
  Nd  Nd1  1  0.500000  0.000000  0.475754  1
  Y  Y2  1  0.500000  0.817139  0.204877  1
  Y  Y3  1  0.500000  0.182861  0.204877  1
  Y  Y4  1  0.000000  0.682861  0.795123  1
  Y  Y5  1  0.000000  0.317139  0.795123  1
  Co  Co6  1  0.500000  0.500000  0.705396  1
  Co  Co7  1  0.000000  0.000000  0.294604  1
  Co  Co8  1  0.000000  0.500000  0.987174  1
  Co  Co9  1  0.500000  0.000000  0.012826  1
  Co  Co10  1  0.500000  0.332075  0.990070  1
  Co  Co11  1  0.500000  0.667925  0.990070  1
  Co  Co12  1  0.000000  0.167925  0.009930  1
  Co  Co13  1  0.000000  0.832075  0.009930  1
  Co  Co14  1  0.500000  0.296109  0.429600  1
  Co  Co15  1  0.500000  0.703891  0.429600  1
  Co  Co16  1  0.000000  0.203891  0.570400  1
  Co  Co17  1  0.000000  0.796109  0.570400  1
  Co  Co18  1  0.500000  0.879803  0.710498  1
  Co  Co19  1  0.500000  0.120197  0.710498  1
  Co  Co20  1  0.000000  0.620197  0.289502  1
  Co  Co21  1  0.000000  0.379803  0.289502  1
  Tc  Tc22  1  0.500000  0.500000  0.154376  1
  Tc  Tc23  1  0.000000  0.000000  0.845624  1
  P  P24  1  0.500000  0.500000  0.882296  1
  P  P25  1  0.000000  0.000000  0.117704  1
  P  P26  1  0.500000  0.500000  0.344341  1
  P  P27  1  0.000000  0.000000  0.655659  1
  P  P28  1  0.500000  0.308131  0.617370  1
  P  P29  1  0.500000  0.691869  0.617370  1
  P  P30  1  0.000000  0.191869  0.382630  1
  P  P31  1  0.000000  0.808131  0.382630  1
  P  P32  1  0.500000  0.846449  0.893969  1
  P  P33  1  0.500000  0.153551  0.893969  1
  P  P34  1  0.000000  0.653551  0.106031  1
  P  P35  1  0.000000  0.346449  0.106031  1
