# generated using pymatgen
data_CaSn6IrRu3
_symmetry_space_group_name_H-M   'P 1'
_cell_length_a   6.98265325
_cell_length_b   6.99117533
_cell_length_c   6.98467544
_cell_angle_alpha   120.30347524
_cell_angle_beta   120.26334448
_cell_angle_gamma   89.52833861
_symmetry_Int_Tables_number   1
_chemical_formula_structural   CaSn6IrRu3
_chemical_formula_sum   'Ca1 Sn6 Ir1 Ru3'
_cell_volume   240.02173232
_cell_formula_units_Z   1
loop_
 _symmetry_equiv_pos_site_id
 _symmetry_equiv_pos_as_xyz
  1  'x, y, z'
loop_
 _atom_site_type_symbol
 _atom_site_label
 _atom_site_symmetry_multiplicity
 _atom_site_fract_x
 _atom_site_fract_y
 _atom_site_fract_z
 _atom_site_occupancy
  Ca  Ca0  1  0.001443  0.997702  0.000000  1
  Sn  Sn1  1  0.879084  0.532265  0.000000  1
  Sn  Sn2  1  0.534539  0.884412  0.000000  1
  Sn  Sn3  1  0.117552  0.112855  0.645798  1
  Sn  Sn4  1  0.000716  0.499338  0.495647  1
  Sn  Sn5  1  0.471754  0.467057  0.354202  1
  Sn  Sn6  1  0.505069  0.003691  0.504353  1
  Ir  Ir7  1  0.246562  0.592180  0.000000  1
  Ru  Ru8  1  0.407637  0.410128  0.661417  1
  Ru  Ru9  1  0.589425  0.251660  0.000000  1
  Ru  Ru10  1  0.746219  0.748711  0.338583  1
