# generated using pymatgen
data_CuCN7
_symmetry_space_group_name_H-M   'P 1'
_cell_length_a   4.79962761
_cell_length_b   6.70350017
_cell_length_c   8.04466732
_cell_angle_alpha   83.94930191
_cell_angle_beta   94.21506121
_cell_angle_gamma   74.08146183
_symmetry_Int_Tables_number   1
_chemical_formula_structural   CuCN7
_chemical_formula_sum   'Cu1 C1 N7'
_cell_volume   246.09597784
_cell_formula_units_Z   1
loop_
 _symmetry_equiv_pos_site_id
 _symmetry_equiv_pos_as_xyz
  1  'x, y, z'
loop_
 _atom_site_type_symbol
 _atom_site_label
 _atom_site_symmetry_multiplicity
 _atom_site_fract_x
 _atom_site_fract_y
 _atom_site_fract_z
 _atom_site_occupancy
  Cu  Cu0  1  0.052660  0.947579  0.914649  1
  C  C1  1  0.675169  0.945552  0.913323  1
  N  N2  1  0.130262  0.429856  0.151710  1
  N  N3  1  0.826581  0.001527  0.430120  1
  N  N4  1  0.493461  0.474802  0.609907  1
  N  N5  1  0.430703  0.945917  0.913093  1
  N  N6  1  0.998485  0.320932  0.126581  1
  N  N7  1  0.680162  0.460731  0.705344  1
  N  N8  1  0.063650  0.949506  0.474429  1
