# generated using pymatgen
data_Tb3Er5(AgPt)2
_symmetry_space_group_name_H-M   'P 1'
_cell_length_a   9.55604858
_cell_length_b   9.55604826
_cell_length_c   9.55605000
_cell_angle_alpha   60.00000092
_cell_angle_beta   60.00000202
_cell_angle_gamma   60.00000424
_symmetry_Int_Tables_number   1
_chemical_formula_structural   Tb3Er5(AgPt)2
_chemical_formula_sum   'Tb6 Er10 Ag4 Pt4'
_cell_volume   617.04966765
_cell_formula_units_Z   2
loop_
 _symmetry_equiv_pos_site_id
 _symmetry_equiv_pos_as_xyz
  1  'x, y, z'
loop_
 _atom_site_type_symbol
 _atom_site_label
 _atom_site_symmetry_multiplicity
 _atom_site_fract_x
 _atom_site_fract_y
 _atom_site_fract_z
 _atom_site_occupancy
  Tb  Tb0  1  0.935351  0.564649  0.564649  1
  Tb  Tb1  1  0.564649  0.935351  0.935351  1
  Tb  Tb2  1  0.564649  0.935351  0.564649  1
  Tb  Tb3  1  0.935351  0.564649  0.935351  1
  Tb  Tb4  1  0.564649  0.564649  0.935351  1
  Tb  Tb5  1  0.935351  0.935351  0.564649  1
  Er  Er6  1  0.353734  0.353734  0.353734  1
  Er  Er7  1  0.353734  0.353734  0.938797  1
  Er  Er8  1  0.353734  0.938797  0.353734  1
  Er  Er9  1  0.938797  0.353734  0.353734  1
  Er  Er10  1  0.811158  0.188842  0.188842  1
  Er  Er11  1  0.188842  0.811158  0.811158  1
  Er  Er12  1  0.188842  0.811158  0.188842  1
  Er  Er13  1  0.811158  0.188842  0.811158  1
  Er  Er14  1  0.188842  0.188842  0.811158  1
  Er  Er15  1  0.811158  0.811158  0.188842  1
  Ag  Ag16  1  0.581825  0.581825  0.581825  1
  Ag  Ag17  1  0.581825  0.581825  0.254525  1
  Ag  Ag18  1  0.581825  0.254525  0.581825  1
  Ag  Ag19  1  0.254525  0.581825  0.581825  1
  Pt  Pt20  1  0.143710  0.143710  0.143710  1
  Pt  Pt21  1  0.143710  0.143710  0.568869  1
  Pt  Pt22  1  0.143710  0.568869  0.143710  1
  Pt  Pt23  1  0.568869  0.143710  0.143710  1
