# generated using pymatgen
data_NaErCr2O8
_symmetry_space_group_name_H-M   'P 1'
_cell_length_a   5.99351012
_cell_length_b   5.99351077
_cell_length_c   5.99350972
_cell_angle_alpha   105.52974240
_cell_angle_beta   105.52974544
_cell_angle_gamma   117.67934701
_symmetry_Int_Tables_number   1
_chemical_formula_structural   NaErCr2O8
_chemical_formula_sum   'Na1 Er1 Cr2 O8'
_cell_volume   163.15311079
_cell_formula_units_Z   1
loop_
 _symmetry_equiv_pos_site_id
 _symmetry_equiv_pos_as_xyz
  1  'x, y, z'
loop_
 _atom_site_type_symbol
 _atom_site_label
 _atom_site_symmetry_multiplicity
 _atom_site_fract_x
 _atom_site_fract_y
 _atom_site_fract_z
 _atom_site_occupancy
  Na  Na0  1  0.500000  0.500000  0.000000  1
  Er  Er1  1  0.750000  0.250000  0.500000  1
  Cr  Cr2  1  0.250000  0.750000  0.500000  1
  Cr  Cr3  1  0.000000  0.000000  0.000000  1
  O  O4  1  0.843909  0.031124  0.187215  1
  O  O5  1  0.901877  0.578507  0.323370  1
  O  O6  1  0.255137  0.578507  0.676630  1
  O  O7  1  0.843909  0.656694  0.812785  1
  O  O8  1  0.343306  0.156091  0.187215  1
  O  O9  1  0.421493  0.744863  0.323370  1
  O  O10  1  0.421493  0.098123  0.676630  1
  O  O11  1  0.968876  0.156091  0.812785  1
