# generated using pymatgen
data_CaHo3Tm3Co6Sn23
_symmetry_space_group_name_H-M   'P 1'
_cell_length_a   9.69209200
_cell_length_b   9.69209073
_cell_length_c   9.93627700
_cell_angle_alpha   90.00000000
_cell_angle_beta   90.00000000
_cell_angle_gamma   119.99999750
_symmetry_Int_Tables_number   1
_chemical_formula_structural   CaHo3Tm3Co6Sn23
_chemical_formula_sum   'Ca1 Ho3 Tm3 Co6 Sn23'
_cell_volume   808.33118080
_cell_formula_units_Z   1
loop_
 _symmetry_equiv_pos_site_id
 _symmetry_equiv_pos_as_xyz
  1  'x, y, z'
loop_
 _atom_site_type_symbol
 _atom_site_label
 _atom_site_symmetry_multiplicity
 _atom_site_fract_x
 _atom_site_fract_y
 _atom_site_fract_z
 _atom_site_occupancy
  Ca  Ca0  1  0.000000  0.000000  0.999899  1
  Ho  Ho1  1  0.041670  0.520835  0.306405  1
  Ho  Ho2  1  0.479165  0.958330  0.306405  1
  Ho  Ho3  1  0.479165  0.520835  0.306405  1
  Tm  Tm4  1  0.520591  0.479409  0.693732  1
  Tm  Tm5  1  0.520591  0.041182  0.693732  1
  Tm  Tm6  1  0.958818  0.479409  0.693732  1
  Co  Co7  1  0.168859  0.831141  0.801182  1
  Co  Co8  1  0.168859  0.337717  0.801182  1
  Co  Co9  1  0.662283  0.831141  0.801182  1
  Co  Co10  1  0.337534  0.168768  0.198591  1
  Co  Co11  1  0.831232  0.662466  0.198591  1
  Co  Co12  1  0.831232  0.168768  0.198591  1
  Sn  Sn13  1  0.666667  0.333333  0.183477  1
  Sn  Sn14  1  0.666667  0.333333  0.879608  1
  Sn  Sn15  1  0.333333  0.666667  0.119370  1
  Sn  Sn16  1  0.346300  0.346313  0.999859  1
  Sn  Sn17  1  0.000013  0.653700  0.999859  1
  Sn  Sn18  1  0.653687  0.999987  0.999859  1
  Sn  Sn19  1  0.653687  0.653700  0.999859  1
  Sn  Sn20  1  0.333333  0.666667  0.816433  1
  Sn  Sn21  1  0.437462  0.218732  0.452540  1
  Sn  Sn22  1  0.218786  0.781214  0.548320  1
  Sn  Sn23  1  0.218786  0.437571  0.548320  1
  Sn  Sn24  1  0.562429  0.781214  0.548320  1
  Sn  Sn25  1  0.117558  0.882442  0.274101  1
  Sn  Sn26  1  0.781268  0.562538  0.452540  1
  Sn  Sn27  1  0.781268  0.218732  0.452540  1
  Sn  Sn28  1  0.346300  0.999987  0.999859  1
  Sn  Sn29  1  0.117558  0.235118  0.274101  1
  Sn  Sn30  1  0.764882  0.882442  0.274101  1
  Sn  Sn31  1  0.235682  0.117841  0.725810  1
  Sn  Sn32  1  0.882159  0.764318  0.725810  1
  Sn  Sn33  1  0.882159  0.117841  0.725810  1
  Sn  Sn34  1  0.000000  0.000000  0.500010  1
  Sn  Sn35  1  0.000013  0.346313  0.999859  1
