# generated using pymatgen
data_Tb8Zr11Si16W
_symmetry_space_group_name_H-M   'P 1'
_cell_length_a   7.31919995
_cell_length_b   7.31919955
_cell_length_c   13.45470203
_cell_angle_alpha   89.93795351
_cell_angle_beta   90.06204804
_cell_angle_gamma   90.05406807
_symmetry_Int_Tables_number   1
_chemical_formula_structural   Tb8Zr11Si16W
_chemical_formula_sum   'Tb8 Zr11 Si16 W1'
_cell_volume   720.77643832
_cell_formula_units_Z   1
loop_
 _symmetry_equiv_pos_site_id
 _symmetry_equiv_pos_as_xyz
  1  'x, y, z'
loop_
 _atom_site_type_symbol
 _atom_site_label
 _atom_site_symmetry_multiplicity
 _atom_site_fract_x
 _atom_site_fract_y
 _atom_site_fract_z
 _atom_site_occupancy
  Tb  Tb0  1  0.998556  0.345160  0.210942  1
  Tb  Tb1  1  0.004522  0.654614  0.715956  1
  Tb  Tb2  1  0.154701  0.495748  0.463772  1
  Tb  Tb3  1  0.501643  0.847258  0.035361  1
  Tb  Tb4  1  0.847258  0.501643  0.964639  1
  Tb  Tb5  1  0.495748  0.154701  0.536228  1
  Tb  Tb6  1  0.345160  0.998556  0.789058  1
  Tb  Tb7  1  0.654614  0.004522  0.284044  1
  Zr  Zr8  1  0.824706  0.824706  0.500000  1
  Zr  Zr9  1  0.323696  0.675497  0.248146  1
  Zr  Zr10  1  0.675497  0.323696  0.751854  1
  Zr  Zr11  1  0.145734  0.997021  0.373000  1
  Zr  Zr12  1  0.854244  0.005284  0.878079  1
  Zr  Zr13  1  0.504185  0.646207  0.625140  1
  Zr  Zr14  1  0.351439  0.494469  0.876721  1
  Zr  Zr15  1  0.494469  0.351439  0.123279  1
  Zr  Zr16  1  0.646207  0.504185  0.374860  1
  Zr  Zr17  1  0.997021  0.145734  0.627000  1
  Zr  Zr18  1  0.005284  0.854244  0.121921  1
  Si  Si19  1  0.360735  0.294188  0.315146  1
  Si  Si20  1  0.639070  0.705879  0.817443  1
  Si  Si21  1  0.205992  0.861169  0.566264  1
  Si  Si22  1  0.140067  0.798523  0.933902  1
  Si  Si23  1  0.798523  0.140067  0.066098  1
  Si  Si24  1  0.861169  0.205992  0.433736  1
  Si  Si25  1  0.294188  0.360735  0.684854  1
  Si  Si26  1  0.705879  0.639070  0.182557  1
  Si  Si27  1  0.293039  0.054175  0.181620  1
  Si  Si28  1  0.704224  0.949203  0.687972  1
  Si  Si29  1  0.447883  0.795741  0.436262  1
  Si  Si30  1  0.203328  0.545271  0.062159  1
  Si  Si31  1  0.545271  0.203328  0.937841  1
  Si  Si32  1  0.795741  0.447883  0.563738  1
  Si  Si33  1  0.054175  0.293039  0.818380  1
  Si  Si34  1  0.949203  0.704224  0.312028  1
  W  W35  1  0.176828  0.176828  0.000000  1
