# generated using pymatgen
data_La3Mg2Sb3O14
_symmetry_space_group_name_H-M   'P 1'
_cell_length_a   7.38906510
_cell_length_b   7.38907370
_cell_length_c   7.38907426
_cell_angle_alpha   118.35403604
_cell_angle_beta   61.64578682
_cell_angle_gamma   118.35373881
_symmetry_Int_Tables_number   1
_chemical_formula_structural   La3Mg2Sb3O14
_chemical_formula_sum   'La3 Mg2 Sb3 O14'
_cell_volume   295.79841079
_cell_formula_units_Z   1
loop_
 _symmetry_equiv_pos_site_id
 _symmetry_equiv_pos_as_xyz
  1  'x, y, z'
loop_
 _atom_site_type_symbol
 _atom_site_label
 _atom_site_symmetry_multiplicity
 _atom_site_fract_x
 _atom_site_fract_y
 _atom_site_fract_z
 _atom_site_occupancy
  La  La0  1  0.999821  0.499973  0.999995  1
  La  La1  1  0.499969  0.999825  0.999980  1
  La  La2  1  0.499960  0.500029  0.499661  1
  Mg  Mg3  1  0.500001  0.498653  0.998325  1
  Mg  Mg4  1  0.000135  0.000747  0.500117  1
  Sb  Sb5  1  0.499925  0.000085  0.500078  1
  Sb  Sb6  1  0.999942  0.500233  0.500077  1
  Sb  Sb7  1  0.999950  0.000075  0.000089  1
  O  O8  1  0.612079  0.387767  0.111805  1
  O  O9  1  0.387786  0.612037  0.887536  1
  O  O10  1  0.080205  0.321323  0.178759  1
  O  O11  1  0.678781  0.920125  0.178828  1
  O  O12  1  0.678613  0.321423  0.580610  1
  O  O13  1  0.920358  0.678569  0.821519  1
  O  O14  1  0.321541  0.079985  0.821591  1
  O  O15  1  0.321372  0.678669  0.420748  1
  O  O16  1  0.656023  0.914957  0.585230  1
  O  O17  1  0.085025  0.344033  0.585177  1
  O  O18  1  0.085097  0.914909  0.156126  1
  O  O19  1  0.343630  0.085118  0.415049  1
  O  O20  1  0.914840  0.656415  0.414974  1
  O  O21  1  0.914947  0.085053  0.843727  1
