# generated using pymatgen
data_ErTm3(Ni5Sn)4
_symmetry_space_group_name_H-M   'P 1'
_cell_length_a   4.84719800
_cell_length_b   8.01946511
_cell_length_c   10.22001713
_cell_angle_alpha   90.01863564
_cell_angle_beta   90.00000000
_cell_angle_gamma   90.00000000
_symmetry_Int_Tables_number   1
_chemical_formula_structural   ErTm3(Ni5Sn)4
_chemical_formula_sum   'Er1 Tm3 Ni20 Sn4'
_cell_volume   397.27182304
_cell_formula_units_Z   1
loop_
 _symmetry_equiv_pos_site_id
 _symmetry_equiv_pos_as_xyz
  1  'x, y, z'
loop_
 _atom_site_type_symbol
 _atom_site_label
 _atom_site_symmetry_multiplicity
 _atom_site_fract_x
 _atom_site_fract_y
 _atom_site_fract_z
 _atom_site_occupancy
  Er  Er0  1  0.750000  0.246964  0.560261  1
  Tm  Tm1  1  0.250000  0.253167  0.060304  1
  Tm  Tm2  1  0.750000  0.746834  0.939694  1
  Tm  Tm3  1  0.250000  0.753210  0.439696  1
  Ni  Ni4  1  0.750000  0.913852  0.482608  1
  Ni  Ni5  1  0.250000  0.585989  0.982695  1
  Ni  Ni6  1  0.750000  0.414045  0.017330  1
  Ni  Ni7  1  0.250000  0.085754  0.517283  1
  Ni  Ni8  1  0.250000  0.188710  0.742600  1
  Ni  Ni9  1  0.750000  0.311240  0.242461  1
  Ni  Ni10  1  0.250000  0.688739  0.757504  1
  Ni  Ni11  1  0.750000  0.811254  0.257482  1
  Ni  Ni12  1  0.750000  0.547598  0.401346  1
  Ni  Ni13  1  0.250000  0.952574  0.901426  1
  Ni  Ni14  1  0.750000  0.047429  0.098585  1
  Ni  Ni15  1  0.250000  0.452745  0.598617  1
  Ni  Ni16  1  0.498821  0.066070  0.309438  1
  Ni  Ni17  1  0.501036  0.433920  0.809529  1
  Ni  Ni18  1  0.001086  0.566105  0.190523  1
  Ni  Ni19  1  0.998913  0.933810  0.690558  1
  Ni  Ni20  1  0.501087  0.933810  0.690558  1
  Ni  Ni21  1  0.498914  0.566105  0.190523  1
  Ni  Ni22  1  0.998964  0.433920  0.809529  1
  Ni  Ni23  1  0.001179  0.066070  0.309438  1
  Sn  Sn24  1  0.750000  0.640006  0.639701  1
  Sn  Sn25  1  0.250000  0.860116  0.139696  1
  Sn  Sn26  1  0.750000  0.139803  0.860402  1
  Sn  Sn27  1  0.250000  0.360162  0.360216  1
