# generated using pymatgen
data_Li8Dy6Ho2Sn7Sb
_symmetry_space_group_name_H-M   'P 1'
_cell_length_a   9.37545500
_cell_length_b   9.37712619
_cell_length_c   7.27239346
_cell_angle_alpha   90.09389156
_cell_angle_beta   90.00000000
_cell_angle_gamma   119.99410824
_symmetry_Int_Tables_number   1
_chemical_formula_structural   Li8Dy6Ho2Sn7Sb
_chemical_formula_sum   'Li8 Dy6 Ho2 Sn7 Sb1'
_cell_volume   553.72625567
_cell_formula_units_Z   1
loop_
 _symmetry_equiv_pos_site_id
 _symmetry_equiv_pos_as_xyz
  1  'x, y, z'
loop_
 _atom_site_type_symbol
 _atom_site_label
 _atom_site_symmetry_multiplicity
 _atom_site_fract_x
 _atom_site_fract_y
 _atom_site_fract_z
 _atom_site_occupancy
  Li  Li0  1  0.166680  0.333359  0.288082  1
  Li  Li1  1  0.167013  0.833424  0.288295  1
  Li  Li2  1  0.666410  0.833424  0.288295  1
  Li  Li3  1  0.833415  0.666830  0.787823  1
  Li  Li4  1  0.832457  0.166127  0.789017  1
  Li  Li5  1  0.333671  0.166127  0.789017  1
  Li  Li6  1  0.333656  0.667313  0.671414  1
  Li  Li7  1  0.666726  0.333453  0.172557  1
  Dy  Dy8  1  0.512042  0.024082  0.493975  1
  Dy  Dy9  1  0.514583  0.489939  0.491921  1
  Dy  Dy10  1  0.975356  0.489939  0.491921  1
  Dy  Dy11  1  0.488037  0.976077  0.994405  1
  Dy  Dy12  1  0.490136  0.512305  0.995030  1
  Dy  Dy13  1  0.022168  0.512305  0.995030  1
  Ho  Ho14  1  0.998902  0.997804  0.498337  1
  Ho  Ho15  1  0.999036  0.998073  0.001381  1
  Sn  Sn16  1  0.166191  0.832897  0.729857  1
  Sn  Sn17  1  0.666705  0.832897  0.729857  1
  Sn  Sn18  1  0.833643  0.667286  0.230876  1
  Sn  Sn19  1  0.834131  0.167087  0.230431  1
  Sn  Sn20  1  0.332958  0.167087  0.230431  1
  Sn  Sn21  1  0.332794  0.665589  0.260756  1
  Sn  Sn22  1  0.666878  0.333755  0.761263  1
  Sb  Sb23  1  0.166412  0.332824  0.731996  1
