# generated using pymatgen
data_MnNb2P2Rh
_symmetry_space_group_name_H-M   'P 1'
_cell_length_a   3.66974900
_cell_length_b   6.28642462
_cell_length_c   7.15154390
_cell_angle_alpha   88.80143566
_cell_angle_beta   90.00000000
_cell_angle_gamma   90.00000000
_symmetry_Int_Tables_number   1
_chemical_formula_structural   MnNb2P2Rh
_chemical_formula_sum   'Mn2 Nb4 P4 Rh2'
_cell_volume   164.94716331
_cell_formula_units_Z   2
loop_
 _symmetry_equiv_pos_site_id
 _symmetry_equiv_pos_as_xyz
  1  'x, y, z'
loop_
 _atom_site_type_symbol
 _atom_site_label
 _atom_site_symmetry_multiplicity
 _atom_site_fract_x
 _atom_site_fract_y
 _atom_site_fract_z
 _atom_site_occupancy
  Mn  Mn0  1  0.750000  0.358762  0.941683  1
  Mn  Mn1  1  0.250000  0.641238  0.058317  1
  Nb  Nb2  1  0.250000  0.520663  0.681519  1
  Nb  Nb3  1  0.750000  0.479337  0.318481  1
  Nb  Nb4  1  0.250000  0.027189  0.835952  1
  Nb  Nb5  1  0.750000  0.972811  0.164048  1
  P  P6  1  0.250000  0.281951  0.112207  1
  P  P7  1  0.750000  0.718049  0.887793  1
  P  P8  1  0.250000  0.762693  0.363680  1
  P  P9  1  0.750000  0.237307  0.636320  1
  Rh  Rh10  1  0.750000  0.852235  0.566317  1
  Rh  Rh11  1  0.250000  0.147765  0.433683  1
