# generated using pymatgen
data_Ho20Si15Hg
_symmetry_space_group_name_H-M   'P 1'
_cell_length_a   7.42139737
_cell_length_b   7.69027151
_cell_length_c   14.61116338
_cell_angle_alpha   89.94655702
_cell_angle_beta   89.26043293
_cell_angle_gamma   90.11151112
_symmetry_Int_Tables_number   1
_chemical_formula_structural   Ho20Si15Hg
_chemical_formula_sum   'Ho20 Si15 Hg1'
_cell_volume   833.82507983
_cell_formula_units_Z   1
loop_
 _symmetry_equiv_pos_site_id
 _symmetry_equiv_pos_as_xyz
  1  'x, y, z'
loop_
 _atom_site_type_symbol
 _atom_site_label
 _atom_site_symmetry_multiplicity
 _atom_site_fract_x
 _atom_site_fract_y
 _atom_site_fract_z
 _atom_site_occupancy
  Ho  Ho0  1  0.649539  0.990661  0.250406  1
  Ho  Ho1  1  0.152234  0.510962  0.248491  1
  Ho  Ho2  1  0.848195  0.489544  0.747730  1
  Ho  Ho3  1  0.347904  0.011542  0.749517  1
  Ho  Ho4  1  0.977827  0.823473  0.102023  1
  Ho  Ho5  1  0.471962  0.684246  0.401292  1
  Ho  Ho6  1  0.517052  0.311914  0.898803  1
  Ho  Ho7  1  0.029961  0.182090  0.598010  1
  Ho  Ho8  1  0.027075  0.176123  0.899897  1
  Ho  Ho9  1  0.529353  0.315967  0.598142  1
  Ho  Ho10  1  0.476032  0.682797  0.101260  1
  Ho  Ho11  1  0.970015  0.816491  0.400611  1
  Ho  Ho12  1  0.672004  0.830755  0.873498  1
  Ho  Ho13  1  0.182096  0.679817  0.621503  1
  Ho  Ho14  1  0.823084  0.320432  0.126531  1
  Ho  Ho15  1  0.318951  0.178130  0.377844  1
  Ho  Ho16  1  0.324058  0.176583  0.124464  1
  Ho  Ho17  1  0.819978  0.321185  0.377445  1
  Ho  Ho18  1  0.181244  0.675540  0.876903  1
  Ho  Ho19  1  0.681659  0.822458  0.621670  1
  Si  Si20  1  0.769017  0.629884  0.252350  1
  Si  Si21  1  0.268982  0.871891  0.252109  1
  Si  Si22  1  0.732772  0.127861  0.747660  1
  Si  Si23  1  0.229124  0.371977  0.747323  1
  Si  Si24  1  0.023484  0.103946  0.252151  1
  Si  Si25  1  0.524073  0.395047  0.252792  1
  Si  Si26  1  0.476079  0.604723  0.747370  1
  Si  Si27  1  0.976710  0.891954  0.747444  1
  Si  Si28  1  0.354323  0.971560  0.540672  1
  Si  Si29  1  0.653296  0.029808  0.041303  1
  Si  Si30  1  0.147285  0.470418  0.459948  1
  Si  Si31  1  0.162527  0.469316  0.042537  1
  Si  Si32  1  0.646800  0.028519  0.458689  1
  Si  Si33  1  0.347384  0.967853  0.961409  1
  Si  Si34  1  0.854434  0.530359  0.539359  1
  Hg  Hg35  1  0.833486  0.534175  0.960846  1
