# generated using pymatgen
data_Y2ZrAlPt2
_symmetry_space_group_name_H-M   'P 1'
_cell_length_a   4.51124400
_cell_length_b   6.91160800
_cell_length_c   8.06794700
_cell_angle_alpha   90.00000000
_cell_angle_beta   90.00000000
_cell_angle_gamma   90.00000000
_symmetry_Int_Tables_number   1
_chemical_formula_structural   Y2ZrAlPt2
_chemical_formula_sum   'Y4 Zr2 Al2 Pt4'
_cell_volume   251.55818503
_cell_formula_units_Z   2
loop_
 _symmetry_equiv_pos_site_id
 _symmetry_equiv_pos_as_xyz
  1  'x, y, z'
loop_
 _atom_site_type_symbol
 _atom_site_label
 _atom_site_symmetry_multiplicity
 _atom_site_fract_x
 _atom_site_fract_y
 _atom_site_fract_z
 _atom_site_occupancy
  Y  Y0  1  0.750000  0.457096  0.181008  1
  Y  Y1  1  0.250000  0.042904  0.681008  1
  Y  Y2  1  0.750000  0.986389  0.325666  1
  Y  Y3  1  0.250000  0.513611  0.825666  1
  Zr  Zr4  1  0.750000  0.865564  0.934196  1
  Zr  Zr5  1  0.250000  0.634436  0.434196  1
  Al  Al6  1  0.750000  0.357203  0.566888  1
  Al  Al7  1  0.250000  0.142797  0.066888  1
  Pt  Pt8  1  0.750000  0.730527  0.612392  1
  Pt  Pt9  1  0.750000  0.243459  0.879851  1
  Pt  Pt10  1  0.250000  0.256541  0.379851  1
  Pt  Pt11  1  0.250000  0.769473  0.112392  1
