# generated using pymatgen
data_CdHg3(Sb2O7)2
_symmetry_space_group_name_H-M   'P 1'
_cell_length_a   7.46812902
_cell_length_b   7.40633892
_cell_length_c   7.40633800
_cell_angle_alpha   60.00000411
_cell_angle_beta   60.27332512
_cell_angle_gamma   60.27333320
_symmetry_Int_Tables_number   1
_chemical_formula_structural   CdHg3(Sb2O7)2
_chemical_formula_sum   'Cd1 Hg3 Sb4 O14'
_cell_volume   290.86125124
_cell_formula_units_Z   1
loop_
 _symmetry_equiv_pos_site_id
 _symmetry_equiv_pos_as_xyz
  1  'x, y, z'
loop_
 _atom_site_type_symbol
 _atom_site_label
 _atom_site_symmetry_multiplicity
 _atom_site_fract_x
 _atom_site_fract_y
 _atom_site_fract_z
 _atom_site_occupancy
  Cd  Cd0  1  0.625000  0.125000  0.125000  1
  Hg  Hg1  1  0.125000  0.625000  0.125000  1
  Hg  Hg2  1  0.125000  0.125000  0.625000  1
  Hg  Hg3  1  0.125000  0.125000  0.125000  1
  Sb  Sb4  1  0.125000  0.625000  0.625000  1
  Sb  Sb5  1  0.625000  0.125000  0.625000  1
  Sb  Sb6  1  0.625000  0.625000  0.125000  1
  Sb  Sb7  1  0.625000  0.625000  0.625000  1
  O  O8  1  0.693054  0.702420  0.302263  1
  O  O9  1  0.305633  0.303512  0.695427  1
  O  O10  1  0.693054  0.302263  0.702420  1
  O  O11  1  0.305633  0.695427  0.303512  1
  O  O12  1  0.305633  0.695427  0.695427  1
  O  O13  1  0.693054  0.302263  0.302263  1
  O  O14  1  0.556946  0.547580  0.947737  1
  O  O15  1  0.944367  0.946488  0.554573  1
  O  O16  1  0.556946  0.947737  0.547580  1
  O  O17  1  0.944367  0.554573  0.946488  1
  O  O18  1  0.944367  0.554573  0.554573  1
  O  O19  1  0.556946  0.947737  0.947737  1
  O  O20  1  0.249685  0.250105  0.250105  1
  O  O21  1  0.000315  0.999895  0.999895  1
