# generated using pymatgen
data_NdDySbSe
_symmetry_space_group_name_H-M   'P 1'
_cell_length_a   7.41071676
_cell_length_b   7.41071644
_cell_length_c   7.41071576
_cell_angle_alpha   33.96309251
_cell_angle_beta   33.96309837
_cell_angle_gamma   33.96309494
_symmetry_Int_Tables_number   1
_chemical_formula_structural   NdDySbSe
_chemical_formula_sum   'Nd1 Dy1 Sb1 Se1'
_cell_volume   113.21609979
_cell_formula_units_Z   1
loop_
 _symmetry_equiv_pos_site_id
 _symmetry_equiv_pos_as_xyz
  1  'x, y, z'
loop_
 _atom_site_type_symbol
 _atom_site_label
 _atom_site_symmetry_multiplicity
 _atom_site_fract_x
 _atom_site_fract_y
 _atom_site_fract_z
 _atom_site_occupancy
  Nd  Nd0  1  0.996291  0.996291  0.996291  1
  Dy  Dy1  1  0.503944  0.503944  0.503944  1
  Sb  Sb2  1  0.753445  0.753445  0.753445  1
  Se  Se3  1  0.246320  0.246320  0.246320  1
