# generated using pymatgen
data_CaHo3Lu4(B6Ru)4
_symmetry_space_group_name_H-M   'P 1'
_cell_length_a   3.61571000
_cell_length_b   9.06799750
_cell_length_c   11.46000003
_cell_angle_alpha   90.07661809
_cell_angle_beta   90.00000000
_cell_angle_gamma   90.00000000
_symmetry_Int_Tables_number   1
_chemical_formula_structural   CaHo3Lu4(B6Ru)4
_chemical_formula_sum   'Ca1 Ho3 Lu4 B24 Ru4'
_cell_volume   375.74154118
_cell_formula_units_Z   1
loop_
 _symmetry_equiv_pos_site_id
 _symmetry_equiv_pos_as_xyz
  1  'x, y, z'
loop_
 _atom_site_type_symbol
 _atom_site_label
 _atom_site_symmetry_multiplicity
 _atom_site_fract_x
 _atom_site_fract_y
 _atom_site_fract_z
 _atom_site_occupancy
  Ca  Ca0  1  0.000000  0.178063  0.914075  1
  Ho  Ho1  1  0.000000  0.321379  0.414693  1
  Ho  Ho2  1  0.000000  0.678056  0.586301  1
  Ho  Ho3  1  0.000000  0.823349  0.084867  1
  Lu  Lu4  1  0.000000  0.943960  0.372250  1
  Lu  Lu5  1  0.000000  0.056730  0.629116  1
  Lu  Lu6  1  0.000000  0.442557  0.127834  1
  Lu  Lu7  1  0.000000  0.555886  0.871539  1
  B  B8  1  0.500000  0.554451  0.432619  1
  B  B9  1  0.500000  0.446293  0.566625  1
  B  B10  1  0.500000  0.054100  0.067871  1
  B  B11  1  0.500000  0.945114  0.932533  1
  B  B12  1  0.500000  0.749743  0.419319  1
  B  B13  1  0.500000  0.250703  0.580691  1
  B  B14  1  0.500000  0.249424  0.081665  1
  B  B15  1  0.500000  0.750237  0.919018  1
  B  B16  1  0.500000  0.791583  0.265762  1
  B  B17  1  0.500000  0.209127  0.733699  1
  B  B18  1  0.500000  0.291423  0.234761  1
  B  B19  1  0.500000  0.707600  0.765553  1
  B  B20  1  0.500000  0.630699  0.184330  1
  B  B21  1  0.500000  0.369934  0.814655  1
  B  B22  1  0.500000  0.130572  0.316041  1
  B  B23  1  0.500000  0.868880  0.684778  1
  B  B24  1  0.500000  0.982686  0.213274  1
  B  B25  1  0.500000  0.016597  0.786870  1
  B  B26  1  0.500000  0.482740  0.286774  1
  B  B27  1  0.500000  0.517408  0.712487  1
  B  B28  1  0.500000  0.603031  0.028287  1
  B  B29  1  0.500000  0.398633  0.972094  1
  B  B30  1  0.500000  0.104069  0.471698  1
  B  B31  1  0.500000  0.895741  0.528731  1
  Ru  Ru32  1  0.000000  0.638411  0.320220  1
  Ru  Ru33  1  0.000000  0.362917  0.678086  1
  Ru  Ru34  1  0.000000  0.138677  0.181643  1
  Ru  Ru35  1  0.000000  0.859224  0.819240  1
