# generated using pymatgen
data_LaCe2(B2C)3
_symmetry_space_group_name_H-M   'P 1'
_cell_length_a   5.41508976
_cell_length_b   5.41509045
_cell_length_c   5.41509031
_cell_angle_alpha   75.69006455
_cell_angle_beta   75.69006314
_cell_angle_gamma   75.69006058
_symmetry_Int_Tables_number   1
_chemical_formula_structural   LaCe2(B2C)3
_chemical_formula_sum   'La1 Ce2 B6 C3'
_cell_volume   146.13005425
_cell_formula_units_Z   1
loop_
 _symmetry_equiv_pos_site_id
 _symmetry_equiv_pos_as_xyz
  1  'x, y, z'
loop_
 _atom_site_type_symbol
 _atom_site_label
 _atom_site_symmetry_multiplicity
 _atom_site_fract_x
 _atom_site_fract_y
 _atom_site_fract_z
 _atom_site_occupancy
  La  La0  1  0.000000  0.000000  0.000000  1
  Ce  Ce1  1  0.687694  0.687694  0.687694  1
  Ce  Ce2  1  0.312306  0.312306  0.312306  1
  B  B3  1  0.500000  0.775387  0.224613  1
  B  B4  1  0.224613  0.500000  0.775387  1
  B  B5  1  0.775387  0.224613  0.500000  1
  B  B6  1  0.500000  0.224613  0.775387  1
  B  B7  1  0.224613  0.775387  0.500000  1
  B  B8  1  0.775387  0.500000  0.224613  1
  C  C9  1  0.000000  0.000000  0.500000  1
  C  C10  1  0.000000  0.500000  0.000000  1
  C  C11  1  0.500000  0.000000  0.000000  1
