# generated using pymatgen
data_U5V3(P3Ir4)4
_symmetry_space_group_name_H-M   'P 1'
_cell_length_a   12.72363700
_cell_length_b   12.72363686
_cell_length_c   3.94165000
_cell_angle_alpha   90.00000000
_cell_angle_beta   90.00000000
_cell_angle_gamma   119.99999776
_symmetry_Int_Tables_number   1
_chemical_formula_structural   U5V3(P3Ir4)4
_chemical_formula_sum   'U5 V3 P12 Ir16'
_cell_volume   552.62590088
_cell_formula_units_Z   1
loop_
 _symmetry_equiv_pos_site_id
 _symmetry_equiv_pos_as_xyz
  1  'x, y, z'
loop_
 _atom_site_type_symbol
 _atom_site_label
 _atom_site_symmetry_multiplicity
 _atom_site_fract_x
 _atom_site_fract_y
 _atom_site_fract_z
 _atom_site_occupancy
  U  U0  1  0.333333  0.666667  0.500000  1
  U  U1  1  0.666667  0.333333  0.500000  1
  U  U2  1  0.000000  0.813534  0.000000  1
  U  U3  1  0.186466  0.186466  0.000000  1
  U  U4  1  0.813534  0.000000  0.000000  1
  V  V5  1  0.000000  0.453765  0.500000  1
  V  V6  1  0.546235  0.546235  0.500000  1
  V  V7  1  0.453765  0.000000  0.500000  1
  P  P8  1  0.000000  0.635024  0.500000  1
  P  P9  1  0.364976  0.364976  0.500000  1
  P  P10  1  0.635024  0.000000  0.500000  1
  P  P11  1  0.514951  0.682392  0.000000  1
  P  P12  1  0.317608  0.832558  0.000000  1
  P  P13  1  0.167442  0.485049  0.000000  1
  P  P14  1  0.485049  0.167442  0.000000  1
  P  P15  1  0.682392  0.514951  0.000000  1
  P  P16  1  0.832558  0.317608  0.000000  1
  P  P17  1  0.000000  0.179225  0.500000  1
  P  P18  1  0.820775  0.820775  0.500000  1
  P  P19  1  0.179225  0.000000  0.500000  1
  Ir  Ir20  1  0.512320  0.870332  0.000000  1
  Ir  Ir21  1  0.129668  0.641990  0.000000  1
  Ir  Ir22  1  0.358010  0.487680  0.000000  1
  Ir  Ir23  1  0.487680  0.358010  0.000000  1
  Ir  Ir24  1  0.870332  0.512320  0.000000  1
  Ir  Ir25  1  0.641990  0.129668  0.000000  1
  Ir  Ir26  1  0.000000  0.288096  0.000000  1
  Ir  Ir27  1  0.711904  0.711904  0.000000  1
  Ir  Ir28  1  0.288096  0.000000  0.000000  1
  Ir  Ir29  1  0.623819  0.802045  0.500000  1
  Ir  Ir30  1  0.197955  0.821774  0.500000  1
  Ir  Ir31  1  0.178226  0.376181  0.500000  1
  Ir  Ir32  1  0.376181  0.178226  0.500000  1
  Ir  Ir33  1  0.802045  0.623819  0.500000  1
  Ir  Ir34  1  0.821774  0.197955  0.500000  1
  Ir  Ir35  1  0.000000  0.000000  0.500000  1
