# generated using pymatgen
data_Hf6AlCoTe
_symmetry_space_group_name_H-M   'P 1'
_cell_length_a   3.45004700
_cell_length_b   7.78714237
_cell_length_c   7.78751801
_cell_angle_alpha   120.00018570
_cell_angle_beta   90.00000000
_cell_angle_gamma   90.00000000
_symmetry_Int_Tables_number   1
_chemical_formula_structural   Hf6AlCoTe
_chemical_formula_sum   'Hf6 Al1 Co1 Te1'
_cell_volume   181.18907570
_cell_formula_units_Z   1
loop_
 _symmetry_equiv_pos_site_id
 _symmetry_equiv_pos_as_xyz
  1  'x, y, z'
loop_
 _atom_site_type_symbol
 _atom_site_label
 _atom_site_symmetry_multiplicity
 _atom_site_fract_x
 _atom_site_fract_y
 _atom_site_fract_z
 _atom_site_occupancy
  Hf  Hf0  1  0.500000  0.603790  0.005340  1
  Hf  Hf1  1  0.500000  0.401537  0.396202  1
  Hf  Hf2  1  0.500000  0.994641  0.598481  1
  Hf  Hf3  1  0.000000  0.246924  0.007084  1
  Hf  Hf4  1  0.000000  0.760150  0.753077  1
  Hf  Hf5  1  0.000000  0.992903  0.239808  1
  Al  Al6  1  0.000000  0.666661  0.333335  1
  Co  Co7  1  0.500000  0.999979  0.000013  1
  Te  Te8  1  0.000000  0.333315  0.666661  1
