# generated using pymatgen
data_SmPa2Zn3PdPt2
_symmetry_space_group_name_H-M   'P 1'
_cell_length_a   7.36684542
_cell_length_b   7.36684401
_cell_length_c   3.86375100
_cell_angle_alpha   90.00000000
_cell_angle_beta   90.00000000
_cell_angle_gamma   119.85215211
_symmetry_Int_Tables_number   1
_chemical_formula_structural   SmPa2Zn3PdPt2
_chemical_formula_sum   'Sm1 Pa2 Zn3 Pd1 Pt2'
_cell_volume   181.86447994
_cell_formula_units_Z   1
loop_
 _symmetry_equiv_pos_site_id
 _symmetry_equiv_pos_as_xyz
  1  'x, y, z'
loop_
 _atom_site_type_symbol
 _atom_site_label
 _atom_site_symmetry_multiplicity
 _atom_site_fract_x
 _atom_site_fract_y
 _atom_site_fract_z
 _atom_site_occupancy
  Sm  Sm0  1  0.592883  0.592883  0.000000  1
  Pa  Pa1  1  0.411377  0.997359  0.000000  1
  Pa  Pa2  1  0.997359  0.411377  0.000000  1
  Zn  Zn3  1  0.753035  0.992355  0.500000  1
  Zn  Zn4  1  0.992355  0.753035  0.500000  1
  Zn  Zn5  1  0.256240  0.256240  0.500000  1
  Pd  Pd6  1  0.014116  0.014116  0.000000  1
  Pt  Pt7  1  0.313707  0.668927  0.500000  1
  Pt  Pt8  1  0.668927  0.313707  0.500000  1
