# generated using pymatgen
data_Pr7Nd9Cd4(OsPd)2
_symmetry_space_group_name_H-M   'P 1'
_cell_length_a   10.02165760
_cell_length_b   10.02165792
_cell_length_c   10.10978100
_cell_angle_alpha   59.70869568
_cell_angle_beta   59.70869461
_cell_angle_gamma   59.73456257
_symmetry_Int_Tables_number   1
_chemical_formula_structural   Pr7Nd9Cd4(OsPd)2
_chemical_formula_sum   'Pr7 Nd9 Cd4 Os2 Pd2'
_cell_volume   713.35955828
_cell_formula_units_Z   1
loop_
 _symmetry_equiv_pos_site_id
 _symmetry_equiv_pos_as_xyz
  1  'x, y, z'
loop_
 _atom_site_type_symbol
 _atom_site_label
 _atom_site_symmetry_multiplicity
 _atom_site_fract_x
 _atom_site_fract_y
 _atom_site_fract_z
 _atom_site_occupancy
  Pr  Pr0  1  0.806165  0.806165  0.193835  1
  Pr  Pr1  1  0.938805  0.555605  0.565476  1
  Pr  Pr2  1  0.555605  0.938805  0.940114  1
  Pr  Pr3  1  0.555605  0.938805  0.565476  1
  Pr  Pr4  1  0.938805  0.555605  0.940114  1
  Pr  Pr5  1  0.562379  0.562379  0.937621  1
  Pr  Pr6  1  0.940306  0.940306  0.559694  1
  Nd  Nd7  1  0.348193  0.348193  0.355554  1
  Nd  Nd8  1  0.348193  0.348193  0.948061  1
  Nd  Nd9  1  0.343303  0.956434  0.350132  1
  Nd  Nd10  1  0.956434  0.343303  0.350132  1
  Nd  Nd11  1  0.816018  0.189077  0.191504  1
  Nd  Nd12  1  0.189077  0.816018  0.803400  1
  Nd  Nd13  1  0.189077  0.816018  0.191504  1
  Nd  Nd14  1  0.816018  0.189077  0.803400  1
  Nd  Nd15  1  0.188792  0.188792  0.811208  1
  Cd  Cd16  1  0.579204  0.579204  0.580461  1
  Cd  Cd17  1  0.579204  0.579204  0.261132  1
  Cd  Cd18  1  0.580394  0.259129  0.580237  1
  Cd  Cd19  1  0.259129  0.580394  0.580237  1
  Os  Os20  1  0.144301  0.144301  0.137157  1
  Os  Os21  1  0.144301  0.144301  0.574241  1
  Pd  Pd22  1  0.147398  0.573294  0.139653  1
  Pd  Pd23  1  0.573294  0.147398  0.139653  1
