# generated using pymatgen
data_Sc2Nb2Co4SiP3
_symmetry_space_group_name_H-M   'P 1'
_cell_length_a   3.66966900
_cell_length_b   6.22827487
_cell_length_c   7.06919599
_cell_angle_alpha   89.93943629
_cell_angle_beta   90.00000000
_cell_angle_gamma   90.00000000
_symmetry_Int_Tables_number   1
_chemical_formula_structural   Sc2Nb2Co4SiP3
_chemical_formula_sum   'Sc2 Nb2 Co4 Si1 P3'
_cell_volume   161.57138346
_cell_formula_units_Z   1
loop_
 _symmetry_equiv_pos_site_id
 _symmetry_equiv_pos_as_xyz
  1  'x, y, z'
loop_
 _atom_site_type_symbol
 _atom_site_label
 _atom_site_symmetry_multiplicity
 _atom_site_fract_x
 _atom_site_fract_y
 _atom_site_fract_z
 _atom_site_occupancy
  Sc  Sc0  1  0.750000  0.979604  0.183539  1
  Sc  Sc1  1  0.750000  0.479278  0.317783  1
  Nb  Nb2  1  0.250000  0.025497  0.817058  1
  Nb  Nb3  1  0.250000  0.520035  0.680457  1
  Co  Co4  1  0.250000  0.142036  0.439717  1
  Co  Co5  1  0.250000  0.640112  0.064487  1
  Co  Co6  1  0.750000  0.861072  0.558665  1
  Co  Co7  1  0.750000  0.355364  0.938372  1
  Si  Si8  1  0.750000  0.724754  0.880088  1
  P  P9  1  0.250000  0.274826  0.111398  1
  P  P10  1  0.250000  0.772516  0.388725  1
  P  P11  1  0.750000  0.224906  0.619711  1
