# generated using pymatgen
data_Th4Mg3ZnIr4
_symmetry_space_group_name_H-M   'P 1'
_cell_length_a   4.12743900
_cell_length_b   7.24620180
_cell_length_c   8.71603793
_cell_angle_alpha   90.48075094
_cell_angle_beta   90.00000000
_cell_angle_gamma   90.00000000
_symmetry_Int_Tables_number   1
_chemical_formula_structural   Th4Mg3ZnIr4
_chemical_formula_sum   'Th4 Mg3 Zn1 Ir4'
_cell_volume   260.67231638
_cell_formula_units_Z   1
loop_
 _symmetry_equiv_pos_site_id
 _symmetry_equiv_pos_as_xyz
  1  'x, y, z'
loop_
 _atom_site_type_symbol
 _atom_site_label
 _atom_site_symmetry_multiplicity
 _atom_site_fract_x
 _atom_site_fract_y
 _atom_site_fract_z
 _atom_site_occupancy
  Th  Th0  1  0.250000  0.538378  0.189085  1
  Th  Th1  1  0.750000  0.457959  0.812480  1
  Th  Th2  1  0.250000  0.048195  0.321216  1
  Th  Th3  1  0.750000  0.959290  0.680509  1
  Mg  Mg4  1  0.250000  0.131423  0.943342  1
  Mg  Mg5  1  0.750000  0.867303  0.057718  1
  Mg  Mg6  1  0.250000  0.625235  0.554135  1
  Zn  Zn7  1  0.750000  0.369538  0.441917  1
  Ir  Ir8  1  0.750000  0.761046  0.371544  1
  Ir  Ir9  1  0.250000  0.241520  0.628752  1
  Ir  Ir10  1  0.750000  0.262053  0.130818  1
  Ir  Ir11  1  0.250000  0.738060  0.868483  1
