# generated using pymatgen
data_TmBeInF6
_symmetry_space_group_name_H-M   'P 1'
_cell_length_a   5.82207400
_cell_length_b   6.50897988
_cell_length_c   7.24588300
_cell_angle_alpha   66.15185840
_cell_angle_beta   90.00000000
_cell_angle_gamma   90.00000000
_symmetry_Int_Tables_number   1
_chemical_formula_structural   TmBeInF6
_chemical_formula_sum   'Tm2 Be2 In2 F12'
_cell_volume   251.14399094
_cell_formula_units_Z   2
loop_
 _symmetry_equiv_pos_site_id
 _symmetry_equiv_pos_as_xyz
  1  'x, y, z'
loop_
 _atom_site_type_symbol
 _atom_site_label
 _atom_site_symmetry_multiplicity
 _atom_site_fract_x
 _atom_site_fract_y
 _atom_site_fract_z
 _atom_site_occupancy
  Tm  Tm0  1  0.250000  0.392374  0.183782  1
  Tm  Tm1  1  0.750000  0.607626  0.816218  1
  Be  Be2  1  0.250000  0.767906  0.464457  1
  Be  Be3  1  0.750000  0.232094  0.535543  1
  In  In4  1  0.250000  0.073353  0.805414  1
  In  In5  1  0.750000  0.926647  0.194586  1
  F  F6  1  0.466081  0.750887  0.598633  1
  F  F7  1  0.533919  0.249113  0.401367  1
  F  F8  1  0.966081  0.249113  0.401367  1
  F  F9  1  0.033919  0.750887  0.598633  1
  F  F10  1  0.250000  0.580434  0.384250  1
  F  F11  1  0.750000  0.419566  0.615750  1
  F  F12  1  0.499281  0.675968  0.026141  1
  F  F13  1  0.500719  0.324032  0.973859  1
  F  F14  1  0.999281  0.324032  0.973859  1
  F  F15  1  0.000719  0.675968  0.026141  1
  F  F16  1  0.250000  0.002569  0.276408  1
  F  F17  1  0.750000  0.997431  0.723592  1
