# generated using pymatgen
data_Ca3DyMg2(RuO6)2
_symmetry_space_group_name_H-M   'P 1'
_cell_length_a   5.62751905
_cell_length_b   5.41491986
_cell_length_c   9.43787862
_cell_angle_alpha   54.98644692
_cell_angle_beta   89.92680712
_cell_angle_gamma   90.10614324
_symmetry_Int_Tables_number   1
_chemical_formula_structural   Ca3DyMg2(RuO6)2
_chemical_formula_sum   'Ca3 Dy1 Mg2 Ru2 O12'
_cell_volume   235.54475901
_cell_formula_units_Z   1
loop_
 _symmetry_equiv_pos_site_id
 _symmetry_equiv_pos_as_xyz
  1  'x, y, z'
loop_
 _atom_site_type_symbol
 _atom_site_label
 _atom_site_symmetry_multiplicity
 _atom_site_fract_x
 _atom_site_fract_y
 _atom_site_fract_z
 _atom_site_occupancy
  Ca  Ca0  1  0.442952  0.234913  0.251418  1
  Ca  Ca1  1  0.557308  0.767301  0.747859  1
  Ca  Ca2  1  0.054582  0.236124  0.750857  1
  Dy  Dy3  1  0.933813  0.768277  0.248457  1
  Mg  Mg4  1  0.495802  0.001333  0.999137  1
  Mg  Mg5  1  0.000667  0.000244  0.500274  1
  Ru  Ru6  1  0.001413  0.503826  0.998856  1
  Ru  Ru7  1  0.498343  0.496236  0.501210  1
  O  O8  1  0.701919  0.839040  0.446263  1
  O  O9  1  0.189975  0.147526  0.054584  1
  O  O10  1  0.306207  0.159874  0.546610  1
  O  O11  1  0.806764  0.838091  0.958060  1
  O  O12  1  0.791611  0.265460  0.546556  1
  O  O13  1  0.290201  0.738726  0.948583  1
  O  O14  1  0.204493  0.741986  0.442517  1
  O  O15  1  0.719013  0.242403  0.058815  1
  O  O16  1  0.536758  0.648897  0.255975  1
  O  O17  1  0.030087  0.365773  0.243832  1
  O  O18  1  0.468672  0.354464  0.741438  1
  O  O19  1  0.969421  0.649507  0.758701  1
