# generated using pymatgen
data_CaAc3(Ga7Ni)2
_symmetry_space_group_name_H-M   'P 1'
_cell_length_a   6.24883247
_cell_length_b   6.23710531
_cell_length_c   11.46592063
_cell_angle_alpha   74.21761484
_cell_angle_beta   74.18715967
_cell_angle_gamma   89.99999669
_symmetry_Int_Tables_number   1
_chemical_formula_structural   CaAc3(Ga7Ni)2
_chemical_formula_sum   'Ca1 Ac3 Ga14 Ni2'
_cell_volume   412.43183704
_cell_formula_units_Z   1
loop_
 _symmetry_equiv_pos_site_id
 _symmetry_equiv_pos_as_xyz
  1  'x, y, z'
loop_
 _atom_site_type_symbol
 _atom_site_label
 _atom_site_symmetry_multiplicity
 _atom_site_fract_x
 _atom_site_fract_y
 _atom_site_fract_z
 _atom_site_occupancy
  Ca  Ca0  1  0.245822  0.745822  0.508358  1
  Ac  Ac1  1  0.996497  0.996497  0.007004  1
  Ac  Ac2  1  0.500772  0.500772  0.998455  1
  Ac  Ac3  1  0.751324  0.251324  0.497353  1
  Ga  Ga4  1  0.202621  0.202621  0.594758  1
  Ga  Ga5  1  0.812434  0.812434  0.375133  1
  Ga  Ga6  1  0.599576  0.125911  0.257492  1
  Ga  Ga7  1  0.142931  0.616596  0.257492  1
  Ga  Ga8  1  0.599576  0.616596  0.257492  1
  Ga  Ga9  1  0.142931  0.125911  0.257492  1
  Ga  Ga10  1  0.866656  0.355129  0.752706  1
  Ga  Ga11  1  0.380638  0.892164  0.752706  1
  Ga  Ga12  1  0.866656  0.892164  0.752706  1
  Ga  Ga13  1  0.380638  0.355129  0.752706  1
  Ga  Ga14  1  0.691991  0.691991  0.616018  1
  Ga  Ga15  1  0.062713  0.562713  0.874573  1
  Ga  Ga16  1  0.451204  0.951204  0.097591  1
  Ga  Ga17  1  0.940325  0.440325  0.119350  1
  Ni  Ni18  1  0.314847  0.314847  0.370306  1
  Ni  Ni19  1  0.564679  0.064679  0.870644  1
