# generated using pymatgen
data_Dy7HoSc12Si15Bi
_symmetry_space_group_name_H-M   'P 1'
_cell_length_a   7.17338470
_cell_length_b   7.41756611
_cell_length_c   14.07549643
_cell_angle_alpha   90.05864250
_cell_angle_beta   88.72422556
_cell_angle_gamma   90.17296205
_symmetry_Int_Tables_number   1
_chemical_formula_structural   Dy7HoSc12Si15Bi
_chemical_formula_sum   'Dy7 Ho1 Sc12 Si15 Bi1'
_cell_volume   748.75445943
_cell_formula_units_Z   1
loop_
 _symmetry_equiv_pos_site_id
 _symmetry_equiv_pos_as_xyz
  1  'x, y, z'
loop_
 _atom_site_type_symbol
 _atom_site_label
 _atom_site_symmetry_multiplicity
 _atom_site_fract_x
 _atom_site_fract_y
 _atom_site_fract_z
 _atom_site_occupancy
  Dy  Dy0  1  0.012092  0.176672  0.096588  1
  Dy  Dy1  1  0.988258  0.824706  0.904150  1
  Dy  Dy2  1  0.488995  0.675751  0.904089  1
  Dy  Dy3  1  0.993265  0.831394  0.598408  1
  Dy  Dy4  1  0.511522  0.324351  0.097320  1
  Dy  Dy5  1  0.999358  0.170058  0.398992  1
  Dy  Dy6  1  0.511352  0.317128  0.397511  1
  Ho  Ho7  1  0.512016  0.686514  0.601219  1
  Sc  Sc8  1  0.164845  0.501052  0.756163  1
  Sc  Sc9  1  0.834507  0.499008  0.251420  1
  Sc  Sc10  1  0.334591  0.001698  0.250305  1
  Sc  Sc11  1  0.667337  0.998678  0.751216  1
  Sc  Sc12  1  0.349505  0.155789  0.631727  1
  Sc  Sc13  1  0.658039  0.827448  0.372532  1
  Sc  Sc14  1  0.153984  0.683046  0.368951  1
  Sc  Sc15  1  0.667089  0.822785  0.123798  1
  Sc  Sc16  1  0.826799  0.326518  0.625873  1
  Sc  Sc17  1  0.330939  0.175437  0.875525  1
  Sc  Sc18  1  0.831695  0.323673  0.875650  1
  Sc  Sc19  1  0.168131  0.676560  0.124886  1
  Si  Si20  1  0.037132  0.119269  0.751203  1
  Si  Si21  1  0.960256  0.885055  0.245968  1
  Si  Si22  1  0.460716  0.616407  0.247542  1
  Si  Si23  1  0.536237  0.384619  0.752918  1
  Si  Si24  1  0.289632  0.867121  0.753072  1
  Si  Si25  1  0.710586  0.126491  0.246353  1
  Si  Si26  1  0.209339  0.373256  0.248818  1
  Si  Si27  1  0.793638  0.628602  0.751789  1
  Si  Si28  1  0.812123  0.541297  0.456569  1
  Si  Si29  1  0.329326  0.963115  0.459832  1
  Si  Si30  1  0.843571  0.534213  0.039842  1
  Si  Si31  1  0.672023  0.038806  0.538564  1
  Si  Si32  1  0.155698  0.465414  0.961441  1
  Si  Si33  1  0.655560  0.034627  0.960362  1
  Si  Si34  1  0.343133  0.966136  0.040141  1
  Bi  Bi35  1  0.186710  0.457305  0.539262  1
