# generated using pymatgen
data_CsRbPaTe3
_symmetry_space_group_name_H-M   'P 1'
_cell_length_a   15.52998900
_cell_length_b   7.37543430
_cell_length_c   9.86035655
_cell_angle_alpha   72.45138658
_cell_angle_beta   90.00000000
_cell_angle_gamma   90.00000000
_symmetry_Int_Tables_number   1
_chemical_formula_structural   CsRbPaTe3
_chemical_formula_sum   'Cs4 Rb4 Pa4 Te12'
_cell_volume   1076.84826690
_cell_formula_units_Z   4
loop_
 _symmetry_equiv_pos_site_id
 _symmetry_equiv_pos_as_xyz
  1  'x, y, z'
loop_
 _atom_site_type_symbol
 _atom_site_label
 _atom_site_symmetry_multiplicity
 _atom_site_fract_x
 _atom_site_fract_y
 _atom_site_fract_z
 _atom_site_occupancy
  Cs  Cs0  1  0.959266  0.657290  0.673717  1
  Cs  Cs1  1  0.459266  0.842710  0.326283  1
  Cs  Cs2  1  0.040734  0.342710  0.326283  1
  Cs  Cs3  1  0.540734  0.157290  0.673717  1
  Rb  Rb4  1  0.870312  0.075629  0.896369  1
  Rb  Rb5  1  0.370312  0.424371  0.103631  1
  Rb  Rb6  1  0.129688  0.924371  0.103631  1
  Rb  Rb7  1  0.629688  0.575629  0.896369  1
  Pa  Pa8  1  0.749762  0.662398  0.289327  1
  Pa  Pa9  1  0.249762  0.837602  0.710673  1
  Pa  Pa10  1  0.250238  0.337602  0.710673  1
  Pa  Pa11  1  0.750238  0.162398  0.289327  1
  Te  Te12  1  0.909994  0.914306  0.278406  1
  Te  Te13  1  0.409994  0.585694  0.721594  1
  Te  Te14  1  0.090006  0.085694  0.721594  1
  Te  Te15  1  0.590006  0.414306  0.278406  1
  Te  Te16  1  0.819634  0.319407  0.522374  1
  Te  Te17  1  0.319634  0.180593  0.477626  1
  Te  Te18  1  0.180366  0.680593  0.477626  1
  Te  Te19  1  0.680366  0.819407  0.522374  1
  Te  Te20  1  0.838323  0.502896  0.065503  1
  Te  Te21  1  0.338323  0.997104  0.934497  1
  Te  Te22  1  0.161677  0.497104  0.934497  1
  Te  Te23  1  0.661677  0.002896  0.065503  1
