# generated using pymatgen
data_Er5AsRhO12
_symmetry_space_group_name_H-M   'P 1'
_cell_length_a   6.77950226
_cell_length_b   6.77950199
_cell_length_c   7.14659440
_cell_angle_alpha   74.52253091
_cell_angle_beta   74.52254138
_cell_angle_gamma   50.98965803
_symmetry_Int_Tables_number   1
_chemical_formula_structural   Er5AsRhO12
_chemical_formula_sum   'Er5 As1 Rh1 O12'
_cell_volume   243.82160333
_cell_formula_units_Z   1
loop_
 _symmetry_equiv_pos_site_id
 _symmetry_equiv_pos_as_xyz
  1  'x, y, z'
loop_
 _atom_site_type_symbol
 _atom_site_label
 _atom_site_symmetry_multiplicity
 _atom_site_fract_x
 _atom_site_fract_y
 _atom_site_fract_z
 _atom_site_occupancy
  Er  Er0  1  0.305369  0.296896  0.360126  1
  Er  Er1  1  0.703104  0.694631  0.639874  1
  Er  Er2  1  0.308753  0.304230  0.831726  1
  Er  Er3  1  0.695770  0.691247  0.168274  1
  Er  Er4  1  0.010210  0.989790  0.500000  1
  As  As5  1  0.238901  0.761099  0.000000  1
  Rh  Rh6  1  0.747652  0.252348  0.000000  1
  O  O7  1  0.904672  0.433932  0.916748  1
  O  O8  1  0.415796  0.899702  0.918069  1
  O  O9  1  0.100298  0.584204  0.081931  1
  O  O10  1  0.566068  0.095328  0.083252  1
  O  O11  1  0.103864  0.592738  0.571601  1
  O  O12  1  0.604125  0.091483  0.575501  1
  O  O13  1  0.908517  0.395875  0.424499  1
  O  O14  1  0.407262  0.896136  0.428399  1
  O  O15  1  0.010879  0.988192  0.820414  1
  O  O16  1  0.011808  0.989121  0.179586  1
  O  O17  1  0.478384  0.521433  0.817647  1
  O  O18  1  0.478567  0.521616  0.182353  1
