# generated using pymatgen
data_TaMnP6WO21
_symmetry_space_group_name_H-M   'P 1'
_cell_length_a   8.09831830
_cell_length_b   6.66997149
_cell_length_c   16.92517264
_cell_angle_alpha   67.67966091
_cell_angle_beta   89.92631244
_cell_angle_gamma   90.09715920
_symmetry_Int_Tables_number   1
_chemical_formula_structural   TaMnP6WO21
_chemical_formula_sum   'Ta2 Mn2 P12 W2 O42'
_cell_volume   845.72132718
_cell_formula_units_Z   2
loop_
 _symmetry_equiv_pos_site_id
 _symmetry_equiv_pos_as_xyz
  1  'x, y, z'
loop_
 _atom_site_type_symbol
 _atom_site_label
 _atom_site_symmetry_multiplicity
 _atom_site_fract_x
 _atom_site_fract_y
 _atom_site_fract_z
 _atom_site_occupancy
  Ta  Ta0  1  0.479970  0.297415  0.667143  1
  Ta  Ta1  1  0.520030  0.702585  0.332857  1
  Mn  Mn2  1  0.500000  0.000000  0.000000  1
  Mn  Mn3  1  0.000000  0.000000  0.500000  1
  P  P4  1  0.395872  0.820303  0.836300  1
  P  P5  1  0.604128  0.179697  0.163700  1
  P  P6  1  0.896057  0.179391  0.664591  1
  P  P7  1  0.103943  0.820609  0.335409  1
  P  P8  1  0.109834  0.542253  0.669633  1
  P  P9  1  0.890166  0.457747  0.330367  1
  P  P10  1  0.609821  0.458962  0.830714  1
  P  P11  1  0.390179  0.541038  0.169286  1
  P  P12  1  0.890949  0.791498  0.017243  1
  P  P13  1  0.109051  0.208502  0.982757  1
  P  P14  1  0.390313  0.207754  0.482715  1
  P  P15  1  0.609687  0.792246  0.517285  1
  W  W16  1  0.978578  0.700875  0.833352  1
  W  W17  1  0.021422  0.299125  0.166648  1
  O  O18  1  0.776587  0.822011  0.546933  1
  O  O19  1  0.223413  0.177989  0.453067  1
  O  O20  1  0.276694  0.180255  0.953930  1
  O  O21  1  0.723306  0.819745  0.046070  1
  O  O22  1  0.395679  0.235277  0.569999  1
  O  O23  1  0.604321  0.764723  0.430001  1
  O  O24  1  0.894992  0.766113  0.928541  1
  O  O25  1  0.105008  0.233887  0.071459  1
  O  O26  1  0.445984  0.600085  0.824830  1
  O  O27  1  0.554016  0.399915  0.175170  1
  O  O28  1  0.946789  0.402373  0.674913  1
  O  O29  1  0.053211  0.597627  0.325087  1
  O  O30  1  0.257465  0.383631  0.695578  1
  O  O31  1  0.742535  0.616369  0.304422  1
  O  O32  1  0.753330  0.626394  0.802510  1
  O  O33  1  0.246670  0.373606  0.197490  1
  O  O34  1  0.426529  0.000635  0.745652  1
  O  O35  1  0.573471  0.999365  0.254348  1
  O  O36  1  0.929217  0.005520  0.754515  1
  O  O37  1  0.070783  0.994480  0.245485  1
  O  O38  1  0.208079  0.794351  0.852206  1
  O  O39  1  0.791921  0.205649  0.147794  1
  O  O40  1  0.706535  0.208872  0.649253  1
  O  O41  1  0.293465  0.791128  0.350747  1
  O  O42  1  0.132535  0.722676  0.586006  1
  O  O43  1  0.867465  0.277324  0.413994  1
  O  O44  1  0.632966  0.283367  0.915710  1
  O  O45  1  0.367034  0.716633  0.084290  1
  O  O46  1  0.077241  0.623082  0.744196  1
  O  O47  1  0.922759  0.376918  0.255804  1
  O  O48  1  0.577505  0.376105  0.757878  1
  O  O49  1  0.422495  0.623895  0.242122  1
  O  O50  1  0.492706  0.855700  0.904098  1
  O  O51  1  0.507294  0.144300  0.095902  1
  O  O52  1  0.989932  0.146872  0.595285  1
  O  O53  1  0.010068  0.853128  0.404715  1
  O  O54  1  0.990069  0.605400  0.081962  1
  O  O55  1  0.009931  0.394600  0.918038  1
  O  O56  1  0.485014  0.399754  0.415981  1
  O  O57  1  0.514986  0.600246  0.584019  1
  O  O58  1  0.500000  0.000000  0.500000  1
  O  O59  1  0.000000  0.000000  0.000000  1
