# generated using pymatgen
data_U3Co10(Ni5B3)2
_symmetry_space_group_name_H-M   'P 1'
_cell_length_a   7.58167877
_cell_length_b   7.60766563
_cell_length_c   7.56702289
_cell_angle_alpha   60.15600640
_cell_angle_beta   59.93591035
_cell_angle_gamma   60.11294791
_symmetry_Int_Tables_number   1
_chemical_formula_structural   U3Co10(Ni5B3)2
_chemical_formula_sum   'U3 Co10 Ni10 B6'
_cell_volume   309.09704336
_cell_formula_units_Z   1
loop_
 _symmetry_equiv_pos_site_id
 _symmetry_equiv_pos_as_xyz
  1  'x, y, z'
loop_
 _atom_site_type_symbol
 _atom_site_label
 _atom_site_symmetry_multiplicity
 _atom_site_fract_x
 _atom_site_fract_y
 _atom_site_fract_z
 _atom_site_occupancy
  U  U0  1  0.993920  0.000166  0.011995  1
  U  U1  1  0.750127  0.751018  0.748728  1
  U  U2  1  0.250677  0.248996  0.249651  1
  Co  Co3  1  0.617179  0.616577  0.149066  1
  Co  Co4  1  0.617179  0.149022  0.616621  1
  Co  Co5  1  0.149519  0.618114  0.616969  1
  Co  Co6  1  0.615399  0.618114  0.616969  1
  Co  Co7  1  0.382897  0.384940  0.849268  1
  Co  Co8  1  0.381421  0.851607  0.385551  1
  Co  Co9  1  0.851497  0.381053  0.384164  1
  Co  Co10  1  0.383286  0.381053  0.384164  1
  Co  Co11  1  0.001532  0.997117  0.336314  1
  Co  Co12  1  0.665037  0.997117  0.336314  1
  Ni  Ni13  1  0.999876  0.654923  0.345326  1
  Ni  Ni14  1  0.655611  0.344369  0.998440  1
  Ni  Ni15  1  0.001581  0.344369  0.998440  1
  Ni  Ni16  1  0.000155  0.339093  0.660596  1
  Ni  Ni17  1  0.341030  0.658716  0.000471  1
  Ni  Ni18  1  0.340911  0.000489  0.658508  1
  Ni  Ni19  1  0.342806  0.001382  0.997129  1
  Ni  Ni20  1  0.000093  0.000489  0.658508  1
  Ni  Ni21  1  0.999782  0.658716  0.000471  1
  Ni  Ni22  1  0.658684  0.001382  0.997129  1
  B  B23  1  0.723001  0.723094  0.276126  1
  B  B24  1  0.277778  0.723094  0.276126  1
  B  B25  1  0.724598  0.275856  0.274949  1
  B  B26  1  0.276439  0.277537  0.723251  1
  B  B27  1  0.722773  0.277537  0.723251  1
  B  B28  1  0.275214  0.724064  0.725508  1
