# generated using pymatgen
data_Er2Tm3OsRu
_symmetry_space_group_name_H-M   'P 1'
_cell_length_a   6.26744772
_cell_length_b   7.28596260
_cell_length_c   8.33340110
_cell_angle_alpha   96.92429970
_cell_angle_beta   112.08885303
_cell_angle_gamma   90.00000441
_symmetry_Int_Tables_number   1
_chemical_formula_structural   Er2Tm3OsRu
_chemical_formula_sum   'Er4 Tm6 Os2 Ru2'
_cell_volume   349.61153645
_cell_formula_units_Z   2
loop_
 _symmetry_equiv_pos_site_id
 _symmetry_equiv_pos_as_xyz
  1  'x, y, z'
loop_
 _atom_site_type_symbol
 _atom_site_label
 _atom_site_symmetry_multiplicity
 _atom_site_fract_x
 _atom_site_fract_y
 _atom_site_fract_z
 _atom_site_occupancy
  Er  Er0  1  0.792798  0.083622  0.816283  1
  Er  Er1  1  0.976515  0.416378  0.183717  1
  Er  Er2  1  0.208665  0.915437  0.185536  1
  Er  Er3  1  0.023130  0.584563  0.814464  1
  Tm  Tm4  1  0.204314  0.183415  0.564293  1
  Tm  Tm5  1  0.640021  0.316585  0.435707  1
  Tm  Tm6  1  0.794871  0.816405  0.435135  1
  Tm  Tm7  1  0.359736  0.683595  0.564865  1
  Tm  Tm8  1  0.420534  0.250000  0.000000  1
  Tm  Tm9  1  0.580731  0.750000  0.000000  1
  Os  Os10  1  0.602264  0.422885  0.780130  1
  Os  Os11  1  0.822133  0.077115  0.219870  1
  Ru  Ru12  1  0.397275  0.577266  0.220261  1
  Ru  Ru13  1  0.177015  0.922734  0.779739  1
