# generated using pymatgen
data_Sm8Ti3Si16W9
_symmetry_space_group_name_H-M   'P 1'
_cell_length_a   6.96828650
_cell_length_b   6.96828642
_cell_length_c   12.96834316
_cell_angle_alpha   89.98159009
_cell_angle_beta   90.01841200
_cell_angle_gamma   89.91789389
_symmetry_Int_Tables_number   1
_chemical_formula_structural   Sm8Ti3Si16W9
_chemical_formula_sum   'Sm8 Ti3 Si16 W9'
_cell_volume   629.70333712
_cell_formula_units_Z   1
loop_
 _symmetry_equiv_pos_site_id
 _symmetry_equiv_pos_as_xyz
  1  'x, y, z'
loop_
 _atom_site_type_symbol
 _atom_site_label
 _atom_site_symmetry_multiplicity
 _atom_site_fract_x
 _atom_site_fract_y
 _atom_site_fract_z
 _atom_site_occupancy
  Sm  Sm0  1  0.338085  0.003380  0.468298  1
  Sm  Sm1  1  0.495761  0.837002  0.718966  1
  Sm  Sm2  1  0.500873  0.163058  0.217425  1
  Sm  Sm3  1  0.837002  0.495761  0.281034  1
  Sm  Sm4  1  0.163058  0.500873  0.782575  1
  Sm  Sm5  1  0.661367  0.997654  0.968556  1
  Sm  Sm6  1  0.003380  0.338085  0.531702  1
  Sm  Sm7  1  0.997654  0.661367  0.031444  1
  Ti  Ti8  1  0.171314  0.831095  0.248388  1
  Ti  Ti9  1  0.831095  0.171314  0.751612  1
  Ti  Ti10  1  0.669349  0.669349  0.500000  1
  Si  Si11  1  0.199233  0.125880  0.685156  1
  Si  Si12  1  0.376744  0.696233  0.935612  1
  Si  Si13  1  0.625817  0.300342  0.435557  1
  Si  Si14  1  0.696233  0.376744  0.064388  1
  Si  Si15  1  0.300342  0.625817  0.564443  1
  Si  Si16  1  0.798564  0.875057  0.186044  1
  Si  Si17  1  0.125880  0.199233  0.314844  1
  Si  Si18  1  0.875057  0.798564  0.813956  1
  Si  Si19  1  0.286564  0.963248  0.062028  1
  Si  Si20  1  0.539620  0.788978  0.313724  1
  Si  Si21  1  0.458945  0.211781  0.814065  1
  Si  Si22  1  0.788978  0.539620  0.686276  1
  Si  Si23  1  0.211781  0.458945  0.185935  1
  Si  Si24  1  0.712111  0.040777  0.563736  1
  Si  Si25  1  0.963248  0.286564  0.937972  1
  Si  Si26  1  0.040777  0.712111  0.436264  1
  W  W27  1  0.331397  0.331397  0.000000  1
  W  W28  1  0.159980  0.005130  0.874259  1
  W  W29  1  0.491915  0.666226  0.125507  1
  W  W30  1  0.507136  0.338745  0.625311  1
  W  W31  1  0.666226  0.491915  0.874493  1
  W  W32  1  0.338745  0.507136  0.374689  1
  W  W33  1  0.838604  0.992034  0.375073  1
  W  W34  1  0.005130  0.159980  0.125741  1
  W  W35  1  0.992034  0.838604  0.624927  1
