# generated using pymatgen
data_DyEr2Pa(ZnRh)4
_symmetry_space_group_name_H-M   'P 1'
_cell_length_a   3.86025600
_cell_length_b   7.08485461
_cell_length_c   8.30878707
_cell_angle_alpha   90.83620466
_cell_angle_beta   90.00000000
_cell_angle_gamma   90.00000000
_symmetry_Int_Tables_number   1
_chemical_formula_structural   DyEr2Pa(ZnRh)4
_chemical_formula_sum   'Dy1 Er2 Pa1 Zn4 Rh4'
_cell_volume   227.21574590
_cell_formula_units_Z   1
loop_
 _symmetry_equiv_pos_site_id
 _symmetry_equiv_pos_as_xyz
  1  'x, y, z'
loop_
 _atom_site_type_symbol
 _atom_site_label
 _atom_site_symmetry_multiplicity
 _atom_site_fract_x
 _atom_site_fract_y
 _atom_site_fract_z
 _atom_site_occupancy
  Dy  Dy0  1  0.250000  0.053204  0.322163  1
  Er  Er1  1  0.750000  0.442159  0.808906  1
  Er  Er2  1  0.750000  0.940616  0.686774  1
  Pa  Pa3  1  0.250000  0.553631  0.178050  1
  Zn  Zn4  1  0.250000  0.621152  0.563915  1
  Zn  Zn5  1  0.750000  0.370455  0.443204  1
  Zn  Zn6  1  0.750000  0.894456  0.062468  1
  Zn  Zn7  1  0.250000  0.126560  0.934297  1
  Rh  Rh8  1  0.250000  0.738234  0.888367  1
  Rh  Rh9  1  0.750000  0.282247  0.128267  1
  Rh  Rh10  1  0.750000  0.741602  0.356332  1
  Rh  Rh11  1  0.250000  0.235685  0.627255  1
