# generated using pymatgen
data_Lu4Pa4Re(B8Mo)3
_symmetry_space_group_name_H-M   'P 1'
_cell_length_a   3.72213500
_cell_length_b   9.11800501
_cell_length_c   11.48488101
_cell_angle_alpha   90.00383725
_cell_angle_beta   90.00000000
_cell_angle_gamma   90.00000000
_symmetry_Int_Tables_number   1
_chemical_formula_structural   Lu4Pa4Re(B8Mo)3
_chemical_formula_sum   'Lu4 Pa4 Re1 B24 Mo3'
_cell_volume   389.77900792
_cell_formula_units_Z   1
loop_
 _symmetry_equiv_pos_site_id
 _symmetry_equiv_pos_as_xyz
  1  'x, y, z'
loop_
 _atom_site_type_symbol
 _atom_site_label
 _atom_site_symmetry_multiplicity
 _atom_site_fract_x
 _atom_site_fract_y
 _atom_site_fract_z
 _atom_site_occupancy
  Lu  Lu0  1  0.000000  0.945552  0.373883  1
  Lu  Lu1  1  0.000000  0.055003  0.626479  1
  Lu  Lu2  1  0.000000  0.445715  0.126444  1
  Lu  Lu3  1  0.000000  0.554393  0.873655  1
  Pa  Pa4  1  0.000000  0.321517  0.413201  1
  Pa  Pa5  1  0.000000  0.677589  0.585328  1
  Pa  Pa6  1  0.000000  0.821510  0.087326  1
  Pa  Pa7  1  0.000000  0.179337  0.914035  1
  Re  Re8  1  0.000000  0.860980  0.820896  1
  B  B9  1  0.500000  0.553687  0.433089  1
  B  B10  1  0.500000  0.446440  0.567054  1
  B  B11  1  0.500000  0.053390  0.066397  1
  B  B12  1  0.500000  0.945612  0.932320  1
  B  B13  1  0.500000  0.750456  0.420208  1
  B  B14  1  0.500000  0.249573  0.580081  1
  B  B15  1  0.500000  0.250649  0.079866  1
  B  B16  1  0.500000  0.749572  0.919289  1
  B  B17  1  0.500000  0.793719  0.264692  1
  B  B18  1  0.500000  0.205999  0.735536  1
  B  B19  1  0.500000  0.293424  0.235340  1
  B  B20  1  0.500000  0.707247  0.765209  1
  B  B21  1  0.500000  0.631823  0.184153  1
  B  B22  1  0.500000  0.368300  0.816064  1
  B  B23  1  0.500000  0.131289  0.315559  1
  B  B24  1  0.500000  0.868779  0.684833  1
  B  B25  1  0.500000  0.981516  0.212984  1
  B  B26  1  0.500000  0.017249  0.786911  1
  B  B27  1  0.500000  0.481723  0.286716  1
  B  B28  1  0.500000  0.518479  0.713421  1
  B  B29  1  0.500000  0.606486  0.028766  1
  B  B30  1  0.500000  0.394121  0.970620  1
  B  B31  1  0.500000  0.105907  0.470716  1
  B  B32  1  0.500000  0.894095  0.530060  1
  Mo  Mo33  1  0.000000  0.639267  0.321056  1
  Mo  Mo34  1  0.000000  0.360925  0.679514  1
  Mo  Mo35  1  0.000000  0.138679  0.178299  1
