# generated using pymatgen
data_Hf6Tc5As5PRu
_symmetry_space_group_name_H-M   'P 1'
_cell_length_a   7.71031169
_cell_length_b   7.72694427
_cell_length_c   7.72122917
_cell_angle_alpha   127.51910593
_cell_angle_beta   123.50622953
_cell_angle_gamma   80.71845532
_symmetry_Int_Tables_number   1
_chemical_formula_structural   Hf6Tc5As5PRu
_chemical_formula_sum   'Hf6 Tc5 As5 P1 Ru1'
_cell_volume   293.39336234
_cell_formula_units_Z   1
loop_
 _symmetry_equiv_pos_site_id
 _symmetry_equiv_pos_as_xyz
  1  'x, y, z'
loop_
 _atom_site_type_symbol
 _atom_site_label
 _atom_site_symmetry_multiplicity
 _atom_site_fract_x
 _atom_site_fract_y
 _atom_site_fract_z
 _atom_site_occupancy
  Hf  Hf0  1  0.457321  0.670770  0.709759  1
  Hf  Hf1  1  0.539594  0.255414  0.215075  1
  Hf  Hf2  1  0.750547  0.841086  0.595283  1
  Hf  Hf3  1  0.249994  0.848619  0.094676  1
  Hf  Hf4  1  0.051081  0.254868  0.703590  1
  Hf  Hf5  1  0.947593  0.654040  0.208216  1
  Tc  Tc6  1  0.471234  0.495206  0.966306  1
  Tc  Tc7  1  0.023072  0.497283  0.522568  1
  Tc  Tc8  1  0.109993  0.254365  0.119002  1
  Tc  Tc9  1  0.904535  0.009402  0.161406  1
  Tc  Tc10  1  0.348191  0.009840  0.601035  1
  As  As11  1  0.734635  0.241975  0.009276  1
  As  As12  1  0.330344  0.587271  0.249709  1
  As  As13  1  0.667358  0.920370  0.255817  1
  As  As14  1  0.165574  0.922137  0.752630  1
  As  As15  1  0.835071  0.587105  0.758376  1
  P  P16  1  0.271902  0.256793  0.485327  1
  Ru  Ru17  1  0.641959  0.253055  0.651551  1
