# generated using pymatgen
data_Ba4Pa5PbO15
_symmetry_space_group_name_H-M   'P 1'
_cell_length_a   4.35567300
_cell_length_b   4.35567300
_cell_length_c   23.71667800
_cell_angle_alpha   90.00000000
_cell_angle_beta   90.00000000
_cell_angle_gamma   90.00000000
_symmetry_Int_Tables_number   1
_chemical_formula_structural   Ba4Pa5PbO15
_chemical_formula_sum   'Ba4 Pa5 Pb1 O15'
_cell_volume   449.95014174
_cell_formula_units_Z   1
loop_
 _symmetry_equiv_pos_site_id
 _symmetry_equiv_pos_as_xyz
  1  'x, y, z'
loop_
 _atom_site_type_symbol
 _atom_site_label
 _atom_site_symmetry_multiplicity
 _atom_site_fract_x
 _atom_site_fract_y
 _atom_site_fract_z
 _atom_site_occupancy
  Ba  Ba0  1  0.000000  0.000000  0.189798  1
  Ba  Ba1  1  0.000000  0.000000  0.399189  1
  Ba  Ba2  1  0.000000  0.000000  0.600811  1
  Ba  Ba3  1  0.000000  0.000000  0.810202  1
  Pa  Pa4  1  0.500000  0.500000  0.091805  1
  Pa  Pa5  1  0.500000  0.500000  0.305634  1
  Pa  Pa6  1  0.500000  0.500000  0.500000  1
  Pa  Pa7  1  0.500000  0.500000  0.694366  1
  Pa  Pa8  1  0.500000  0.500000  0.908195  1
  Pb  Pb9  1  0.000000  0.000000  0.000000  1
  O  O10  1  0.000000  0.500000  0.122621  1
  O  O11  1  0.000000  0.500000  0.319780  1
  O  O12  1  0.000000  0.500000  0.500000  1
  O  O13  1  0.000000  0.500000  0.680220  1
  O  O14  1  0.000000  0.500000  0.877379  1
  O  O15  1  0.500000  0.000000  0.122621  1
  O  O16  1  0.500000  0.000000  0.319780  1
  O  O17  1  0.500000  0.000000  0.500000  1
  O  O18  1  0.500000  0.000000  0.680220  1
  O  O19  1  0.500000  0.000000  0.877379  1
  O  O20  1  0.500000  0.500000  0.000000  1
  O  O21  1  0.500000  0.500000  0.218282  1
  O  O22  1  0.500000  0.500000  0.405502  1
  O  O23  1  0.500000  0.500000  0.594498  1
  O  O24  1  0.500000  0.500000  0.781718  1
