# generated using pymatgen
data_CeEr2Al12Os3Ru
_symmetry_space_group_name_H-M   'P 1'
_cell_length_a   8.82670812
_cell_length_b   8.84147342
_cell_length_c   9.57188100
_cell_angle_alpha   90.00000000
_cell_angle_beta   90.00000000
_cell_angle_gamma   120.05534501
_symmetry_Int_Tables_number   1
_chemical_formula_structural   CeEr2Al12Os3Ru
_chemical_formula_sum   'Ce2 Er4 Al24 Os6 Ru2'
_cell_volume   646.56004074
_cell_formula_units_Z   2
loop_
 _symmetry_equiv_pos_site_id
 _symmetry_equiv_pos_as_xyz
  1  'x, y, z'
loop_
 _atom_site_type_symbol
 _atom_site_label
 _atom_site_symmetry_multiplicity
 _atom_site_fract_x
 _atom_site_fract_y
 _atom_site_fract_z
 _atom_site_occupancy
  Ce  Ce0  1  0.804706  0.193260  0.750000  1
  Ce  Ce1  1  0.195294  0.388553  0.250000  1
  Er  Er2  1  0.809371  0.614059  0.750000  1
  Er  Er3  1  0.190629  0.804687  0.250000  1
  Er  Er4  1  0.610375  0.802235  0.250000  1
  Er  Er5  1  0.389625  0.191861  0.750000  1
  Al  Al6  1  0.334318  0.669757  0.486089  1
  Al  Al7  1  0.665682  0.335438  0.986089  1
  Al  Al8  1  0.665682  0.335438  0.513911  1
  Al  Al9  1  0.334318  0.669757  0.013911  1
  Al  Al10  1  0.162982  0.324447  0.579154  1
  Al  Al11  1  0.675868  0.835939  0.578127  1
  Al  Al12  1  0.161453  0.838518  0.576740  1
  Al  Al13  1  0.837018  0.161466  0.079154  1
  Al  Al14  1  0.837018  0.161466  0.420846  1
  Al  Al15  1  0.838547  0.677066  0.076740  1
  Al  Al16  1  0.324132  0.160072  0.078127  1
  Al  Al17  1  0.675868  0.835939  0.921873  1
  Al  Al18  1  0.162982  0.324447  0.920846  1
  Al  Al19  1  0.838547  0.677066  0.423260  1
  Al  Al20  1  0.998277  0.998242  0.250000  1
  Al  Al21  1  0.001723  0.999965  0.750000  1
  Al  Al22  1  0.559620  0.119474  0.250000  1
  Al  Al23  1  0.440380  0.559854  0.750000  1
  Al  Al24  1  0.123352  0.561478  0.750000  1
  Al  Al25  1  0.876648  0.438126  0.250000  1
  Al  Al26  1  0.563300  0.436834  0.250000  1
  Al  Al27  1  0.436700  0.873534  0.750000  1
  Al  Al28  1  0.161453  0.838518  0.923260  1
  Al  Al29  1  0.324132  0.160072  0.421873  1
  Os  Os30  1  0.500610  0.002007  0.502424  1
  Os  Os31  1  0.499390  0.501397  0.002424  1
  Os  Os32  1  0.000000  0.502416  0.000000  1
  Os  Os33  1  0.000000  0.502416  0.500000  1
  Os  Os34  1  0.499390  0.501397  0.497576  1
  Os  Os35  1  0.500610  0.002007  0.997576  1
  Ru  Ru36  1  0.000000  0.000395  0.500000  1
  Ru  Ru37  1  0.000000  0.000395  0.000000  1
