# generated using pymatgen
data_Ce2Cr3Fe9P7
_symmetry_space_group_name_H-M   'P 1'
_cell_length_a   9.08402900
_cell_length_b   9.08402985
_cell_length_c   3.65224200
_cell_angle_alpha   90.00000000
_cell_angle_beta   90.00000000
_cell_angle_gamma   120.00000782
_symmetry_Int_Tables_number   1
_chemical_formula_structural   Ce2Cr3Fe9P7
_chemical_formula_sum   'Ce2 Cr3 Fe9 P7'
_cell_volume   261.00402734
_cell_formula_units_Z   1
loop_
 _symmetry_equiv_pos_site_id
 _symmetry_equiv_pos_as_xyz
  1  'x, y, z'
loop_
 _atom_site_type_symbol
 _atom_site_label
 _atom_site_symmetry_multiplicity
 _atom_site_fract_x
 _atom_site_fract_y
 _atom_site_fract_z
 _atom_site_occupancy
  Ce  Ce0  1  0.000000  0.000000  0.000000  1
  Ce  Ce1  1  0.333333  0.666667  0.500000  1
  Cr  Cr2  1  0.881038  0.436676  0.500000  1
  Cr  Cr3  1  0.555637  0.118962  0.500000  1
  Cr  Cr4  1  0.563324  0.444363  0.500000  1
  Fe  Fe5  1  0.095973  0.393134  0.000000  1
  Fe  Fe6  1  0.297160  0.904027  0.000000  1
  Fe  Fe7  1  0.606866  0.702840  0.000000  1
  Fe  Fe8  1  0.817791  0.607613  0.000000  1
  Fe  Fe9  1  0.789823  0.182209  0.000000  1
  Fe  Fe10  1  0.392387  0.210177  0.000000  1
  Fe  Fe11  1  0.050721  0.769246  0.500000  1
  Fe  Fe12  1  0.718525  0.949279  0.500000  1
  Fe  Fe13  1  0.230754  0.281475  0.500000  1
  P  P14  1  0.072506  0.633321  0.000000  1
  P  P15  1  0.560815  0.927494  0.000000  1
  P  P16  1  0.366679  0.439185  0.000000  1
  P  P17  1  0.776790  0.733937  0.500000  1
  P  P18  1  0.957148  0.223210  0.500000  1
  P  P19  1  0.266063  0.042852  0.500000  1
  P  P20  1  0.666667  0.333333  0.000000  1
