# generated using pymatgen
data_Cs4RhO4
_symmetry_space_group_name_H-M   'P 1'
_cell_length_a   6.28721058
_cell_length_b   6.28721154
_cell_length_c   6.78926624
_cell_angle_alpha   73.90995480
_cell_angle_beta   73.90995142
_cell_angle_gamma   65.43944191
_symmetry_Int_Tables_number   1
_chemical_formula_structural   Cs4RhO4
_chemical_formula_sum   'Cs4 Rh1 O4'
_cell_volume   230.46714775
_cell_formula_units_Z   1
loop_
 _symmetry_equiv_pos_site_id
 _symmetry_equiv_pos_as_xyz
  1  'x, y, z'
loop_
 _atom_site_type_symbol
 _atom_site_label
 _atom_site_symmetry_multiplicity
 _atom_site_fract_x
 _atom_site_fract_y
 _atom_site_fract_z
 _atom_site_occupancy
  Cs  Cs0  1  0.189444  0.189444  0.413988  1
  Cs  Cs1  1  0.385180  0.385180  0.846444  1
  Cs  Cs2  1  0.614820  0.614820  0.153556  1
  Cs  Cs3  1  0.810556  0.810556  0.586012  1
  Rh  Rh4  1  0.000000  0.000000  0.000000  1
  O  O5  1  0.690819  0.095755  0.183747  1
  O  O6  1  0.309181  0.904245  0.816253  1
  O  O7  1  0.095755  0.690819  0.183747  1
  O  O8  1  0.904245  0.309181  0.816253  1
