# generated using pymatgen
data_Nb12Al5Cu(PdN2)2
_symmetry_space_group_name_H-M   'P 1'
_cell_length_a   7.06113838
_cell_length_b   7.05385102
_cell_length_c   7.05596076
_cell_angle_alpha   90.29815738
_cell_angle_beta   90.07792651
_cell_angle_gamma   90.09055951
_symmetry_Int_Tables_number   1
_chemical_formula_structural   Nb12Al5Cu(PdN2)2
_chemical_formula_sum   'Nb12 Al5 Cu1 Pd2 N4'
_cell_volume   351.43930632
_cell_formula_units_Z   1
loop_
 _symmetry_equiv_pos_site_id
 _symmetry_equiv_pos_as_xyz
  1  'x, y, z'
loop_
 _atom_site_type_symbol
 _atom_site_label
 _atom_site_symmetry_multiplicity
 _atom_site_fract_x
 _atom_site_fract_y
 _atom_site_fract_z
 _atom_site_occupancy
  Nb  Nb0  1  0.788798  0.956307  0.380556  1
  Nb  Nb1  1  0.710082  0.041292  0.871475  1
  Nb  Nb2  1  0.210288  0.457596  0.126300  1
  Nb  Nb3  1  0.290485  0.543871  0.622627  1
  Nb  Nb4  1  0.956703  0.380481  0.787429  1
  Nb  Nb5  1  0.042039  0.871175  0.708365  1
  Nb  Nb6  1  0.455867  0.122874  0.211607  1
  Nb  Nb7  1  0.542689  0.625899  0.292058  1
  Nb  Nb8  1  0.378460  0.788891  0.958188  1
  Nb  Nb9  1  0.872413  0.710144  0.041236  1
  Nb  Nb10  1  0.125247  0.209503  0.455542  1
  Nb  Nb11  1  0.624543  0.290884  0.543915  1
  Al  Al12  1  0.676871  0.677162  0.677036  1
  Al  Al13  1  0.571436  0.419363  0.933196  1
  Al  Al14  1  0.418328  0.932588  0.570365  1
  Al  Al15  1  0.934714  0.572893  0.418693  1
  Al  Al16  1  0.073972  0.072168  0.074737  1
  Cu  Cu17  1  0.177245  0.823103  0.319178  1
  Pd  Pd18  1  0.318221  0.178582  0.822753  1
  Pd  Pd19  1  0.821790  0.318457  0.177871  1
  N  N20  1  0.880863  0.126668  0.625010  1
  N  N21  1  0.625324  0.880438  0.125237  1
  N  N22  1  0.126426  0.624186  0.880722  1
  N  N23  1  0.377199  0.375477  0.375906  1
