# generated using pymatgen
data_Na3CuS13
_symmetry_space_group_name_H-M   'P 1'
_cell_length_a   4.40542100
_cell_length_b   12.96073770
_cell_length_c   14.03915315
_cell_angle_alpha   87.91266708
_cell_angle_beta   90.00000000
_cell_angle_gamma   90.00000000
_symmetry_Int_Tables_number   1
_chemical_formula_structural   Na3CuS13
_chemical_formula_sum   'Na6 Cu2 S26'
_cell_volume   801.06874643
_cell_formula_units_Z   2
loop_
 _symmetry_equiv_pos_site_id
 _symmetry_equiv_pos_as_xyz
  1  'x, y, z'
loop_
 _atom_site_type_symbol
 _atom_site_label
 _atom_site_symmetry_multiplicity
 _atom_site_fract_x
 _atom_site_fract_y
 _atom_site_fract_z
 _atom_site_occupancy
  Na  Na0  1  0.167266  0.192934  0.722462  1
  Na  Na1  1  0.167266  0.307066  0.277538  1
  Na  Na2  1  0.127516  0.250000  0.000000  1
  Na  Na3  1  0.872484  0.750000  0.000000  1
  Na  Na4  1  0.832734  0.807066  0.277538  1
  Na  Na5  1  0.832734  0.692934  0.722462  1
  Cu  Cu6  1  0.000000  0.500000  0.500000  1
  Cu  Cu7  1  0.000000  0.000000  0.500000  1
  S  S8  1  0.275612  0.555650  0.625443  1
  S  S9  1  0.671019  0.554810  0.267191  1
  S  S10  1  0.328981  0.054810  0.267191  1
  S  S11  1  0.328981  0.445190  0.732809  1
  S  S12  1  0.946094  0.507906  0.154667  1
  S  S13  1  0.946094  0.992094  0.845333  1
  S  S14  1  0.053906  0.492094  0.845333  1
  S  S15  1  0.053906  0.007906  0.154667  1
  S  S16  1  0.681242  0.413403  0.073767  1
  S  S17  1  0.671019  0.945190  0.732809  1
  S  S18  1  0.318758  0.586597  0.926233  1
  S  S19  1  0.318758  0.913403  0.073767  1
  S  S20  1  0.644379  0.269579  0.142168  1
  S  S21  1  0.644379  0.230421  0.857832  1
  S  S22  1  0.355621  0.730421  0.857832  1
  S  S23  1  0.355621  0.769579  0.142168  1
  S  S24  1  0.089373  0.653469  0.421935  1
  S  S25  1  0.089373  0.846531  0.578065  1
  S  S26  1  0.910627  0.346531  0.578065  1
  S  S27  1  0.910627  0.153469  0.421935  1
  S  S28  1  0.643321  0.250000  0.500000  1
  S  S29  1  0.356679  0.750000  0.500000  1
  S  S30  1  0.724388  0.444350  0.374557  1
  S  S31  1  0.724388  0.055650  0.625443  1
  S  S32  1  0.681242  0.086597  0.926233  1
  S  S33  1  0.275612  0.944350  0.374557  1
