# generated using pymatgen
data_TbTh2(InIr)3
_symmetry_space_group_name_H-M   'P 1'
_cell_length_a   7.73308941
_cell_length_b   7.63844747
_cell_length_c   3.96515800
_cell_angle_alpha   90.00000000
_cell_angle_beta   90.00000000
_cell_angle_gamma   119.59595915
_symmetry_Int_Tables_number   1
_chemical_formula_structural   TbTh2(InIr)3
_chemical_formula_sum   'Tb1 Th2 In3 Ir3'
_cell_volume   203.65875152
_cell_formula_units_Z   1
loop_
 _symmetry_equiv_pos_site_id
 _symmetry_equiv_pos_as_xyz
  1  'x, y, z'
loop_
 _atom_site_type_symbol
 _atom_site_label
 _atom_site_symmetry_multiplicity
 _atom_site_fract_x
 _atom_site_fract_y
 _atom_site_fract_z
 _atom_site_occupancy
  Tb  Tb0  1  0.000000  0.407116  0.000000  1
  Th  Th1  1  0.587648  0.588946  0.000000  1
  Th  Th2  1  0.412352  0.001299  0.000000  1
  In  In3  1  0.000000  0.734634  0.500000  1
  In  In4  1  0.240958  0.253395  0.500000  1
  In  In5  1  0.759042  0.012437  0.500000  1
  Ir  Ir6  1  0.000000  0.990449  0.000000  1
  Ir  Ir7  1  0.649253  0.330487  0.500000  1
  Ir  Ir8  1  0.350747  0.681236  0.500000  1
