# generated using pymatgen
data_TmLu19(Ir3Os)3
_symmetry_space_group_name_H-M   'P 1'
_cell_length_a   10.62863500
_cell_length_b   10.62922701
_cell_length_c   6.30402201
_cell_angle_alpha   89.99533013
_cell_angle_beta   90.00192299
_cell_angle_gamma   90.00197298
_symmetry_Int_Tables_number   1
_chemical_formula_structural   TmLu19(Ir3Os)3
_chemical_formula_sum   'Tm1 Lu19 Ir9 Os3'
_cell_volume   712.19167746
_cell_formula_units_Z   1
loop_
 _symmetry_equiv_pos_site_id
 _symmetry_equiv_pos_as_xyz
  1  'x, y, z'
loop_
 _atom_site_type_symbol
 _atom_site_label
 _atom_site_symmetry_multiplicity
 _atom_site_fract_x
 _atom_site_fract_y
 _atom_site_fract_z
 _atom_site_occupancy
  Tm  Tm0  1  0.086664  0.292284  0.121627  1
  Lu  Lu1  1  0.293923  0.085945  0.376148  1
  Lu  Lu2  1  0.293893  0.914156  0.876164  1
  Lu  Lu3  1  0.706099  0.085827  0.876140  1
  Lu  Lu4  1  0.706108  0.914001  0.376095  1
  Lu  Lu5  1  0.585851  0.793905  0.876117  1
  Lu  Lu6  1  0.585982  0.206110  0.376087  1
  Lu  Lu7  1  0.414015  0.793884  0.376100  1
  Lu  Lu8  1  0.414176  0.206090  0.876114  1
  Lu  Lu9  1  0.208000  0.413550  0.625429  1
  Lu  Lu10  1  0.207582  0.586694  0.121452  1
  Lu  Lu11  1  0.792382  0.413422  0.121449  1
  Lu  Lu12  1  0.792031  0.586501  0.625426  1
  Lu  Lu13  1  0.913378  0.707561  0.121465  1
  Lu  Lu14  1  0.913464  0.292028  0.625421  1
  Lu  Lu15  1  0.086489  0.707978  0.625412  1
  Lu  Lu16  1  0.999991  0.999988  0.500032  1
  Lu  Lu17  1  0.999957  0.999908  0.000075  1
  Lu  Lu18  1  0.500000  0.500012  0.000111  1
  Lu  Lu19  1  0.500007  0.500004  0.500002  1
  Ir  Ir20  1  0.847980  0.153087  0.250491  1
  Ir  Ir21  1  0.847906  0.847063  0.749815  1
  Ir  Ir22  1  0.152167  0.152824  0.749421  1
  Ir  Ir23  1  0.151902  0.846845  0.250413  1
  Ir  Ir24  1  0.652929  0.347914  0.749802  1
  Ir  Ir25  1  0.653166  0.651886  0.250406  1
  Ir  Ir26  1  0.347016  0.348144  0.250523  1
  Ir  Ir27  1  0.347070  0.652086  0.749818  1
  Ir  Ir28  1  0.999931  0.500149  0.378234  1
  Os  Os29  1  0.499997  0.000006  0.123990  1
  Os  Os30  1  0.499996  0.000001  0.623914  1
  Os  Os31  1  0.999949  0.500148  0.876304  1
