# generated using pymatgen
data_YTm2Hf(Al3Ir)6
_symmetry_space_group_name_H-M   'P 1'
_cell_length_a   7.52752625
_cell_length_b   7.52085535
_cell_length_c   9.38314400
_cell_angle_alpha   90.00000000
_cell_angle_beta   90.00000000
_cell_angle_gamma   119.60944110
_symmetry_Int_Tables_number   1
_chemical_formula_structural   YTm2Hf(Al3Ir)6
_chemical_formula_sum   'Y1 Tm2 Hf1 Al18 Ir6'
_cell_volume   461.84291851
_cell_formula_units_Z   1
loop_
 _symmetry_equiv_pos_site_id
 _symmetry_equiv_pos_as_xyz
  1  'x, y, z'
loop_
 _atom_site_type_symbol
 _atom_site_label
 _atom_site_symmetry_multiplicity
 _atom_site_fract_x
 _atom_site_fract_y
 _atom_site_fract_z
 _atom_site_occupancy
  Y  Y0  1  0.994371  0.672702  0.250000  1
  Tm  Tm1  1  0.671427  0.993686  0.250000  1
  Tm  Tm2  1  0.327958  0.004170  0.750000  1
  Hf  Hf3  1  0.002582  0.326484  0.750000  1
  Al  Al4  1  0.129072  0.130629  0.250000  1
  Al  Al5  1  0.873690  0.876103  0.750000  1
  Al  Al6  1  0.000533  0.334793  0.071211  1
  Al  Al7  1  0.000105  0.662201  0.919876  1
  Al  Al8  1  0.000105  0.662201  0.580124  1
  Al  Al9  1  0.336004  0.001770  0.425699  1
  Al  Al10  1  0.000533  0.334793  0.428789  1
  Al  Al11  1  0.666820  0.001789  0.579537  1
  Al  Al12  1  0.666820  0.001789  0.920463  1
  Al  Al13  1  0.336004  0.001770  0.074301  1
  Al  Al14  1  0.331239  0.333128  0.557545  1
  Al  Al15  1  0.666434  0.666760  0.448728  1
  Al  Al16  1  0.666434  0.666760  0.051272  1
  Al  Al17  1  0.331239  0.333128  0.942455  1
  Al  Al18  1  0.340274  0.548664  0.250000  1
  Al  Al19  1  0.663216  0.449817  0.750000  1
  Al  Al20  1  0.548840  0.339448  0.250000  1
  Al  Al21  1  0.444635  0.655764  0.750000  1
  Ir  Ir22  1  0.672472  0.327346  0.998065  1
  Ir  Ir23  1  0.327488  0.671935  0.998780  1
  Ir  Ir24  1  0.327488  0.671935  0.501220  1
  Ir  Ir25  1  0.672472  0.327346  0.501935  1
  Ir  Ir26  1  0.000872  0.001543  0.998414  1
  Ir  Ir27  1  0.000872  0.001543  0.501586  1
