# generated using pymatgen
data_Ta16Be3FeTe16
_symmetry_space_group_name_H-M   'P 1'
_cell_length_a   4.82006700
_cell_length_b   11.11234746
_cell_length_c   19.33495408
_cell_angle_alpha   90.01116365
_cell_angle_beta   90.00000000
_cell_angle_gamma   90.00000000
_symmetry_Int_Tables_number   1
_chemical_formula_structural   Ta16Be3FeTe16
_chemical_formula_sum   'Ta16 Be3 Fe1 Te16'
_cell_volume   1035.62380370
_cell_formula_units_Z   1
loop_
 _symmetry_equiv_pos_site_id
 _symmetry_equiv_pos_as_xyz
  1  'x, y, z'
loop_
 _atom_site_type_symbol
 _atom_site_label
 _atom_site_symmetry_multiplicity
 _atom_site_fract_x
 _atom_site_fract_y
 _atom_site_fract_z
 _atom_site_occupancy
  Ta  Ta0  1  0.501610  0.559733  0.389130  1
  Ta  Ta1  1  0.501610  0.440267  0.610870  1
  Ta  Ta2  1  0.505334  0.060945  0.111619  1
  Ta  Ta3  1  0.505334  0.939055  0.888381  1
  Ta  Ta4  1  0.498445  0.693083  0.534808  1
  Ta  Ta5  1  0.498445  0.306917  0.465192  1
  Ta  Ta6  1  0.507041  0.195129  0.965055  1
  Ta  Ta7  1  0.507041  0.804871  0.034945  1
  Ta  Ta8  1  0.000444  0.679124  0.445864  1
  Ta  Ta9  1  0.000444  0.320876  0.554136  1
  Ta  Ta10  1  0.992994  0.181179  0.054414  1
  Ta  Ta11  1  0.992994  0.818821  0.945586  1
  Ta  Ta12  1  0.999615  0.406264  0.397186  1
  Ta  Ta13  1  0.999615  0.593736  0.602814  1
  Ta  Ta14  1  0.994613  0.905168  0.103573  1
  Ta  Ta15  1  0.994613  0.094832  0.896427  1
  Be  Be16  1  0.250019  0.500000  0.500000  1
  Be  Be17  1  0.750175  0.000000  0.000000  1
  Be  Be18  1  0.750032  0.500000  0.500000  1
  Fe  Fe19  1  0.250087  0.000000  0.000000  1
  Te  Te20  1  0.999374  0.839606  0.560699  1
  Te  Te21  1  0.999374  0.160394  0.439301  1
  Te  Te22  1  0.007195  0.341570  0.938728  1
  Te  Te23  1  0.007195  0.658430  0.061272  1
  Te  Te24  1  0.499977  0.334740  0.318796  1
  Te  Te25  1  0.499977  0.665260  0.681204  1
  Te  Te26  1  0.494388  0.834738  0.181704  1
  Te  Te27  1  0.494388  0.165262  0.818296  1
  Te  Te28  1  0.500307  0.814614  0.405150  1
  Te  Te29  1  0.500307  0.185386  0.594850  1
  Te  Te30  1  0.492538  0.316784  0.095427  1
  Te  Te31  1  0.492538  0.683216  0.904573  1
  Te  Te32  1  0.000561  0.605885  0.304873  1
  Te  Te33  1  0.000561  0.394115  0.695127  1
  Te  Te34  1  0.005408  0.106290  0.195606  1
  Te  Te35  1  0.005408  0.893710  0.804394  1
