# generated using pymatgen
data_Dy2Y2HoIr3
_symmetry_space_group_name_H-M   'P 1'
_cell_length_a   10.90761600
_cell_length_b   10.90761600
_cell_length_c   6.37804600
_cell_angle_alpha   90.00000000
_cell_angle_beta   90.00000000
_cell_angle_gamma   90.00000000
_symmetry_Int_Tables_number   1
_chemical_formula_structural   Dy2Y2HoIr3
_chemical_formula_sum   'Dy8 Y8 Ho4 Ir12'
_cell_volume   758.83495453
_cell_formula_units_Z   4
loop_
 _symmetry_equiv_pos_site_id
 _symmetry_equiv_pos_as_xyz
  1  'x, y, z'
loop_
 _atom_site_type_symbol
 _atom_site_label
 _atom_site_symmetry_multiplicity
 _atom_site_fract_x
 _atom_site_fract_y
 _atom_site_fract_z
 _atom_site_occupancy
  Dy  Dy0  1  0.208751  0.412093  0.621802  1
  Dy  Dy1  1  0.208751  0.587907  0.121802  1
  Dy  Dy2  1  0.791249  0.412093  0.121802  1
  Dy  Dy3  1  0.791249  0.587907  0.621802  1
  Dy  Dy4  1  0.912093  0.708751  0.121802  1
  Dy  Dy5  1  0.912093  0.291249  0.621802  1
  Dy  Dy6  1  0.087907  0.708751  0.621802  1
  Dy  Dy7  1  0.087907  0.291249  0.121802  1
  Y  Y8  1  0.290788  0.088048  0.377878  1
  Y  Y9  1  0.290788  0.911952  0.877878  1
  Y  Y10  1  0.709212  0.088048  0.877878  1
  Y  Y11  1  0.709212  0.911952  0.377878  1
  Y  Y12  1  0.588048  0.790788  0.877878  1
  Y  Y13  1  0.588048  0.209212  0.377878  1
  Y  Y14  1  0.411952  0.790788  0.377878  1
  Y  Y15  1  0.411952  0.209212  0.877878  1
  Ho  Ho16  1  0.000000  0.000000  0.499955  1
  Ho  Ho17  1  0.000000  0.000000  0.999955  1
  Ho  Ho18  1  0.500000  0.500000  0.999955  1
  Ho  Ho19  1  0.500000  0.500000  0.499955  1
  Ir  Ir20  1  0.847956  0.153369  0.250367  1
  Ir  Ir21  1  0.847956  0.846631  0.750367  1
  Ir  Ir22  1  0.152044  0.153369  0.750367  1
  Ir  Ir23  1  0.152044  0.846631  0.250367  1
  Ir  Ir24  1  0.653369  0.347956  0.750367  1
  Ir  Ir25  1  0.653369  0.652044  0.250367  1
  Ir  Ir26  1  0.346631  0.347956  0.250367  1
  Ir  Ir27  1  0.346631  0.652044  0.750367  1
  Ir  Ir28  1  0.500000  0.000000  0.122729  1
  Ir  Ir29  1  0.500000  0.000000  0.622729  1
  Ir  Ir30  1  0.000000  0.500000  0.877176  1
  Ir  Ir31  1  0.000000  0.500000  0.377176  1
