# generated using pymatgen
data_TbCe2Tm5(Hf3Si4)4
_symmetry_space_group_name_H-M   'P 1'
_cell_length_a   7.27151770
_cell_length_b   7.27337043
_cell_length_c   13.35679834
_cell_angle_alpha   89.98530612
_cell_angle_beta   89.95095352
_cell_angle_gamma   90.06581299
_symmetry_Int_Tables_number   1
_chemical_formula_structural   TbCe2Tm5(Hf3Si4)4
_chemical_formula_sum   'Tb1 Ce2 Tm5 Hf12 Si16'
_cell_volume   706.41950392
_cell_formula_units_Z   1
loop_
 _symmetry_equiv_pos_site_id
 _symmetry_equiv_pos_as_xyz
  1  'x, y, z'
loop_
 _atom_site_type_symbol
 _atom_site_label
 _atom_site_symmetry_multiplicity
 _atom_site_fract_x
 _atom_site_fract_y
 _atom_site_fract_z
 _atom_site_occupancy
  Tb  Tb0  1  0.655648  0.006214  0.285149  1
  Ce  Ce1  1  0.993681  0.344573  0.213486  1
  Ce  Ce2  1  0.006460  0.655374  0.713584  1
  Tm  Tm3  1  0.155590  0.496471  0.466150  1
  Tm  Tm4  1  0.502664  0.844764  0.034398  1
  Tm  Tm5  1  0.844625  0.503573  0.965970  1
  Tm  Tm6  1  0.497126  0.154982  0.534896  1
  Tm  Tm7  1  0.345428  0.995007  0.785537  1
  Hf  Hf8  1  0.174634  0.175023  0.000465  1
  Hf  Hf9  1  0.825332  0.825063  0.501163  1
  Hf  Hf10  1  0.323563  0.674854  0.250161  1
  Hf  Hf11  1  0.676226  0.324844  0.750195  1
  Hf  Hf12  1  0.150997  0.999486  0.374962  1
  Hf  Hf13  1  0.849782  0.000309  0.874798  1
  Hf  Hf14  1  0.503485  0.647545  0.624707  1
  Hf  Hf15  1  0.351314  0.496023  0.874785  1
  Hf  Hf16  1  0.495427  0.352284  0.123813  1
  Hf  Hf17  1  0.648762  0.504393  0.375307  1
  Hf  Hf18  1  0.996983  0.148745  0.625641  1
  Hf  Hf19  1  0.002838  0.850519  0.124713  1
  Si  Si20  1  0.361417  0.297594  0.318036  1
  Si  Si21  1  0.637773  0.703707  0.818364  1
  Si  Si22  1  0.206775  0.863031  0.565612  1
  Si  Si23  1  0.139392  0.795984  0.933080  1
  Si  Si24  1  0.793554  0.136902  0.065179  1
  Si  Si25  1  0.862136  0.205035  0.434174  1
  Si  Si26  1  0.297847  0.358241  0.682569  1
  Si  Si27  1  0.702524  0.640135  0.182096  1
  Si  Si28  1  0.296256  0.047829  0.185675  1
  Si  Si29  1  0.702046  0.952435  0.686149  1
  Si  Si30  1  0.451554  0.796542  0.435712  1
  Si  Si31  1  0.205108  0.550700  0.063107  1
  Si  Si32  1  0.547606  0.202702  0.935151  1
  Si  Si33  1  0.794788  0.449611  0.563264  1
  Si  Si34  1  0.048364  0.294208  0.815925  1
  Si  Si35  1  0.952295  0.705298  0.316026  1
