# generated using pymatgen
data_Ca4Sc4Tc(B8Ir)3
_symmetry_space_group_name_H-M   'P 1'
_cell_length_a   3.54615900
_cell_length_b   9.01583800
_cell_length_c   11.41799233
_cell_angle_alpha   90.05240433
_cell_angle_beta   90.00000000
_cell_angle_gamma   90.00000000
_symmetry_Int_Tables_number   1
_chemical_formula_structural   Ca4Sc4Tc(B8Ir)3
_chemical_formula_sum   'Ca4 Sc4 Tc1 B24 Ir3'
_cell_volume   365.05127441
_cell_formula_units_Z   1
loop_
 _symmetry_equiv_pos_site_id
 _symmetry_equiv_pos_as_xyz
  1  'x, y, z'
loop_
 _atom_site_type_symbol
 _atom_site_label
 _atom_site_symmetry_multiplicity
 _atom_site_fract_x
 _atom_site_fract_y
 _atom_site_fract_z
 _atom_site_occupancy
  Ca  Ca0  1  0.500000  0.318818  0.411692  1
  Ca  Ca1  1  0.500000  0.679457  0.583633  1
  Ca  Ca2  1  0.500000  0.178468  0.917524  1
  Ca  Ca3  1  0.500000  0.822779  0.086925  1
  Sc  Sc4  1  0.500000  0.440760  0.127249  1
  Sc  Sc5  1  0.500000  0.556348  0.873393  1
  Sc  Sc6  1  0.500000  0.055226  0.626658  1
  Sc  Sc7  1  0.500000  0.948124  0.370724  1
  Tc  Tc8  1  0.500000  0.139906  0.181658  1
  B  B9  1  0.000000  0.096852  0.474552  1
  B  B10  1  0.000000  0.902781  0.526401  1
  B  B11  1  0.000000  0.404319  0.973578  1
  B  B12  1  0.000000  0.597559  0.026194  1
  B  B13  1  0.000000  0.128976  0.316903  1
  B  B14  1  0.000000  0.870193  0.682005  1
  B  B15  1  0.000000  0.371121  0.817812  1
  B  B16  1  0.000000  0.629298  0.183263  1
  B  B17  1  0.000000  0.054159  0.067603  1
  B  B18  1  0.000000  0.945279  0.932966  1
  B  B19  1  0.000000  0.444509  0.567019  1
  B  B20  1  0.000000  0.554891  0.432568  1
  B  B21  1  0.000000  0.481832  0.286162  1
  B  B22  1  0.000000  0.517560  0.713770  1
  B  B23  1  0.000000  0.017282  0.785983  1
  B  B24  1  0.000000  0.981279  0.214558  1
  B  B25  1  0.000000  0.253716  0.082186  1
  B  B26  1  0.000000  0.748438  0.918328  1
  B  B27  1  0.000000  0.247109  0.581733  1
  B  B28  1  0.000000  0.752751  0.418285  1
  B  B29  1  0.000000  0.294660  0.235209  1
  B  B30  1  0.000000  0.706448  0.764105  1
  B  B31  1  0.000000  0.206776  0.735854  1
  B  B32  1  0.000000  0.793646  0.265489  1
  Ir  Ir33  1  0.500000  0.858816  0.816978  1
  Ir  Ir34  1  0.500000  0.359625  0.682241  1
  Ir  Ir35  1  0.500000  0.640242  0.318797  1
