# generated using pymatgen
data_LaBi7O16
_symmetry_space_group_name_H-M   'P 1'
_cell_length_a   5.69322970
_cell_length_b   7.98518764
_cell_length_c   8.01910400
_cell_angle_alpha   81.99317678
_cell_angle_beta   89.97161996
_cell_angle_gamma   89.93940543
_symmetry_Int_Tables_number   1
_chemical_formula_structural   LaBi7O16
_chemical_formula_sum   'La1 Bi7 O16'
_cell_volume   361.00640876
_cell_formula_units_Z   1
loop_
 _symmetry_equiv_pos_site_id
 _symmetry_equiv_pos_as_xyz
  1  'x, y, z'
loop_
 _atom_site_type_symbol
 _atom_site_label
 _atom_site_symmetry_multiplicity
 _atom_site_fract_x
 _atom_site_fract_y
 _atom_site_fract_z
 _atom_site_occupancy
  La  La0  1  0.735388  0.137506  0.112823  1
  Bi  Bi1  1  0.273959  0.851016  0.872311  1
  Bi  Bi2  1  0.225024  0.851080  0.372070  1
  Bi  Bi3  1  0.775813  0.153388  0.620232  1
  Bi  Bi4  1  0.768283  0.663299  0.688346  1
  Bi  Bi5  1  0.728899  0.658528  0.188718  1
  Bi  Bi6  1  0.271579  0.340509  0.811923  1
  Bi  Bi7  1  0.236053  0.335927  0.314206  1
  O  O8  1  0.097494  0.579608  0.814341  1
  O  O9  1  0.607668  0.667632  0.934353  1
  O  O10  1  0.400933  0.576108  0.313819  1
  O  O11  1  0.473432  0.818842  0.625853  1
  O  O12  1  0.884549  0.676430  0.433856  1
  O  O13  1  0.003246  0.834303  0.124334  1
  O  O14  1  0.967058  0.893343  0.682643  1
  O  O15  1  0.482248  0.108430  0.823474  1
  O  O16  1  0.514783  0.886171  0.175656  1
  O  O17  1  0.034267  0.107949  0.325853  1
  O  O18  1  0.985523  0.177962  0.872188  1
  O  O19  1  0.110302  0.335168  0.566495  1
  O  O20  1  0.523660  0.178629  0.381776  1
  O  O21  1  0.603976  0.420967  0.688490  1
  O  O22  1  0.388428  0.323937  0.066524  1
  O  O23  1  0.907434  0.423270  0.189715  1
