# generated using pymatgen
data_Sc10CuAg3
_symmetry_space_group_name_H-M   'P 1'
_cell_length_a   8.81831900
_cell_length_b   8.81831715
_cell_length_c   9.03168400
_cell_angle_alpha   90.00000000
_cell_angle_beta   90.00000000
_cell_angle_gamma   119.99999569
_symmetry_Int_Tables_number   1
_chemical_formula_structural   Sc10CuAg3
_chemical_formula_sum   'Sc20 Cu2 Ag6'
_cell_volume   608.23429492
_cell_formula_units_Z   2
loop_
 _symmetry_equiv_pos_site_id
 _symmetry_equiv_pos_as_xyz
  1  'x, y, z'
loop_
 _atom_site_type_symbol
 _atom_site_label
 _atom_site_symmetry_multiplicity
 _atom_site_fract_x
 _atom_site_fract_y
 _atom_site_fract_z
 _atom_site_occupancy
  Sc  Sc0  1  0.000000  0.000000  0.500000  1
  Sc  Sc1  1  0.000000  0.000000  0.000000  1
  Sc  Sc2  1  0.208623  0.791377  0.447030  1
  Sc  Sc3  1  0.208623  0.417246  0.447030  1
  Sc  Sc4  1  0.582754  0.791377  0.447030  1
  Sc  Sc5  1  0.791377  0.208623  0.552970  1
  Sc  Sc6  1  0.791377  0.582754  0.552970  1
  Sc  Sc7  1  0.417246  0.208623  0.552970  1
  Sc  Sc8  1  0.791377  0.208623  0.947030  1
  Sc  Sc9  1  0.791377  0.582754  0.947030  1
  Sc  Sc10  1  0.417246  0.208623  0.947030  1
  Sc  Sc11  1  0.208623  0.791377  0.052970  1
  Sc  Sc12  1  0.208623  0.417246  0.052970  1
  Sc  Sc13  1  0.582754  0.791377  0.052970  1
  Sc  Sc14  1  0.542436  0.457564  0.250000  1
  Sc  Sc15  1  0.542436  0.084871  0.250000  1
  Sc  Sc16  1  0.915129  0.457564  0.250000  1
  Sc  Sc17  1  0.457564  0.542436  0.750000  1
  Sc  Sc18  1  0.457564  0.915129  0.750000  1
  Sc  Sc19  1  0.084871  0.542436  0.750000  1
  Cu  Cu20  1  0.333333  0.666667  0.250000  1
  Cu  Cu21  1  0.666667  0.333333  0.750000  1
  Ag  Ag22  1  0.883918  0.116082  0.250000  1
  Ag  Ag23  1  0.883918  0.767838  0.250000  1
  Ag  Ag24  1  0.232162  0.116082  0.250000  1
  Ag  Ag25  1  0.116082  0.883918  0.750000  1
  Ag  Ag26  1  0.116082  0.232162  0.750000  1
  Ag  Ag27  1  0.767838  0.883918  0.750000  1
