# generated using pymatgen
data_NdBPtRh2Au
_symmetry_space_group_name_H-M   'P 1'
_cell_length_a   5.52112654
_cell_length_b   5.52112568
_cell_length_c   7.57642200
_cell_angle_alpha   90.00000000
_cell_angle_beta   90.00000000
_cell_angle_gamma   119.67993396
_symmetry_Int_Tables_number   1
_chemical_formula_structural   NdBPtRh2Au
_chemical_formula_sum   'Nd2 B2 Pt2 Rh4 Au2'
_cell_volume   200.65121418
_cell_formula_units_Z   2
loop_
 _symmetry_equiv_pos_site_id
 _symmetry_equiv_pos_as_xyz
  1  'x, y, z'
loop_
 _atom_site_type_symbol
 _atom_site_label
 _atom_site_symmetry_multiplicity
 _atom_site_fract_x
 _atom_site_fract_y
 _atom_site_fract_z
 _atom_site_occupancy
  Nd  Nd0  1  0.000000  0.000000  0.500000  1
  Nd  Nd1  1  0.000000  0.000000  0.000000  1
  B  B2  1  0.330023  0.669977  0.000000  1
  B  B3  1  0.669977  0.330023  0.000000  1
  Pt  Pt4  1  0.500000  0.500000  0.197397  1
  Pt  Pt5  1  0.500000  0.500000  0.802603  1
  Rh  Rh6  1  0.500000  0.000000  0.190420  1
  Rh  Rh7  1  0.500000  0.000000  0.809580  1
  Rh  Rh8  1  0.000000  0.500000  0.190420  1
  Rh  Rh9  1  0.000000  0.500000  0.809580  1
  Au  Au10  1  0.326486  0.673514  0.500000  1
  Au  Au11  1  0.673514  0.326486  0.500000  1
