# generated using pymatgen
data_Ca10RhAu
_symmetry_space_group_name_H-M   'P 1'
_cell_length_a   6.87407402
_cell_length_b   7.70281155
_cell_length_c   16.03069400
_cell_angle_alpha   90.00000000
_cell_angle_beta   90.00000000
_cell_angle_gamma   89.56382062
_symmetry_Int_Tables_number   1
_chemical_formula_structural   Ca10RhAu
_chemical_formula_sum   'Ca20 Rh2 Au2'
_cell_volume   848.79579015
_cell_formula_units_Z   2
loop_
 _symmetry_equiv_pos_site_id
 _symmetry_equiv_pos_as_xyz
  1  'x, y, z'
loop_
 _atom_site_type_symbol
 _atom_site_label
 _atom_site_symmetry_multiplicity
 _atom_site_fract_x
 _atom_site_fract_y
 _atom_site_fract_z
 _atom_site_occupancy
  Ca  Ca0  1  0.351382  0.313398  0.060839  1
  Ca  Ca1  1  0.648618  0.686602  0.939161  1
  Ca  Ca2  1  0.848637  0.187679  0.937663  1
  Ca  Ca3  1  0.648618  0.686602  0.560839  1
  Ca  Ca4  1  0.151363  0.812321  0.062337  1
  Ca  Ca5  1  0.351382  0.313398  0.439161  1
  Ca  Ca6  1  0.151363  0.812321  0.437663  1
  Ca  Ca7  1  0.848637  0.187679  0.562337  1
  Ca  Ca8  1  0.142251  0.088988  0.250000  1
  Ca  Ca9  1  0.857749  0.911012  0.750000  1
  Ca  Ca10  1  0.662365  0.394550  0.750000  1
  Ca  Ca11  1  0.337635  0.605450  0.250000  1
  Ca  Ca12  1  0.323004  0.047866  0.641033  1
  Ca  Ca13  1  0.676996  0.952134  0.358967  1
  Ca  Ca14  1  0.832695  0.471383  0.358585  1
  Ca  Ca15  1  0.676996  0.952134  0.141033  1
  Ca  Ca16  1  0.167305  0.528617  0.641415  1
  Ca  Ca17  1  0.323004  0.047866  0.858967  1
  Ca  Ca18  1  0.167305  0.528617  0.858585  1
  Ca  Ca19  1  0.832695  0.471383  0.141415  1
  Rh  Rh20  1  0.041805  0.237966  0.750000  1
  Rh  Rh21  1  0.958195  0.762034  0.250000  1
  Au  Au22  1  0.539936  0.259591  0.250000  1
  Au  Au23  1  0.460064  0.740409  0.750000  1
