# generated using pymatgen
data_ErTm9(SiBi)4
_symmetry_space_group_name_H-M   'P 1'
_cell_length_a   8.54269270
_cell_length_b   8.53818666
_cell_length_c   7.80895088
_cell_angle_alpha   90.03185817
_cell_angle_beta   90.01723421
_cell_angle_gamma   125.73159272
_symmetry_Int_Tables_number   1
_chemical_formula_structural   ErTm9(SiBi)4
_chemical_formula_sum   'Er1 Tm9 Si4 Bi4'
_cell_volume   462.36127146
_cell_formula_units_Z   1
loop_
 _symmetry_equiv_pos_site_id
 _symmetry_equiv_pos_as_xyz
  1  'x, y, z'
loop_
 _atom_site_type_symbol
 _atom_site_label
 _atom_site_symmetry_multiplicity
 _atom_site_fract_x
 _atom_site_fract_y
 _atom_site_fract_z
 _atom_site_occupancy
  Er  Er0  1  0.543188  0.786498  0.164777  1
  Tm  Tm1  1  0.285062  0.043226  0.335866  1
  Tm  Tm2  1  0.214804  0.456599  0.835743  1
  Tm  Tm3  1  0.956713  0.714809  0.664184  1
  Tm  Tm4  1  0.714955  0.956578  0.664162  1
  Tm  Tm5  1  0.456596  0.214660  0.835818  1
  Tm  Tm6  1  0.785175  0.543253  0.164071  1
  Tm  Tm7  1  0.043341  0.284988  0.335812  1
  Tm  Tm8  1  0.499979  0.499762  0.500242  1
  Tm  Tm9  1  0.000366  0.000161  0.999864  1
  Si  Si10  1  0.635150  0.634867  0.865919  1
  Si  Si11  1  0.134990  0.134981  0.633520  1
  Si  Si12  1  0.865578  0.864939  0.366737  1
  Si  Si13  1  0.364682  0.364346  0.133588  1
  Bi  Bi14  1  0.291553  0.707678  0.500619  1
  Bi  Bi15  1  0.207286  0.791989  0.999697  1
  Bi  Bi16  1  0.707874  0.291887  0.499881  1
  Bi  Bi17  1  0.792707  0.208778  0.999500  1
