# generated using pymatgen
data_La3Mg3Ag2Ir
_symmetry_space_group_name_H-M   'P 1'
_cell_length_a   8.01204900
_cell_length_b   8.01204878
_cell_length_c   4.12732600
_cell_angle_alpha   90.00000000
_cell_angle_beta   90.00000000
_cell_angle_gamma   119.99999680
_symmetry_Int_Tables_number   1
_chemical_formula_structural   La3Mg3Ag2Ir
_chemical_formula_sum   'La3 Mg3 Ag2 Ir1'
_cell_volume   229.44922769
_cell_formula_units_Z   1
loop_
 _symmetry_equiv_pos_site_id
 _symmetry_equiv_pos_as_xyz
  1  'x, y, z'
loop_
 _atom_site_type_symbol
 _atom_site_label
 _atom_site_symmetry_multiplicity
 _atom_site_fract_x
 _atom_site_fract_y
 _atom_site_fract_z
 _atom_site_occupancy
  La  La0  1  0.436130  0.407777  0.500000  1
  La  La1  1  0.592223  0.028353  0.500000  1
  La  La2  1  0.971647  0.563870  0.500000  1
  Mg  Mg3  1  0.757994  0.754951  0.000000  1
  Mg  Mg4  1  0.245049  0.003043  0.000000  1
  Mg  Mg5  1  0.996957  0.242006  0.000000  1
  Ag  Ag6  1  0.333333  0.666667  0.000000  1
  Ag  Ag7  1  0.000000  0.000000  0.500000  1
  Ir  Ir8  1  0.666667  0.333333  0.000000  1
