# generated using pymatgen
data_Ca2LaZn5(Cu2Ni3)2
_symmetry_space_group_name_H-M   'P 1'
_cell_length_a   8.91673600
_cell_length_b   8.91010526
_cell_length_c   4.02868300
_cell_angle_alpha   90.00000000
_cell_angle_beta   90.00000000
_cell_angle_gamma   120.02461298
_symmetry_Int_Tables_number   1
_chemical_formula_structural   Ca2LaZn5(Cu2Ni3)2
_chemical_formula_sum   'Ca2 La1 Zn5 Cu4 Ni6'
_cell_volume   277.12436114
_cell_formula_units_Z   1
loop_
 _symmetry_equiv_pos_site_id
 _symmetry_equiv_pos_as_xyz
  1  'x, y, z'
loop_
 _atom_site_type_symbol
 _atom_site_label
 _atom_site_symmetry_multiplicity
 _atom_site_fract_x
 _atom_site_fract_y
 _atom_site_fract_z
 _atom_site_occupancy
  Ca  Ca0  1  0.333494  0.671287  0.000000  1
  Ca  Ca1  1  0.662208  0.328713  0.000000  1
  La  La2  1  0.004296  0.000000  0.500000  1
  Zn  Zn3  1  0.306271  0.304215  0.000000  1
  Zn  Zn4  1  0.002056  0.695785  0.000000  1
  Zn  Zn5  1  0.000620  0.306621  0.000000  1
  Zn  Zn6  1  0.693998  0.693379  0.000000  1
  Zn  Zn7  1  0.693676  0.000000  0.000000  1
  Cu  Cu8  1  0.498084  0.000000  0.500000  1
  Cu  Cu9  1  0.499451  0.499989  0.500000  1
  Cu  Cu10  1  0.999462  0.500011  0.500000  1
  Cu  Cu11  1  0.306277  0.000000  0.000000  1
  Ni  Ni12  1  0.181583  0.363223  0.500000  1
  Ni  Ni13  1  0.819165  0.180437  0.500000  1
  Ni  Ni14  1  0.361194  0.180117  0.500000  1
  Ni  Ni15  1  0.638730  0.819563  0.500000  1
  Ni  Ni16  1  0.181077  0.819883  0.500000  1
  Ni  Ni17  1  0.818359  0.636777  0.500000  1
