# generated using pymatgen
data_Ta12Al8GaRe2RhC4
_symmetry_space_group_name_H-M   'P 1'
_cell_length_a   8.32176485
_cell_length_b   8.32176541
_cell_length_c   8.27839200
_cell_angle_alpha   60.17226380
_cell_angle_beta   60.17226158
_cell_angle_gamma   60.37813933
_symmetry_Int_Tables_number   1
_chemical_formula_structural   Ta12Al8GaRe2RhC4
_chemical_formula_sum   'Ta12 Al8 Ga1 Re2 Rh1 C4'
_cell_volume   407.58672962
_cell_formula_units_Z   1
loop_
 _symmetry_equiv_pos_site_id
 _symmetry_equiv_pos_as_xyz
  1  'x, y, z'
loop_
 _atom_site_type_symbol
 _atom_site_label
 _atom_site_symmetry_multiplicity
 _atom_site_fract_x
 _atom_site_fract_y
 _atom_site_fract_z
 _atom_site_occupancy
  Ta  Ta0  1  0.569782  0.937431  0.555649  1
  Ta  Ta1  1  0.312569  0.680218  0.694351  1
  Ta  Ta2  1  0.681847  0.312832  0.311326  1
  Ta  Ta3  1  0.312832  0.681847  0.311326  1
  Ta  Ta4  1  0.691706  0.691706  0.307700  1
  Ta  Ta5  1  0.314901  0.314901  0.685683  1
  Ta  Ta6  1  0.558294  0.558294  0.942300  1
  Ta  Ta7  1  0.937431  0.569782  0.555649  1
  Ta  Ta8  1  0.568153  0.937168  0.938674  1
  Ta  Ta9  1  0.935099  0.935099  0.564317  1
  Ta  Ta10  1  0.680218  0.312569  0.694351  1
  Ta  Ta11  1  0.937168  0.568153  0.938674  1
  Al  Al12  1  0.919660  0.919660  0.911419  1
  Al  Al13  1  0.992895  0.334622  0.342821  1
  Al  Al14  1  0.334622  0.992895  0.342821  1
  Al  Al15  1  0.333614  0.333614  0.001780  1
  Al  Al16  1  0.915378  0.257105  0.907179  1
  Al  Al17  1  0.916386  0.916386  0.248220  1
  Al  Al18  1  0.257105  0.915378  0.907179  1
  Al  Al19  1  0.330340  0.330340  0.338581  1
  Ga  Ga20  1  0.125000  0.125000  0.125000  1
  Re  Re21  1  0.625000  0.125000  0.125000  1
  Re  Re22  1  0.125000  0.625000  0.125000  1
  Rh  Rh23  1  0.125000  0.125000  0.625000  1
  C  C24  1  0.625000  0.625000  0.625000  1
  C  C25  1  0.125000  0.625000  0.625000  1
  C  C26  1  0.625000  0.125000  0.625000  1
  C  C27  1  0.625000  0.625000  0.125000  1
