# generated using pymatgen
data_Y3Ho3Tm2(OsC2)4
_symmetry_space_group_name_H-M   'P 1'
_cell_length_a   5.11559600
_cell_length_b   6.44224312
_cell_length_c   9.73627439
_cell_angle_alpha   90.17604266
_cell_angle_beta   90.00000000
_cell_angle_gamma   90.00000000
_symmetry_Int_Tables_number   1
_chemical_formula_structural   Y3Ho3Tm2(OsC2)4
_chemical_formula_sum   'Y3 Ho3 Tm2 Os4 C8'
_cell_volume   320.86629868
_cell_formula_units_Z   1
loop_
 _symmetry_equiv_pos_site_id
 _symmetry_equiv_pos_as_xyz
  1  'x, y, z'
loop_
 _atom_site_type_symbol
 _atom_site_label
 _atom_site_symmetry_multiplicity
 _atom_site_fract_x
 _atom_site_fract_y
 _atom_site_fract_z
 _atom_site_occupancy
  Y  Y0  1  0.750000  0.472349  0.780679  1
  Y  Y1  1  0.750000  0.972328  0.716112  1
  Y  Y2  1  0.250000  0.027751  0.283852  1
  Ho  Ho3  1  0.750000  0.817692  0.053851  1
  Ho  Ho4  1  0.250000  0.182541  0.946588  1
  Ho  Ho5  1  0.250000  0.527143  0.219787  1
  Tm  Tm6  1  0.250000  0.678794  0.553041  1
  Tm  Tm7  1  0.750000  0.321092  0.446498  1
  Os  Os8  1  0.250000  0.725024  0.864498  1
  Os  Os9  1  0.750000  0.275367  0.135739  1
  Os  Os10  1  0.750000  0.775417  0.367303  1
  Os  Os11  1  0.250000  0.224623  0.632399  1
  C  C12  1  0.250000  0.460350  0.756809  1
  C  C13  1  0.750000  0.539924  0.242945  1
  C  C14  1  0.750000  0.040040  0.259825  1
  C  C15  1  0.250000  0.960020  0.740149  1
  C  C16  1  0.250000  0.825097  0.052920  1
  C  C17  1  0.750000  0.173694  0.947637  1
  C  C18  1  0.750000  0.669434  0.554199  1
  C  C19  1  0.250000  0.331319  0.445168  1
