# generated using pymatgen
data_Nd3CBr5
_symmetry_space_group_name_H-M   'P 1'
_cell_length_a   7.65558716
_cell_length_b   9.21810462
_cell_length_c   9.33214822
_cell_angle_alpha   107.99209403
_cell_angle_beta   97.37922003
_cell_angle_gamma   105.45660164
_symmetry_Int_Tables_number   1
_chemical_formula_structural   Nd3CBr5
_chemical_formula_sum   'Nd6 C2 Br10'
_cell_volume   587.53914338
_cell_formula_units_Z   2
loop_
 _symmetry_equiv_pos_site_id
 _symmetry_equiv_pos_as_xyz
  1  'x, y, z'
loop_
 _atom_site_type_symbol
 _atom_site_label
 _atom_site_symmetry_multiplicity
 _atom_site_fract_x
 _atom_site_fract_y
 _atom_site_fract_z
 _atom_site_occupancy
  Nd  Nd0  1  0.887940  0.957010  0.229888  1
  Nd  Nd1  1  0.112060  0.042990  0.770112  1
  Nd  Nd2  1  0.027623  0.721744  0.917128  1
  Nd  Nd3  1  0.972377  0.278256  0.082872  1
  Nd  Nd4  1  0.611113  0.850061  0.801546  1
  Nd  Nd5  1  0.388887  0.149939  0.198454  1
  C  C6  1  0.908091  0.966979  0.954980  1
  C  C7  1  0.091909  0.033021  0.045020  1
  Br  Br8  1  0.749661  0.915108  0.538551  1
  Br  Br9  1  0.250339  0.084892  0.461449  1
  Br  Br10  1  0.457703  0.820696  0.084252  1
  Br  Br11  1  0.542297  0.179304  0.915748  1
  Br  Br12  1  0.821240  0.267514  0.355605  1
  Br  Br13  1  0.178760  0.732486  0.644395  1
  Br  Br14  1  0.909824  0.630110  0.172770  1
  Br  Br15  1  0.090176  0.369890  0.827230  1
  Br  Br16  1  0.652576  0.535685  0.721997  1
  Br  Br17  1  0.347424  0.464315  0.278003  1
