# generated using pymatgen
data_YbHoOsC2
_symmetry_space_group_name_H-M   'P 1'
_cell_length_a   5.10895400
_cell_length_b   6.42347000
_cell_length_c   10.00953300
_cell_angle_alpha   90.00000000
_cell_angle_beta   90.00000000
_cell_angle_gamma   90.00000000
_symmetry_Int_Tables_number   1
_chemical_formula_structural   YbHoOsC2
_chemical_formula_sum   'Yb4 Ho4 Os4 C8'
_cell_volume   328.48497399
_cell_formula_units_Z   4
loop_
 _symmetry_equiv_pos_site_id
 _symmetry_equiv_pos_as_xyz
  1  'x, y, z'
loop_
 _atom_site_type_symbol
 _atom_site_label
 _atom_site_symmetry_multiplicity
 _atom_site_fract_x
 _atom_site_fract_y
 _atom_site_fract_z
 _atom_site_occupancy
  Yb  Yb0  1  0.250000  0.529881  0.219361  1
  Yb  Yb1  1  0.750000  0.470119  0.780639  1
  Yb  Yb2  1  0.750000  0.970119  0.719361  1
  Yb  Yb3  1  0.250000  0.029881  0.280639  1
  Ho  Ho4  1  0.250000  0.683618  0.558599  1
  Ho  Ho5  1  0.750000  0.316382  0.441401  1
  Ho  Ho6  1  0.750000  0.816382  0.058599  1
  Ho  Ho7  1  0.250000  0.183618  0.941401  1
  Os  Os8  1  0.250000  0.723256  0.861512  1
  Os  Os9  1  0.750000  0.276744  0.138488  1
  Os  Os10  1  0.750000  0.776744  0.361512  1
  Os  Os11  1  0.250000  0.223256  0.638488  1
  C  C12  1  0.250000  0.459907  0.758179  1
  C  C13  1  0.750000  0.540093  0.241821  1
  C  C14  1  0.750000  0.040093  0.258179  1
  C  C15  1  0.250000  0.959907  0.741821  1
  C  C16  1  0.250000  0.818834  0.040475  1
  C  C17  1  0.750000  0.181166  0.959525  1
  C  C18  1  0.750000  0.681166  0.540475  1
  C  C19  1  0.250000  0.318834  0.459525  1
