# generated using pymatgen
data_Lu5B4P8Ir19
_symmetry_space_group_name_H-M   'P 1'
_cell_length_a   12.38849811
_cell_length_b   12.36034097
_cell_length_c   3.93773000
_cell_angle_alpha   90.00000000
_cell_angle_beta   90.00000000
_cell_angle_gamma   119.69017613
_symmetry_Int_Tables_number   1
_chemical_formula_structural   Lu5B4P8Ir19
_chemical_formula_sum   'Lu5 B4 P8 Ir19'
_cell_volume   523.80916288
_cell_formula_units_Z   1
loop_
 _symmetry_equiv_pos_site_id
 _symmetry_equiv_pos_as_xyz
  1  'x, y, z'
loop_
 _atom_site_type_symbol
 _atom_site_label
 _atom_site_symmetry_multiplicity
 _atom_site_fract_x
 _atom_site_fract_y
 _atom_site_fract_z
 _atom_site_occupancy
  Lu  Lu0  1  0.332775  0.666564  0.500000  1
  Lu  Lu1  1  0.675605  0.331206  0.500000  1
  Lu  Lu2  1  0.181485  0.187201  0.000000  1
  Lu  Lu3  1  0.815322  0.002672  0.000000  1
  Lu  Lu4  1  0.002356  0.816836  0.000000  1
  B  B5  1  0.305612  0.815522  0.000000  1
  B  B6  1  0.178445  0.487749  0.000000  1
  B  B7  1  0.509808  0.692012  0.000000  1
  B  B8  1  0.823766  0.303942  0.000000  1
  P  P9  1  0.487186  0.173749  0.000000  1
  P  P10  1  0.692160  0.513295  0.000000  1
  P  P11  1  0.357949  0.363523  0.500000  1
  P  P12  1  0.640659  0.000878  0.500000  1
  P  P13  1  0.005912  0.640324  0.500000  1
  P  P14  1  0.817088  0.820782  0.500000  1
  P  P15  1  0.179555  0.998101  0.500000  1
  P  P16  1  0.002262  0.185437  0.500000  1
  Ir  Ir17  1  0.198869  0.817726  0.500000  1
  Ir  Ir18  1  0.181976  0.381774  0.500000  1
  Ir  Ir19  1  0.619764  0.804310  0.500000  1
  Ir  Ir20  1  0.821685  0.200221  0.500000  1
  Ir  Ir21  1  0.374703  0.181209  0.500000  1
  Ir  Ir22  1  0.807995  0.624659  0.500000  1
  Ir  Ir23  1  0.136116  0.637585  0.000000  1
  Ir  Ir24  1  0.359683  0.501459  0.000000  1
  Ir  Ir25  1  0.496505  0.858264  0.000000  1
  Ir  Ir26  1  0.643380  0.131029  0.000000  1
  Ir  Ir27  1  0.491279  0.363100  0.000000  1
  Ir  Ir28  1  0.868278  0.497010  0.000000  1
  Ir  Ir29  1  0.539387  0.548728  0.500000  1
  Ir  Ir30  1  0.454124  0.995095  0.500000  1
  Ir  Ir31  1  0.003130  0.455856  0.500000  1
  Ir  Ir32  1  0.701660  0.707344  0.000000  1
  Ir  Ir33  1  0.292254  0.994085  0.000000  1
  Ir  Ir34  1  0.002043  0.299829  0.000000  1
  Ir  Ir35  1  0.999224  0.000926  0.500000  1
