# generated using pymatgen
data_Yb2NbN3
_symmetry_space_group_name_H-M   'P 1'
_cell_length_a   5.67803161
_cell_length_b   5.67802991
_cell_length_c   5.84450951
_cell_angle_alpha   99.43905259
_cell_angle_beta   99.43904393
_cell_angle_gamma   119.93900186
_symmetry_Int_Tables_number   1
_chemical_formula_structural   Yb2NbN3
_chemical_formula_sum   'Yb4 Nb2 N6'
_cell_volume   154.26706161
_cell_formula_units_Z   2
loop_
 _symmetry_equiv_pos_site_id
 _symmetry_equiv_pos_as_xyz
  1  'x, y, z'
loop_
 _atom_site_type_symbol
 _atom_site_label
 _atom_site_symmetry_multiplicity
 _atom_site_fract_x
 _atom_site_fract_y
 _atom_site_fract_z
 _atom_site_occupancy
  Yb  Yb0  1  0.836124  0.163876  0.500000  1
  Yb  Yb1  1  0.163876  0.836124  0.500000  1
  Yb  Yb2  1  0.500000  0.500000  0.500000  1
  Yb  Yb3  1  0.000000  0.000000  0.000000  1
  Nb  Nb4  1  0.332336  0.667664  0.000000  1
  Nb  Nb5  1  0.667664  0.332336  0.000000  1
  N  N6  1  0.434652  0.072032  0.217737  1
  N  N7  1  0.927968  0.565348  0.782263  1
  N  N8  1  0.565348  0.927968  0.782263  1
  N  N9  1  0.072032  0.434652  0.217737  1
  N  N10  1  0.710721  0.710721  0.218121  1
  N  N11  1  0.289279  0.289279  0.781879  1
