# generated using pymatgen
data_Er8Tm8Cd4NiRu3
_symmetry_space_group_name_H-M   'P 1'
_cell_length_a   9.44861752
_cell_length_b   9.51845120
_cell_length_c   9.53926200
_cell_angle_alpha   59.92764925
_cell_angle_beta   59.68214182
_cell_angle_gamma   59.62207274
_symmetry_Int_Tables_number   1
_chemical_formula_structural   Er8Tm8Cd4NiRu3
_chemical_formula_sum   'Er8 Tm8 Cd4 Ni1 Ru3'
_cell_volume   603.10756307
_cell_formula_units_Z   1
loop_
 _symmetry_equiv_pos_site_id
 _symmetry_equiv_pos_as_xyz
  1  'x, y, z'
loop_
 _atom_site_type_symbol
 _atom_site_label
 _atom_site_symmetry_multiplicity
 _atom_site_fract_x
 _atom_site_fract_y
 _atom_site_fract_z
 _atom_site_occupancy
  Er  Er0  1  0.186428  0.189422  0.812076  1
  Er  Er1  1  0.810643  0.811252  0.189053  1
  Er  Er2  1  0.938276  0.561253  0.560759  1
  Er  Er3  1  0.558394  0.937404  0.937374  1
  Er  Er4  1  0.558394  0.937404  0.566828  1
  Er  Er5  1  0.938276  0.561253  0.939713  1
  Er  Er6  1  0.557846  0.566860  0.937647  1
  Er  Er7  1  0.938455  0.939606  0.560969  1
  Tm  Tm8  1  0.351420  0.345740  0.344826  1
  Tm  Tm9  1  0.351420  0.345740  0.958014  1
  Tm  Tm10  1  0.351528  0.958255  0.345108  1
  Tm  Tm11  1  0.961905  0.345850  0.346123  1
  Tm  Tm12  1  0.810480  0.188744  0.188892  1
  Tm  Tm13  1  0.185844  0.811573  0.812314  1
  Tm  Tm14  1  0.185844  0.811573  0.190270  1
  Tm  Tm15  1  0.810480  0.188744  0.811884  1
  Cd  Cd16  1  0.578977  0.580816  0.581041  1
  Cd  Cd17  1  0.578977  0.580816  0.259166  1
  Cd  Cd18  1  0.579237  0.259029  0.580866  1
  Cd  Cd19  1  0.255433  0.581618  0.581474  1
  Ni  Ni20  1  0.577317  0.141097  0.140793  1
  Ru  Ru21  1  0.144625  0.139353  0.138688  1
  Ru  Ru22  1  0.144625  0.139353  0.577336  1
  Ru  Ru23  1  0.145175  0.577247  0.138789  1
