# generated using pymatgen
data_Tb4Lu3ScPt4
_symmetry_space_group_name_H-M   'P 1'
_cell_length_a   4.72745500
_cell_length_b   7.06245640
_cell_length_c   8.59671103
_cell_angle_alpha   89.96406262
_cell_angle_beta   90.00000000
_cell_angle_gamma   90.00000000
_symmetry_Int_Tables_number   1
_chemical_formula_structural   Tb4Lu3ScPt4
_chemical_formula_sum   'Tb4 Lu3 Sc1 Pt4'
_cell_volume   287.02215846
_cell_formula_units_Z   1
loop_
 _symmetry_equiv_pos_site_id
 _symmetry_equiv_pos_as_xyz
  1  'x, y, z'
loop_
 _atom_site_type_symbol
 _atom_site_label
 _atom_site_symmetry_multiplicity
 _atom_site_fract_x
 _atom_site_fract_y
 _atom_site_fract_z
 _atom_site_occupancy
  Tb  Tb0  1  0.250000  0.984373  0.328522  1
  Tb  Tb1  1  0.750000  0.010202  0.677413  1
  Tb  Tb2  1  0.250000  0.490872  0.166464  1
  Tb  Tb3  1  0.750000  0.519778  0.827415  1
  Lu  Lu4  1  0.750000  0.641833  0.421760  1
  Lu  Lu5  1  0.250000  0.355354  0.575942  1
  Lu  Lu6  1  0.750000  0.143375  0.075830  1
  Sc  Sc7  1  0.250000  0.860485  0.925180  1
  Pt  Pt8  1  0.250000  0.249157  0.902756  1
  Pt  Pt9  1  0.750000  0.750042  0.091797  1
  Pt  Pt10  1  0.250000  0.752760  0.601108  1
  Pt  Pt11  1  0.750000  0.241769  0.405813  1
