# generated using pymatgen
data_Be2FeSi2Ni3
_symmetry_space_group_name_H-M   'P 1'
_cell_length_a   3.82580801
_cell_length_b   5.43193557
_cell_length_c   11.50430249
_cell_angle_alpha   89.88840042
_cell_angle_beta   89.99251238
_cell_angle_gamma   90.00341852
_symmetry_Int_Tables_number   1
_chemical_formula_structural   Be2FeSi2Ni3
_chemical_formula_sum   'Be6 Fe3 Si6 Ni9'
_cell_volume   239.07669661
_cell_formula_units_Z   3
loop_
 _symmetry_equiv_pos_site_id
 _symmetry_equiv_pos_as_xyz
  1  'x, y, z'
loop_
 _atom_site_type_symbol
 _atom_site_label
 _atom_site_symmetry_multiplicity
 _atom_site_fract_x
 _atom_site_fract_y
 _atom_site_fract_z
 _atom_site_occupancy
  Be  Be0  1  0.000075  0.999732  0.994877  1
  Be  Be1  1  0.499765  0.499243  0.170325  1
  Be  Be2  1  0.999678  0.998726  0.330778  1
  Be  Be3  1  0.500156  0.503033  0.500853  1
  Be  Be4  1  0.000164  0.993420  0.672351  1
  Be  Be5  1  0.500264  0.505485  0.831521  1
  Fe  Fe6  1  0.500156  0.749920  0.663261  1
  Fe  Fe7  1  0.000195  0.249403  0.833597  1
  Fe  Fe8  1  0.000222  0.752282  0.835620  1
  Si  Si9  1  0.000064  0.499254  0.993750  1
  Si  Si10  1  0.499767  0.999654  0.169950  1
  Si  Si11  1  0.999712  0.500044  0.331043  1
  Si  Si12  1  0.500092  0.997338  0.501775  1
  Si  Si13  1  0.000133  0.509177  0.673409  1
  Si  Si14  1  0.500229  0.995083  0.830169  1
  Ni  Ni15  1  0.500044  0.247758  0.999120  1
  Ni  Ni16  1  0.500074  0.750953  0.000917  1
  Ni  Ni17  1  0.999761  0.250291  0.160147  1
  Ni  Ni18  1  0.999757  0.747942  0.159802  1
  Ni  Ni19  1  0.499683  0.249180  0.337897  1
  Ni  Ni20  1  0.499693  0.750151  0.336915  1
  Ni  Ni21  1  0.000103  0.251768  0.503820  1
  Ni  Ni22  1  0.000082  0.748525  0.502126  1
  Ni  Ni23  1  0.500126  0.251644  0.665974  1
