# generated using pymatgen
data_TlAgSnF6
_symmetry_space_group_name_H-M   'P 1'
_cell_length_a   6.15601500
_cell_length_b   8.53485500
_cell_length_c   12.47814500
_cell_angle_alpha   90.00000000
_cell_angle_beta   90.00000000
_cell_angle_gamma   90.00000000
_symmetry_Int_Tables_number   1
_chemical_formula_structural   TlAgSnF6
_chemical_formula_sum   'Tl4 Ag4 Sn4 F24'
_cell_volume   655.61041564
_cell_formula_units_Z   4
loop_
 _symmetry_equiv_pos_site_id
 _symmetry_equiv_pos_as_xyz
  1  'x, y, z'
loop_
 _atom_site_type_symbol
 _atom_site_label
 _atom_site_symmetry_multiplicity
 _atom_site_fract_x
 _atom_site_fract_y
 _atom_site_fract_z
 _atom_site_occupancy
  Tl  Tl0  1  0.037230  0.757274  0.456616  1
  Tl  Tl1  1  0.537230  0.257274  0.043384  1
  Tl  Tl2  1  0.462770  0.757274  0.956616  1
  Tl  Tl3  1  0.962770  0.257274  0.543384  1
  Ag  Ag4  1  0.441782  0.498772  0.651205  1
  Ag  Ag5  1  0.558218  0.998772  0.348795  1
  Ag  Ag6  1  0.941782  0.998772  0.848795  1
  Ag  Ag7  1  0.058218  0.498772  0.151205  1
  Sn  Sn8  1  0.449693  0.999500  0.635612  1
  Sn  Sn9  1  0.050307  0.999500  0.135612  1
  Sn  Sn10  1  0.550307  0.499500  0.364388  1
  Sn  Sn11  1  0.949693  0.499500  0.864388  1
  F  F12  1  0.653964  0.277374  0.375065  1
  F  F13  1  0.174437  0.071839  0.705289  1
  F  F14  1  0.780226  0.953417  0.050839  1
  F  F15  1  0.442512  0.722172  0.359346  1
  F  F16  1  0.346036  0.777374  0.624935  1
  F  F17  1  0.557488  0.222172  0.640654  1
  F  F18  1  0.082833  0.451767  0.721747  1
  F  F19  1  0.280226  0.453417  0.449161  1
  F  F20  1  0.707245  0.537984  0.505297  1
  F  F21  1  0.674437  0.571839  0.794711  1
  F  F22  1  0.417167  0.451767  0.221747  1
  F  F23  1  0.917167  0.951767  0.278253  1
  F  F24  1  0.219774  0.453417  0.949161  1
  F  F25  1  0.719774  0.953417  0.550839  1
  F  F26  1  0.207245  0.037984  0.994703  1
  F  F27  1  0.942512  0.222172  0.140654  1
  F  F28  1  0.792755  0.537984  0.005297  1
  F  F29  1  0.825563  0.571839  0.294711  1
  F  F30  1  0.057488  0.722172  0.859346  1
  F  F31  1  0.325563  0.071839  0.205289  1
  F  F32  1  0.292755  0.037984  0.494703  1
  F  F33  1  0.846036  0.277374  0.875065  1
  F  F34  1  0.582833  0.951767  0.778253  1
  F  F35  1  0.153964  0.777374  0.124935  1
