# generated using pymatgen
data_Tb4Ga18CoNiIr4
_symmetry_space_group_name_H-M   'P 1'
_cell_length_a   7.55288729
_cell_length_b   7.55288685
_cell_length_c   9.45926060
_cell_angle_alpha   89.96663822
_cell_angle_beta   89.96663980
_cell_angle_gamma   120.17068438
_symmetry_Int_Tables_number   1
_chemical_formula_structural   Tb4Ga18CoNiIr4
_chemical_formula_sum   'Tb4 Ga18 Co1 Ni1 Ir4'
_cell_volume   466.51324722
_cell_formula_units_Z   1
loop_
 _symmetry_equiv_pos_site_id
 _symmetry_equiv_pos_as_xyz
  1  'x, y, z'
loop_
 _atom_site_type_symbol
 _atom_site_label
 _atom_site_symmetry_multiplicity
 _atom_site_fract_x
 _atom_site_fract_y
 _atom_site_fract_z
 _atom_site_occupancy
  Tb  Tb0  1  0.996088  0.659962  0.249400  1
  Tb  Tb1  1  0.003912  0.340038  0.750600  1
  Tb  Tb2  1  0.659962  0.996088  0.249400  1
  Tb  Tb3  1  0.340038  0.003912  0.750600  1
  Ga  Ga4  1  0.110050  0.110050  0.248005  1
  Ga  Ga5  1  0.889950  0.889950  0.751995  1
  Ga  Ga6  1  0.999319  0.324483  0.077098  1
  Ga  Ga7  1  0.000681  0.675517  0.922902  1
  Ga  Ga8  1  0.000625  0.672949  0.578845  1
  Ga  Ga9  1  0.327051  0.999375  0.421155  1
  Ga  Ga10  1  0.999375  0.327051  0.421155  1
  Ga  Ga11  1  0.672949  0.000625  0.578845  1
  Ga  Ga12  1  0.675517  0.000681  0.922902  1
  Ga  Ga13  1  0.324483  0.999319  0.077098  1
  Ga  Ga14  1  0.328078  0.328078  0.564166  1
  Ga  Ga15  1  0.671922  0.671922  0.435834  1
  Ga  Ga16  1  0.675689  0.675689  0.062338  1
  Ga  Ga17  1  0.324311  0.324311  0.937662  1
  Ga  Ga18  1  0.338036  0.540655  0.249520  1
  Ga  Ga19  1  0.661964  0.459345  0.750480  1
  Ga  Ga20  1  0.540655  0.338036  0.249520  1
  Ga  Ga21  1  0.459345  0.661964  0.750480  1
  Co  Co22  1  0.000000  0.000000  0.000000  1
  Ni  Ni23  1  0.000000  0.000000  0.500000  1
  Ir  Ir24  1  0.671775  0.328225  0.000000  1
  Ir  Ir25  1  0.328225  0.671775  0.000000  1
  Ir  Ir26  1  0.328367  0.671633  0.500000  1
  Ir  Ir27  1  0.671633  0.328367  0.500000  1
