# generated using pymatgen
data_Er4B16Ir3Rh
_symmetry_space_group_name_H-M   'P 1'
_cell_length_a   3.55881700
_cell_length_b   5.95073119
_cell_length_c   11.53970138
_cell_angle_alpha   89.97080571
_cell_angle_beta   90.00000000
_cell_angle_gamma   90.00000000
_symmetry_Int_Tables_number   1
_chemical_formula_structural   Er4B16Ir3Rh
_chemical_formula_sum   'Er4 B16 Ir3 Rh1'
_cell_volume   244.38272497
_cell_formula_units_Z   1
loop_
 _symmetry_equiv_pos_site_id
 _symmetry_equiv_pos_as_xyz
  1  'x, y, z'
loop_
 _atom_site_type_symbol
 _atom_site_label
 _atom_site_symmetry_multiplicity
 _atom_site_fract_x
 _atom_site_fract_y
 _atom_site_fract_z
 _atom_site_occupancy
  Er  Er0  1  0.000000  0.131898  0.648844  1
  Er  Er1  1  0.000000  0.868056  0.350617  1
  Er  Er2  1  0.000000  0.631461  0.852192  1
  Er  Er3  1  0.000000  0.368408  0.148064  1
  B  B4  1  0.500000  0.792580  0.688005  1
  B  B5  1  0.500000  0.207563  0.311900  1
  B  B6  1  0.500000  0.291572  0.812214  1
  B  B7  1  0.500000  0.708639  0.187735  1
  B  B8  1  0.500000  0.864301  0.529780  1
  B  B9  1  0.500000  0.135769  0.469951  1
  B  B10  1  0.500000  0.364356  0.970043  1
  B  B11  1  0.500000  0.635977  0.029923  1
  B  B12  1  0.500000  0.022504  0.193058  1
  B  B13  1  0.500000  0.977658  0.806778  1
  B  B14  1  0.500000  0.524274  0.306825  1
  B  B15  1  0.500000  0.476213  0.692889  1
  B  B16  1  0.500000  0.112675  0.046621  1
  B  B17  1  0.500000  0.887392  0.952820  1
  B  B18  1  0.500000  0.612598  0.452964  1
  B  B19  1  0.500000  0.387407  0.546908  1
  Ir  Ir20  1  0.000000  0.644921  0.597026  1
  Ir  Ir21  1  0.000000  0.355654  0.403713  1
  Ir  Ir22  1  0.000000  0.141807  0.904272  1
  Rh  Rh23  1  0.000000  0.856318  0.096857  1
