# generated using pymatgen
data_Sr5HfReN7
_symmetry_space_group_name_H-M   'P 1'
_cell_length_a   6.51801319
_cell_length_b   9.45863336
_cell_length_c   9.55993737
_cell_angle_alpha   114.27237606
_cell_angle_beta   98.37674316
_cell_angle_gamma   88.83448808
_symmetry_Int_Tables_number   1
_chemical_formula_structural   Sr5HfReN7
_chemical_formula_sum   'Sr10 Hf2 Re2 N14'
_cell_volume   531.04056880
_cell_formula_units_Z   2
loop_
 _symmetry_equiv_pos_site_id
 _symmetry_equiv_pos_as_xyz
  1  'x, y, z'
loop_
 _atom_site_type_symbol
 _atom_site_label
 _atom_site_symmetry_multiplicity
 _atom_site_fract_x
 _atom_site_fract_y
 _atom_site_fract_z
 _atom_site_occupancy
  Sr  Sr0  1  0.848202  0.600717  0.344012  1
  Sr  Sr1  1  0.262226  0.985668  0.555527  1
  Sr  Sr2  1  0.701588  0.416416  0.856764  1
  Sr  Sr3  1  0.298412  0.583584  0.143236  1
  Sr  Sr4  1  0.391760  0.788416  0.910166  1
  Sr  Sr5  1  0.608240  0.211584  0.089834  1
  Sr  Sr6  1  0.151798  0.399283  0.655988  1
  Sr  Sr7  1  0.883979  0.851231  0.753476  1
  Sr  Sr8  1  0.116021  0.148769  0.246524  1
  Sr  Sr9  1  0.737774  0.014332  0.444473  1
  Hf  Hf10  1  0.587502  0.352420  0.475990  1
  Hf  Hf11  1  0.412498  0.647580  0.524010  1
  Re  Re12  1  0.125799  0.219445  0.918497  1
  Re  Re13  1  0.874201  0.780555  0.081503  1
  N  N14  1  0.528747  0.549419  0.676885  1
  N  N15  1  0.471253  0.450581  0.323115  1
  N  N16  1  0.128980  0.723387  0.570530  1
  N  N17  1  0.871020  0.276613  0.429470  1
  N  N18  1  0.407160  0.178202  0.469823  1
  N  N19  1  0.592840  0.821798  0.530177  1
  N  N20  1  0.960626  0.149132  0.728279  1
  N  N21  1  0.039374  0.850868  0.271721  1
  N  N22  1  0.232652  0.058948  0.964139  1
  N  N23  1  0.767348  0.941052  0.035861  1
  N  N24  1  0.353282  0.331136  0.914338  1
  N  N25  1  0.970161  0.343718  0.067554  1
  N  N26  1  0.029839  0.656282  0.932446  1
  N  N27  1  0.646718  0.668864  0.085662  1
