# generated using pymatgen
data_NaAcPt4
_symmetry_space_group_name_H-M   'P 1'
_cell_length_a   5.53008380
_cell_length_b   5.53008352
_cell_length_c   5.53008400
_cell_angle_alpha   59.99999713
_cell_angle_beta   59.99999881
_cell_angle_gamma   59.99999407
_symmetry_Int_Tables_number   1
_chemical_formula_structural   NaAcPt4
_chemical_formula_sum   'Na1 Ac1 Pt4'
_cell_volume   119.58593420
_cell_formula_units_Z   1
loop_
 _symmetry_equiv_pos_site_id
 _symmetry_equiv_pos_as_xyz
  1  'x, y, z'
loop_
 _atom_site_type_symbol
 _atom_site_label
 _atom_site_symmetry_multiplicity
 _atom_site_fract_x
 _atom_site_fract_y
 _atom_site_fract_z
 _atom_site_occupancy
  Na  Na0  1  0.250000  0.250000  0.250000  1
  Ac  Ac1  1  0.000000  0.000000  0.000000  1
  Pt  Pt2  1  0.624400  0.624400  0.126802  1
  Pt  Pt3  1  0.624400  0.126802  0.624400  1
  Pt  Pt4  1  0.126802  0.624400  0.624400  1
  Pt  Pt5  1  0.624400  0.624400  0.624400  1
