# generated using pymatgen
data_Pu4CoTc2B16Ir
_symmetry_space_group_name_H-M   'P 1'
_cell_length_a   3.52393500
_cell_length_b   5.97417899
_cell_length_c   11.57232301
_cell_angle_alpha   90.03012884
_cell_angle_beta   90.00000000
_cell_angle_gamma   90.00000000
_symmetry_Int_Tables_number   1
_chemical_formula_structural   Pu4CoTc2B16Ir
_chemical_formula_sum   'Pu4 Co1 Tc2 B16 Ir1'
_cell_volume   243.62766710
_cell_formula_units_Z   1
loop_
 _symmetry_equiv_pos_site_id
 _symmetry_equiv_pos_as_xyz
  1  'x, y, z'
loop_
 _atom_site_type_symbol
 _atom_site_label
 _atom_site_symmetry_multiplicity
 _atom_site_fract_x
 _atom_site_fract_y
 _atom_site_fract_z
 _atom_site_occupancy
  Pu  Pu0  1  0.000000  0.627165  0.347357  1
  Pu  Pu1  1  0.000000  0.373124  0.649270  1
  Pu  Pu2  1  0.000000  0.125280  0.149295  1
  Pu  Pu3  1  0.000000  0.871648  0.851947  1
  Co  Co4  1  0.000000  0.639695  0.093164  1
  Tc  Tc5  1  0.000000  0.136154  0.408837  1
  Tc  Tc6  1  0.000000  0.863608  0.590796  1
  B  B7  1  0.500000  0.783099  0.184167  1
  B  B8  1  0.500000  0.213269  0.814002  1
  B  B9  1  0.500000  0.287848  0.311690  1
  B  B10  1  0.500000  0.712379  0.687407  1
  B  B11  1  0.500000  0.860320  0.033556  1
  B  B12  1  0.500000  0.134790  0.969511  1
  B  B13  1  0.500000  0.365339  0.467487  1
  B  B14  1  0.500000  0.634550  0.531195  1
  B  B15  1  0.500000  0.885384  0.452707  1
  B  B16  1  0.500000  0.114163  0.546298  1
  B  B17  1  0.500000  0.387360  0.047998  1
  B  B18  1  0.500000  0.614318  0.954054  1
  B  B19  1  0.500000  0.972089  0.306755  1
  B  B20  1  0.500000  0.027093  0.692437  1
  B  B21  1  0.500000  0.479817  0.190403  1
  B  B22  1  0.500000  0.524736  0.808099  1
  Ir  Ir23  1  0.000000  0.366771  0.911567  1
