# generated using pymatgen
data_La2InAgPd
_symmetry_space_group_name_H-M   'P 1'
_cell_length_a   3.94047000
_cell_length_b   8.20447191
_cell_length_c   8.20447191
_cell_angle_alpha   89.09669125
_cell_angle_beta   90.00000000
_cell_angle_gamma   90.00000000
_symmetry_Int_Tables_number   1
_chemical_formula_structural   La2InAgPd
_chemical_formula_sum   'La4 In2 Ag2 Pd2'
_cell_volume   265.21330914
_cell_formula_units_Z   2
loop_
 _symmetry_equiv_pos_site_id
 _symmetry_equiv_pos_as_xyz
  1  'x, y, z'
loop_
 _atom_site_type_symbol
 _atom_site_label
 _atom_site_symmetry_multiplicity
 _atom_site_fract_x
 _atom_site_fract_y
 _atom_site_fract_z
 _atom_site_occupancy
  La  La0  1  0.500000  0.166603  0.666603  1
  La  La1  1  0.500000  0.833397  0.333397  1
  La  La2  1  0.500000  0.313179  0.186821  1
  La  La3  1  0.500000  0.686821  0.813179  1
  In  In4  1  0.000000  0.500000  0.500000  1
  In  In5  1  0.000000  0.000000  0.000000  1
  Ag  Ag6  1  0.000000  0.623640  0.123640  1
  Ag  Ag7  1  0.000000  0.376360  0.876360  1
  Pd  Pd8  1  0.000000  0.874801  0.625199  1
  Pd  Pd9  1  0.000000  0.125199  0.374801  1
