# generated using pymatgen
data_Zr12Al8Zn2CoTcC4
_symmetry_space_group_name_H-M   'P 1'
_cell_length_a   8.65401096
_cell_length_b   8.66346562
_cell_length_c   8.66347200
_cell_angle_alpha   60.07835738
_cell_angle_beta   60.03521005
_cell_angle_gamma   60.03517057
_symmetry_Int_Tables_number   1
_chemical_formula_structural   Zr12Al8Zn2CoTcC4
_chemical_formula_sum   'Zr12 Al8 Zn2 Co1 Tc1 C4'
_cell_volume   459.80497849
_cell_formula_units_Z   1
loop_
 _symmetry_equiv_pos_site_id
 _symmetry_equiv_pos_as_xyz
  1  'x, y, z'
loop_
 _atom_site_type_symbol
 _atom_site_label
 _atom_site_symmetry_multiplicity
 _atom_site_fract_x
 _atom_site_fract_y
 _atom_site_fract_z
 _atom_site_occupancy
  Zr  Zr0  1  0.558051  0.941530  0.555628  1
  Zr  Zr1  1  0.307975  0.692782  0.692782  1
  Zr  Zr2  1  0.693735  0.307878  0.307878  1
  Zr  Zr3  1  0.305896  0.696988  0.307623  1
  Zr  Zr4  1  0.691949  0.694372  0.308470  1
  Zr  Zr5  1  0.305896  0.307623  0.696988  1
  Zr  Zr6  1  0.558051  0.555628  0.941530  1
  Zr  Zr7  1  0.942025  0.557218  0.557218  1
  Zr  Zr8  1  0.556265  0.942122  0.942122  1
  Zr  Zr9  1  0.944104  0.942377  0.553012  1
  Zr  Zr10  1  0.691949  0.308470  0.694372  1
  Zr  Zr11  1  0.944104  0.553012  0.942377  1
  Al  Al12  1  0.903515  0.927688  0.927688  1
  Al  Al13  1  0.009278  0.326498  0.326498  1
  Al  Al14  1  0.340766  0.009172  0.318340  1
  Al  Al15  1  0.340766  0.318340  0.009171  1
  Al  Al16  1  0.909234  0.240828  0.931660  1
  Al  Al17  1  0.909234  0.931660  0.240829  1
  Al  Al18  1  0.240723  0.923502  0.923502  1
  Al  Al19  1  0.346485  0.322312  0.322312  1
  Zn  Zn20  1  0.125000  0.625000  0.125000  1
  Zn  Zn21  1  0.125000  0.125000  0.625000  1
  Co  Co22  1  0.625000  0.125000  0.125000  1
  Tc  Tc23  1  0.125000  0.125000  0.125000  1
  C  C24  1  0.625000  0.625000  0.625000  1
  C  C25  1  0.125000  0.625000  0.625000  1
  C  C26  1  0.625000  0.125000  0.625000  1
  C  C27  1  0.625000  0.625000  0.125000  1
