# generated using pymatgen
data_Sm4Zn(Ga2Ni)5
_symmetry_space_group_name_H-M   'P 1'
_cell_length_a   8.40872951
_cell_length_b   8.40872927
_cell_length_c   8.40872949
_cell_angle_alpha   140.23039939
_cell_angle_beta   107.50004325
_cell_angle_gamma   86.02451453
_symmetry_Int_Tables_number   1
_chemical_formula_structural   Sm4Zn(Ga2Ni)5
_chemical_formula_sum   'Sm4 Zn1 Ga10 Ni5'
_cell_volume   349.74517562
_cell_formula_units_Z   1
loop_
 _symmetry_equiv_pos_site_id
 _symmetry_equiv_pos_as_xyz
  1  'x, y, z'
loop_
 _atom_site_type_symbol
 _atom_site_label
 _atom_site_symmetry_multiplicity
 _atom_site_fract_x
 _atom_site_fract_y
 _atom_site_fract_z
 _atom_site_occupancy
  Sm  Sm0  1  0.865471  0.643673  0.233311  1
  Sm  Sm1  1  0.134529  0.367840  0.778202  1
  Sm  Sm2  1  0.410362  0.132160  0.266689  1
  Sm  Sm3  1  0.589638  0.856327  0.721798  1
  Zn  Zn4  1  0.000000  0.750000  0.750000  1
  Ga  Ga5  1  0.500000  0.750000  0.250000  1
  Ga  Ga6  1  0.500000  0.250000  0.750000  1
  Ga  Ga7  1  0.222840  0.972840  0.750000  1
  Ga  Ga8  1  0.777160  0.527160  0.750000  1
  Ga  Ga9  1  0.784449  0.034449  0.250000  1
  Ga  Ga10  1  0.215551  0.465551  0.250000  1
  Ga  Ga11  1  0.068756  0.910160  0.180727  1
  Ga  Ga12  1  0.931244  0.111971  0.841405  1
  Ga  Ga13  1  0.729434  0.388029  0.319273  1
  Ga  Ga14  1  0.270566  0.589840  0.658595  1
  Ni  Ni15  1  0.000000  0.250000  0.250000  1
  Ni  Ni16  1  0.265117  0.855995  0.400282  1
  Ni  Ni17  1  0.734883  0.135164  0.590878  1
  Ni  Ni18  1  0.455714  0.364836  0.099718  1
  Ni  Ni19  1  0.544286  0.644005  0.909122  1
