# generated using pymatgen
data_La5Pr(Sn2Hg3)2
_symmetry_space_group_name_H-M   'P 1'
_cell_length_a   6.57888958
_cell_length_b   6.57889052
_cell_length_c   10.92091400
_cell_angle_alpha   90.00000000
_cell_angle_beta   90.00000000
_cell_angle_gamma   101.89575765
_symmetry_Int_Tables_number   1
_chemical_formula_structural   La5Pr(Sn2Hg3)2
_chemical_formula_sum   'La5 Pr1 Sn4 Hg6'
_cell_volume   462.52566562
_cell_formula_units_Z   1
loop_
 _symmetry_equiv_pos_site_id
 _symmetry_equiv_pos_as_xyz
  1  'x, y, z'
loop_
 _atom_site_type_symbol
 _atom_site_label
 _atom_site_symmetry_multiplicity
 _atom_site_fract_x
 _atom_site_fract_y
 _atom_site_fract_z
 _atom_site_occupancy
  La  La0  1  0.635414  0.635414  0.250000  1
  La  La1  1  0.200045  0.799871  0.500118  1
  La  La2  1  0.200045  0.799871  0.999882  1
  La  La3  1  0.799871  0.200045  0.500118  1
  La  La4  1  0.799871  0.200045  0.999882  1
  Pr  Pr5  1  0.364489  0.364489  0.750000  1
  Sn  Sn6  1  0.317005  0.317005  0.046401  1
  Sn  Sn7  1  0.682880  0.682880  0.952814  1
  Sn  Sn8  1  0.317005  0.317005  0.453599  1
  Sn  Sn9  1  0.682880  0.682880  0.547186  1
  Hg  Hg10  1  0.020269  0.020269  0.250000  1
  Hg  Hg11  1  0.980206  0.980206  0.750000  1
  Hg  Hg12  1  0.504642  0.081286  0.250000  1
  Hg  Hg13  1  0.919160  0.494935  0.750000  1
  Hg  Hg14  1  0.494935  0.919160  0.750000  1
  Hg  Hg15  1  0.081286  0.504642  0.250000  1
